MODEL 1
REMARK VINA RESULT:      -8.9      0.000      0.000
REMARK SMILES C#CCN(CC(=O)OCCOCCOCCOC(=O)c1ccc(-c2c3nc(c(-c4c(F)cc(S(=O)(=O)[O-])cc4F)c4ccc([nH]4)c(-c4c(F)cc(S(=O)(=O)[O-])cc4F)c4nc(c(-c5c(F)cc(S(=O)(=O)[O-])cc5F)c5ccc2[nH]5)C=C4)C=C3)cc1)C(=O)N[C@@H]1CCOC1
REMARK SMILES IDX 12 1 11 2 10 3 9 4 8 5 6 6 7 7 5 8 4 9 3 10 2 11 1 12 86 13
REMARK SMILES IDX 87 14 88 15 89 17 90 18 93 19 91 20 92 21 13 22 14 23 15 24
REMARK SMILES IDX 16 25 17 26 18 27 19 28 20 29 21 30 85 31 22 32 84 33 23 34
REMARK SMILES IDX 24 35 25 36 78 37 26 38 83 39 77 40 79 41 27 42 82 43 76 44
REMARK SMILES IDX 75 45 28 47 62 48 41 49 61 50 42 51 45 52 60 53 80 54 43 55
REMARK SMILES IDX 44 56 59 58 81 59 46 60 29 61 30 62 39 63 31 64 32 65 38 66
REMARK SMILES IDX 40 67 33 68 34 69 35 70 36 71 37 72 63 73 64 74 73 75 65 76
REMARK SMILES IDX 66 77 72 78 74 79 67 80 68 81 69 82 70 83 71 84 47 85 48 86
REMARK SMILES IDX 57 87 49 88 50 89 56 90 58 91 51 92 52 93 53 94 54 95 55 96
REMARK H PARENT 88 16 79 46 45 57
REMARK Flexibility Score: inf
ROOT
ATOM      1  C   UNL A   1      33.456  30.016  27.249  1.00  0.00     0.188 C 
ENDROOT
BRANCH   1   2
ATOM      2  O   UNL A   1      33.297  28.666  26.839  1.00  0.00    -0.376 OA
BRANCH   2   3
ATOM      3  C   UNL A   1      32.487  28.407  25.698  1.00  0.00     0.202 C 
BRANCH   3   4
ATOM      4  C   UNL A   1      32.878  27.201  24.832  1.00  0.00     0.261 C 
BRANCH   4   5
ATOM      5  O   UNL A   1      32.676  27.434  23.415  1.00  0.00    -0.462 OA
BRANCH   5   6
ATOM      6  C   UNL A   1      33.036  26.401  22.611  1.00  0.00     0.325 C 
ATOM      7  O   UNL A   1      33.905  26.502  21.748  1.00  0.00    -0.250 OA
BRANCH   6   8
ATOM      8  C   UNL A   1      32.245  25.081  22.793  1.00  0.00     0.245 C 
BRANCH   8   9
ATOM      9  N   UNL A   1      32.792  23.706  22.801  1.00  0.00    -0.303 N 
BRANCH   9  10
ATOM     10  C   UNL A   1      34.082  23.525  22.137  1.00  0.00     0.211 C 
BRANCH  10  11
ATOM     11  C   UNL A   1      35.289  23.294  23.031  1.00  0.00    -0.085 C 
ATOM     12  C   UNL A   1      36.326  23.096  23.798  1.00  0.00     0.006 C 
ENDBRANCH  10  11
ENDBRANCH   9  10
BRANCH   9  13
ATOM     13  C   UNL A   1      32.291  22.595  23.422  1.00  0.00     0.319 C 
ATOM     14  O   UNL A   1      31.722  21.684  22.815  1.00  0.00    -0.249 OA
ATOM     15  N   UNL A   1      32.371  22.393  24.742  1.00  0.00    -0.333 N 
ATOM     16  H   UNL A   1      32.202  21.456  24.991  1.00  0.00     0.165 HD
BRANCH  15  17
ATOM     17  C   UNL A   1      32.647  23.230  25.887  1.00  0.00     0.112 C 
ATOM     18  C   UNL A   1      33.938  22.882  26.596  1.00  0.00     0.056 C 
ATOM     19  C   UNL A   1      31.576  23.089  26.962  1.00  0.00     0.185 C 
ATOM     20  C   UNL A   1      33.479  22.151  27.829  1.00  0.00     0.162 C 
ATOM     21  O   UNL A   1      32.252  22.788  28.180  1.00  0.00    -0.379 OA
ENDBRANCH  15  17
ENDBRANCH   9  13
ENDBRANCH   8   9
ENDBRANCH   6   8
ENDBRANCH   5   6
ENDBRANCH   4   5
ENDBRANCH   3   4
ENDBRANCH   2   3
ENDBRANCH   1   2
BRANCH   1  22
ATOM     22  C   UNL A   1      34.864  30.546  27.575  1.00  0.00     0.188 C 
BRANCH  22  23
ATOM     23  O   UNL A   1      35.092  31.946  27.553  1.00  0.00    -0.376 OA
BRANCH  23  24
ATOM     24  C   UNL A   1      34.454  32.718  28.553  1.00  0.00     0.202 C 
BRANCH  24  25
ATOM     25  C   UNL A   1      34.766  32.361  30.009  1.00  0.00     0.261 C 
BRANCH  25  26
ATOM     26  O   UNL A   1      36.168  32.339  30.338  1.00  0.00    -0.460 OA
BRANCH  26  27
ATOM     27  C   UNL A   1      36.573  31.277  31.090  1.00  0.00     0.338 C 
ATOM     28  O   UNL A   1      35.983  30.794  32.038  1.00  0.00    -0.246 OA
BRANCH  27  29
ATOM     29  C   UNL A   1      37.835  30.711  30.548  1.00  0.00     0.060 A 
ATOM     30  C   UNL A   1      38.781  30.195  31.443  1.00  0.00     0.016 A 
ATOM     31  C   UNL A   1      38.127  30.747  29.181  1.00  0.00     0.016 A 
ATOM     32  C   UNL A   1      40.009  29.710  30.971  1.00  0.00     0.010 A 
ATOM     33  C   UNL A   1      39.367  30.286  28.713  1.00  0.00     0.010 A 
ATOM     34  C   UNL A   1      40.321  29.767  29.602  1.00  0.00    -0.014 A 
BRANCH  34  35
ATOM     35  C   UNL A   1      41.669  29.346  29.119  1.00  0.00     0.031 A 
ATOM     36  C   UNL A   1      42.797  30.333  29.116  1.00  0.00     0.074 A 
ATOM     37  C   UNL A   1      41.894  28.090  28.688  1.00  0.00     0.049 A 
ATOM     38  N   UNL A   1      44.032  30.166  28.724  1.00  0.00    -0.248 NA
ATOM     39  C   UNL A   1      42.490  31.691  29.589  1.00  0.00     0.031 C 
ATOM     40  C   UNL A   1      40.875  27.059  28.605  1.00  0.00     0.029 A 
ATOM     41  N   UNL A   1      43.034  27.454  28.254  1.00  0.00    -0.354 N 
ATOM     42  C   UNL A   1      44.648  31.399  28.880  1.00  0.00     0.074 A 
ATOM     43  C   UNL A   1      43.653  32.304  29.417  1.00  0.00     0.031 C 
ATOM     44  C   UNL A   1      41.433  25.898  28.233  1.00  0.00     0.029 A 
ATOM     45  C   UNL A   1      42.843  26.122  27.942  1.00  0.00     0.049 A 
ATOM     46  H   UNL A   1      43.905  27.905  28.174  1.00  0.00     0.167 HD
ATOM     47  C   UNL A   1      45.920  31.750  28.574  1.00  0.00     0.037 A 
ATOM     48  C   UNL A   1      43.686  25.198  27.435  1.00  0.00     0.037 A 
ATOM     49  C   UNL A   1      46.892  30.854  28.000  1.00  0.00     0.049 A 
ATOM     50  C   UNL A   1      45.086  25.626  27.079  1.00  0.00     0.074 A 
ATOM     51  C   UNL A   1      48.205  31.125  27.653  1.00  0.00     0.029 A 
ATOM     52  N   UNL A   1      46.657  29.528  27.665  1.00  0.00    -0.354 N 
ATOM     53  N   UNL A   1      45.661  26.792  27.262  1.00  0.00    -0.248 NA
ATOM     54  C   UNL A   1      45.940  24.636  26.407  1.00  0.00     0.031 C 
ATOM     55  C   UNL A   1      48.743  29.982  27.053  1.00  0.00     0.029 A 
ATOM     56  C   UNL A   1      47.789  28.978  27.083  1.00  0.00     0.049 A 
ATOM     57  H   UNL A   1      45.812  29.049  27.819  1.00  0.00     0.167 HD
ATOM     58  C   UNL A   1      46.935  26.678  26.718  1.00  0.00     0.074 A 
ATOM     59  C   UNL A   1      47.064  25.318  26.239  1.00  0.00     0.031 C 
ATOM     60  C   UNL A   1      47.901  27.622  26.604  1.00  0.00     0.037 A 
BRANCH  47  61
ATOM     61  C   UNL A   1      46.312  33.182  28.793  1.00  0.00     0.058 A 
ATOM     62  C   UNL A   1      46.124  34.161  27.805  1.00  0.00     0.135 A 
ATOM     63  C   UNL A   1      46.859  33.584  30.022  1.00  0.00     0.135 A 
ATOM     64  F   UNL A   1      45.627  33.824  26.604  1.00  0.00    -0.206 F 
ATOM     65  C   UNL A   1      46.482  35.487  28.023  1.00  0.00     0.059 A 
ATOM     66  C   UNL A   1      47.199  34.909  30.271  1.00  0.00     0.059 A 
ATOM     67  F   UNL A   1      47.068  32.685  30.996  1.00  0.00    -0.206 F 
ATOM     68  C   UNL A   1      47.016  35.852  29.260  1.00  0.00     0.060 A 
BRANCH  68  69
ATOM     69  S   UNL A   1      47.460  37.581  29.532  1.00  0.00     0.124 S 
ATOM     70  O   UNL A   1      48.712  37.448  30.269  1.00  0.00    -0.237 OA
ATOM     71  O   UNL A   1      47.577  38.088  28.169  1.00  0.00    -0.237 OA
ATOM     72  O   UNL A   1      46.334  38.106  30.299  1.00  0.00    -0.744 OA
ENDBRANCH  68  69
ENDBRANCH  47  61
BRANCH  48  73
ATOM     73  C   UNL A   1      43.223  23.805  27.152  1.00  0.00     0.058 A 
ATOM     74  C   UNL A   1      43.179  22.828  28.160  1.00  0.00     0.135 A 
ATOM     75  C   UNL A   1      42.848  23.410  25.858  1.00  0.00     0.135 A 
ATOM     76  F   UNL A   1      43.547  23.138  29.413  1.00  0.00    -0.206 F 
ATOM     77  C   UNL A   1      42.797  21.514  27.894  1.00  0.00     0.059 A 
ATOM     78  C   UNL A   1      42.425  22.113  25.574  1.00  0.00     0.059 A 
ATOM     79  F   UNL A   1      42.875  24.294  24.848  1.00  0.00    -0.206 F 
ATOM     80  C   UNL A   1      42.418  21.167  26.596  1.00  0.00     0.060 A 
BRANCH  80  81
ATOM     81  S   UNL A   1      41.891  19.471  26.262  1.00  0.00     0.124 S 
ATOM     82  O   UNL A   1      42.648  19.160  25.055  1.00  0.00    -0.237 OA
ATOM     83  O   UNL A   1      42.311  18.774  27.474  1.00  0.00    -0.237 OA
ATOM     84  O   UNL A   1      40.447  19.595  26.088  1.00  0.00    -0.744 OA
ENDBRANCH  80  81
ENDBRANCH  48  73
BRANCH  60  85
ATOM     85  C   UNL A   1      49.188  27.218  25.939  1.00  0.00     0.058 A 
ATOM     86  C   UNL A   1      49.357  27.307  24.548  1.00  0.00     0.135 A 
ATOM     87  C   UNL A   1      50.286  26.796  26.706  1.00  0.00     0.135 A 
ATOM     88  F   UNL A   1      48.336  27.695  23.768  1.00  0.00    -0.206 F 
ATOM     89  C   UNL A   1      50.564  26.978  23.939  1.00  0.00     0.059 A 
ATOM     90  C   UNL A   1      51.511  26.490  26.122  1.00  0.00     0.059 A 
ATOM     91  F   UNL A   1      50.181  26.700  28.041  1.00  0.00    -0.206 F 
ATOM     92  C   UNL A   1      51.637  26.575  24.736  1.00  0.00     0.060 A 
BRANCH  92  93
ATOM     93  S   UNL A   1      53.212  26.197  23.937  1.00  0.00     0.124 S 
ATOM     94  O   UNL A   1      54.066  27.263  24.451  1.00  0.00    -0.237 OA
ATOM     95  O   UNL A   1      53.501  24.856  24.436  1.00  0.00    -0.237 OA
ATOM     96  O   UNL A   1      52.899  26.278  22.514  1.00  0.00    -0.744 OA
ENDBRANCH  92  93
ENDBRANCH  60  85
ENDBRANCH  34  35
ENDBRANCH  27  29
ENDBRANCH  26  27
ENDBRANCH  25  26
ENDBRANCH  24  25
ENDBRANCH  23  24
ENDBRANCH  22  23
ENDBRANCH   1  22
TORSDOF 25
ENDMDL
MODEL 2
REMARK VINA RESULT:      -8.9      1.051      2.093
REMARK SMILES C#CCN(CC(=O)OCCOCCOCCOC(=O)c1ccc(-c2c3nc(c(-c4c(F)cc(S(=O)(=O)[O-])cc4F)c4ccc([nH]4)c(-c4c(F)cc(S(=O)(=O)[O-])cc4F)c4nc(c(-c5c(F)cc(S(=O)(=O)[O-])cc5F)c5ccc2[nH]5)C=C4)C=C3)cc1)C(=O)N[C@@H]1CCOC1
REMARK SMILES IDX 12 1 11 2 10 3 9 4 8 5 6 6 7 7 5 8 4 9 3 10 2 11 1 12 86 13
REMARK SMILES IDX 87 14 88 15 89 17 90 18 93 19 91 20 92 21 13 22 14 23 15 24
REMARK SMILES IDX 16 25 17 26 18 27 19 28 20 29 21 30 85 31 22 32 84 33 23 34
REMARK SMILES IDX 24 35 25 36 78 37 26 38 83 39 77 40 79 41 27 42 82 43 76 44
REMARK SMILES IDX 75 45 28 47 62 48 41 49 61 50 42 51 45 52 60 53 80 54 43 55
REMARK SMILES IDX 44 56 59 58 81 59 46 60 29 61 30 62 39 63 31 64 32 65 38 66
REMARK SMILES IDX 40 67 33 68 34 69 35 70 36 71 37 72 63 73 64 74 73 75 65 76
REMARK SMILES IDX 66 77 72 78 74 79 67 80 68 81 69 82 70 83 71 84 47 85 48 86
REMARK SMILES IDX 57 87 49 88 50 89 56 90 58 91 51 92 52 93 53 94 54 95 55 96
REMARK H PARENT 88 16 79 46 45 57
REMARK Flexibility Score: inf
ROOT
ATOM      1  C   UNL A   1      32.911  30.952  27.236  1.00  0.00     0.188 C 
ENDROOT
BRANCH   1   2
ATOM      2  O   UNL A   1      32.289  29.785  26.721  1.00  0.00    -0.376 OA
BRANCH   2   3
ATOM      3  C   UNL A   1      31.743  29.845  25.408  1.00  0.00     0.202 C 
BRANCH   3   4
ATOM      4  C   UNL A   1      31.726  28.537  24.606  1.00  0.00     0.261 C 
BRANCH   4   5
ATOM      5  O   UNL A   1      31.562  27.363  25.443  1.00  0.00    -0.462 OA
BRANCH   5   6
ATOM      6  C   UNL A   1      30.822  26.369  24.889  1.00  0.00     0.325 C 
ATOM      7  O   UNL A   1      29.725  26.567  24.370  1.00  0.00    -0.250 OA
BRANCH   6   8
ATOM      8  C   UNL A   1      31.404  24.937  24.998  1.00  0.00     0.245 C 
BRANCH   8   9
ATOM      9  N   UNL A   1      32.518  24.364  24.212  1.00  0.00    -0.303 N 
BRANCH   9  10
ATOM     10  C   UNL A   1      33.324  25.318  23.452  1.00  0.00     0.211 C 
BRANCH  10  11
ATOM     11  C   UNL A   1      32.916  25.568  22.009  1.00  0.00    -0.085 C 
ATOM     12  C   UNL A   1      32.566  25.782  20.771  1.00  0.00     0.006 C 
ENDBRANCH  10  11
ENDBRANCH   9  10
BRANCH   9  13
ATOM     13  C   UNL A   1      32.948  23.066  24.167  1.00  0.00     0.319 C 
ATOM     14  O   UNL A   1      32.189  22.100  24.277  1.00  0.00    -0.249 OA
ATOM     15  N   UNL A   1      34.231  22.723  23.998  1.00  0.00    -0.333 N 
ATOM     16  H   UNL A   1      34.338  21.781  23.733  1.00  0.00     0.165 HD
BRANCH  15  17
ATOM     17  C   UNL A   1      35.494  23.415  24.113  1.00  0.00     0.112 C 
ATOM     18  C   UNL A   1      36.665  22.639  23.548  1.00  0.00     0.056 C 
ATOM     19  C   UNL A   1      35.872  23.661  25.569  1.00  0.00     0.185 C 
ATOM     20  C   UNL A   1      37.369  22.119  24.773  1.00  0.00     0.162 C 
ATOM     21  O   UNL A   1      37.190  23.147  25.745  1.00  0.00    -0.379 OA
ENDBRANCH  15  17
ENDBRANCH   9  13
ENDBRANCH   8   9
ENDBRANCH   6   8
ENDBRANCH   5   6
ENDBRANCH   4   5
ENDBRANCH   3   4
ENDBRANCH   2   3
ENDBRANCH   1   2
BRANCH   1  22
ATOM     22  C   UNL A   1      34.396  30.901  27.642  1.00  0.00     0.188 C 
BRANCH  22  23
ATOM     23  O   UNL A   1      35.117  32.117  27.759  1.00  0.00    -0.376 OA
BRANCH  23  24
ATOM     24  C   UNL A   1      34.705  33.014  28.773  1.00  0.00     0.202 C 
BRANCH  24  25
ATOM     25  C   UNL A   1      34.990  32.604  30.220  1.00  0.00     0.261 C 
BRANCH  25  26
ATOM     26  O   UNL A   1      36.372  32.316  30.505  1.00  0.00    -0.460 OA
BRANCH  26  27
ATOM     27  C   UNL A   1      36.612  31.084  31.036  1.00  0.00     0.338 C 
ATOM     28  O   UNL A   1      35.888  30.468  31.795  1.00  0.00    -0.246 OA
BRANCH  27  29
ATOM     29  C   UNL A   1      37.881  30.528  30.499  1.00  0.00     0.060 A 
ATOM     30  C   UNL A   1      38.889  30.158  31.400  1.00  0.00     0.016 A 
ATOM     31  C   UNL A   1      38.116  30.433  29.124  1.00  0.00     0.016 A 
ATOM     32  C   UNL A   1      40.122  29.689  30.925  1.00  0.00     0.010 A 
ATOM     33  C   UNL A   1      39.360  29.989  28.652  1.00  0.00     0.010 A 
ATOM     34  C   UNL A   1      40.376  29.615  29.545  1.00  0.00    -0.014 A 
BRANCH  34  35
ATOM     35  C   UNL A   1      41.725  29.215  29.048  1.00  0.00     0.031 A 
ATOM     36  C   UNL A   1      42.836  30.221  29.024  1.00  0.00     0.074 A 
ATOM     37  C   UNL A   1      41.967  27.960  28.623  1.00  0.00     0.049 A 
ATOM     38  N   UNL A   1      44.069  30.072  28.618  1.00  0.00    -0.248 NA
ATOM     39  C   UNL A   1      42.511  31.577  29.491  1.00  0.00     0.031 C 
ATOM     40  C   UNL A   1      40.965  26.910  28.561  1.00  0.00     0.029 A 
ATOM     41  N   UNL A   1      43.112  27.340  28.180  1.00  0.00    -0.354 N 
ATOM     42  C   UNL A   1      44.665  31.317  28.757  1.00  0.00     0.074 A 
ATOM     43  C   UNL A   1      43.661  32.208  29.300  1.00  0.00     0.031 C 
ATOM     44  C   UNL A   1      41.539  25.756  28.190  1.00  0.00     0.029 A 
ATOM     45  C   UNL A   1      42.941  26.003  27.880  1.00  0.00     0.049 A 
ATOM     46  H   UNL A   1      43.974  27.806  28.085  1.00  0.00     0.167 HD
ATOM     47  C   UNL A   1      45.926  31.688  28.433  1.00  0.00     0.037 A 
ATOM     48  C   UNL A   1      43.793  25.090  27.369  1.00  0.00     0.037 A 
ATOM     49  C   UNL A   1      46.907  30.805  27.853  1.00  0.00     0.049 A 
ATOM     50  C   UNL A   1      45.180  25.540  26.992  1.00  0.00     0.074 A 
ATOM     51  C   UNL A   1      48.210  31.096  27.486  1.00  0.00     0.029 A 
ATOM     52  N   UNL A   1      46.691  29.473  27.530  1.00  0.00    -0.354 N 
ATOM     53  N   UNL A   1      45.737  26.716  27.159  1.00  0.00    -0.248 NA
ATOM     54  C   UNL A   1      46.043  24.560  26.316  1.00  0.00     0.031 C 
ATOM     55  C   UNL A   1      48.761  29.958  26.888  1.00  0.00     0.029 A 
ATOM     56  C   UNL A   1      47.825  28.938  26.938  1.00  0.00     0.049 A 
ATOM     57  H   UNL A   1      45.856  28.980  27.698  1.00  0.00     0.167 HD
ATOM     58  C   UNL A   1      47.006  26.621  26.600  1.00  0.00     0.074 A 
ATOM     59  C   UNL A   1      47.153  25.259  26.129  1.00  0.00     0.031 C 
ATOM     60  C   UNL A   1      47.954  27.580  26.467  1.00  0.00     0.037 A 
BRANCH  47  61
ATOM     61  C   UNL A   1      46.296  33.128  28.636  1.00  0.00     0.058 A 
ATOM     62  C   UNL A   1      46.889  33.581  29.825  1.00  0.00     0.135 A 
ATOM     63  C   UNL A   1      46.075  34.064  27.613  1.00  0.00     0.135 A 
ATOM     64  F   UNL A   1      47.099  32.731  30.842  1.00  0.00    -0.206 F 
ATOM     65  C   UNL A   1      47.236  34.917  29.997  1.00  0.00     0.059 A 
ATOM     66  C   UNL A   1      46.438  35.399  27.754  1.00  0.00     0.059 A 
ATOM     67  F   UNL A   1      45.501  33.684  26.460  1.00  0.00    -0.206 F 
ATOM     68  C   UNL A   1      47.009  35.818  28.954  1.00  0.00     0.060 A 
BRANCH  68  69
ATOM     69  S   UNL A   1      47.481  37.544  29.190  1.00  0.00     0.124 S 
ATOM     70  O   UNL A   1      48.071  37.864  27.894  1.00  0.00    -0.237 OA
ATOM     71  O   UNL A   1      46.199  38.179  29.477  1.00  0.00    -0.237 OA
ATOM     72  O   UNL A   1      48.417  37.493  30.309  1.00  0.00    -0.744 OA
ENDBRANCH  68  69
ENDBRANCH  47  61
BRANCH  48  73
ATOM     73  C   UNL A   1      43.351  23.687  27.102  1.00  0.00     0.058 A 
ATOM     74  C   UNL A   1      43.091  23.235  25.798  1.00  0.00     0.135 A 
ATOM     75  C   UNL A   1      43.145  22.775  28.151  1.00  0.00     0.135 A 
ATOM     76  F   UNL A   1      43.249  24.067  24.756  1.00  0.00    -0.206 F 
ATOM     77  C   UNL A   1      42.630  21.944  25.545  1.00  0.00     0.059 A 
ATOM     78  C   UNL A   1      42.722  21.468  27.920  1.00  0.00     0.059 A 
ATOM     79  F   UNL A   1      43.368  23.146  29.421  1.00  0.00    -0.206 F 
ATOM     80  C   UNL A   1      42.452  21.065  26.615  1.00  0.00     0.060 A 
BRANCH  80  81
ATOM     81  S   UNL A   1      41.887  19.383  26.279  1.00  0.00     0.124 S 
ATOM     82  O   UNL A   1      40.442  19.568  26.198  1.00  0.00    -0.237 OA
ATOM     83  O   UNL A   1      42.562  19.076  25.022  1.00  0.00    -0.237 OA
ATOM     84  O   UNL A   1      42.363  18.631  27.437  1.00  0.00    -0.744 OA
ENDBRANCH  80  81
ENDBRANCH  48  73
BRANCH  60  85
ATOM     85  C   UNL A   1      49.240  27.194  25.789  1.00  0.00     0.058 A 
ATOM     86  C   UNL A   1      49.397  27.298  24.398  1.00  0.00     0.135 A 
ATOM     87  C   UNL A   1      50.347  26.773  26.544  1.00  0.00     0.135 A 
ATOM     88  F   UNL A   1      48.368  27.686  23.629  1.00  0.00    -0.206 F 
ATOM     89  C   UNL A   1      50.603  26.986  23.777  1.00  0.00     0.059 A 
ATOM     90  C   UNL A   1      51.570  26.483  25.948  1.00  0.00     0.059 A 
ATOM     91  F   UNL A   1      50.252  26.663  27.879  1.00  0.00    -0.206 F 
ATOM     92  C   UNL A   1      51.685  26.584  24.562  1.00  0.00     0.060 A 
BRANCH  92  93
ATOM     93  S   UNL A   1      53.257  26.227  23.748  1.00  0.00     0.124 S 
ATOM     94  O   UNL A   1      53.606  24.937  24.334  1.00  0.00    -0.237 OA
ATOM     95  O   UNL A   1      52.880  26.202  22.338  1.00  0.00    -0.237 OA
ATOM     96  O   UNL A   1      54.107  27.345  24.145  1.00  0.00    -0.744 OA
ENDBRANCH  92  93
ENDBRANCH  60  85
ENDBRANCH  34  35
ENDBRANCH  27  29
ENDBRANCH  26  27
ENDBRANCH  25  26
ENDBRANCH  24  25
ENDBRANCH  23  24
ENDBRANCH  22  23
ENDBRANCH   1  22
TORSDOF 25
ENDMDL
MODEL 3
REMARK VINA RESULT:      -8.8      1.144      2.323
REMARK SMILES C#CCN(CC(=O)OCCOCCOCCOC(=O)c1ccc(-c2c3nc(c(-c4c(F)cc(S(=O)(=O)[O-])cc4F)c4ccc([nH]4)c(-c4c(F)cc(S(=O)(=O)[O-])cc4F)c4nc(c(-c5c(F)cc(S(=O)(=O)[O-])cc5F)c5ccc2[nH]5)C=C4)C=C3)cc1)C(=O)N[C@@H]1CCOC1
REMARK SMILES IDX 12 1 11 2 10 3 9 4 8 5 6 6 7 7 5 8 4 9 3 10 2 11 1 12 86 13
REMARK SMILES IDX 87 14 88 15 89 17 90 18 93 19 91 20 92 21 13 22 14 23 15 24
REMARK SMILES IDX 16 25 17 26 18 27 19 28 20 29 21 30 85 31 22 32 84 33 23 34
REMARK SMILES IDX 24 35 25 36 78 37 26 38 83 39 77 40 79 41 27 42 82 43 76 44
REMARK SMILES IDX 75 45 28 47 62 48 41 49 61 50 42 51 45 52 60 53 80 54 43 55
REMARK SMILES IDX 44 56 59 58 81 59 46 60 29 61 30 62 39 63 31 64 32 65 38 66
REMARK SMILES IDX 40 67 33 68 34 69 35 70 36 71 37 72 63 73 64 74 73 75 65 76
REMARK SMILES IDX 66 77 72 78 74 79 67 80 68 81 69 82 70 83 71 84 47 85 48 86
REMARK SMILES IDX 57 87 49 88 50 89 56 90 58 91 51 92 52 93 53 94 54 95 55 96
REMARK H PARENT 88 16 79 46 45 57
REMARK Flexibility Score: inf
ROOT
ATOM      1  C   UNL A   1      34.113  30.212  27.490  1.00  0.00     0.188 C 
ENDROOT
BRANCH   1   2
ATOM      2  O   UNL A   1      34.146  28.797  27.378  1.00  0.00    -0.376 OA
BRANCH   2   3
ATOM      3  C   UNL A   1      33.874  28.223  26.104  1.00  0.00     0.202 C 
BRANCH   3   4
ATOM      4  C   UNL A   1      33.593  26.714  26.072  1.00  0.00     0.261 C 
BRANCH   4   5
ATOM      5  O   UNL A   1      34.327  26.026  25.027  1.00  0.00    -0.462 OA
BRANCH   5   6
ATOM      6  C   UNL A   1      34.664  24.744  25.319  1.00  0.00     0.325 C 
ATOM      7  O   UNL A   1      35.822  24.395  25.543  1.00  0.00    -0.250 OA
BRANCH   6   8
ATOM      8  C   UNL A   1      33.512  23.708  25.296  1.00  0.00     0.245 C 
BRANCH   8   9
ATOM      9  N   UNL A   1      32.461  23.564  24.264  1.00  0.00    -0.303 N 
BRANCH   9  10
ATOM     10  C   UNL A   1      31.391  22.614  24.567  1.00  0.00     0.211 C 
BRANCH  10  11
ATOM     11  C   UNL A   1      30.645  22.812  25.876  1.00  0.00    -0.085 C 
ATOM     12  C   UNL A   1      30.004  22.981  26.999  1.00  0.00     0.006 C 
ENDBRANCH  10  11
ENDBRANCH   9  10
BRANCH   9  13
ATOM     13  C   UNL A   1      32.311  24.264  23.099  1.00  0.00     0.319 C 
ATOM     14  O   UNL A   1      32.829  23.918  22.034  1.00  0.00    -0.249 OA
ATOM     15  N   UNL A   1      31.589  25.387  23.005  1.00  0.00    -0.333 N 
ATOM     16  H   UNL A   1      31.372  25.618  22.073  1.00  0.00     0.165 HD
BRANCH  15  17
ATOM     17  C   UNL A   1      31.055  26.337  23.953  1.00  0.00     0.112 C 
ATOM     18  C   UNL A   1      29.617  26.067  24.340  1.00  0.00     0.056 C 
ATOM     19  C   UNL A   1      31.033  27.751  23.383  1.00  0.00     0.185 C 
ATOM     20  C   UNL A   1      28.842  27.104  23.571  1.00  0.00     0.162 C 
ATOM     21  O   UNL A   1      29.704  28.240  23.546  1.00  0.00    -0.379 OA
ENDBRANCH  15  17
ENDBRANCH   9  13
ENDBRANCH   8   9
ENDBRANCH   6   8
ENDBRANCH   5   6
ENDBRANCH   4   5
ENDBRANCH   3   4
ENDBRANCH   2   3
ENDBRANCH   1   2
BRANCH   1  22
ATOM     22  C   UNL A   1      35.434  30.990  27.634  1.00  0.00     0.188 C 
BRANCH  22  23
ATOM     23  O   UNL A   1      35.384  32.389  27.866  1.00  0.00    -0.376 OA
BRANCH  23  24
ATOM     24  C   UNL A   1      34.685  32.827  29.016  1.00  0.00     0.202 C 
BRANCH  24  25
ATOM     25  C   UNL A   1      35.026  32.136  30.338  1.00  0.00     0.261 C 
BRANCH  25  26
ATOM     26  O   UNL A   1      36.364  32.370  30.815  1.00  0.00    -0.460 OA
BRANCH  26  27
ATOM     27  C   UNL A   1      36.887  31.379  31.591  1.00  0.00     0.338 C 
ATOM     28  O   UNL A   1      36.415  30.944  32.625  1.00  0.00    -0.246 OA
BRANCH  27  29
ATOM     29  C   UNL A   1      38.114  30.823  30.964  1.00  0.00     0.060 A 
ATOM     30  C   UNL A   1      39.023  30.123  31.767  1.00  0.00     0.016 A 
ATOM     31  C   UNL A   1      38.410  31.042  29.615  1.00  0.00     0.016 A 
ATOM     32  C   UNL A   1      40.220  29.638  31.220  1.00  0.00     0.010 A 
ATOM     33  C   UNL A   1      39.621  30.580  29.077  1.00  0.00     0.010 A 
ATOM     34  C   UNL A   1      40.539  29.877  29.873  1.00  0.00    -0.014 A 
BRANCH  34  35
ATOM     35  C   UNL A   1      41.860  29.450  29.324  1.00  0.00     0.031 A 
ATOM     36  C   UNL A   1      42.998  30.425  29.289  1.00  0.00     0.074 A 
ATOM     37  C   UNL A   1      42.051  28.199  28.863  1.00  0.00     0.049 A 
ATOM     38  N   UNL A   1      44.213  30.251  28.841  1.00  0.00    -0.248 NA
ATOM     39  C   UNL A   1      42.727  31.778  29.799  1.00  0.00     0.031 C 
ATOM     40  C   UNL A   1      41.017  27.181  28.807  1.00  0.00     0.029 A 
ATOM     41  N   UNL A   1      43.164  27.558  28.369  1.00  0.00    -0.354 N 
ATOM     42  C   UNL A   1      44.850  31.474  28.991  1.00  0.00     0.074 A 
ATOM     43  C   UNL A   1      43.889  32.380  29.587  1.00  0.00     0.031 C 
ATOM     44  C   UNL A   1      41.545  26.021  28.391  1.00  0.00     0.029 A 
ATOM     45  C   UNL A   1      42.944  26.235  28.043  1.00  0.00     0.049 A 
ATOM     46  H   UNL A   1      44.036  28.001  28.258  1.00  0.00     0.167 HD
ATOM     47  C   UNL A   1      46.111  31.816  28.636  1.00  0.00     0.037 A 
ATOM     48  C   UNL A   1      43.753  25.311  27.484  1.00  0.00     0.037 A 
ATOM     49  C   UNL A   1      47.047  30.920  28.005  1.00  0.00     0.049 A 
ATOM     50  C   UNL A   1      45.141  25.730  27.074  1.00  0.00     0.074 A 
ATOM     51  C   UNL A   1      48.346  31.183  27.605  1.00  0.00     0.029 A 
ATOM     52  N   UNL A   1      46.782  29.603  27.658  1.00  0.00    -0.354 N 
ATOM     53  N   UNL A   1      45.737  26.885  27.252  1.00  0.00    -0.248 NA
ATOM     54  C   UNL A   1      45.953  24.742  26.349  1.00  0.00     0.031 C 
ATOM     55  C   UNL A   1      48.845  30.044  26.963  1.00  0.00     0.029 A 
ATOM     56  C   UNL A   1      47.881  29.051  27.018  1.00  0.00     0.049 A 
ATOM     57  H   UNL A   1      45.938  29.130  27.840  1.00  0.00     0.167 HD
ATOM     58  C   UNL A   1      46.985  26.767  26.651  1.00  0.00     0.074 A 
ATOM     59  C   UNL A   1      47.077  25.414  26.144  1.00  0.00     0.031 C 
ATOM     60  C   UNL A   1      47.956  27.702  26.511  1.00  0.00     0.037 A 
BRANCH  47  61
ATOM     61  C   UNL A   1      46.528  33.240  28.862  1.00  0.00     0.058 A 
ATOM     62  C   UNL A   1      47.280  33.624  29.984  1.00  0.00     0.135 A 
ATOM     63  C   UNL A   1      46.192  34.231  27.926  1.00  0.00     0.135 A 
ATOM     64  F   UNL A   1      47.608  32.719  30.920  1.00  0.00    -0.206 F 
ATOM     65  C   UNL A   1      47.670  34.945  30.176  1.00  0.00     0.059 A 
ATOM     66  C   UNL A   1      46.593  35.553  28.085  1.00  0.00     0.059 A 
ATOM     67  F   UNL A   1      45.465  33.918  26.841  1.00  0.00    -0.206 F 
ATOM     68  C   UNL A   1      47.324  35.902  29.220  1.00  0.00     0.060 A 
BRANCH  68  69
ATOM     69  S   UNL A   1      47.852  37.608  29.478  1.00  0.00     0.124 S 
ATOM     70  O   UNL A   1      46.663  38.347  29.065  1.00  0.00    -0.237 OA
ATOM     71  O   UNL A   1      48.146  37.629  30.907  1.00  0.00    -0.237 OA
ATOM     72  O   UNL A   1      49.010  37.744  28.600  1.00  0.00    -0.744 OA
ENDBRANCH  68  69
ENDBRANCH  47  61
BRANCH  48  73
ATOM     73  C   UNL A   1      43.262  23.928  27.198  1.00  0.00     0.058 A 
ATOM     74  C   UNL A   1      43.308  22.917  28.171  1.00  0.00     0.135 A 
ATOM     75  C   UNL A   1      42.767  23.577  25.930  1.00  0.00     0.135 A 
ATOM     76  F   UNL A   1      43.791  23.184  29.395  1.00  0.00    -0.206 F 
ATOM     77  C   UNL A   1      42.899  21.612  27.897  1.00  0.00     0.059 A 
ATOM     78  C   UNL A   1      42.316  22.291  25.644  1.00  0.00     0.059 A 
ATOM     79  F   UNL A   1      42.704  24.495  24.954  1.00  0.00    -0.206 F 
ATOM     80  C   UNL A   1      42.401  21.310  26.629  1.00  0.00     0.060 A 
BRANCH  80  81
ATOM     81  S   UNL A   1      41.841  19.627  26.288  1.00  0.00     0.124 S 
ATOM     82  O   UNL A   1      42.263  18.926  27.495  1.00  0.00    -0.237 OA
ATOM     83  O   UNL A   1      40.402  19.807  26.126  1.00  0.00    -0.237 OA
ATOM     84  O   UNL A   1      42.562  19.273  25.068  1.00  0.00    -0.744 OA
ENDBRANCH  80  81
ENDBRANCH  48  73
BRANCH  60  85
ATOM     85  C   UNL A   1      49.208  27.296  25.784  1.00  0.00     0.058 A 
ATOM     86  C   UNL A   1      49.324  27.423  24.391  1.00  0.00     0.135 A 
ATOM     87  C   UNL A   1      50.327  26.832  26.494  1.00  0.00     0.135 A 
ATOM     88  F   UNL A   1      48.281  27.853  23.663  1.00  0.00    -0.206 F 
ATOM     89  C   UNL A   1      50.500  27.092  23.725  1.00  0.00     0.059 A 
ATOM     90  C   UNL A   1      51.523  26.522  25.853  1.00  0.00     0.059 A 
ATOM     91  F   UNL A   1      50.273  26.697  27.829  1.00  0.00    -0.206 F 
ATOM     92  C   UNL A   1      51.596  26.647  24.467  1.00  0.00     0.060 A 
BRANCH  92  93
ATOM     93  S   UNL A   1      53.130  26.265  23.595  1.00  0.00     0.124 S 
ATOM     94  O   UNL A   1      53.890  27.497  23.784  1.00  0.00    -0.237 OA
ATOM     95  O   UNL A   1      53.621  25.099  24.322  1.00  0.00    -0.237 OA
ATOM     96  O   UNL A   1      52.690  26.006  22.227  1.00  0.00    -0.744 OA
ENDBRANCH  92  93
ENDBRANCH  60  85
ENDBRANCH  34  35
ENDBRANCH  27  29
ENDBRANCH  26  27
ENDBRANCH  25  26
ENDBRANCH  24  25
ENDBRANCH  23  24
ENDBRANCH  22  23
ENDBRANCH   1  22
TORSDOF 25
ENDMDL
