MODEL 1
REMARK VINA RESULT:     -11.0      0.000      0.000
REMARK SMILES CC1(C)S[C@H](c2ccc(-c3cccc([N+](=O)[O-])c3)o2)[NH2+][C@@H]1C(=O)OCCOCCOCCOC(=O)c1ccc(-c2c3nc(c(-c4c(F)cc(S(=O)(=O)[O-])cc4F)c4ccc([nH]4)c(-c4c(F)cc(S(=O)(=O)[O-])cc4F)c4nc(c(-c5c(F)cc(S(=O)(=O)[O-])cc5F)c5ccc2[nH]5)C=C4)C=C3)cc1
REMARK SMILES IDX 28 1 27 2 26 3 25 4 24 5 22 6 23 7 21 8 1 9 2 10 3 11 4 12
REMARK SMILES IDX 5 13 20 14 6 17 7 18 19 19 8 20 9 21 10 22 11 23 18 24 12 25
REMARK SMILES IDX 14 26 13 27 15 28 16 29 17 30 29 31 30 32 31 33 32 34 33 35
REMARK SMILES IDX 34 36 35 37 36 38 37 39 101 40 38 41 100 42 39 43 40 44
REMARK SMILES IDX 41 45 94 46 42 47 99 48 93 49 95 50 43 51 98 52 92 53 91 54
REMARK SMILES IDX 44 56 78 57 57 58 77 59 58 60 61 61 76 62 96 63 59 64 60 65
REMARK SMILES IDX 75 67 97 68 62 69 45 70 46 71 55 72 47 73 48 74 54 75 56 76
REMARK SMILES IDX 49 77 50 78 51 79 52 80 53 81 79 82 80 83 89 84 81 85 82 86
REMARK SMILES IDX 88 87 90 88 83 89 84 90 85 91 86 92 87 93 63 94 64 95 73 96
REMARK SMILES IDX 65 97 66 98 72 99 74 100 67 101 68 102 69 103 70 104 71 105
REMARK H PARENT 20 15 20 16 95 55 61 66
REMARK Flexibility Score: inf
ROOT
ATOM      1  C   UNL A   1      39.152  19.749  25.521  1.00  0.00     0.188 C 
ENDROOT
BRANCH   1   2
ATOM      2  O   UNL A   1      37.903  20.158  24.996  1.00  0.00    -0.376 OA
BRANCH   2   3
ATOM      3  C   UNL A   1      37.558  21.515  25.206  1.00  0.00     0.202 C 
BRANCH   3   4
ATOM      4  C   UNL A   1      36.077  21.900  25.228  1.00  0.00     0.261 C 
BRANCH   4   5
ATOM      5  O   UNL A   1      35.594  22.682  24.143  1.00  0.00    -0.459 OA
BRANCH   5   6
ATOM      6  C   UNL A   1      34.787  23.733  24.456  1.00  0.00     0.366 C 
ATOM      7  O   UNL A   1      34.547  24.099  25.596  1.00  0.00    -0.245 OA
BRANCH   6   8
ATOM      8  C   UNL A   1      34.290  24.369  23.140  1.00  0.00     0.310 C 
ATOM      9  C   UNL A   1      33.270  26.370  21.957  1.00  0.00     0.030 C 
ATOM     10  C   UNL A   1      33.323  25.556  23.272  1.00  0.00     0.079 C 
ATOM     11  C   UNL A   1      33.685  26.542  24.390  1.00  0.00     0.030 C 
ATOM     12  S   UNL A   1      31.723  24.695  23.503  1.00  0.00    -0.078 SA
ATOM     13  C   UNL A   1      32.330  23.063  22.882  1.00  0.00     0.311 C 
ATOM     14  N   UNL A   1      33.651  23.319  22.292  1.00  0.00    -0.316 N 
ATOM     15  H   UNL A   1      33.551  23.651  21.334  1.00  0.00     0.348 HD
ATOM     16  H   UNL A   1      34.216  22.470  22.264  1.00  0.00     0.348 HD
BRANCH  13  17
ATOM     17  C   UNL A   1      32.320  21.982  23.945  1.00  0.00     0.172 A 
ATOM     18  C   UNL A   1      31.793  21.950  25.224  1.00  0.00     0.054 A 
ATOM     19  O   UNL A   1      32.895  20.749  23.677  1.00  0.00    -0.454 OA
ATOM     20  C   UNL A   1      32.100  20.684  25.776  1.00  0.00     0.051 A 
ATOM     21  C   UNL A   1      32.783  19.982  24.810  1.00  0.00     0.134 A 
BRANCH  21  22
ATOM     22  C   UNL A   1      33.427  18.670  24.817  1.00  0.00     0.024 A 
ATOM     23  C   UNL A   1      34.818  18.572  24.642  1.00  0.00     0.012 A 
ATOM     24  C   UNL A   1      32.717  17.500  25.099  1.00  0.00     0.097 A 
ATOM     25  C   UNL A   1      35.473  17.339  24.576  1.00  0.00     0.008 A 
ATOM     26  C   UNL A   1      33.400  16.268  25.150  1.00  0.00     0.270 A 
ATOM     27  C   UNL A   1      34.762  16.175  24.834  1.00  0.00     0.085 A 
BRANCH  26  28
ATOM     28  N   UNL A   1      32.703  15.066  25.625  1.00  0.00     0.062 N 
ATOM     29  O   UNL A   1      33.239  13.967  25.420  1.00  0.00    -0.258 OA
ATOM     30  O   UNL A   1      31.638  15.222  26.241  1.00  0.00    -0.258 OA
ENDBRANCH  26  28
ENDBRANCH  21  22
ENDBRANCH  13  17
ENDBRANCH   6   8
ENDBRANCH   5   6
ENDBRANCH   4   5
ENDBRANCH   3   4
ENDBRANCH   2   3
ENDBRANCH   1   2
BRANCH   1  31
ATOM     31  C   UNL A   1      39.999  20.923  26.066  1.00  0.00     0.188 C 
BRANCH  31  32
ATOM     32  O   UNL A   1      41.398  20.957  25.832  1.00  0.00    -0.376 OA
BRANCH  32  33
ATOM     33  C   UNL A   1      42.226  21.747  26.672  1.00  0.00     0.202 C 
BRANCH  33  34
ATOM     34  C   UNL A   1      41.747  23.087  27.272  1.00  0.00     0.261 C 
BRANCH  34  35
ATOM     35  O   UNL A   1      41.432  24.145  26.351  1.00  0.00    -0.460 OA
BRANCH  35  36
ATOM     36  C   UNL A   1      40.246  24.780  26.546  1.00  0.00     0.338 C 
ATOM     37  O   UNL A   1      39.179  24.514  26.029  1.00  0.00    -0.246 OA
BRANCH  36  38
ATOM     38  C   UNL A   1      40.391  25.718  27.687  1.00  0.00     0.060 A 
ATOM     39  C   UNL A   1      39.459  25.654  28.737  1.00  0.00     0.016 A 
ATOM     40  C   UNL A   1      41.447  26.627  27.741  1.00  0.00     0.016 A 
ATOM     41  C   UNL A   1      39.575  26.503  29.838  1.00  0.00     0.010 A 
ATOM     42  C   UNL A   1      41.537  27.509  28.822  1.00  0.00     0.010 A 
ATOM     43  C   UNL A   1      40.588  27.469  29.861  1.00  0.00    -0.014 A 
BRANCH  43  44
ATOM     44  C   UNL A   1      40.515  28.591  30.829  1.00  0.00     0.031 A 
ATOM     45  C   UNL A   1      41.434  28.545  32.020  1.00  0.00     0.074 A 
ATOM     46  C   UNL A   1      39.657  29.616  30.672  1.00  0.00     0.049 A 
ATOM     47  N   UNL A   1      41.497  29.342  33.053  1.00  0.00    -0.248 NA
ATOM     48  C   UNL A   1      42.410  27.442  32.046  1.00  0.00     0.031 C 
ATOM     49  C   UNL A   1      38.751  29.799  29.540  1.00  0.00     0.029 A 
ATOM     50  N   UNL A   1      39.399  30.690  31.488  1.00  0.00    -0.354 N 
ATOM     51  C   UNL A   1      42.509  28.832  33.858  1.00  0.00     0.074 A 
ATOM     52  C   UNL A   1      43.017  27.645  33.206  1.00  0.00     0.031 C 
ATOM     53  C   UNL A   1      38.016  30.907  29.747  1.00  0.00     0.029 A 
ATOM     54  C   UNL A   1      38.375  31.490  31.041  1.00  0.00     0.049 A 
ATOM     55  H   UNL A   1      39.902  30.870  32.315  1.00  0.00     0.167 HD
ATOM     56  C   UNL A   1      42.975  29.309  35.035  1.00  0.00     0.037 A 
ATOM     57  C   UNL A   1      37.777  32.549  31.625  1.00  0.00     0.037 A 
ATOM     58  C   UNL A   1      42.458  30.483  35.688  1.00  0.00     0.049 A 
ATOM     59  C   UNL A   1      38.260  33.020  32.977  1.00  0.00     0.074 A 
ATOM     60  C   UNL A   1      42.870  31.056  36.876  1.00  0.00     0.029 A 
ATOM     61  N   UNL A   1      41.409  31.255  35.213  1.00  0.00    -0.354 N 
ATOM     62  N   UNL A   1      39.232  32.544  33.719  1.00  0.00    -0.248 NA
ATOM     63  C   UNL A   1      37.565  34.171  33.571  1.00  0.00     0.031 C 
ATOM     64  C   UNL A   1      42.034  32.143  37.149  1.00  0.00     0.029 A 
ATOM     65  C   UNL A   1      41.141  32.284  36.098  1.00  0.00     0.049 A 
ATOM     66  H   UNL A   1      40.925  31.094  34.370  1.00  0.00     0.167 HD
ATOM     67  C   UNL A   1      39.286  33.357  34.849  1.00  0.00     0.074 A 
ATOM     68  C   UNL A   1      38.251  34.358  34.689  1.00  0.00     0.031 C 
ATOM     69  C   UNL A   1      40.117  33.284  35.919  1.00  0.00     0.037 A 
BRANCH  56  70
ATOM     70  C   UNL A   1      44.076  28.540  35.709  1.00  0.00     0.058 A 
ATOM     71  C   UNL A   1      45.430  28.823  35.469  1.00  0.00     0.135 A 
ATOM     72  C   UNL A   1      43.771  27.518  36.623  1.00  0.00     0.135 A 
ATOM     73  F   UNL A   1      45.777  29.774  34.587  1.00  0.00    -0.206 F 
ATOM     74  C   UNL A   1      46.443  28.105  36.095  1.00  0.00     0.059 A 
ATOM     75  C   UNL A   1      44.769  26.807  37.281  1.00  0.00     0.059 A 
ATOM     76  F   UNL A   1      42.493  27.202  36.882  1.00  0.00    -0.206 F 
ATOM     77  C   UNL A   1      46.103  27.099  37.000  1.00  0.00     0.060 A 
BRANCH  77  78
ATOM     78  S   UNL A   1      47.430  26.181  37.810  1.00  0.00     0.124 S 
ATOM     79  O   UNL A   1      47.005  26.228  39.206  1.00  0.00    -0.237 OA
ATOM     80  O   UNL A   1      47.342  24.875  37.166  1.00  0.00    -0.237 OA
ATOM     81  O   UNL A   1      48.624  26.957  37.492  1.00  0.00    -0.744 OA
ENDBRANCH  77  78
ENDBRANCH  56  70
BRANCH  57  82
ATOM     82  C   UNL A   1      36.639  33.233  30.951  1.00  0.00     0.058 A 
ATOM     83  C   UNL A   1      35.320  33.055  31.395  1.00  0.00     0.135 A 
ATOM     84  C   UNL A   1      36.846  34.068  29.842  1.00  0.00     0.135 A 
ATOM     85  F   UNL A   1      35.067  32.254  32.441  1.00  0.00    -0.206 F 
ATOM     86  C   UNL A   1      34.246  33.667  30.756  1.00  0.00     0.059 A 
ATOM     87  C   UNL A   1      35.791  34.713  29.202  1.00  0.00     0.059 A 
ATOM     88  F   UNL A   1      38.088  34.276  29.378  1.00  0.00    -0.206 F 
ATOM     89  C   UNL A   1      34.492  34.498  29.662  1.00  0.00     0.060 A 
BRANCH  89  90
ATOM     90  S   UNL A   1      33.095  35.325  28.870  1.00  0.00     0.124 S 
ATOM     91  O   UNL A   1      33.748  36.460  28.228  1.00  0.00    -0.237 OA
ATOM     92  O   UNL A   1      32.594  34.287  27.975  1.00  0.00    -0.237 OA
ATOM     93  O   UNL A   1      32.218  35.651  29.991  1.00  0.00    -0.744 OA
ENDBRANCH  89  90
ENDBRANCH  57  82
BRANCH  69  94
ATOM     94  C   UNL A   1      39.983  34.338  36.986  1.00  0.00     0.058 A 
ATOM     95  C   UNL A   1      40.593  35.596  36.869  1.00  0.00     0.135 A 
ATOM     96  C   UNL A   1      39.169  34.108  38.109  1.00  0.00     0.135 A 
ATOM     97  F   UNL A   1      41.384  35.869  35.819  1.00  0.00    -0.206 F 
ATOM     98  C   UNL A   1      40.419  36.582  37.836  1.00  0.00     0.059 A 
ATOM     99  C   UNL A   1      38.957  35.089  39.073  1.00  0.00     0.059 A 
ATOM    100  F   UNL A   1      38.550  32.927  38.265  1.00  0.00    -0.206 F 
ATOM    101  C   UNL A   1      39.595  36.320  38.933  1.00  0.00     0.060 A 
BRANCH 101 102
ATOM    102  S   UNL A   1      39.344  37.622  40.159  1.00  0.00     0.124 S 
ATOM    103  O   UNL A   1      40.642  38.290  40.147  1.00  0.00    -0.237 OA
ATOM    104  O   UNL A   1      38.235  38.380  39.587  1.00  0.00    -0.237 OA
ATOM    105  O   UNL A   1      39.029  36.885  41.379  1.00  0.00    -0.744 OA
ENDBRANCH 101 102
ENDBRANCH  69  94
ENDBRANCH  43  44
ENDBRANCH  36  38
ENDBRANCH  35  36
ENDBRANCH  34  35
ENDBRANCH  33  34
ENDBRANCH  32  33
ENDBRANCH  31  32
ENDBRANCH   1  31
TORSDOF 23
ENDMDL
MODEL 2
REMARK VINA RESULT:     -10.8      1.392      2.173
REMARK SMILES CC1(C)S[C@H](c2ccc(-c3cccc([N+](=O)[O-])c3)o2)[NH2+][C@@H]1C(=O)OCCOCCOCCOC(=O)c1ccc(-c2c3nc(c(-c4c(F)cc(S(=O)(=O)[O-])cc4F)c4ccc([nH]4)c(-c4c(F)cc(S(=O)(=O)[O-])cc4F)c4nc(c(-c5c(F)cc(S(=O)(=O)[O-])cc5F)c5ccc2[nH]5)C=C4)C=C3)cc1
REMARK SMILES IDX 28 1 27 2 26 3 25 4 24 5 22 6 23 7 21 8 1 9 2 10 3 11 4 12
REMARK SMILES IDX 5 13 20 14 6 17 7 18 19 19 8 20 9 21 10 22 11 23 18 24 12 25
REMARK SMILES IDX 14 26 13 27 15 28 16 29 17 30 29 31 30 32 31 33 32 34 33 35
REMARK SMILES IDX 34 36 35 37 36 38 37 39 101 40 38 41 100 42 39 43 40 44
REMARK SMILES IDX 41 45 94 46 42 47 99 48 93 49 95 50 43 51 98 52 92 53 91 54
REMARK SMILES IDX 44 56 78 57 57 58 77 59 58 60 61 61 76 62 96 63 59 64 60 65
REMARK SMILES IDX 75 67 97 68 62 69 45 70 46 71 55 72 47 73 48 74 54 75 56 76
REMARK SMILES IDX 49 77 50 78 51 79 52 80 53 81 79 82 80 83 89 84 81 85 82 86
REMARK SMILES IDX 88 87 90 88 83 89 84 90 85 91 86 92 87 93 63 94 64 95 73 96
REMARK SMILES IDX 65 97 66 98 72 99 74 100 67 101 68 102 69 103 70 104 71 105
REMARK H PARENT 20 15 20 16 95 55 61 66
REMARK Flexibility Score: inf
ROOT
ATOM      1  C   UNL A   1      37.522  21.380  25.149  1.00  0.00     0.188 C 
ENDROOT
BRANCH   1   2
ATOM      2  O   UNL A   1      37.191  21.803  23.839  1.00  0.00    -0.376 OA
BRANCH   2   3
ATOM      3  C   UNL A   1      36.439  22.999  23.746  1.00  0.00     0.202 C 
BRANCH   3   4
ATOM      4  C   UNL A   1      35.010  22.926  23.205  1.00  0.00     0.261 C 
BRANCH   4   5
ATOM      5  O   UNL A   1      34.466  24.115  22.646  1.00  0.00    -0.459 OA
BRANCH   5   6
ATOM      6  C   UNL A   1      33.874  24.984  23.512  1.00  0.00     0.366 C 
ATOM      7  O   UNL A   1      34.218  25.140  24.672  1.00  0.00    -0.245 OA
BRANCH   6   8
ATOM      8  C   UNL A   1      32.755  25.732  22.753  1.00  0.00     0.310 C 
ATOM      9  C   UNL A   1      31.292  27.797  22.549  1.00  0.00     0.030 C 
ATOM     10  C   UNL A   1      32.033  26.850  23.522  1.00  0.00     0.079 C 
ATOM     11  C   UNL A   1      32.957  27.726  24.378  1.00  0.00     0.030 C 
ATOM     12  S   UNL A   1      30.797  25.891  24.475  1.00  0.00    -0.078 SA
ATOM     13  C   UNL A   1      30.945  24.367  23.439  1.00  0.00     0.311 C 
ATOM     14  N   UNL A   1      31.743  24.750  22.266  1.00  0.00    -0.316 N 
ATOM     15  H   UNL A   1      31.148  25.178  21.558  1.00  0.00     0.348 HD
ATOM     16  H   UNL A   1      32.190  23.937  21.840  1.00  0.00     0.348 HD
BRANCH  13  17
ATOM     17  C   UNL A   1      31.492  23.178  24.205  1.00  0.00     0.172 A 
ATOM     18  C   UNL A   1      31.849  23.022  25.533  1.00  0.00     0.054 A 
ATOM     19  O   UNL A   1      31.682  21.969  23.554  1.00  0.00    -0.454 OA
ATOM     20  C   UNL A   1      32.321  21.698  25.689  1.00  0.00     0.051 A 
ATOM     21  C   UNL A   1      32.217  21.088  24.460  1.00  0.00     0.134 A 
BRANCH  21  22
ATOM     22  C   UNL A   1      32.622  19.769  23.978  1.00  0.00     0.024 A 
ATOM     23  C   UNL A   1      32.174  19.313  22.727  1.00  0.00     0.012 A 
ATOM     24  C   UNL A   1      33.534  18.974  24.678  1.00  0.00     0.097 A 
ATOM     25  C   UNL A   1      32.479  18.035  22.249  1.00  0.00     0.008 A 
ATOM     26  C   UNL A   1      33.934  17.735  24.138  1.00  0.00     0.270 A 
ATOM     27  C   UNL A   1      33.367  17.238  22.957  1.00  0.00     0.085 A 
BRANCH  26  28
ATOM     28  N   UNL A   1      35.024  16.982  24.769  1.00  0.00     0.062 N 
ATOM     29  O   UNL A   1      34.865  15.763  24.935  1.00  0.00    -0.258 OA
ATOM     30  O   UNL A   1      36.058  17.599  25.062  1.00  0.00    -0.258 OA
ENDBRANCH  26  28
ENDBRANCH  21  22
ENDBRANCH  13  17
ENDBRANCH   6   8
ENDBRANCH   5   6
ENDBRANCH   4   5
ENDBRANCH   3   4
ENDBRANCH   2   3
ENDBRANCH   1   2
BRANCH   1  31
ATOM     31  C   UNL A   1      38.534  22.314  25.855  1.00  0.00     0.188 C 
BRANCH  31  32
ATOM     32  O   UNL A   1      39.478  21.776  26.766  1.00  0.00    -0.376 OA
BRANCH  32  33
ATOM     33  C   UNL A   1      40.709  21.267  26.274  1.00  0.00     0.202 C 
BRANCH  33  34
ATOM     34  C   UNL A   1      41.981  22.138  26.188  1.00  0.00     0.261 C 
BRANCH  34  35
ATOM     35  O   UNL A   1      41.798  23.559  26.067  1.00  0.00    -0.460 OA
BRANCH  35  36
ATOM     36  C   UNL A   1      42.861  24.334  26.411  1.00  0.00     0.338 C 
ATOM     37  O   UNL A   1      43.974  24.306  25.925  1.00  0.00    -0.246 OA
BRANCH  36  38
ATOM     38  C   UNL A   1      42.393  25.407  27.323  1.00  0.00     0.060 A 
ATOM     39  C   UNL A   1      43.064  26.642  27.313  1.00  0.00     0.016 A 
ATOM     40  C   UNL A   1      41.289  25.215  28.153  1.00  0.00     0.016 A 
ATOM     41  C   UNL A   1      42.640  27.684  28.139  1.00  0.00     0.010 A 
ATOM     42  C   UNL A   1      40.892  26.243  29.014  1.00  0.00     0.010 A 
ATOM     43  C   UNL A   1      41.581  27.471  29.029  1.00  0.00    -0.014 A 
BRANCH  43  44
ATOM     44  C   UNL A   1      41.350  28.424  30.142  1.00  0.00     0.031 A 
ATOM     45  C   UNL A   1      42.204  28.279  31.373  1.00  0.00     0.074 A 
ATOM     46  C   UNL A   1      40.409  29.383  30.079  1.00  0.00     0.049 A 
ATOM     47  N   UNL A   1      42.136  28.914  32.512  1.00  0.00    -0.248 NA
ATOM     48  C   UNL A   1      43.277  27.272  31.305  1.00  0.00     0.031 C 
ATOM     49  C   UNL A   1      39.552  29.657  28.927  1.00  0.00     0.029 A 
ATOM     50  N   UNL A   1      40.007  30.296  31.022  1.00  0.00    -0.354 N 
ATOM     51  C   UNL A   1      43.147  28.377  33.301  1.00  0.00     0.074 A 
ATOM     52  C   UNL A   1      43.800  27.350  32.519  1.00  0.00     0.031 C 
ATOM     53  C   UNL A   1      38.705  30.653  29.243  1.00  0.00     0.029 A 
ATOM     54  C   UNL A   1      38.937  31.064  30.628  1.00  0.00     0.049 A 
ATOM     55  H   UNL A   1      40.445  30.393  31.899  1.00  0.00     0.167 HD
ATOM     56  C   UNL A   1      43.502  28.710  34.564  1.00  0.00     0.037 A 
ATOM     57  C   UNL A   1      38.211  31.968  31.319  1.00  0.00     0.037 A 
ATOM     58  C   UNL A   1      42.842  29.723  35.343  1.00  0.00     0.049 A 
ATOM     59  C   UNL A   1      38.573  32.269  32.754  1.00  0.00     0.074 A 
ATOM     60  C   UNL A   1      43.133  30.144  36.628  1.00  0.00     0.029 A 
ATOM     61  N   UNL A   1      41.751  30.464  34.916  1.00  0.00    -0.354 N 
ATOM     62  N   UNL A   1      39.545  31.772  33.483  1.00  0.00    -0.248 NA
ATOM     63  C   UNL A   1      37.741  33.253  33.460  1.00  0.00     0.031 C 
ATOM     64  C   UNL A   1      42.184  31.101  36.999  1.00  0.00     0.029 A 
ATOM     65  C   UNL A   1      41.339  31.322  35.921  1.00  0.00     0.049 A 
ATOM     66  H   UNL A   1      41.330  30.392  34.029  1.00  0.00     0.167 HD
ATOM     67  C   UNL A   1      39.460  32.407  34.719  1.00  0.00     0.074 A 
ATOM     68  C   UNL A   1      38.346  33.328  34.638  1.00  0.00     0.031 C 
ATOM     69  C   UNL A   1      40.236  32.245  35.821  1.00  0.00     0.037 A 
BRANCH  56  70
ATOM     70  C   UNL A   1      44.633  27.945  35.191  1.00  0.00     0.058 A 
ATOM     71  C   UNL A   1      44.410  26.796  35.966  1.00  0.00     0.135 A 
ATOM     72  C   UNL A   1      45.961  28.358  34.999  1.00  0.00     0.135 A 
ATOM     73  F   UNL A   1      43.158  26.371  36.202  1.00  0.00    -0.206 F 
ATOM     74  C   UNL A   1      45.463  26.096  36.546  1.00  0.00     0.059 A 
ATOM     75  C   UNL A   1      47.031  27.657  35.546  1.00  0.00     0.059 A 
ATOM     76  F   UNL A   1      46.230  29.456  34.274  1.00  0.00    -0.206 F 
ATOM     77  C   UNL A   1      46.770  26.534  36.329  1.00  0.00     0.060 A 
BRANCH  77  78
ATOM     78  S   UNL A   1      48.125  25.609  37.082  1.00  0.00     0.124 S 
ATOM     79  O   UNL A   1      47.780  25.690  38.499  1.00  0.00    -0.237 OA
ATOM     80  O   UNL A   1      47.980  24.292  36.470  1.00  0.00    -0.237 OA
ATOM     81  O   UNL A   1      49.312  26.357  36.682  1.00  0.00    -0.744 OA
ENDBRANCH  77  78
ENDBRANCH  56  70
BRANCH  57  82
ATOM     82  C   UNL A   1      37.051  32.645  30.676  1.00  0.00     0.058 A 
ATOM     83  C   UNL A   1      35.741  32.181  30.871  1.00  0.00     0.135 A 
ATOM     84  C   UNL A   1      37.229  33.761  29.844  1.00  0.00     0.135 A 
ATOM     85  F   UNL A   1      35.517  31.108  31.644  1.00  0.00    -0.206 F 
ATOM     86  C   UNL A   1      34.652  32.789  30.254  1.00  0.00     0.059 A 
ATOM     87  C   UNL A   1      36.154  34.403  29.237  1.00  0.00     0.059 A 
ATOM     88  F   UNL A   1      38.461  34.248  29.627  1.00  0.00    -0.206 F 
ATOM     89  C   UNL A   1      34.868  33.903  29.441  1.00  0.00     0.060 A 
BRANCH  89  90
ATOM     90  S   UNL A   1      33.443  34.713  28.683  1.00  0.00     0.124 S 
ATOM     91  O   UNL A   1      32.967  33.681  27.770  1.00  0.00    -0.237 OA
ATOM     92  O   UNL A   1      32.595  34.981  29.841  1.00  0.00    -0.237 OA
ATOM     93  O   UNL A   1      34.023  35.896  28.055  1.00  0.00    -0.744 OA
ENDBRANCH  89  90
ENDBRANCH  57  82
BRANCH  69  94
ATOM     94  C   UNL A   1      39.946  33.112  37.018  1.00  0.00     0.058 A 
ATOM     95  C   UNL A   1      38.954  32.780  37.954  1.00  0.00     0.135 A 
ATOM     96  C   UNL A   1      40.726  34.253  37.270  1.00  0.00     0.135 A 
ATOM     97  F   UNL A   1      38.177  31.701  37.761  1.00  0.00    -0.206 F 
ATOM     98  C   UNL A   1      38.731  33.559  39.085  1.00  0.00     0.059 A 
ATOM     99  C   UNL A   1      40.541  35.030  38.409  1.00  0.00     0.059 A 
ATOM    100  F   UNL A   1      41.698  34.610  36.416  1.00  0.00    -0.206 F 
ATOM    101  C   UNL A   1      39.533  34.682  39.306  1.00  0.00     0.060 A 
BRANCH 101 102
ATOM    102  S   UNL A   1      39.261  35.660  40.800  1.00  0.00     0.124 S 
ATOM    103  O   UNL A   1      40.425  35.301  41.602  1.00  0.00    -0.237 OA
ATOM    104  O   UNL A   1      39.244  37.024  40.280  1.00  0.00    -0.237 OA
ATOM    105  O   UNL A   1      37.979  35.170  41.299  1.00  0.00    -0.744 OA
ENDBRANCH 101 102
ENDBRANCH  69  94
ENDBRANCH  43  44
ENDBRANCH  36  38
ENDBRANCH  35  36
ENDBRANCH  34  35
ENDBRANCH  33  34
ENDBRANCH  32  33
ENDBRANCH  31  32
ENDBRANCH   1  31
TORSDOF 23
ENDMDL
MODEL 3
REMARK VINA RESULT:     -10.6      1.113      7.975
REMARK SMILES CC1(C)S[C@H](c2ccc(-c3cccc([N+](=O)[O-])c3)o2)[NH2+][C@@H]1C(=O)OCCOCCOCCOC(=O)c1ccc(-c2c3nc(c(-c4c(F)cc(S(=O)(=O)[O-])cc4F)c4ccc([nH]4)c(-c4c(F)cc(S(=O)(=O)[O-])cc4F)c4nc(c(-c5c(F)cc(S(=O)(=O)[O-])cc5F)c5ccc2[nH]5)C=C4)C=C3)cc1
REMARK SMILES IDX 28 1 27 2 26 3 25 4 24 5 22 6 23 7 21 8 1 9 2 10 3 11 4 12
REMARK SMILES IDX 5 13 20 14 6 17 7 18 19 19 8 20 9 21 10 22 11 23 18 24 12 25
REMARK SMILES IDX 14 26 13 27 15 28 16 29 17 30 29 31 30 32 31 33 32 34 33 35
REMARK SMILES IDX 34 36 35 37 36 38 37 39 101 40 38 41 100 42 39 43 40 44
REMARK SMILES IDX 41 45 94 46 42 47 99 48 93 49 95 50 43 51 98 52 92 53 91 54
REMARK SMILES IDX 44 56 78 57 57 58 77 59 58 60 61 61 76 62 96 63 59 64 60 65
REMARK SMILES IDX 75 67 97 68 62 69 45 70 46 71 55 72 47 73 48 74 54 75 56 76
REMARK SMILES IDX 49 77 50 78 51 79 52 80 53 81 79 82 80 83 89 84 81 85 82 86
REMARK SMILES IDX 88 87 90 88 83 89 84 90 85 91 86 92 87 93 63 94 64 95 73 96
REMARK SMILES IDX 65 97 66 98 72 99 74 100 67 101 68 102 69 103 70 104 71 105
REMARK H PARENT 20 15 20 16 95 55 61 66
REMARK Flexibility Score: inf
ROOT
ATOM      1  C   UNL A   1      37.247  20.940  24.949  1.00  0.00     0.188 C 
ENDROOT
BRANCH   1   2
ATOM      2  O   UNL A   1      36.199  21.861  25.185  1.00  0.00    -0.376 OA
BRANCH   2   3
ATOM      3  C   UNL A   1      35.826  22.670  24.084  1.00  0.00     0.202 C 
BRANCH   3   4
ATOM      4  C   UNL A   1      34.515  22.360  23.358  1.00  0.00     0.261 C 
BRANCH   4   5
ATOM      5  O   UNL A   1      33.633  23.450  23.119  1.00  0.00    -0.459 OA
BRANCH   5   6
ATOM      6  C   UNL A   1      33.277  24.198  24.200  1.00  0.00     0.366 C 
ATOM      7  O   UNL A   1      34.017  24.444  25.140  1.00  0.00    -0.245 OA
BRANCH   6   8
ATOM      8  C   UNL A   1      31.828  24.690  23.990  1.00  0.00     0.310 C 
ATOM      9  C   UNL A   1      30.044  26.428  24.481  1.00  0.00     0.030 C 
ATOM     10  C   UNL A   1      31.280  25.678  25.032  1.00  0.00     0.079 C 
ATOM     11  C   UNL A   1      32.286  26.747  25.477  1.00  0.00     0.030 C 
ATOM     12  S   UNL A   1      30.740  24.539  26.361  1.00  0.00    -0.078 SA
ATOM     13  C   UNL A   1      30.744  23.032  25.290  1.00  0.00     0.311 C 
ATOM     14  N   UNL A   1      30.912  23.514  23.912  1.00  0.00    -0.316 N 
ATOM     15  H   UNL A   1      30.012  23.792  23.524  1.00  0.00     0.348 HD
ATOM     16  H   UNL A   1      31.294  22.785  23.308  1.00  0.00     0.348 HD
BRANCH  13  17
ATOM     17  C   UNL A   1      31.769  22.000  25.719  1.00  0.00     0.172 A 
ATOM     18  C   UNL A   1      32.762  22.032  26.683  1.00  0.00     0.054 A 
ATOM     19  O   UNL A   1      31.782  20.752  25.117  1.00  0.00    -0.454 OA
ATOM     20  C   UNL A   1      33.438  20.790  26.633  1.00  0.00     0.051 A 
ATOM     21  C   UNL A   1      32.822  20.038  25.658  1.00  0.00     0.134 A 
BRANCH  21  22
ATOM     22  C   UNL A   1      33.119  18.723  25.096  1.00  0.00     0.024 A 
ATOM     23  C   UNL A   1      34.013  18.608  24.018  1.00  0.00     0.012 A 
ATOM     24  C   UNL A   1      32.621  17.547  25.663  1.00  0.00     0.097 A 
ATOM     25  C   UNL A   1      34.281  17.382  23.403  1.00  0.00     0.008 A 
ATOM     26  C   UNL A   1      32.987  16.301  25.115  1.00  0.00     0.270 A 
ATOM     27  C   UNL A   1      33.767  16.217  23.954  1.00  0.00     0.085 A 
BRANCH  26  28
ATOM     28  N   UNL A   1      32.622  15.061  25.811  1.00  0.00     0.062 N 
ATOM     29  O   UNL A   1      33.235  14.026  25.508  1.00  0.00    -0.258 OA
ATOM     30  O   UNL A   1      31.751  15.127  26.691  1.00  0.00    -0.258 OA
ENDBRANCH  26  28
ENDBRANCH  21  22
ENDBRANCH  13  17
ENDBRANCH   6   8
ENDBRANCH   5   6
ENDBRANCH   4   5
ENDBRANCH   3   4
ENDBRANCH   2   3
ENDBRANCH   1   2
BRANCH   1  31
ATOM     31  C   UNL A   1      38.621  21.432  25.465  1.00  0.00     0.188 C 
BRANCH  31  32
ATOM     32  O   UNL A   1      38.692  22.554  26.330  1.00  0.00    -0.376 OA
BRANCH  32  33
ATOM     33  C   UNL A   1      39.911  22.842  26.998  1.00  0.00     0.202 C 
BRANCH  33  34
ATOM     34  C   UNL A   1      41.211  23.165  26.230  1.00  0.00     0.261 C 
BRANCH  34  35
ATOM     35  O   UNL A   1      42.077  24.164  26.794  1.00  0.00    -0.460 OA
BRANCH  35  36
ATOM     36  C   UNL A   1      41.947  25.423  26.298  1.00  0.00     0.338 C 
ATOM     37  O   UNL A   1      41.961  25.755  25.130  1.00  0.00    -0.246 OA
BRANCH  36  38
ATOM     38  C   UNL A   1      41.540  26.330  27.401  1.00  0.00     0.060 A 
ATOM     39  C   UNL A   1      42.253  27.526  27.589  1.00  0.00     0.016 A 
ATOM     40  C   UNL A   1      40.452  26.025  28.218  1.00  0.00     0.016 A 
ATOM     41  C   UNL A   1      41.885  28.416  28.599  1.00  0.00     0.010 A 
ATOM     42  C   UNL A   1      40.113  26.894  29.259  1.00  0.00     0.010 A 
ATOM     43  C   UNL A   1      40.843  28.079  29.471  1.00  0.00    -0.014 A 
BRANCH  43  44
ATOM     44  C   UNL A   1      40.674  28.825  30.742  1.00  0.00     0.031 A 
ATOM     45  C   UNL A   1      39.618  29.896  30.787  1.00  0.00     0.074 A 
ATOM     46  C   UNL A   1      41.436  28.577  31.823  1.00  0.00     0.049 A 
ATOM     47  N   UNL A   1      39.339  30.751  31.734  1.00  0.00    -0.248 NA
ATOM     48  C   UNL A   1      38.765  30.019  29.592  1.00  0.00     0.031 C 
ATOM     49  C   UNL A   1      42.457  27.536  31.921  1.00  0.00     0.029 A 
ATOM     50  N   UNL A   1      41.474  29.203  33.045  1.00  0.00    -0.354 N 
ATOM     51  C   UNL A   1      38.290  31.520  31.248  1.00  0.00     0.074 A 
ATOM     52  C   UNL A   1      37.995  31.047  29.913  1.00  0.00     0.031 C 
ATOM     53  C   UNL A   1      43.042  27.615  33.131  1.00  0.00     0.029 A 
ATOM     54  C   UNL A   1      42.460  28.731  33.878  1.00  0.00     0.049 A 
ATOM     55  H   UNL A   1      40.852  29.923  33.300  1.00  0.00     0.167 HD
ATOM     56  C   UNL A   1      37.628  32.531  31.858  1.00  0.00     0.037 A 
ATOM     57  C   UNL A   1      42.865  29.172  35.087  1.00  0.00     0.037 A 
ATOM     58  C   UNL A   1      37.933  33.009  33.180  1.00  0.00     0.049 A 
ATOM     59  C   UNL A   1      42.165  30.352  35.718  1.00  0.00     0.074 A 
ATOM     60  C   UNL A   1      37.313  34.018  33.893  1.00  0.00     0.029 A 
ATOM     61  N   UNL A   1      38.950  32.517  33.984  1.00  0.00    -0.354 N 
ATOM     62  N   UNL A   1      41.158  31.059  35.259  1.00  0.00    -0.248 NA
ATOM     63  C   UNL A   1      42.656  30.796  37.031  1.00  0.00     0.031 C 
ATOM     64  C   UNL A   1      37.991  34.176  35.106  1.00  0.00     0.029 A 
ATOM     65  C   UNL A   1      38.994  33.221  35.175  1.00  0.00     0.049 A 
ATOM     66  H   UNL A   1      39.554  31.777  33.743  1.00  0.00     0.167 HD
ATOM     67  C   UNL A   1      40.876  32.006  36.240  1.00  0.00     0.074 A 
ATOM     68  C   UNL A   1      41.814  31.779  37.320  1.00  0.00     0.031 C 
ATOM     69  C   UNL A   1      39.925  32.974  36.248  1.00  0.00     0.037 A 
BRANCH  56  70
ATOM     70  C   UNL A   1      36.534  33.211  31.085  1.00  0.00     0.058 A 
ATOM     71  C   UNL A   1      35.177  32.961  31.347  1.00  0.00     0.135 A 
ATOM     72  C   UNL A   1      36.846  34.140  30.079  1.00  0.00     0.135 A 
ATOM     73  F   UNL A   1      34.823  32.065  32.281  1.00  0.00    -0.206 F 
ATOM     74  C   UNL A   1      34.170  33.593  30.625  1.00  0.00     0.059 A 
ATOM     75  C   UNL A   1      35.855  34.804  29.364  1.00  0.00     0.059 A 
ATOM     76  F   UNL A   1      38.128  34.409  29.782  1.00  0.00    -0.206 F 
ATOM     77  C   UNL A   1      34.519  34.513  29.636  1.00  0.00     0.060 A 
BRANCH  77  78
ATOM     78  S   UNL A   1      33.199  35.330  28.714  1.00  0.00     0.124 S 
ATOM     79  O   UNL A   1      33.962  36.200  27.825  1.00  0.00    -0.237 OA
ATOM     80  O   UNL A   1      32.526  34.204  28.073  1.00  0.00    -0.237 OA
ATOM     81  O   UNL A   1      32.429  36.010  29.750  1.00  0.00    -0.744 OA
ENDBRANCH  77  78
ENDBRANCH  56  70
BRANCH  57  82
ATOM     82  C   UNL A   1      44.005  28.512  35.781  1.00  0.00     0.058 A 
ATOM     83  C   UNL A   1      43.792  27.467  36.693  1.00  0.00     0.135 A 
ATOM     84  C   UNL A   1      45.328  28.922  35.559  1.00  0.00     0.135 A 
ATOM     85  F   UNL A   1      42.545  27.048  36.954  1.00  0.00    -0.206 F 
ATOM     86  C   UNL A   1      44.847  26.861  37.368  1.00  0.00     0.059 A 
ATOM     87  C   UNL A   1      46.403  28.314  36.201  1.00  0.00     0.059 A 
ATOM     88  F   UNL A   1      45.589  29.915  34.694  1.00  0.00    -0.206 F 
ATOM     89  C   UNL A   1      46.151  27.289  37.113  1.00  0.00     0.060 A 
BRANCH  89  90
ATOM     90  S   UNL A   1      47.516  26.464  37.959  1.00  0.00     0.124 S 
ATOM     91  O   UNL A   1      47.683  27.303  39.140  1.00  0.00    -0.237 OA
ATOM     92  O   UNL A   1      46.967  25.132  38.195  1.00  0.00    -0.237 OA
ATOM     93  O   UNL A   1      48.601  26.522  36.984  1.00  0.00    -0.744 OA
ENDBRANCH  89  90
ENDBRANCH  57  82
BRANCH  69  94
ATOM     94  C   UNL A   1      39.810  33.836  37.478  1.00  0.00     0.058 A 
ATOM     95  C   UNL A   1      40.411  35.101  37.558  1.00  0.00     0.135 A 
ATOM     96  C   UNL A   1      39.022  33.416  38.564  1.00  0.00     0.135 A 
ATOM     97  F   UNL A   1      41.177  35.551  36.551  1.00  0.00    -0.206 F 
ATOM     98  C   UNL A   1      40.253  35.911  38.678  1.00  0.00     0.059 A 
ATOM     99  C   UNL A   1      38.826  34.222  39.681  1.00  0.00     0.059 A 
ATOM    100  F   UNL A   1      38.412  32.220  38.535  1.00  0.00    -0.206 F 
ATOM    101  C   UNL A   1      39.455  35.465  39.734  1.00  0.00     0.060 A 
BRANCH 101 102
ATOM    102  S   UNL A   1      39.225  36.544  41.163  1.00  0.00     0.124 S 
ATOM    103  O   UNL A   1      38.176  35.842  41.895  1.00  0.00    -0.237 OA
ATOM    104  O   UNL A   1      40.547  36.531  41.781  1.00  0.00    -0.237 OA
ATOM    105  O   UNL A   1      38.830  37.818  40.568  1.00  0.00    -0.744 OA
ENDBRANCH 101 102
ENDBRANCH  69  94
ENDBRANCH  43  44
ENDBRANCH  36  38
ENDBRANCH  35  36
ENDBRANCH  34  35
ENDBRANCH  33  34
ENDBRANCH  32  33
ENDBRANCH  31  32
ENDBRANCH   1  31
TORSDOF 23
ENDMDL
