MODEL 1
REMARK VINA RESULT:      -9.9      0.000      0.000
REMARK SMILES CC(C)[C@H]([NH2+]Cc1ccc(N(C)C)cc1)C(=O)OCCOCCOCCOC(=O)c1ccc(-c2c3nc(c(-c4c(F)cc(S(=O)(=O)[O-])cc4F)c4ccc([nH]4)c(-c4c(F)cc(S(=O)(=O)[O-])cc4F)c4nc(c(-c5c(F)cc(S(=O)(=O)[O-])cc5F)c5ccc2[nH]5)C=C4)C=C3)cc1
REMARK SMILES IDX 22 1 21 2 20 3 19 4 18 5 16 6 17 7 4 8 2 9 1 10 3 11 5 12
REMARK SMILES IDX 6 15 7 16 8 17 15 18 9 19 14 20 10 21 11 22 12 23 13 24
REMARK SMILES IDX 23 25 24 26 25 27 26 28 27 29 28 30 29 31 30 32 31 33 95 34
REMARK SMILES IDX 32 35 94 36 33 37 34 38 35 39 88 40 36 41 93 42 87 43 89 44
REMARK SMILES IDX 37 45 92 46 86 47 85 48 38 50 72 51 51 52 71 53 52 54 55 55
REMARK SMILES IDX 70 56 90 57 53 58 54 59 69 61 91 62 56 63 39 64 40 65 49 66
REMARK SMILES IDX 41 67 42 68 48 69 50 70 43 71 44 72 45 73 46 74 47 75 73 76
REMARK SMILES IDX 74 77 83 78 75 79 76 80 82 81 84 82 77 83 78 84 79 85 80 86
REMARK SMILES IDX 81 87 57 88 58 89 67 90 59 91 60 92 66 93 68 94 61 95 62 96
REMARK SMILES IDX 63 97 64 98 65 99
REMARK H PARENT 5 13 5 14 89 49 55 60
REMARK Flexibility Score: inf
ROOT
ATOM      1  C   UNL A   1      39.900  21.054  26.129  1.00  0.00     0.188 C 
ENDROOT
BRANCH   1   2
ATOM      2  O   UNL A   1      38.860  21.940  25.727  1.00  0.00    -0.376 OA
BRANCH   2   3
ATOM      3  C   UNL A   1      37.581  21.418  25.396  1.00  0.00     0.202 C 
BRANCH   3   4
ATOM      4  C   UNL A   1      36.759  22.058  24.265  1.00  0.00     0.261 C 
BRANCH   4   5
ATOM      5  O   UNL A   1      35.503  22.659  24.634  1.00  0.00    -0.459 OA
BRANCH   5   6
ATOM      6  C   UNL A   1      34.796  23.226  23.615  1.00  0.00     0.365 C 
ATOM      7  O   UNL A   1      35.216  23.315  22.465  1.00  0.00    -0.245 OA
BRANCH   6   8
ATOM      8  C   UNL A   1      33.428  23.828  24.035  1.00  0.00     0.296 C 
BRANCH   8   9
ATOM      9  C   UNL A   1      33.654  24.985  25.038  1.00  0.00     0.053 C 
ATOM     10  C   UNL A   1      33.679  26.363  24.370  1.00  0.00     0.014 C 
ATOM     11  C   UNL A   1      32.611  24.940  26.159  1.00  0.00     0.014 C 
ENDBRANCH   8   9
BRANCH   8  12
ATOM     12  N   UNL A   1      32.467  22.818  24.551  1.00  0.00    -0.331 N 
ATOM     13  H   UNL A   1      31.625  23.300  24.866  1.00  0.00     0.347 HD
ATOM     14  H   UNL A   1      32.925  22.319  25.313  1.00  0.00     0.347 HD
BRANCH  12  15
ATOM     15  C   UNL A   1      32.088  21.827  23.539  1.00  0.00     0.298 C 
BRANCH  15  16
ATOM     16  C   UNL A   1      32.353  20.399  23.964  1.00  0.00     0.006 A 
ATOM     17  C   UNL A   1      32.408  19.359  23.035  1.00  0.00     0.012 A 
ATOM     18  C   UNL A   1      32.646  20.087  25.293  1.00  0.00     0.012 A 
ATOM     19  C   UNL A   1      32.736  18.048  23.429  1.00  0.00     0.026 A 
ATOM     20  C   UNL A   1      32.973  18.772  25.674  1.00  0.00     0.026 A 
ATOM     21  C   UNL A   1      33.026  17.703  24.760  1.00  0.00     0.036 A 
BRANCH  21  22
ATOM     22  N   UNL A   1      33.350  16.412  25.155  1.00  0.00    -0.378 N 
ATOM     23  C   UNL A   1      32.396  15.455  25.701  1.00  0.00     0.143 C 
ATOM     24  C   UNL A   1      34.730  15.934  25.076  1.00  0.00     0.143 C 
ENDBRANCH  21  22
ENDBRANCH  15  16
ENDBRANCH  12  15
ENDBRANCH   8  12
ENDBRANCH   6   8
ENDBRANCH   5   6
ENDBRANCH   4   5
ENDBRANCH   3   4
ENDBRANCH   2   3
ENDBRANCH   1   2
BRANCH   1  25
ATOM     25  C   UNL A   1      40.744  21.390  27.373  1.00  0.00     0.188 C 
BRANCH  25  26
ATOM     26  O   UNL A   1      42.103  21.032  27.259  1.00  0.00    -0.376 OA
BRANCH  26  27
ATOM     27  C   UNL A   1      42.771  21.405  26.069  1.00  0.00     0.202 C 
BRANCH  27  28
ATOM     28  C   UNL A   1      43.387  22.813  25.940  1.00  0.00     0.261 C 
BRANCH  28  29
ATOM     29  O   UNL A   1      42.491  23.935  26.028  1.00  0.00    -0.460 OA
BRANCH  29  30
ATOM     30  C   UNL A   1      43.021  25.169  25.883  1.00  0.00     0.338 C 
ATOM     31  O   UNL A   1      43.764  25.541  24.980  1.00  0.00    -0.246 OA
BRANCH  30  32
ATOM     32  C   UNL A   1      42.403  26.073  26.880  1.00  0.00     0.060 A 
ATOM     33  C   UNL A   1      42.844  27.402  26.954  1.00  0.00     0.016 A 
ATOM     34  C   UNL A   1      41.407  25.618  27.748  1.00  0.00     0.016 A 
ATOM     35  C   UNL A   1      42.327  28.262  27.926  1.00  0.00     0.010 A 
ATOM     36  C   UNL A   1      40.904  26.477  28.735  1.00  0.00     0.010 A 
ATOM     37  C   UNL A   1      41.391  27.791  28.857  1.00  0.00    -0.014 A 
BRANCH  37  38
ATOM     38  C   UNL A   1      41.088  28.611  30.062  1.00  0.00     0.031 A 
ATOM     39  C   UNL A   1      41.949  28.433  31.287  1.00  0.00     0.074 A 
ATOM     40  C   UNL A   1      40.111  29.536  30.060  1.00  0.00     0.049 A 
ATOM     41  N   UNL A   1      41.901  29.055  32.438  1.00  0.00    -0.248 NA
ATOM     42  C   UNL A   1      43.010  27.415  31.201  1.00  0.00     0.031 C 
ATOM     43  C   UNL A   1      39.224  29.829  28.936  1.00  0.00     0.029 A 
ATOM     44  N   UNL A   1      39.702  30.405  31.045  1.00  0.00    -0.354 N 
ATOM     45  C   UNL A   1      42.920  28.506  33.209  1.00  0.00     0.074 A 
ATOM     46  C   UNL A   1      43.543  27.474  32.411  1.00  0.00     0.031 C 
ATOM     47  C   UNL A   1      38.374  30.808  29.293  1.00  0.00     0.029 A 
ATOM     48  C   UNL A   1      38.639  31.196  30.678  1.00  0.00     0.049 A 
ATOM     49  H   UNL A   1      40.130  30.454  31.930  1.00  0.00     0.167 HD
ATOM     50  C   UNL A   1      43.311  28.839  34.463  1.00  0.00     0.037 A 
ATOM     51  C   UNL A   1      37.954  32.123  31.382  1.00  0.00     0.037 A 
ATOM     52  C   UNL A   1      42.687  29.864  35.261  1.00  0.00     0.049 A 
ATOM     53  C   UNL A   1      38.375  32.441  32.795  1.00  0.00     0.074 A 
ATOM     54  C   UNL A   1      43.018  30.282  36.537  1.00  0.00     0.029 A 
ATOM     55  N   UNL A   1      41.597  30.624  34.864  1.00  0.00    -0.354 N 
ATOM     56  N   UNL A   1      39.358  31.933  33.502  1.00  0.00    -0.248 NA
ATOM     57  C   UNL A   1      37.601  33.471  33.503  1.00  0.00     0.031 C 
ATOM     58  C   UNL A   1      42.097  31.258  36.933  1.00  0.00     0.029 A 
ATOM     59  C   UNL A   1      41.231  31.495  35.878  1.00  0.00     0.049 A 
ATOM     60  H   UNL A   1      41.149  30.556  33.989  1.00  0.00     0.167 HD
ATOM     61  C   UNL A   1      39.342  32.607  34.720  1.00  0.00     0.074 A 
ATOM     62  C   UNL A   1      38.260  33.567  34.650  1.00  0.00     0.031 C 
ATOM     63  C   UNL A   1      40.153  32.451  35.797  1.00  0.00     0.037 A 
BRANCH  50  64
ATOM     64  C   UNL A   1      44.458  28.067  35.061  1.00  0.00     0.058 A 
ATOM     65  C   UNL A   1      45.787  28.508  34.952  1.00  0.00     0.135 A 
ATOM     66  C   UNL A   1      44.221  26.883  35.780  1.00  0.00     0.135 A 
ATOM     67  F   UNL A   1      46.076  29.622  34.260  1.00  0.00    -0.206 F 
ATOM     68  C   UNL A   1      46.841  27.789  35.507  1.00  0.00     0.059 A 
ATOM     69  C   UNL A   1      45.257  26.165  36.370  1.00  0.00     0.059 A 
ATOM     70  F   UNL A   1      42.971  26.415  35.915  1.00  0.00    -0.206 F 
ATOM     71  C   UNL A   1      46.565  26.618  36.215  1.00  0.00     0.060 A 
BRANCH  71  72
ATOM     72  S   UNL A   1      47.944  25.701  36.934  1.00  0.00     0.124 S 
ATOM     73  O   UNL A   1      48.257  24.758  35.864  1.00  0.00    -0.237 OA
ATOM     74  O   UNL A   1      48.931  26.750  37.163  1.00  0.00    -0.237 OA
ATOM     75  O   UNL A   1      47.369  25.111  38.140  1.00  0.00    -0.744 OA
ENDBRANCH  71  72
ENDBRANCH  50  64
BRANCH  51  76
ATOM     76  C   UNL A   1      36.799  32.828  30.760  1.00  0.00     0.058 A 
ATOM     77  C   UNL A   1      35.479  32.534  31.132  1.00  0.00     0.135 A 
ATOM     78  C   UNL A   1      36.994  33.804  29.769  1.00  0.00     0.135 A 
ATOM     79  F   UNL A   1      35.237  31.599  32.063  1.00  0.00    -0.206 F 
ATOM     80  C   UNL A   1      34.393  33.170  30.536  1.00  0.00     0.059 A 
ATOM     81  C   UNL A   1      35.927  34.474  29.180  1.00  0.00     0.059 A 
ATOM     82  F   UNL A   1      38.237  34.126  29.378  1.00  0.00    -0.206 F 
ATOM     83  C   UNL A   1      34.627  34.143  29.563  1.00  0.00     0.060 A 
BRANCH  83  84
ATOM     84  S   UNL A   1      33.213  34.997  28.834  1.00  0.00     0.124 S 
ATOM     85  O   UNL A   1      32.658  33.962  27.970  1.00  0.00    -0.237 OA
ATOM     86  O   UNL A   1      32.422  35.337  30.013  1.00  0.00    -0.237 OA
ATOM     87  O   UNL A   1      33.823  36.133  28.149  1.00  0.00    -0.744 OA
ENDBRANCH  83  84
ENDBRANCH  51  76
BRANCH  63  88
ATOM     88  C   UNL A   1      39.939  33.375  36.970  1.00  0.00     0.058 A 
ATOM     89  C   UNL A   1      40.653  34.575  37.117  1.00  0.00     0.135 A 
ATOM     90  C   UNL A   1      38.987  33.059  37.955  1.00  0.00     0.135 A 
ATOM     91  F   UNL A   1      41.574  34.930  36.206  1.00  0.00    -0.206 F 
ATOM     92  C   UNL A   1      40.468  35.402  38.223  1.00  0.00     0.059 A 
ATOM     93  C   UNL A   1      38.761  33.888  39.050  1.00  0.00     0.059 A 
ATOM     94  F   UNL A   1      38.260  31.934  37.858  1.00  0.00    -0.206 F 
ATOM     95  C   UNL A   1      39.524  35.046  39.186  1.00  0.00     0.060 A 
BRANCH  95  96
ATOM     96  S   UNL A   1      39.302  36.119  40.622  1.00  0.00     0.124 S 
ATOM     97  O   UNL A   1      40.626  36.068  41.234  1.00  0.00    -0.237 OA
ATOM     98  O   UNL A   1      38.935  37.391  40.009  1.00  0.00    -0.237 OA
ATOM     99  O   UNL A   1      38.237  35.463  41.375  1.00  0.00    -0.744 OA
ENDBRANCH  95  96
ENDBRANCH  63  88
ENDBRANCH  37  38
ENDBRANCH  30  32
ENDBRANCH  29  30
ENDBRANCH  28  29
ENDBRANCH  27  28
ENDBRANCH  26  27
ENDBRANCH  25  26
ENDBRANCH   1  25
TORSDOF 25
ENDMDL
MODEL 2
REMARK VINA RESULT:      -9.3      6.600     11.762
REMARK SMILES CC(C)[C@H]([NH2+]Cc1ccc(N(C)C)cc1)C(=O)OCCOCCOCCOC(=O)c1ccc(-c2c3nc(c(-c4c(F)cc(S(=O)(=O)[O-])cc4F)c4ccc([nH]4)c(-c4c(F)cc(S(=O)(=O)[O-])cc4F)c4nc(c(-c5c(F)cc(S(=O)(=O)[O-])cc5F)c5ccc2[nH]5)C=C4)C=C3)cc1
REMARK SMILES IDX 22 1 21 2 20 3 19 4 18 5 16 6 17 7 4 8 2 9 1 10 3 11 5 12
REMARK SMILES IDX 6 15 7 16 8 17 15 18 9 19 14 20 10 21 11 22 12 23 13 24
REMARK SMILES IDX 23 25 24 26 25 27 26 28 27 29 28 30 29 31 30 32 31 33 95 34
REMARK SMILES IDX 32 35 94 36 33 37 34 38 35 39 88 40 36 41 93 42 87 43 89 44
REMARK SMILES IDX 37 45 92 46 86 47 85 48 38 50 72 51 51 52 71 53 52 54 55 55
REMARK SMILES IDX 70 56 90 57 53 58 54 59 69 61 91 62 56 63 39 64 40 65 49 66
REMARK SMILES IDX 41 67 42 68 48 69 50 70 43 71 44 72 45 73 46 74 47 75 73 76
REMARK SMILES IDX 74 77 83 78 75 79 76 80 82 81 84 82 77 83 78 84 79 85 80 86
REMARK SMILES IDX 81 87 57 88 58 89 67 90 59 91 60 92 66 93 68 94 61 95 62 96
REMARK SMILES IDX 63 97 64 98 65 99
REMARK H PARENT 5 13 5 14 89 49 55 60
REMARK Flexibility Score: inf
ROOT
ATOM      1  C   UNL A   1      32.034  26.951  26.845  1.00  0.00     0.188 C 
ENDROOT
BRANCH   1   2
ATOM      2  O   UNL A   1      30.758  26.340  26.689  1.00  0.00    -0.376 OA
BRANCH   2   3
ATOM      3  C   UNL A   1      30.674  24.990  26.253  1.00  0.00     0.202 C 
BRANCH   3   4
ATOM      4  C   UNL A   1      31.748  23.976  26.681  1.00  0.00     0.261 C 
BRANCH   4   5
ATOM      5  O   UNL A   1      32.441  23.280  25.628  1.00  0.00    -0.459 OA
BRANCH   5   6
ATOM      6  C   UNL A   1      33.684  22.815  25.944  1.00  0.00     0.365 C 
ATOM      7  O   UNL A   1      33.955  22.277  27.015  1.00  0.00    -0.245 OA
BRANCH   6   8
ATOM      8  C   UNL A   1      34.768  23.085  24.866  1.00  0.00     0.296 C 
BRANCH   8   9
ATOM      9  C   UNL A   1      36.129  22.524  25.344  1.00  0.00     0.053 C 
ATOM     10  C   UNL A   1      36.810  21.632  24.302  1.00  0.00     0.014 C 
ATOM     11  C   UNL A   1      37.058  23.660  25.781  1.00  0.00     0.014 C 
ENDBRANCH   8   9
BRANCH   8  12
ATOM     12  N   UNL A   1      34.860  24.512  24.461  1.00  0.00    -0.331 N 
ATOM     13  H   UNL A   1      35.845  24.762  24.369  1.00  0.00     0.347 HD
ATOM     14  H   UNL A   1      34.395  25.066  25.180  1.00  0.00     0.347 HD
BRANCH  12  15
ATOM     15  C   UNL A   1      34.187  24.785  23.188  1.00  0.00     0.298 C 
BRANCH  15  16
ATOM     16  C   UNL A   1      33.254  25.976  23.241  1.00  0.00     0.006 A 
ATOM     17  C   UNL A   1      33.731  27.266  23.472  1.00  0.00     0.012 A 
ATOM     18  C   UNL A   1      31.893  25.835  22.964  1.00  0.00     0.012 A 
ATOM     19  C   UNL A   1      32.868  28.378  23.439  1.00  0.00     0.026 A 
ATOM     20  C   UNL A   1      31.040  26.955  22.933  1.00  0.00     0.026 A 
ATOM     21  C   UNL A   1      31.493  28.266  23.172  1.00  0.00     0.036 A 
BRANCH  21  22
ATOM     22  N   UNL A   1      30.636  29.358  23.138  1.00  0.00    -0.378 N 
ATOM     23  C   UNL A   1      30.302  30.178  24.295  1.00  0.00     0.143 C 
ATOM     24  C   UNL A   1      29.965  29.738  21.895  1.00  0.00     0.143 C 
ENDBRANCH  21  22
ENDBRANCH  15  16
ENDBRANCH  12  15
ENDBRANCH   8  12
ENDBRANCH   6   8
ENDBRANCH   5   6
ENDBRANCH   4   5
ENDBRANCH   3   4
ENDBRANCH   2   3
ENDBRANCH   1   2
BRANCH   1  25
ATOM     25  C   UNL A   1      32.119  28.438  27.241  1.00  0.00     0.188 C 
BRANCH  25  26
ATOM     26  O   UNL A   1      33.432  28.953  27.258  1.00  0.00    -0.376 OA
BRANCH  26  27
ATOM     27  C   UNL A   1      33.582  30.346  27.067  1.00  0.00     0.202 C 
BRANCH  27  28
ATOM     28  C   UNL A   1      34.460  31.165  28.036  1.00  0.00     0.261 C 
BRANCH  28  29
ATOM     29  O   UNL A   1      35.883  30.968  27.963  1.00  0.00    -0.460 OA
BRANCH  29  30
ATOM     30  C   UNL A   1      36.576  30.992  29.122  1.00  0.00     0.338 C 
ATOM     31  O   UNL A   1      36.150  31.340  30.218  1.00  0.00    -0.246 OA
BRANCH  30  32
ATOM     32  C   UNL A   1      37.887  30.337  28.907  1.00  0.00     0.060 A 
ATOM     33  C   UNL A   1      38.799  30.282  29.971  1.00  0.00     0.016 A 
ATOM     34  C   UNL A   1      38.227  29.793  27.665  1.00  0.00     0.016 A 
ATOM     35  C   UNL A   1      40.067  29.728  29.781  1.00  0.00     0.010 A 
ATOM     36  C   UNL A   1      39.507  29.255  27.473  1.00  0.00     0.010 A 
ATOM     37  C   UNL A   1      40.450  29.258  28.517  1.00  0.00    -0.014 A 
BRANCH  37  38
ATOM     38  C   UNL A   1      41.886  28.966  28.254  1.00  0.00     0.031 A 
ATOM     39  C   UNL A   1      42.279  27.551  27.912  1.00  0.00     0.074 A 
ATOM     40  C   UNL A   1      42.818  29.937  28.259  1.00  0.00     0.049 A 
ATOM     41  N   UNL A   1      43.456  27.062  27.611  1.00  0.00    -0.248 NA
ATOM     42  C   UNL A   1      41.197  26.552  27.908  1.00  0.00     0.031 C 
ATOM     43  C   UNL A   1      42.569  31.348  28.546  1.00  0.00     0.029 A 
ATOM     44  N   UNL A   1      44.169  29.877  28.012  1.00  0.00    -0.354 N 
ATOM     45  C   UNL A   1      43.256  25.705  27.383  1.00  0.00     0.074 A 
ATOM     46  C   UNL A   1      41.853  25.440  27.619  1.00  0.00     0.031 C 
ATOM     47  C   UNL A   1      43.729  32.022  28.461  1.00  0.00     0.029 A 
ATOM     48  C   UNL A   1      44.807  31.089  28.136  1.00  0.00     0.049 A 
ATOM     49  H   UNL A   1      44.635  29.045  27.770  1.00  0.00     0.167 HD
ATOM     50  C   UNL A   1      44.154  24.766  26.998  1.00  0.00     0.037 A 
ATOM     51  C   UNL A   1      46.113  31.407  28.010  1.00  0.00     0.037 A 
ATOM     52  C   UNL A   1      45.551  25.028  26.769  1.00  0.00     0.049 A 
ATOM     53  C   UNL A   1      47.104  30.334  27.632  1.00  0.00     0.074 A 
ATOM     54  C   UNL A   1      46.538  24.145  26.367  1.00  0.00     0.029 A 
ATOM     55  N   UNL A   1      46.164  26.262  26.931  1.00  0.00    -0.354 N 
ATOM     56  N   UNL A   1      46.897  29.060  27.392  1.00  0.00    -0.248 NA
ATOM     57  C   UNL A   1      48.509  30.747  27.492  1.00  0.00     0.031 C 
ATOM     58  C   UNL A   1      47.757  24.833  26.336  1.00  0.00     0.029 A 
ATOM     59  C   UNL A   1      47.519  26.159  26.656  1.00  0.00     0.049 A 
ATOM     60  H   UNL A   1      45.704  27.090  27.201  1.00  0.00     0.167 HD
ATOM     61  C   UNL A   1      48.134  28.530  27.038  1.00  0.00     0.074 A 
ATOM     62  C   UNL A   1      49.083  29.623  27.084  1.00  0.00     0.031 C 
ATOM     63  C   UNL A   1      48.456  27.255  26.700  1.00  0.00     0.037 A 
BRANCH  50  64
ATOM     64  C   UNL A   1      43.654  23.355  26.825  1.00  0.00     0.058 A 
ATOM     65  C   UNL A   1      43.329  22.542  27.924  1.00  0.00     0.135 A 
ATOM     66  C   UNL A   1      43.470  22.818  25.540  1.00  0.00     0.135 A 
ATOM     67  F   UNL A   1      43.503  22.995  29.176  1.00  0.00    -0.206 F 
ATOM     68  C   UNL A   1      42.869  21.240  27.756  1.00  0.00     0.059 A 
ATOM     69  C   UNL A   1      42.981  21.529  25.348  1.00  0.00     0.059 A 
ATOM     70  F   UNL A   1      43.765  23.549  24.454  1.00  0.00    -0.206 F 
ATOM     71  C   UNL A   1      42.697  20.742  26.463  1.00  0.00     0.060 A 
BRANCH  71  72
ATOM     72  S   UNL A   1      42.092  19.054  26.263  1.00  0.00     0.124 S 
ATOM     73  O   UNL A   1      40.732  19.285  25.784  1.00  0.00    -0.237 OA
ATOM     74  O   UNL A   1      43.022  18.503  25.283  1.00  0.00    -0.237 OA
ATOM     75  O   UNL A   1      42.196  18.493  27.606  1.00  0.00    -0.744 OA
ENDBRANCH  71  72
ENDBRANCH  50  64
BRANCH  51  76
ATOM     76  C   UNL A   1      46.565  32.809  28.234  1.00  0.00     0.058 A 
ATOM     77  C   UNL A   1      46.516  33.764  27.207  1.00  0.00     0.135 A 
ATOM     78  C   UNL A   1      47.066  33.218  29.480  1.00  0.00     0.135 A 
ATOM     79  F   UNL A   1      46.060  33.420  25.993  1.00  0.00    -0.206 F 
ATOM     80  C   UNL A   1      46.960  35.069  27.401  1.00  0.00     0.059 A 
ATOM     81  C   UNL A   1      47.489  34.524  29.707  1.00  0.00     0.059 A 
ATOM     82  F   UNL A   1      47.131  32.346  30.498  1.00  0.00    -0.206 F 
ATOM     83  C   UNL A   1      47.442  35.441  28.657  1.00  0.00     0.060 A 
BRANCH  83  84
ATOM     84  S   UNL A   1      47.968  37.150  28.912  1.00  0.00     0.124 S 
ATOM     85  O   UNL A   1      47.063  37.582  29.970  1.00  0.00    -0.237 OA
ATOM     86  O   UNL A   1      49.367  36.984  29.295  1.00  0.00    -0.237 OA
ATOM     87  O   UNL A   1      47.753  37.766  27.606  1.00  0.00    -0.744 OA
ENDBRANCH  83  84
ENDBRANCH  51  76
BRANCH  63  88
ATOM     88  C   UNL A   1      49.884  26.981  26.298  1.00  0.00     0.058 A 
ATOM     89  C   UNL A   1      50.343  27.180  24.987  1.00  0.00     0.135 A 
ATOM     90  C   UNL A   1      50.812  26.526  27.251  1.00  0.00     0.135 A 
ATOM     91  F   UNL A   1      49.502  27.615  24.034  1.00  0.00    -0.206 F 
ATOM     92  C   UNL A   1      51.656  26.891  24.622  1.00  0.00     0.059 A 
ATOM     93  C   UNL A   1      52.137  26.264  26.917  1.00  0.00     0.059 A 
ATOM     94  F   UNL A   1      50.435  26.335  28.526  1.00  0.00    -0.206 F 
ATOM     95  C   UNL A   1      52.543  26.427  25.595  1.00  0.00     0.060 A 
BRANCH  95  96
ATOM     96  S   UNL A   1      54.240  26.043  25.108  1.00  0.00     0.124 S 
ATOM     97  O   UNL A   1      54.379  26.825  23.884  1.00  0.00    -0.237 OA
ATOM     98  O   UNL A   1      55.010  26.516  26.255  1.00  0.00    -0.237 OA
ATOM     99  O   UNL A   1      54.221  24.594  24.928  1.00  0.00    -0.744 OA
ENDBRANCH  95  96
ENDBRANCH  63  88
ENDBRANCH  37  38
ENDBRANCH  30  32
ENDBRANCH  29  30
ENDBRANCH  28  29
ENDBRANCH  27  28
ENDBRANCH  26  27
ENDBRANCH  25  26
ENDBRANCH   1  25
TORSDOF 25
ENDMDL
MODEL 3
REMARK VINA RESULT:      -8.9      1.557      3.712
REMARK SMILES CC(C)[C@H]([NH2+]Cc1ccc(N(C)C)cc1)C(=O)OCCOCCOCCOC(=O)c1ccc(-c2c3nc(c(-c4c(F)cc(S(=O)(=O)[O-])cc4F)c4ccc([nH]4)c(-c4c(F)cc(S(=O)(=O)[O-])cc4F)c4nc(c(-c5c(F)cc(S(=O)(=O)[O-])cc5F)c5ccc2[nH]5)C=C4)C=C3)cc1
REMARK SMILES IDX 22 1 21 2 20 3 19 4 18 5 16 6 17 7 4 8 2 9 1 10 3 11 5 12
REMARK SMILES IDX 6 15 7 16 8 17 15 18 9 19 14 20 10 21 11 22 12 23 13 24
REMARK SMILES IDX 23 25 24 26 25 27 26 28 27 29 28 30 29 31 30 32 31 33 95 34
REMARK SMILES IDX 32 35 94 36 33 37 34 38 35 39 88 40 36 41 93 42 87 43 89 44
REMARK SMILES IDX 37 45 92 46 86 47 85 48 38 50 72 51 51 52 71 53 52 54 55 55
REMARK SMILES IDX 70 56 90 57 53 58 54 59 69 61 91 62 56 63 39 64 40 65 49 66
REMARK SMILES IDX 41 67 42 68 48 69 50 70 43 71 44 72 45 73 46 74 47 75 73 76
REMARK SMILES IDX 74 77 83 78 75 79 76 80 82 81 84 82 77 83 78 84 79 85 80 86
REMARK SMILES IDX 81 87 57 88 58 89 67 90 59 91 60 92 66 93 68 94 61 95 62 96
REMARK SMILES IDX 63 97 64 98 65 99
REMARK H PARENT 5 13 5 14 89 49 55 60
REMARK Flexibility Score: inf
ROOT
ATOM      1  C   UNL A   1      40.271  20.839  26.323  1.00  0.00     0.188 C 
ENDROOT
BRANCH   1   2
ATOM      2  O   UNL A   1      39.161  21.728  26.285  1.00  0.00    -0.376 OA
BRANCH   2   3
ATOM      3  C   UNL A   1      38.098  21.488  25.373  1.00  0.00     0.202 C 
BRANCH   3   4
ATOM      4  C   UNL A   1      37.116  22.617  25.021  1.00  0.00     0.261 C 
BRANCH   4   5
ATOM      5  O   UNL A   1      35.794  22.528  25.585  1.00  0.00    -0.459 OA
BRANCH   5   6
ATOM      6  C   UNL A   1      34.980  23.600  25.358  1.00  0.00     0.365 C 
ATOM      7  O   UNL A   1      35.395  24.711  25.042  1.00  0.00    -0.245 OA
BRANCH   6   8
ATOM      8  C   UNL A   1      33.471  23.328  25.606  1.00  0.00     0.296 C 
BRANCH   8   9
ATOM      9  C   UNL A   1      33.305  22.038  26.443  1.00  0.00     0.053 C 
ATOM     10  C   UNL A   1      32.894  22.311  27.893  1.00  0.00     0.014 C 
ATOM     11  C   UNL A   1      32.320  21.079  25.767  1.00  0.00     0.014 C 
ENDBRANCH   8   9
BRANCH   8  12
ATOM     12  N   UNL A   1      32.662  23.298  24.360  1.00  0.00    -0.331 N 
ATOM     13  H   UNL A   1      32.303  22.352  24.226  1.00  0.00     0.347 HD
ATOM     14  H   UNL A   1      33.268  23.585  23.592  1.00  0.00     0.347 HD
BRANCH  12  15
ATOM     15  C   UNL A   1      31.527  24.227  24.397  1.00  0.00     0.298 C 
BRANCH  15  16
ATOM     16  C   UNL A   1      31.891  25.605  24.905  1.00  0.00     0.006 A 
ATOM     17  C   UNL A   1      32.618  26.503  24.122  1.00  0.00     0.012 A 
ATOM     18  C   UNL A   1      31.429  26.061  26.142  1.00  0.00     0.012 A 
ATOM     19  C   UNL A   1      32.881  27.811  24.571  1.00  0.00     0.026 A 
ATOM     20  C   UNL A   1      31.699  27.371  26.578  1.00  0.00     0.026 A 
ATOM     21  C   UNL A   1      32.437  28.293  25.813  1.00  0.00     0.036 A 
BRANCH  21  22
ATOM     22  N   UNL A   1      32.694  29.583  26.261  1.00  0.00    -0.378 N 
ATOM     23  C   UNL A   1      33.958  30.015  26.843  1.00  0.00     0.143 C 
ATOM     24  C   UNL A   1      31.654  30.610  26.207  1.00  0.00     0.143 C 
ENDBRANCH  21  22
ENDBRANCH  15  16
ENDBRANCH  12  15
ENDBRANCH   8  12
ENDBRANCH   6   8
ENDBRANCH   5   6
ENDBRANCH   4   5
ENDBRANCH   3   4
ENDBRANCH   2   3
ENDBRANCH   1   2
BRANCH   1  25
ATOM     25  C   UNL A   1      41.533  21.235  27.114  1.00  0.00     0.188 C 
BRANCH  25  26
ATOM     26  O   UNL A   1      42.680  20.486  26.778  1.00  0.00    -0.376 OA
BRANCH  26  27
ATOM     27  C   UNL A   1      43.497  20.987  25.740  1.00  0.00     0.202 C 
BRANCH  27  28
ATOM     28  C   UNL A   1      44.061  22.420  25.828  1.00  0.00     0.261 C 
BRANCH  28  29
ATOM     29  O   UNL A   1      43.120  23.506  25.757  1.00  0.00    -0.460 OA
BRANCH  29  30
ATOM     30  C   UNL A   1      43.615  24.753  25.606  1.00  0.00     0.338 C 
ATOM     31  O   UNL A   1      44.354  25.139  24.706  1.00  0.00    -0.246 OA
BRANCH  30  32
ATOM     32  C   UNL A   1      42.965  25.647  26.592  1.00  0.00     0.060 A 
ATOM     33  C   UNL A   1      43.417  26.969  26.708  1.00  0.00     0.016 A 
ATOM     34  C   UNL A   1      41.927  25.187  27.409  1.00  0.00     0.016 A 
ATOM     35  C   UNL A   1      42.868  27.817  27.673  1.00  0.00     0.010 A 
ATOM     36  C   UNL A   1      41.391  26.035  28.388  1.00  0.00     0.010 A 
ATOM     37  C   UNL A   1      41.887  27.341  28.555  1.00  0.00    -0.014 A 
BRANCH  37  38
ATOM     38  C   UNL A   1      41.541  28.143  29.760  1.00  0.00     0.031 A 
ATOM     39  C   UNL A   1      42.374  27.965  31.005  1.00  0.00     0.074 A 
ATOM     40  C   UNL A   1      40.550  29.054  29.743  1.00  0.00     0.049 A 
ATOM     41  N   UNL A   1      42.287  28.573  32.160  1.00  0.00    -0.248 NA
ATOM     42  C   UNL A   1      43.451  26.963  30.935  1.00  0.00     0.031 C 
ATOM     43  C   UNL A   1      39.688  29.346  28.599  1.00  0.00     0.029 A 
ATOM     44  N   UNL A   1      40.104  29.906  30.726  1.00  0.00    -0.354 N 
ATOM     45  C   UNL A   1      43.294  28.031  32.951  1.00  0.00     0.074 A 
ATOM     46  C   UNL A   1      43.952  27.016  32.159  1.00  0.00     0.031 C 
ATOM     47  C   UNL A   1      38.816  30.308  28.945  1.00  0.00     0.029 A 
ATOM     48  C   UNL A   1      39.040  30.685  30.340  1.00  0.00     0.049 A 
ATOM     49  H   UNL A   1      40.509  29.952  31.621  1.00  0.00     0.167 HD
ATOM     50  C   UNL A   1      43.648  28.356  34.218  1.00  0.00     0.037 A 
ATOM     51  C   UNL A   1      38.323  31.594  31.036  1.00  0.00     0.037 A 
ATOM     52  C   UNL A   1      42.989  29.362  35.011  1.00  0.00     0.049 A 
ATOM     53  C   UNL A   1      38.703  31.903  32.463  1.00  0.00     0.074 A 
ATOM     54  C   UNL A   1      43.281  29.771  36.300  1.00  0.00     0.029 A 
ATOM     55  N   UNL A   1      41.898  30.111  34.594  1.00  0.00    -0.354 N 
ATOM     56  N   UNL A   1      39.675  31.402  33.189  1.00  0.00    -0.248 NA
ATOM     57  C   UNL A   1      37.895  32.914  33.162  1.00  0.00     0.031 C 
ATOM     58  C   UNL A   1      42.335  30.730  36.682  1.00  0.00     0.029 A 
ATOM     59  C   UNL A   1      41.493  30.966  35.608  1.00  0.00     0.049 A 
ATOM     60  H   UNL A   1      41.474  30.046  33.708  1.00  0.00     0.167 HD
ATOM     61  C   UNL A   1      39.618  32.062  34.414  1.00  0.00     0.074 A 
ATOM     62  C   UNL A   1      38.523  33.007  34.325  1.00  0.00     0.031 C 
ATOM     63  C   UNL A   1      40.403  31.906  35.509  1.00  0.00     0.037 A 
BRANCH  50  64
ATOM     64  C   UNL A   1      44.791  27.595  34.838  1.00  0.00     0.058 A 
ATOM     65  C   UNL A   1      46.131  27.944  34.601  1.00  0.00     0.135 A 
ATOM     66  C   UNL A   1      44.541  26.516  35.704  1.00  0.00     0.135 A 
ATOM     67  F   UNL A   1      46.430  28.952  33.768  1.00  0.00    -0.206 F 
ATOM     68  C   UNL A   1      47.181  27.234  35.177  1.00  0.00     0.059 A 
ATOM     69  C   UNL A   1      45.575  25.813  36.315  1.00  0.00     0.059 A 
ATOM     70  F   UNL A   1      43.280  26.138  35.965  1.00  0.00    -0.206 F 
ATOM     71  C   UNL A   1      46.892  26.170  36.034  1.00  0.00     0.060 A 
BRANCH  71  72
ATOM     72  S   UNL A   1      48.266  25.266  36.777  1.00  0.00     0.124 S 
ATOM     73  O   UNL A   1      48.816  24.567  35.618  1.00  0.00    -0.237 OA
ATOM     74  O   UNL A   1      49.091  26.341  37.318  1.00  0.00    -0.237 OA
ATOM     75  O   UNL A   1      47.617  24.416  37.770  1.00  0.00    -0.744 OA
ENDBRANCH  71  72
ENDBRANCH  50  64
BRANCH  51  76
ATOM     76  C   UNL A   1      37.174  32.289  30.392  1.00  0.00     0.058 A 
ATOM     77  C   UNL A   1      37.353  33.478  29.667  1.00  0.00     0.135 A 
ATOM     78  C   UNL A   1      35.868  31.783  30.498  1.00  0.00     0.135 A 
ATOM     79  F   UNL A   1      38.578  34.012  29.548  1.00  0.00    -0.206 F 
ATOM     80  C   UNL A   1      36.280  34.147  29.085  1.00  0.00     0.059 A 
ATOM     81  C   UNL A   1      34.784  32.418  29.900  1.00  0.00     0.059 A 
ATOM     82  F   UNL A   1      35.641  30.647  31.177  1.00  0.00    -0.206 F 
ATOM     83  C   UNL A   1      34.999  33.607  29.204  1.00  0.00     0.060 A 
BRANCH  83  84
ATOM     84  S   UNL A   1      33.623  34.457  28.400  1.00  0.00     0.124 S 
ATOM     85  O   UNL A   1      34.323  35.382  27.518  1.00  0.00    -0.237 OA
ATOM     86  O   UNL A   1      32.924  33.354  27.745  1.00  0.00    -0.237 OA
ATOM     87  O   UNL A   1      32.907  35.067  29.517  1.00  0.00    -0.744 OA
ENDBRANCH  83  84
ENDBRANCH  51  76
BRANCH  63  88
ATOM     88  C   UNL A   1      40.145  32.814  36.686  1.00  0.00     0.058 A 
ATOM     89  C   UNL A   1      39.093  32.590  37.587  1.00  0.00     0.135 A 
ATOM     90  C   UNL A   1      40.980  33.921  36.922  1.00  0.00     0.135 A 
ATOM     91  F   UNL A   1      38.264  31.548  37.413  1.00  0.00    -0.206 F 
ATOM     92  C   UNL A   1      38.846  33.456  38.650  1.00  0.00     0.059 A 
ATOM     93  C   UNL A   1      40.773  34.779  37.997  1.00  0.00     0.059 A 
ATOM     94  F   UNL A   1      42.015  34.175  36.104  1.00  0.00    -0.206 F 
ATOM     95  C   UNL A   1      39.689  34.551  38.842  1.00  0.00     0.060 A 
BRANCH  95  96
ATOM     96  S   UNL A   1      39.352  35.675  40.215  1.00  0.00     0.124 S 
ATOM     97  O   UNL A   1      38.247  34.997  40.885  1.00  0.00    -0.237 OA
ATOM     98  O   UNL A   1      40.622  35.681  40.935  1.00  0.00    -0.237 OA
ATOM     99  O   UNL A   1      39.009  36.929  39.552  1.00  0.00    -0.744 OA
ENDBRANCH  95  96
ENDBRANCH  63  88
ENDBRANCH  37  38
ENDBRANCH  30  32
ENDBRANCH  29  30
ENDBRANCH  28  29
ENDBRANCH  27  28
ENDBRANCH  26  27
ENDBRANCH  25  26
ENDBRANCH   1  25
TORSDOF 25
ENDMDL
