MODEL 1
REMARK VINA RESULT:      -9.2      0.000      0.000
REMARK SMILES CC(C)(C)[NH+]1CCN(C(=O)CCCC(=O)OCCOCCOCCOC(=O)c2ccc(-c3c4nc(c(-c5c(F)cc(S(=O)(=O)[O-])cc5F)c5ccc([nH]5)c(-c5c(F)cc(S(=O)(=O)[O-])cc5F)c5nc(c(-c6c(F)cc(S(=O)(=O)[O-])cc6F)c6ccc3[nH]6)C=C5)C=C4)cc2)CC1
REMARK SMILES IDX 20 1 19 2 18 3 17 4 16 5 14 6 15 7 13 8 12 9 11 10 9 11 5 12
REMARK SMILES IDX 6 13 95 14 7 16 94 17 8 18 10 19 2 20 1 21 3 22 4 23 21 24
REMARK SMILES IDX 22 25 23 26 24 27 25 28 26 29 27 30 28 31 29 32 93 33 30 34
REMARK SMILES IDX 92 35 31 36 32 37 33 38 86 39 34 40 91 41 85 42 87 43 35 44
REMARK SMILES IDX 90 45 84 46 83 47 36 49 70 50 49 51 69 52 50 53 53 54 68 55
REMARK SMILES IDX 88 56 51 57 52 58 67 60 89 61 54 62 37 63 38 64 47 65 39 66
REMARK SMILES IDX 40 67 46 68 48 69 41 70 42 71 43 72 44 73 45 74 71 75 72 76
REMARK SMILES IDX 81 77 73 78 74 79 80 80 82 81 75 82 76 83 77 84 78 85 79 86
REMARK SMILES IDX 55 87 56 88 65 89 57 90 58 91 64 92 66 93 59 94 60 95 61 96
REMARK SMILES IDX 62 97 63 98
REMARK H PARENT 5 15 87 48 53 59
REMARK Flexibility Score: inf
ROOT
ATOM      1  C   UNL A   1      45.055  20.609  24.635  1.00  0.00     0.188 C 
ENDROOT
BRANCH   1   2
ATOM      2  O   UNL A   1      44.994  19.451  25.467  1.00  0.00    -0.376 OA
BRANCH   2   3
ATOM      3  C   UNL A   1      43.859  18.598  25.375  1.00  0.00     0.202 C 
BRANCH   3   4
ATOM      4  C   UNL A   1      42.507  19.206  25.750  1.00  0.00     0.261 C 
BRANCH   4   5
ATOM      5  O   UNL A   1      42.396  19.508  27.157  1.00  0.00    -0.463 OA
BRANCH   5   6
ATOM      6  C   UNL A   1      41.983  20.750  27.510  1.00  0.00     0.305 C 
ATOM      7  O   UNL A   1      42.710  21.585  28.036  1.00  0.00    -0.252 OA
BRANCH   6   8
ATOM      8  C   UNL A   1      40.495  21.025  27.275  1.00  0.00     0.123 C 
BRANCH   8   9
ATOM      9  C   UNL A   1      39.899  21.890  26.145  1.00  0.00     0.022 C 
BRANCH   9  10
ATOM     10  C   UNL A   1      38.416  21.847  25.768  1.00  0.00     0.101 C 
BRANCH  10  11
ATOM     11  C   UNL A   1      37.626  23.152  25.894  1.00  0.00     0.222 C 
ATOM     12  N   UNL A   1      33.801  23.150  24.103  1.00  0.00    -0.328 N 
ATOM     13  C   UNL A   1      34.684  24.324  24.274  1.00  0.00     0.284 C 
ATOM     14  C   UNL A   1      34.581  21.920  24.290  1.00  0.00     0.284 C 
ATOM     15  H   UNL A   1      33.478  23.211  23.138  1.00  0.00     0.348 HD
ATOM     16  C   UNL A   1      35.483  24.351  25.592  1.00  0.00     0.181 C 
ATOM     17  C   UNL A   1      35.463  21.925  25.544  1.00  0.00     0.181 C 
ATOM     18  N   UNL A   1      36.258  23.122  25.710  1.00  0.00    -0.331 N 
ATOM     19  O   UNL A   1      38.230  24.209  26.092  1.00  0.00    -0.275 OA
BRANCH  12  20
ATOM     20  C   UNL A   1      32.457  23.153  24.726  1.00  0.00     0.089 C 
ATOM     21  C   UNL A   1      31.922  21.712  24.546  1.00  0.00     0.078 C 
ATOM     22  C   UNL A   1      31.473  24.102  24.011  1.00  0.00     0.078 C 
ATOM     23  C   UNL A   1      32.399  23.488  26.234  1.00  0.00     0.078 C 
ENDBRANCH  12  20
ENDBRANCH  10  11
ENDBRANCH   9  10
ENDBRANCH   8   9
ENDBRANCH   6   8
ENDBRANCH   5   6
ENDBRANCH   4   5
ENDBRANCH   3   4
ENDBRANCH   2   3
ENDBRANCH   1   2
BRANCH   1  24
ATOM     24  C   UNL A   1      45.158  21.988  25.316  1.00  0.00     0.188 C 
BRANCH  24  25
ATOM     25  O   UNL A   1      45.118  23.063  24.404  1.00  0.00    -0.376 OA
BRANCH  25  26
ATOM     26  C   UNL A   1      44.331  24.185  24.752  1.00  0.00     0.202 C 
BRANCH  26  27
ATOM     27  C   UNL A   1      43.684  24.243  26.147  1.00  0.00     0.261 C 
BRANCH  27  28
ATOM     28  O   UNL A   1      42.267  24.486  26.212  1.00  0.00    -0.460 OA
BRANCH  28  29
ATOM     29  C   UNL A   1      41.818  25.749  26.024  1.00  0.00     0.338 C 
ATOM     30  O   UNL A   1      41.341  26.201  24.997  1.00  0.00    -0.246 OA
BRANCH  29  31
ATOM     31  C   UNL A   1      41.757  26.407  27.359  1.00  0.00     0.060 A 
ATOM     32  C   UNL A   1      40.809  25.965  28.297  1.00  0.00     0.016 A 
ATOM     33  C   UNL A   1      42.664  27.409  27.710  1.00  0.00     0.016 A 
ATOM     34  C   UNL A   1      40.747  26.547  29.570  1.00  0.00     0.010 A 
ATOM     35  C   UNL A   1      42.585  28.006  28.974  1.00  0.00     0.010 A 
ATOM     36  C   UNL A   1      41.607  27.601  29.902  1.00  0.00    -0.014 A 
BRANCH  36  37
ATOM     37  C   UNL A   1      41.347  28.435  31.107  1.00  0.00     0.031 A 
ATOM     38  C   UNL A   1      40.223  29.439  31.035  1.00  0.00     0.074 A 
ATOM     39  C   UNL A   1      42.087  28.335  32.227  1.00  0.00     0.049 A 
ATOM     40  N   UNL A   1      39.865  30.350  31.901  1.00  0.00    -0.248 NA
ATOM     41  C   UNL A   1      39.398  29.412  29.816  1.00  0.00     0.031 C 
ATOM     42  C   UNL A   1      43.180  27.390  32.443  1.00  0.00     0.029 A 
ATOM     43  N   UNL A   1      42.040  29.064  33.394  1.00  0.00    -0.354 N 
ATOM     44  C   UNL A   1      38.794  31.021  31.321  1.00  0.00     0.074 A 
ATOM     45  C   UNL A   1      38.564  30.419  30.027  1.00  0.00     0.031 C 
ATOM     46  C   UNL A   1      43.721  27.618  33.655  1.00  0.00     0.029 A 
ATOM     47  C   UNL A   1      43.036  28.745  34.289  1.00  0.00     0.049 A 
ATOM     48  H   UNL A   1      41.356  29.750  33.572  1.00  0.00     0.167 HD
ATOM     49  C   UNL A   1      38.069  32.049  31.820  1.00  0.00     0.037 A 
ATOM     50  C   UNL A   1      43.376  29.318  35.462  1.00  0.00     0.037 A 
ATOM     51  C   UNL A   1      38.282  32.636  33.115  1.00  0.00     0.049 A 
ATOM     52  C   UNL A   1      42.574  30.492  35.978  1.00  0.00     0.074 A 
ATOM     53  C   UNL A   1      37.559  33.644  33.728  1.00  0.00     0.029 A 
ATOM     54  N   UNL A   1      39.295  32.280  33.991  1.00  0.00    -0.354 N 
ATOM     55  N   UNL A   1      41.531  31.082  35.442  1.00  0.00    -0.248 NA
ATOM     56  C   UNL A   1      42.994  31.080  37.261  1.00  0.00     0.031 C 
ATOM     57  C   UNL A   1      38.169  33.939  34.950  1.00  0.00     0.029 A 
ATOM     58  C   UNL A   1      39.235  33.071  35.125  1.00  0.00     0.049 A 
ATOM     59  H   UNL A   1      39.958  31.569  33.831  1.00  0.00     0.167 HD
ATOM     60  C   UNL A   1      41.155  32.082  36.337  1.00  0.00     0.074 A 
ATOM     61  C   UNL A   1      42.072  32.013  37.453  1.00  0.00     0.031 C 
ATOM     62  C   UNL A   1      40.141  32.978  36.242  1.00  0.00     0.037 A 
BRANCH  49  63
ATOM     63  C   UNL A   1      36.989  32.635  30.957  1.00  0.00     0.058 A 
ATOM     64  C   UNL A   1      35.648  32.237  31.072  1.00  0.00     0.135 A 
ATOM     65  C   UNL A   1      37.294  33.668  30.055  1.00  0.00     0.135 A 
ATOM     66  F   UNL A   1      35.308  31.238  31.902  1.00  0.00    -0.206 F 
ATOM     67  C   UNL A   1      34.646  32.845  30.323  1.00  0.00     0.059 A 
ATOM     68  C   UNL A   1      36.304  34.307  29.316  1.00  0.00     0.059 A 
ATOM     69  F   UNL A   1      38.563  34.078  29.902  1.00  0.00    -0.206 F 
ATOM     70  C   UNL A   1      34.983  33.886  29.455  1.00  0.00     0.060 A 
BRANCH  70  71
ATOM     71  S   UNL A   1      33.663  34.700  28.532  1.00  0.00     0.124 S 
ATOM     72  O   UNL A   1      32.579  34.698  29.511  1.00  0.00    -0.237 OA
ATOM     73  O   UNL A   1      34.249  36.003  28.237  1.00  0.00    -0.237 OA
ATOM     74  O   UNL A   1      33.466  33.828  27.379  1.00  0.00    -0.744 OA
ENDBRANCH  70  71
ENDBRANCH  49  63
BRANCH  50  75
ATOM     75  C   UNL A   1      44.560  28.835  36.229  1.00  0.00     0.058 A 
ATOM     76  C   UNL A   1      44.457  27.771  37.139  1.00  0.00     0.135 A 
ATOM     77  C   UNL A   1      45.807  29.470  36.110  1.00  0.00     0.135 A 
ATOM     78  F   UNL A   1      43.284  27.140  37.304  1.00  0.00    -0.206 F 
ATOM     79  C   UNL A   1      45.536  27.377  37.928  1.00  0.00     0.059 A 
ATOM     80  C   UNL A   1      46.908  29.073  36.866  1.00  0.00     0.059 A 
ATOM     81  F   UNL A   1      45.964  30.489  35.252  1.00  0.00    -0.206 F 
ATOM     82  C   UNL A   1      46.757  28.038  37.786  1.00  0.00     0.060 A 
BRANCH  82  83
ATOM     83  S   UNL A   1      48.152  27.516  38.807  1.00  0.00     0.124 S 
ATOM     84  O   UNL A   1      47.643  26.280  39.389  1.00  0.00    -0.237 OA
ATOM     85  O   UNL A   1      49.217  27.366  37.820  1.00  0.00    -0.237 OA
ATOM     86  O   UNL A   1      48.322  28.628  39.736  1.00  0.00    -0.744 OA
ENDBRANCH  82  83
ENDBRANCH  50  75
BRANCH  62  87
ATOM     87  C   UNL A   1      39.924  33.924  37.393  1.00  0.00     0.058 A 
ATOM     88  C   UNL A   1      40.502  35.203  37.423  1.00  0.00     0.135 A 
ATOM     89  C   UNL A   1      39.070  33.569  38.450  1.00  0.00     0.135 A 
ATOM     90  F   UNL A   1      41.329  35.593  36.440  1.00  0.00    -0.206 F 
ATOM     91  C   UNL A   1      40.261  36.087  38.470  1.00  0.00     0.059 A 
ATOM     92  C   UNL A   1      38.788  34.448  39.493  1.00  0.00     0.059 A 
ATOM     93  F   UNL A   1      38.478  32.365  38.466  1.00  0.00    -0.206 F 
ATOM     94  C   UNL A   1      39.400  35.701  39.500  1.00  0.00     0.060 A 
BRANCH  94  95
ATOM     95  S   UNL A   1      39.065  36.870  40.835  1.00  0.00     0.124 S 
ATOM     96  O   UNL A   1      38.190  36.086  41.700  1.00  0.00    -0.237 OA
ATOM     97  O   UNL A   1      40.401  37.138  41.359  1.00  0.00    -0.237 OA
ATOM     98  O   UNL A   1      38.429  37.993  40.151  1.00  0.00    -0.744 OA
ENDBRANCH  94  95
ENDBRANCH  62  87
ENDBRANCH  36  37
ENDBRANCH  29  31
ENDBRANCH  28  29
ENDBRANCH  27  28
ENDBRANCH  26  27
ENDBRANCH  25  26
ENDBRANCH  24  25
ENDBRANCH   1  24
TORSDOF 24
ENDMDL
MODEL 2
REMARK VINA RESULT:      -9.1      2.690      9.681
REMARK SMILES CC(C)(C)[NH+]1CCN(C(=O)CCCC(=O)OCCOCCOCCOC(=O)c2ccc(-c3c4nc(c(-c5c(F)cc(S(=O)(=O)[O-])cc5F)c5ccc([nH]5)c(-c5c(F)cc(S(=O)(=O)[O-])cc5F)c5nc(c(-c6c(F)cc(S(=O)(=O)[O-])cc6F)c6ccc3[nH]6)C=C5)C=C4)cc2)CC1
REMARK SMILES IDX 20 1 19 2 18 3 17 4 16 5 14 6 15 7 13 8 12 9 11 10 9 11 5 12
REMARK SMILES IDX 6 13 95 14 7 16 94 17 8 18 10 19 2 20 1 21 3 22 4 23 21 24
REMARK SMILES IDX 22 25 23 26 24 27 25 28 26 29 27 30 28 31 29 32 93 33 30 34
REMARK SMILES IDX 92 35 31 36 32 37 33 38 86 39 34 40 91 41 85 42 87 43 35 44
REMARK SMILES IDX 90 45 84 46 83 47 36 49 70 50 49 51 69 52 50 53 53 54 68 55
REMARK SMILES IDX 88 56 51 57 52 58 67 60 89 61 54 62 37 63 38 64 47 65 39 66
REMARK SMILES IDX 40 67 46 68 48 69 41 70 42 71 43 72 44 73 45 74 71 75 72 76
REMARK SMILES IDX 81 77 73 78 74 79 80 80 82 81 75 82 76 83 77 84 78 85 79 86
REMARK SMILES IDX 55 87 56 88 65 89 57 90 58 91 64 92 66 93 59 94 60 95 61 96
REMARK SMILES IDX 62 97 63 98
REMARK H PARENT 5 15 87 48 53 59
REMARK Flexibility Score: inf
ROOT
ATOM      1  C   UNL A   1      42.097  20.531  26.065  1.00  0.00     0.188 C 
ENDROOT
BRANCH   1   2
ATOM      2  O   UNL A   1      42.370  19.372  25.280  1.00  0.00    -0.376 OA
BRANCH   2   3
ATOM      3  C   UNL A   1      43.722  18.966  25.101  1.00  0.00     0.202 C 
BRANCH   3   4
ATOM      4  C   UNL A   1      44.777  20.072  25.074  1.00  0.00     0.261 C 
BRANCH   4   5
ATOM      5  O   UNL A   1      44.787  20.813  23.835  1.00  0.00    -0.463 OA
BRANCH   5   6
ATOM      6  C   UNL A   1      44.711  22.164  23.901  1.00  0.00     0.305 C 
ATOM      7  O   UNL A   1      43.681  22.798  23.707  1.00  0.00    -0.252 OA
BRANCH   6   8
ATOM      8  C   UNL A   1      46.044  22.871  24.165  1.00  0.00     0.123 C 
BRANCH   8   9
ATOM      9  C   UNL A   1      46.456  23.569  25.477  1.00  0.00     0.022 C 
BRANCH   9  10
ATOM     10  C   UNL A   1      45.461  24.339  26.351  1.00  0.00     0.101 C 
BRANCH  10  11
ATOM     11  C   UNL A   1      45.644  25.855  26.445  1.00  0.00     0.222 C 
ATOM     12  N   UNL A   1      45.916  27.420  30.359  1.00  0.00    -0.328 N 
ATOM     13  C   UNL A   1      45.380  28.123  29.173  1.00  0.00     0.284 C 
ATOM     14  C   UNL A   1      45.987  25.979  30.082  1.00  0.00     0.284 C 
ATOM     15  H   UNL A   1      45.230  27.597  31.093  1.00  0.00     0.348 HD
ATOM     16  C   UNL A   1      46.123  27.833  27.854  1.00  0.00     0.181 C 
ATOM     17  C   UNL A   1      46.640  25.633  28.740  1.00  0.00     0.181 C 
ATOM     18  N   UNL A   1      46.138  26.394  27.617  1.00  0.00    -0.331 N 
ATOM     19  O   UNL A   1      45.289  26.568  25.503  1.00  0.00    -0.275 OA
BRANCH  12  20
ATOM     20  C   UNL A   1      47.078  27.989  31.080  1.00  0.00     0.089 C 
ATOM     21  C   UNL A   1      47.101  27.268  32.449  1.00  0.00     0.078 C 
ATOM     22  C   UNL A   1      46.924  29.498  31.357  1.00  0.00     0.078 C 
ATOM     23  C   UNL A   1      48.462  27.784  30.420  1.00  0.00     0.078 C 
ENDBRANCH  12  20
ENDBRANCH  10  11
ENDBRANCH   9  10
ENDBRANCH   8   9
ENDBRANCH   6   8
ENDBRANCH   5   6
ENDBRANCH   4   5
ENDBRANCH   3   4
ENDBRANCH   2   3
ENDBRANCH   1   2
BRANCH   1  24
ATOM     24  C   UNL A   1      41.049  20.417  27.190  1.00  0.00     0.188 C 
BRANCH  24  25
ATOM     25  O   UNL A   1      39.736  20.698  26.758  1.00  0.00    -0.376 OA
BRANCH  25  26
ATOM     26  C   UNL A   1      39.505  21.954  26.151  1.00  0.00     0.202 C 
BRANCH  26  27
ATOM     27  C   UNL A   1      39.709  23.236  26.978  1.00  0.00     0.261 C 
BRANCH  27  28
ATOM     28  O   UNL A   1      39.659  24.492  26.279  1.00  0.00    -0.460 OA
BRANCH  28  29
ATOM     29  C   UNL A   1      40.799  25.211  26.157  1.00  0.00     0.338 C 
ATOM     30  O   UNL A   1      41.524  25.256  25.177  1.00  0.00    -0.246 OA
BRANCH  29  31
ATOM     31  C   UNL A   1      40.870  26.143  27.317  1.00  0.00     0.060 A 
ATOM     32  C   UNL A   1      40.021  25.932  28.416  1.00  0.00     0.016 A 
ATOM     33  C   UNL A   1      41.805  27.180  27.352  1.00  0.00     0.016 A 
ATOM     34  C   UNL A   1      40.085  26.775  29.533  1.00  0.00     0.010 A 
ATOM     35  C   UNL A   1      41.850  28.037  28.458  1.00  0.00     0.010 A 
ATOM     36  C   UNL A   1      40.971  27.860  29.543  1.00  0.00    -0.014 A 
BRANCH  36  37
ATOM     37  C   UNL A   1      40.830  28.939  30.558  1.00  0.00     0.031 A 
ATOM     38  C   UNL A   1      41.732  28.886  31.766  1.00  0.00     0.074 A 
ATOM     39  C   UNL A   1      39.924  29.928  30.440  1.00  0.00     0.049 A 
ATOM     40  N   UNL A   1      41.736  29.638  32.835  1.00  0.00    -0.248 NA
ATOM     41  C   UNL A   1      42.764  27.835  31.767  1.00  0.00     0.031 C 
ATOM     42  C   UNL A   1      39.013  30.117  29.314  1.00  0.00     0.029 A 
ATOM     43  N   UNL A   1      39.607  30.952  31.303  1.00  0.00    -0.354 N 
ATOM     44  C   UNL A   1      42.748  29.135  33.646  1.00  0.00     0.074 A 
ATOM     45  C   UNL A   1      43.332  28.010  32.951  1.00  0.00     0.031 C 
ATOM     46  C   UNL A   1      38.217  31.173  29.568  1.00  0.00     0.029 A 
ATOM     47  C   UNL A   1      38.538  31.716  30.888  1.00  0.00     0.049 A 
ATOM     48  H   UNL A   1      40.098  31.123  32.139  1.00  0.00     0.167 HD
ATOM     49  C   UNL A   1      43.152  29.570  34.862  1.00  0.00     0.037 A 
ATOM     50  C   UNL A   1      37.877  32.711  31.517  1.00  0.00     0.037 A 
ATOM     51  C   UNL A   1      42.587  30.701  35.547  1.00  0.00     0.049 A 
ATOM     52  C   UNL A   1      38.325  33.151  32.893  1.00  0.00     0.074 A 
ATOM     53  C   UNL A   1      42.972  31.249  36.758  1.00  0.00     0.029 A 
ATOM     54  N   UNL A   1      41.514  31.450  35.090  1.00  0.00    -0.354 N 
ATOM     55  N   UNL A   1      39.317  32.699  33.625  1.00  0.00    -0.248 NA
ATOM     56  C   UNL A   1      37.562  34.237  33.531  1.00  0.00     0.031 C 
ATOM     57  C   UNL A   1      42.095  32.293  37.063  1.00  0.00     0.029 A 
ATOM     58  C   UNL A   1      41.203  32.435  36.012  1.00  0.00     0.049 A 
ATOM     59  H   UNL A   1      41.044  31.303  34.238  1.00  0.00     0.167 HD
ATOM     60  C   UNL A   1      39.315  33.468  34.787  1.00  0.00     0.074 A 
ATOM     61  C   UNL A   1      38.233  34.419  34.660  1.00  0.00     0.031 C 
ATOM     62  C   UNL A   1      40.136  33.393  35.864  1.00  0.00     0.037 A 
BRANCH  49  63
ATOM     63  C   UNL A   1      44.244  28.807  35.557  1.00  0.00     0.058 A 
ATOM     64  C   UNL A   1      45.600  29.112  35.368  1.00  0.00     0.135 A 
ATOM     65  C   UNL A   1      43.918  27.807  36.488  1.00  0.00     0.135 A 
ATOM     66  F   UNL A   1      45.965  30.043  34.472  1.00  0.00    -0.206 F 
ATOM     67  C   UNL A   1      46.597  28.451  36.079  1.00  0.00     0.059 A 
ATOM     68  C   UNL A   1      44.896  27.151  37.227  1.00  0.00     0.059 A 
ATOM     69  F   UNL A   1      42.635  27.471  36.697  1.00  0.00    -0.206 F 
ATOM     70  C   UNL A   1      46.233  27.479  37.013  1.00  0.00     0.060 A 
BRANCH  70  71
ATOM     71  S   UNL A   1      47.536  26.671  37.966  1.00  0.00     0.124 S 
ATOM     72  O   UNL A   1      46.767  26.042  39.036  1.00  0.00    -0.237 OA
ATOM     73  O   UNL A   1      48.120  25.762  36.985  1.00  0.00    -0.237 OA
ATOM     74  O   UNL A   1      48.393  27.778  38.378  1.00  0.00    -0.744 OA
ENDBRANCH  70  71
ENDBRANCH  49  63
BRANCH  50  75
ATOM     75  C   UNL A   1      36.684  33.347  30.887  1.00  0.00     0.058 A 
ATOM     76  C   UNL A   1      36.813  34.221  29.796  1.00  0.00     0.135 A 
ATOM     77  C   UNL A   1      35.396  33.137  31.403  1.00  0.00     0.135 A 
ATOM     78  F   UNL A   1      38.024  34.470  29.275  1.00  0.00    -0.206 F 
ATOM     79  C   UNL A   1      35.714  34.892  29.264  1.00  0.00     0.059 A 
ATOM     80  C   UNL A   1      34.278  33.772  30.868  1.00  0.00     0.059 A 
ATOM     81  F   UNL A   1      35.214  32.307  32.441  1.00  0.00    -0.206 F 
ATOM     82  C   UNL A   1      34.451  34.663  29.810  1.00  0.00     0.060 A 
BRANCH  82  83
ATOM     83  S   UNL A   1      33.030  35.531  29.109  1.00  0.00     0.124 S 
ATOM     84  O   UNL A   1      33.667  36.695  28.505  1.00  0.00    -0.237 OA
ATOM     85  O   UNL A   1      32.493  34.542  28.178  1.00  0.00    -0.237 OA
ATOM     86  O   UNL A   1      32.194  35.801  30.274  1.00  0.00    -0.744 OA
ENDBRANCH  82  83
ENDBRANCH  50  75
BRANCH  62  87
ATOM     87  C   UNL A   1      39.943  34.393  36.972  1.00  0.00     0.058 A 
ATOM     88  C   UNL A   1      40.414  35.711  36.874  1.00  0.00     0.135 A 
ATOM     89  C   UNL A   1      39.215  34.044  38.121  1.00  0.00     0.135 A 
ATOM     90  F   UNL A   1      41.118  36.098  35.798  1.00  0.00    -0.206 F 
ATOM     91  C   UNL A   1      40.191  36.641  37.885  1.00  0.00     0.059 A 
ATOM     92  C   UNL A   1      38.953  34.965  39.132  1.00  0.00     0.059 A 
ATOM     93  F   UNL A   1      38.727  32.801  38.262  1.00  0.00    -0.206 F 
ATOM     94  C   UNL A   1      39.457  36.259  39.010  1.00  0.00     0.060 A 
BRANCH  94  95
ATOM     95  S   UNL A   1      39.144  37.485  40.299  1.00  0.00     0.124 S 
ATOM     96  O   UNL A   1      40.490  37.983  40.563  1.00  0.00    -0.237 OA
ATOM     97  O   UNL A   1      38.241  38.417  39.632  1.00  0.00    -0.237 OA
ATOM     98  O   UNL A   1      38.543  36.700  41.374  1.00  0.00    -0.744 OA
ENDBRANCH  94  95
ENDBRANCH  62  87
ENDBRANCH  36  37
ENDBRANCH  29  31
ENDBRANCH  28  29
ENDBRANCH  27  28
ENDBRANCH  26  27
ENDBRANCH  25  26
ENDBRANCH  24  25
ENDBRANCH   1  24
TORSDOF 24
ENDMDL
MODEL 3
REMARK VINA RESULT:      -8.7      8.206     16.142
REMARK SMILES CC(C)(C)[NH+]1CCN(C(=O)CCCC(=O)OCCOCCOCCOC(=O)c2ccc(-c3c4nc(c(-c5c(F)cc(S(=O)(=O)[O-])cc5F)c5ccc([nH]5)c(-c5c(F)cc(S(=O)(=O)[O-])cc5F)c5nc(c(-c6c(F)cc(S(=O)(=O)[O-])cc6F)c6ccc3[nH]6)C=C5)C=C4)cc2)CC1
REMARK SMILES IDX 20 1 19 2 18 3 17 4 16 5 14 6 15 7 13 8 12 9 11 10 9 11 5 12
REMARK SMILES IDX 6 13 95 14 7 16 94 17 8 18 10 19 2 20 1 21 3 22 4 23 21 24
REMARK SMILES IDX 22 25 23 26 24 27 25 28 26 29 27 30 28 31 29 32 93 33 30 34
REMARK SMILES IDX 92 35 31 36 32 37 33 38 86 39 34 40 91 41 85 42 87 43 35 44
REMARK SMILES IDX 90 45 84 46 83 47 36 49 70 50 49 51 69 52 50 53 53 54 68 55
REMARK SMILES IDX 88 56 51 57 52 58 67 60 89 61 54 62 37 63 38 64 47 65 39 66
REMARK SMILES IDX 40 67 46 68 48 69 41 70 42 71 43 72 44 73 45 74 71 75 72 76
REMARK SMILES IDX 81 77 73 78 74 79 80 80 82 81 75 82 76 83 77 84 78 85 79 86
REMARK SMILES IDX 55 87 56 88 65 89 57 90 58 91 64 92 66 93 59 94 60 95 61 96
REMARK SMILES IDX 62 97 63 98
REMARK H PARENT 5 15 87 48 53 59
REMARK Flexibility Score: inf
ROOT
ATOM      1  C   UNL A   1      46.777  41.230  24.181  1.00  0.00     0.188 C 
ENDROOT
BRANCH   1   2
ATOM      2  O   UNL A   1      45.594  41.728  23.558  1.00  0.00    -0.376 OA
BRANCH   2   3
ATOM      3  C   UNL A   1      45.528  43.107  23.213  1.00  0.00     0.202 C 
BRANCH   3   4
ATOM      4  C   UNL A   1      44.966  43.447  21.832  1.00  0.00     0.261 C 
BRANCH   4   5
ATOM      5  O   UNL A   1      43.567  43.799  21.863  1.00  0.00    -0.463 OA
BRANCH   5   6
ATOM      6  C   UNL A   1      42.672  42.888  21.408  1.00  0.00     0.305 C 
ATOM      7  O   UNL A   1      42.726  42.379  20.295  1.00  0.00    -0.252 OA
BRANCH   6   8
ATOM      8  C   UNL A   1      41.517  42.586  22.367  1.00  0.00     0.123 C 
BRANCH   8   9
ATOM      9  C   UNL A   1      41.615  42.486  23.903  1.00  0.00     0.022 C 
BRANCH   9  10
ATOM     10  C   UNL A   1      42.200  41.263  24.614  1.00  0.00     0.101 C 
BRANCH  10  11
ATOM     11  C   UNL A   1      41.641  40.927  25.999  1.00  0.00     0.222 C 
ATOM     12  N   UNL A   1      43.713  37.923  28.124  1.00  0.00    -0.328 N 
ATOM     13  C   UNL A   1      42.272  38.235  28.236  1.00  0.00     0.284 C 
ATOM     14  C   UNL A   1      44.252  38.535  26.903  1.00  0.00     0.284 C 
ATOM     15  H   UNL A   1      43.750  36.906  28.046  1.00  0.00     0.348 HD
ATOM     16  C   UNL A   1      41.922  39.734  28.148  1.00  0.00     0.181 C 
ATOM     17  C   UNL A   1      43.864  40.006  26.718  1.00  0.00     0.181 C 
ATOM     18  N   UNL A   1      42.456  40.280  26.906  1.00  0.00    -0.331 N 
ATOM     19  O   UNL A   1      40.462  41.182  26.253  1.00  0.00    -0.275 OA
BRANCH  12  20
ATOM     20  C   UNL A   1      44.577  38.026  29.324  1.00  0.00     0.089 C 
ATOM     21  C   UNL A   1      45.276  36.651  29.442  1.00  0.00     0.078 C 
ATOM     22  C   UNL A   1      43.769  38.245  30.619  1.00  0.00     0.078 C 
ATOM     23  C   UNL A   1      45.679  39.110  29.284  1.00  0.00     0.078 C 
ENDBRANCH  12  20
ENDBRANCH  10  11
ENDBRANCH   9  10
ENDBRANCH   8   9
ENDBRANCH   6   8
ENDBRANCH   5   6
ENDBRANCH   4   5
ENDBRANCH   3   4
ENDBRANCH   2   3
ENDBRANCH   1   2
BRANCH   1  24
ATOM     24  C   UNL A   1      46.869  39.718  24.462  1.00  0.00     0.188 C 
BRANCH  24  25
ATOM     25  O   UNL A   1      47.636  39.409  25.605  1.00  0.00    -0.376 OA
BRANCH  25  26
ATOM     26  C   UNL A   1      48.195  38.113  25.684  1.00  0.00     0.202 C 
BRANCH  26  27
ATOM     27  C   UNL A   1      49.149  37.776  26.844  1.00  0.00     0.261 C 
BRANCH  27  28
ATOM     28  O   UNL A   1      48.568  37.248  28.049  1.00  0.00    -0.460 OA
BRANCH  28  29
ATOM     29  C   UNL A   1      49.244  36.291  28.728  1.00  0.00     0.338 C 
ATOM     30  O   UNL A   1      50.218  36.462  29.442  1.00  0.00    -0.246 OA
BRANCH  29  31
ATOM     31  C   UNL A   1      48.434  35.042  28.669  1.00  0.00     0.060 A 
ATOM     32  C   UNL A   1      48.317  34.248  29.822  1.00  0.00     0.016 A 
ATOM     33  C   UNL A   1      47.746  34.685  27.508  1.00  0.00     0.016 A 
ATOM     34  C   UNL A   1      47.539  33.083  29.804  1.00  0.00     0.010 A 
ATOM     35  C   UNL A   1      46.988  33.507  27.484  1.00  0.00     0.010 A 
ATOM     36  C   UNL A   1      46.904  32.682  28.621  1.00  0.00    -0.014 A 
BRANCH  36  37
ATOM     37  C   UNL A   1      46.351  31.306  28.492  1.00  0.00     0.031 A 
ATOM     38  C   UNL A   1      47.287  30.216  28.031  1.00  0.00     0.074 A 
ATOM     39  C   UNL A   1      45.061  31.019  28.748  1.00  0.00     0.049 A 
ATOM     40  N   UNL A   1      47.029  28.969  27.738  1.00  0.00    -0.248 NA
ATOM     41  C   UNL A   1      48.702  30.591  27.874  1.00  0.00     0.031 C 
ATOM     42  C   UNL A   1      44.058  31.967  29.228  1.00  0.00     0.029 A 
ATOM     43  N   UNL A   1      44.368  29.838  28.614  1.00  0.00    -0.354 N 
ATOM     44  C   UNL A   1      48.242  28.418  27.337  1.00  0.00     0.074 A 
ATOM     45  C   UNL A   1      49.234  29.467  27.416  1.00  0.00     0.031 C 
ATOM     46  C   UNL A   1      42.870  31.338  29.318  1.00  0.00     0.029 A 
ATOM     47  C   UNL A   1      43.020  29.953  28.871  1.00  0.00     0.049 A 
ATOM     48  H   UNL A   1      44.796  28.989  28.357  1.00  0.00     0.167 HD
ATOM     49  C   UNL A   1      48.506  27.153  26.935  1.00  0.00     0.037 A 
ATOM     50  C   UNL A   1      42.022  29.056  28.728  1.00  0.00     0.037 A 
ATOM     51  C   UNL A   1      47.526  26.102  26.875  1.00  0.00     0.049 A 
ATOM     52  C   UNL A   1      42.337  27.660  28.239  1.00  0.00     0.074 A 
ATOM     53  C   UNL A   1      47.715  24.774  26.535  1.00  0.00     0.029 A 
ATOM     54  N   UNL A   1      46.177  26.258  27.150  1.00  0.00    -0.354 N 
ATOM     55  N   UNL A   1      43.498  27.140  27.913  1.00  0.00    -0.248 NA
ATOM     56  C   UNL A   1      41.207  26.727  28.098  1.00  0.00     0.031 C 
ATOM     57  C   UNL A   1      46.470  24.139  26.547  1.00  0.00     0.029 A 
ATOM     58  C   UNL A   1      45.516  25.058  26.955  1.00  0.00     0.049 A 
ATOM     59  H   UNL A   1      45.753  27.098  27.442  1.00  0.00     0.167 HD
ATOM     60  C   UNL A   1      43.239  25.816  27.563  1.00  0.00     0.074 A 
ATOM     61  C   UNL A   1      41.817  25.610  27.727  1.00  0.00     0.031 C 
ATOM     62  C   UNL A   1      44.101  24.857  27.144  1.00  0.00     0.037 A 
BRANCH  49  63
ATOM     63  C   UNL A   1      49.905  26.829  26.497  1.00  0.00     0.058 A 
ATOM     64  C   UNL A   1      50.870  26.343  27.391  1.00  0.00     0.135 A 
ATOM     65  C   UNL A   1      50.258  26.934  25.141  1.00  0.00     0.135 A 
ATOM     66  F   UNL A   1      50.591  26.246  28.701  1.00  0.00    -0.206 F 
ATOM     67  C   UNL A   1      52.138  25.971  26.956  1.00  0.00     0.059 A 
ATOM     68  C   UNL A   1      51.511  26.544  24.680  1.00  0.00     0.059 A 
ATOM     69  F   UNL A   1      49.373  27.403  24.247  1.00  0.00    -0.206 F 
ATOM     70  C   UNL A   1      52.445  26.066  25.597  1.00  0.00     0.060 A 
BRANCH  70  71
ATOM     71  S   UNL A   1      54.076  25.527  25.042  1.00  0.00     0.124 S 
ATOM     72  O   UNL A   1      54.882  25.761  26.237  1.00  0.00    -0.237 OA
ATOM     73  O   UNL A   1      53.841  24.129  24.699  1.00  0.00    -0.237 OA
ATOM     74  O   UNL A   1      54.360  26.408  23.914  1.00  0.00    -0.744 OA
ENDBRANCH  70  71
ENDBRANCH  49  63
BRANCH  50  75
ATOM     75  C   UNL A   1      40.608  29.443  29.004  1.00  0.00     0.058 A 
ATOM     76  C   UNL A   1      40.132  29.586  30.317  1.00  0.00     0.135 A 
ATOM     77  C   UNL A   1      39.689  29.618  27.958  1.00  0.00     0.135 A 
ATOM     78  F   UNL A   1      40.965  29.413  31.355  1.00  0.00    -0.206 F 
ATOM     79  C   UNL A   1      38.791  29.853  30.584  1.00  0.00     0.059 A 
ATOM     80  C   UNL A   1      38.350  29.916  28.198  1.00  0.00     0.059 A 
ATOM     81  F   UNL A   1      40.090  29.498  26.683  1.00  0.00    -0.206 F 
ATOM     82  C   UNL A   1      37.907  30.013  29.516  1.00  0.00     0.060 A 
BRANCH  82  83
ATOM     83  S   UNL A   1      36.171  30.367  29.870  1.00  0.00     0.124 S 
ATOM     84  O   UNL A   1      36.014  29.769  31.190  1.00  0.00    -0.237 OA
ATOM     85  O   UNL A   1      36.138  31.826  29.821  1.00  0.00    -0.237 OA
ATOM     86  O   UNL A   1      35.464  29.695  28.784  1.00  0.00    -0.744 OA
ENDBRANCH  82  83
ENDBRANCH  50  75
BRANCH  62  87
ATOM     87  C   UNL A   1      43.554  23.479  26.882  1.00  0.00     0.058 A 
ATOM     88  C   UNL A   1      43.353  22.994  25.581  1.00  0.00     0.135 A 
ATOM     89  C   UNL A   1      43.291  22.608  27.952  1.00  0.00     0.135 A 
ATOM     90  F   UNL A   1      43.587  23.786  24.522  1.00  0.00    -0.206 F 
ATOM     91  C   UNL A   1      42.888  21.703  25.349  1.00  0.00     0.059 A 
ATOM     92  C   UNL A   1      42.855  21.302  27.744  1.00  0.00     0.059 A 
ATOM     93  F   UNL A   1      43.479  23.014  29.217  1.00  0.00    -0.206 F 
ATOM     94  C   UNL A   1      42.644  20.863  26.438  1.00  0.00     0.060 A 
BRANCH  94  95
ATOM     95  S   UNL A   1      42.076  19.178  26.123  1.00  0.00     0.124 S 
ATOM     96  O   UNL A   1      42.478  18.499  27.350  1.00  0.00    -0.237 OA
ATOM     97  O   UNL A   1      40.639  19.361  25.941  1.00  0.00    -0.237 OA
ATOM     98  O   UNL A   1      42.810  18.791  24.922  1.00  0.00    -0.744 OA
ENDBRANCH  94  95
ENDBRANCH  62  87
ENDBRANCH  36  37
ENDBRANCH  29  31
ENDBRANCH  28  29
ENDBRANCH  27  28
ENDBRANCH  26  27
ENDBRANCH  25  26
ENDBRANCH  24  25
ENDBRANCH   1  24
TORSDOF 24
ENDMDL
