MODEL 1
REMARK VINA RESULT:      -9.7      0.000      0.000
REMARK SMILES CO[C@H]1CCC[C@H]1NC(=O)N[C@](C)(C(=O)OCCOCCOCCOC(=O)c1ccc(-c2c3nc(c(-c4c(F)cc(S(=O)(=O)[O-])cc4F)c4ccc([nH]4)c(-c4c(F)cc(S(=O)(=O)[O-])cc4F)c4nc(c(-c5c(F)cc(S(=O)(=O)[O-])cc5F)c5ccc2[nH]5)C=C4)C=C3)cc1)C(F)(F)F
REMARK SMILES IDX 20 1 19 2 18 3 17 4 16 5 14 6 15 7 12 8 13 9 11 10 8 11 9 12
REMARK SMILES IDX 10 14 7 16 3 17 4 18 5 19 6 20 2 21 1 22 94 23 95 24 96 25
REMARK SMILES IDX 97 26 21 27 22 28 23 29 24 30 25 31 26 32 27 33 28 34 29 35
REMARK SMILES IDX 93 36 30 37 92 38 31 39 32 40 33 41 86 42 34 43 91 44 85 45
REMARK SMILES IDX 87 46 35 47 90 48 84 49 83 50 36 52 70 53 49 54 69 55 50 56
REMARK SMILES IDX 53 57 68 58 88 59 51 60 52 61 67 63 89 64 54 65 37 66 38 67
REMARK SMILES IDX 47 68 39 69 40 70 46 71 48 72 41 73 42 74 43 75 44 76 45 77
REMARK SMILES IDX 71 78 72 79 81 80 73 81 74 82 80 83 82 84 75 85 76 86 77 87
REMARK SMILES IDX 78 88 79 89 55 90 56 91 65 92 57 93 58 94 64 95 66 96 59 97
REMARK SMILES IDX 60 98 61 99 62 100 63 101
REMARK H PARENT 8 13 11 15 87 51 53 62
REMARK Flexibility Score: inf
ROOT
ATOM      1  C   UNL A   1      31.866  30.608  26.594  1.00  0.00     0.188 C 
ENDROOT
BRANCH   1   2
ATOM      2  O   UNL A   1      31.301  29.464  25.966  1.00  0.00    -0.376 OA
BRANCH   2   3
ATOM      3  C   UNL A   1      31.213  29.502  24.538  1.00  0.00     0.202 C 
BRANCH   3   4
ATOM      4  C   UNL A   1      30.290  28.452  23.895  1.00  0.00     0.261 C 
BRANCH   4   5
ATOM      5  O   UNL A   1      30.780  27.116  24.128  1.00  0.00    -0.461 OA
BRANCH   5   6
ATOM      6  C   UNL A   1      31.528  26.545  23.144  1.00  0.00     0.341 C 
ATOM      7  O   UNL A   1      31.586  26.973  21.996  1.00  0.00    -0.249 OA
BRANCH   6   8
ATOM      8  C   UNL A   1      32.330  25.323  23.641  1.00  0.00     0.232 C 
ATOM      9  C   UNL A   1      31.404  24.397  24.463  1.00  0.00     0.058 C 
BRANCH   8  10
ATOM     10  N   UNL A   1      32.776  24.602  22.409  1.00  0.00    -0.315 N 
ATOM     11  N   UNL A   1      33.569  22.454  23.032  1.00  0.00    -0.333 N 
ATOM     12  C   UNL A   1      33.298  23.404  22.133  1.00  0.00     0.316 C 
ATOM     13  H   UNL A   1      33.813  21.607  22.594  1.00  0.00     0.165 HD
ATOM     14  O   UNL A   1      33.512  23.149  20.946  1.00  0.00    -0.249 OA
ATOM     15  H   UNL A   1      32.652  25.147  21.597  1.00  0.00     0.166 HD
BRANCH  11  16
ATOM     16  C   UNL A   1      33.604  22.330  24.481  1.00  0.00     0.112 C 
ATOM     17  C   UNL A   1      32.877  21.089  25.037  1.00  0.00     0.140 C 
ATOM     18  C   UNL A   1      33.365  21.082  26.488  1.00  0.00     0.034 C 
ATOM     19  C   UNL A   1      34.812  21.588  26.435  1.00  0.00     0.005 C 
ATOM     20  C   UNL A   1      35.021  22.150  25.027  1.00  0.00     0.028 C 
BRANCH  17  21
ATOM     21  O   UNL A   1      33.307  19.915  24.337  1.00  0.00    -0.379 OA
ATOM     22  C   UNL A   1      32.849  18.715  24.950  1.00  0.00     0.195 C 
ENDBRANCH  17  21
ENDBRANCH  11  16
ENDBRANCH   8  10
BRANCH   8  23
ATOM     23  C   UNL A   1      33.514  25.943  24.424  1.00  0.00     0.422 C 
ATOM     24  F   UNL A   1      33.307  25.890  25.764  1.00  0.00    -0.168 F 
ATOM     25  F   UNL A   1      34.683  25.295  24.203  1.00  0.00    -0.168 F 
ATOM     26  F   UNL A   1      33.745  27.237  24.112  1.00  0.00    -0.168 F 
ENDBRANCH   8  23
ENDBRANCH   6   8
ENDBRANCH   5   6
ENDBRANCH   4   5
ENDBRANCH   3   4
ENDBRANCH   2   3
ENDBRANCH   1   2
BRANCH   1  27
ATOM     27  C   UNL A   1      33.307  30.461  27.089  1.00  0.00     0.188 C 
BRANCH  27  28
ATOM     28  O   UNL A   1      33.913  31.642  27.601  1.00  0.00    -0.376 OA
BRANCH  28  29
ATOM     29  C   UNL A   1      35.301  31.515  27.943  1.00  0.00     0.202 C 
BRANCH  29  30
ATOM     30  C   UNL A   1      35.597  31.165  29.418  1.00  0.00     0.261 C 
BRANCH  30  31
ATOM     31  O   UNL A   1      36.179  29.862  29.644  1.00  0.00    -0.460 OA
BRANCH  31  32
ATOM     32  C   UNL A   1      37.015  29.717  30.700  1.00  0.00     0.338 C 
ATOM     33  O   UNL A   1      36.691  29.442  31.845  1.00  0.00    -0.246 OA
BRANCH  32  34
ATOM     34  C   UNL A   1      38.412  29.667  30.192  1.00  0.00     0.060 A 
ATOM     35  C   UNL A   1      38.625  29.848  28.817  1.00  0.00     0.016 A 
ATOM     36  C   UNL A   1      39.508  29.520  31.049  1.00  0.00     0.016 A 
ATOM     37  C   UNL A   1      39.923  29.842  28.292  1.00  0.00     0.010 A 
ATOM     38  C   UNL A   1      40.804  29.501  30.522  1.00  0.00     0.010 A 
ATOM     39  C   UNL A   1      41.019  29.629  29.137  1.00  0.00    -0.014 A 
BRANCH  39  40
ATOM     40  C   UNL A   1      42.359  29.312  28.578  1.00  0.00     0.031 A 
ATOM     41  C   UNL A   1      42.623  27.892  28.150  1.00  0.00     0.074 A 
ATOM     42  C   UNL A   1      43.332  30.235  28.462  1.00  0.00     0.049 A 
ATOM     43  N   UNL A   1      43.738  27.332  27.762  1.00  0.00    -0.248 NA
ATOM     44  C   UNL A   1      41.465  26.982  28.168  1.00  0.00     0.031 C 
ATOM     45  C   UNL A   1      43.200  31.655  28.780  1.00  0.00     0.029 A 
ATOM     46  N   UNL A   1      44.641  30.101  28.059  1.00  0.00    -0.354 N 
ATOM     47  C   UNL A   1      43.422  26.003  27.507  1.00  0.00     0.074 A 
ATOM     48  C   UNL A   1      42.017  25.835  27.800  1.00  0.00     0.031 C 
ATOM     49  C   UNL A   1      44.389  32.257  28.583  1.00  0.00     0.029 A 
ATOM     50  C   UNL A   1      45.375  31.260  28.165  1.00  0.00     0.049 A 
ATOM     51  H   UNL A   1      45.017  29.254  27.726  1.00  0.00     0.167 HD
ATOM     52  C   UNL A   1      44.230  25.009  27.068  1.00  0.00     0.037 A 
ATOM     53  C   UNL A   1      46.694  31.481  27.981  1.00  0.00     0.037 A 
ATOM     54  C   UNL A   1      45.628  25.170  26.779  1.00  0.00     0.049 A 
ATOM     55  C   UNL A   1      47.596  30.338  27.577  1.00  0.00     0.074 A 
ATOM     56  C   UNL A   1      46.526  24.218  26.327  1.00  0.00     0.029 A 
ATOM     57  N   UNL A   1      46.335  26.353  26.921  1.00  0.00    -0.354 N 
ATOM     58  N   UNL A   1      47.287  29.085  27.335  1.00  0.00    -0.248 NA
ATOM     59  C   UNL A   1      49.030  30.635  27.428  1.00  0.00     0.031 C 
ATOM     60  C   UNL A   1      47.787  24.814  26.241  1.00  0.00     0.029 A 
ATOM     61  C   UNL A   1      47.664  26.151  26.586  1.00  0.00     0.049 A 
ATOM     62  H   UNL A   1      45.951  27.211  27.215  1.00  0.00     0.167 HD
ATOM     63  C   UNL A   1      48.476  28.460  26.971  1.00  0.00     0.074 A 
ATOM     64  C   UNL A   1      49.514  29.466  27.026  1.00  0.00     0.031 C 
ATOM     65  C   UNL A   1      48.687  27.167  26.618  1.00  0.00     0.037 A 
BRANCH  52  66
ATOM     66  C   UNL A   1      43.621  23.646  26.908  1.00  0.00     0.058 A 
ATOM     67  C   UNL A   1      43.344  22.825  28.012  1.00  0.00     0.135 A 
ATOM     68  C   UNL A   1      43.292  23.163  25.632  1.00  0.00     0.135 A 
ATOM     69  F   UNL A   1      43.661  23.230  29.253  1.00  0.00    -0.206 F 
ATOM     70  C   UNL A   1      42.786  21.561  27.855  1.00  0.00     0.059 A 
ATOM     71  C   UNL A   1      42.707  21.913  25.452  1.00  0.00     0.059 A 
ATOM     72  F   UNL A   1      43.541  23.907  24.542  1.00  0.00    -0.206 F 
ATOM     73  C   UNL A   1      42.473  21.114  26.569  1.00  0.00     0.060 A 
BRANCH  73  74
ATOM     74  S   UNL A   1      41.755  19.470  26.381  1.00  0.00     0.124 S 
ATOM     75  O   UNL A   1      42.192  18.820  27.612  1.00  0.00    -0.237 OA
ATOM     76  O   UNL A   1      40.328  19.760  26.290  1.00  0.00    -0.237 OA
ATOM     77  O   UNL A   1      42.370  18.968  25.156  1.00  0.00    -0.744 OA
ENDBRANCH  73  74
ENDBRANCH  52  66
BRANCH  53  78
ATOM     78  C   UNL A   1      47.264  32.838  28.207  1.00  0.00     0.058 A 
ATOM     79  C   UNL A   1      47.822  33.195  29.444  1.00  0.00     0.135 A 
ATOM     80  C   UNL A   1      47.241  33.813  27.198  1.00  0.00     0.135 A 
ATOM     81  F   UNL A   1      47.849  32.305  30.448  1.00  0.00    -0.206 F 
ATOM     82  C   UNL A   1      48.324  34.472  29.677  1.00  0.00     0.059 A 
ATOM     83  C   UNL A   1      47.761  35.089  27.399  1.00  0.00     0.059 A 
ATOM     84  F   UNL A   1      46.719  33.525  25.996  1.00  0.00    -0.206 F 
ATOM     85  C   UNL A   1      48.291  35.412  28.646  1.00  0.00     0.060 A 
BRANCH  85  86
ATOM     86  S   UNL A   1      48.983  37.054  28.946  1.00  0.00     0.124 S 
ATOM     87  O   UNL A   1      47.776  37.849  29.147  1.00  0.00    -0.237 OA
ATOM     88  O   UNL A   1      49.804  36.829  30.132  1.00  0.00    -0.237 OA
ATOM     89  O   UNL A   1      49.727  37.334  27.721  1.00  0.00    -0.744 OA
ENDBRANCH  85  86
ENDBRANCH  53  78
BRANCH  65  90
ATOM     90  C   UNL A   1      50.074  26.756  26.203  1.00  0.00     0.058 A 
ATOM     91  C   UNL A   1      50.499  26.819  24.868  1.00  0.00     0.135 A 
ATOM     92  C   UNL A   1      51.024  26.401  27.177  1.00  0.00     0.135 A 
ATOM     93  F   UNL A   1      49.632  27.148  23.898  1.00  0.00    -0.206 F 
ATOM     94  C   UNL A   1      51.817  26.548  24.512  1.00  0.00     0.059 A 
ATOM     95  C   UNL A   1      52.351  26.149  26.847  1.00  0.00     0.059 A 
ATOM     96  F   UNL A   1      50.671  26.336  28.472  1.00  0.00    -0.206 F 
ATOM     97  C   UNL A   1      52.739  26.224  25.510  1.00  0.00     0.060 A 
BRANCH  97  98
ATOM     98  S   UNL A   1      54.464  25.954  25.044  1.00  0.00     0.124 S 
ATOM     99  O   UNL A   1      54.552  24.499  25.069  1.00  0.00    -0.237 OA
ATOM    100  O   UNL A   1      54.531  26.572  23.723  1.00  0.00    -0.237 OA
ATOM    101  O   UNL A   1      55.211  26.647  26.091  1.00  0.00    -0.744 OA
ENDBRANCH  97  98
ENDBRANCH  65  90
ENDBRANCH  39  40
ENDBRANCH  32  34
ENDBRANCH  31  32
ENDBRANCH  30  31
ENDBRANCH  29  30
ENDBRANCH  28  29
ENDBRANCH  27  28
ENDBRANCH   1  27
TORSDOF 24
ENDMDL
MODEL 2
REMARK VINA RESULT:      -9.7      6.366     10.836
REMARK SMILES CO[C@H]1CCC[C@H]1NC(=O)N[C@](C)(C(=O)OCCOCCOCCOC(=O)c1ccc(-c2c3nc(c(-c4c(F)cc(S(=O)(=O)[O-])cc4F)c4ccc([nH]4)c(-c4c(F)cc(S(=O)(=O)[O-])cc4F)c4nc(c(-c5c(F)cc(S(=O)(=O)[O-])cc5F)c5ccc2[nH]5)C=C4)C=C3)cc1)C(F)(F)F
REMARK SMILES IDX 20 1 19 2 18 3 17 4 16 5 14 6 15 7 12 8 13 9 11 10 8 11 9 12
REMARK SMILES IDX 10 14 7 16 3 17 4 18 5 19 6 20 2 21 1 22 94 23 95 24 96 25
REMARK SMILES IDX 97 26 21 27 22 28 23 29 24 30 25 31 26 32 27 33 28 34 29 35
REMARK SMILES IDX 93 36 30 37 92 38 31 39 32 40 33 41 86 42 34 43 91 44 85 45
REMARK SMILES IDX 87 46 35 47 90 48 84 49 83 50 36 52 70 53 49 54 69 55 50 56
REMARK SMILES IDX 53 57 68 58 88 59 51 60 52 61 67 63 89 64 54 65 37 66 38 67
REMARK SMILES IDX 47 68 39 69 40 70 46 71 48 72 41 73 42 74 43 75 44 76 45 77
REMARK SMILES IDX 71 78 72 79 81 80 73 81 74 82 80 83 82 84 75 85 76 86 77 87
REMARK SMILES IDX 78 88 79 89 55 90 56 91 65 92 57 93 58 94 64 95 66 96 59 97
REMARK SMILES IDX 60 98 61 99 62 100 63 101
REMARK H PARENT 8 13 11 15 87 51 53 62
REMARK Flexibility Score: inf
ROOT
ATOM      1  C   UNL A   1      31.611  30.408  25.416  1.00  0.00     0.188 C 
ENDROOT
BRANCH   1   2
ATOM      2  O   UNL A   1      31.101  29.233  24.797  1.00  0.00    -0.376 OA
BRANCH   2   3
ATOM      3  C   UNL A   1      30.411  29.417  23.557  1.00  0.00     0.202 C 
BRANCH   3   4
ATOM      4  C   UNL A   1      29.531  28.242  23.097  1.00  0.00     0.261 C 
BRANCH   4   5
ATOM      5  O   UNL A   1      30.088  26.980  23.517  1.00  0.00    -0.461 OA
BRANCH   5   6
ATOM      6  C   UNL A   1      31.005  26.399  22.695  1.00  0.00     0.341 C 
ATOM      7  O   UNL A   1      31.089  26.632  21.494  1.00  0.00    -0.249 OA
BRANCH   6   8
ATOM      8  C   UNL A   1      31.958  25.444  23.448  1.00  0.00     0.232 C 
ATOM      9  C   UNL A   1      33.157  25.091  22.538  1.00  0.00     0.058 C 
BRANCH   8  10
ATOM     10  N   UNL A   1      32.449  26.213  24.632  1.00  0.00    -0.315 N 
ATOM     11  N   UNL A   1      33.822  24.789  25.944  1.00  0.00    -0.333 N 
ATOM     12  C   UNL A   1      33.227  25.957  25.688  1.00  0.00     0.316 C 
ATOM     13  H   UNL A   1      34.457  24.867  26.691  1.00  0.00     0.165 HD
ATOM     14  O   UNL A   1      33.437  26.890  26.466  1.00  0.00    -0.249 OA
ATOM     15  H   UNL A   1      32.118  27.140  24.634  1.00  0.00     0.166 HD
BRANCH  11  16
ATOM     16  C   UNL A   1      33.785  23.432  25.421  1.00  0.00     0.112 C 
ATOM     17  C   UNL A   1      35.127  22.926  24.853  1.00  0.00     0.140 C 
ATOM     18  C   UNL A   1      34.843  21.430  24.701  1.00  0.00     0.034 C 
ATOM     19  C   UNL A   1      33.930  21.066  25.879  1.00  0.00     0.005 C 
ATOM     20  C   UNL A   1      33.473  22.389  26.495  1.00  0.00     0.028 C 
BRANCH  17  21
ATOM     21  O   UNL A   1      36.178  23.163  25.796  1.00  0.00    -0.379 OA
ATOM     22  C   UNL A   1      37.266  22.259  25.641  1.00  0.00     0.195 C 
ENDBRANCH  17  21
ENDBRANCH  11  16
ENDBRANCH   8  10
BRANCH   8  23
ATOM     23  C   UNL A   1      31.056  24.251  23.849  1.00  0.00     0.422 C 
ATOM     24  F   UNL A   1      30.625  24.360  25.131  1.00  0.00    -0.168 F 
ATOM     25  F   UNL A   1      29.938  24.161  23.088  1.00  0.00    -0.168 F 
ATOM     26  F   UNL A   1      31.671  23.053  23.742  1.00  0.00    -0.168 F 
ENDBRANCH   8  23
ENDBRANCH   6   8
ENDBRANCH   5   6
ENDBRANCH   4   5
ENDBRANCH   3   4
ENDBRANCH   2   3
ENDBRANCH   1   2
BRANCH   1  27
ATOM     27  C   UNL A   1      32.273  30.214  26.782  1.00  0.00     0.188 C 
BRANCH  27  28
ATOM     28  O   UNL A   1      33.500  30.908  26.983  1.00  0.00    -0.376 OA
BRANCH  28  29
ATOM     29  C   UNL A   1      33.465  31.924  27.995  1.00  0.00     0.202 C 
BRANCH  29  30
ATOM     30  C   UNL A   1      33.107  33.345  27.506  1.00  0.00     0.261 C 
BRANCH  30  31
ATOM     31  O   UNL A   1      32.506  34.211  28.495  1.00  0.00    -0.460 OA
BRANCH  31  32
ATOM     32  C   UNL A   1      33.265  35.206  29.009  1.00  0.00     0.338 C 
ATOM     33  O   UNL A   1      32.990  36.397  29.014  1.00  0.00    -0.246 OA
BRANCH  32  34
ATOM     34  C   UNL A   1      34.356  34.598  29.819  1.00  0.00     0.060 A 
ATOM     35  C   UNL A   1      35.665  34.657  29.318  1.00  0.00     0.016 A 
ATOM     36  C   UNL A   1      34.121  34.044  31.082  1.00  0.00     0.016 A 
ATOM     37  C   UNL A   1      36.731  34.128  30.055  1.00  0.00     0.010 A 
ATOM     38  C   UNL A   1      35.185  33.504  31.812  1.00  0.00     0.010 A 
ATOM     39  C   UNL A   1      36.492  33.513  31.290  1.00  0.00    -0.014 A 
BRANCH  39  40
ATOM     40  C   UNL A   1      37.539  32.682  31.940  1.00  0.00     0.031 A 
ATOM     41  C   UNL A   1      38.048  33.121  33.288  1.00  0.00     0.074 A 
ATOM     42  C   UNL A   1      38.050  31.579  31.361  1.00  0.00     0.049 A 
ATOM     43  N   UNL A   1      39.041  32.654  33.997  1.00  0.00    -0.248 NA
ATOM     44  C   UNL A   1      37.335  34.246  33.917  1.00  0.00     0.031 C 
ATOM     45  C   UNL A   1      37.614  31.004  30.091  1.00  0.00     0.029 A 
ATOM     46  N   UNL A   1      39.073  30.753  31.770  1.00  0.00    -0.354 N 
ATOM     47  C   UNL A   1      39.085  33.436  35.144  1.00  0.00     0.074 A 
ATOM     48  C   UNL A   1      38.030  34.419  35.030  1.00  0.00     0.031 C 
ATOM     49  C   UNL A   1      38.380  29.933  29.812  1.00  0.00     0.029 A 
ATOM     50  C   UNL A   1      39.387  29.769  30.861  1.00  0.00     0.049 A 
ATOM     51  H   UNL A   1      39.535  30.858  32.633  1.00  0.00     0.167 HD
ATOM     52  C   UNL A   1      39.927  33.346  36.200  1.00  0.00     0.037 A 
ATOM     53  C   UNL A   1      40.391  28.867  30.861  1.00  0.00     0.037 A 
ATOM     54  C   UNL A   1      40.979  32.374  36.316  1.00  0.00     0.049 A 
ATOM     55  C   UNL A   1      41.377  28.841  32.006  1.00  0.00     0.074 A 
ATOM     56  C   UNL A   1      41.882  32.206  37.352  1.00  0.00     0.029 A 
ATOM     57  N   UNL A   1      41.277  31.412  35.364  1.00  0.00    -0.354 N 
ATOM     58  N   UNL A   1      41.407  29.583  33.089  1.00  0.00    -0.248 NA
ATOM     59  C   UNL A   1      42.471  27.859  31.929  1.00  0.00     0.031 C 
ATOM     60  C   UNL A   1      42.757  31.173  37.005  1.00  0.00     0.029 A 
ATOM     61  C   UNL A   1      42.364  30.660  35.778  1.00  0.00     0.049 A 
ATOM     62  H   UNL A   1      40.788  31.281  34.520  1.00  0.00     0.167 HD
ATOM     63  C   UNL A   1      42.494  29.133  33.832  1.00  0.00     0.074 A 
ATOM     64  C   UNL A   1      43.101  28.057  33.080  1.00  0.00     0.031 C 
ATOM     65  C   UNL A   1      42.946  29.571  35.034  1.00  0.00     0.037 A 
BRANCH  52  66
ATOM     66  C   UNL A   1      39.764  34.355  37.300  1.00  0.00     0.058 A 
ATOM     67  C   UNL A   1      39.017  34.076  38.455  1.00  0.00     0.135 A 
ATOM     68  C   UNL A   1      40.382  35.612  37.206  1.00  0.00     0.135 A 
ATOM     69  F   UNL A   1      38.387  32.896  38.584  1.00  0.00    -0.206 F 
ATOM     70  C   UNL A   1      38.867  35.017  39.468  1.00  0.00     0.059 A 
ATOM     71  C   UNL A   1      40.268  36.559  38.219  1.00  0.00     0.059 A 
ATOM     72  F   UNL A   1      41.103  35.931  36.119  1.00  0.00    -0.206 F 
ATOM     73  C   UNL A   1      39.495  36.257  39.338  1.00  0.00     0.060 A 
BRANCH  73  74
ATOM     74  S   UNL A   1      39.285  37.471  40.656  1.00  0.00     0.124 S 
ATOM     75  O   UNL A   1      40.658  37.925  40.854  1.00  0.00    -0.237 OA
ATOM     76  O   UNL A   1      38.379  38.440  40.048  1.00  0.00    -0.237 OA
ATOM     77  O   UNL A   1      38.719  36.690  41.752  1.00  0.00    -0.744 OA
ENDBRANCH  73  74
ENDBRANCH  52  66
BRANCH  53  78
ATOM     78  C   UNL A   1      40.549  27.923  29.719  1.00  0.00     0.058 A 
ATOM     79  C   UNL A   1      41.520  28.135  28.729  1.00  0.00     0.135 A 
ATOM     80  C   UNL A   1      39.714  26.803  29.583  1.00  0.00     0.135 A 
ATOM     81  F   UNL A   1      42.329  29.204  28.803  1.00  0.00    -0.206 F 
ATOM     82  C   UNL A   1      41.651  27.280  27.639  1.00  0.00     0.059 A 
ATOM     83  C   UNL A   1      39.843  25.918  28.515  1.00  0.00     0.059 A 
ATOM     84  F   UNL A   1      38.769  26.552  30.501  1.00  0.00    -0.206 F 
ATOM     85  C   UNL A   1      40.808  26.171  27.543  1.00  0.00     0.060 A 
BRANCH  85  86
ATOM     86  S   UNL A   1      41.013  25.044  26.145  1.00  0.00     0.124 S 
ATOM     87  O   UNL A   1      41.487  25.950  25.105  1.00  0.00    -0.237 OA
ATOM     88  O   UNL A   1      41.994  24.093  26.660  1.00  0.00    -0.237 OA
ATOM     89  O   UNL A   1      39.670  24.505  25.950  1.00  0.00    -0.744 OA
ENDBRANCH  85  86
ENDBRANCH  53  78
BRANCH  65  90
ATOM     90  C   UNL A   1      44.118  28.864  35.659  1.00  0.00     0.058 A 
ATOM     91  C   UNL A   1      45.438  29.294  35.455  1.00  0.00     0.135 A 
ATOM     92  C   UNL A   1      43.904  27.811  36.566  1.00  0.00     0.135 A 
ATOM     93  F   UNL A   1      45.699  30.292  34.597  1.00  0.00    -0.206 F 
ATOM     94  C   UNL A   1      46.505  28.706  36.130  1.00  0.00     0.059 A 
ATOM     95  C   UNL A   1      44.953  27.226  37.268  1.00  0.00     0.059 A 
ATOM     96  F   UNL A   1      42.659  27.369  36.805  1.00  0.00    -0.206 F 
ATOM     97  C   UNL A   1      46.251  27.679  37.042  1.00  0.00     0.060 A 
BRANCH  97  98
ATOM     98  S   UNL A   1      47.636  26.982  37.971  1.00  0.00     0.124 S 
ATOM     99  O   UNL A   1      47.601  25.587  37.548  1.00  0.00    -0.237 OA
ATOM    100  O   UNL A   1      48.766  27.765  37.482  1.00  0.00    -0.237 OA
ATOM    101  O   UNL A   1      47.269  27.226  39.363  1.00  0.00    -0.744 OA
ENDBRANCH  97  98
ENDBRANCH  65  90
ENDBRANCH  39  40
ENDBRANCH  32  34
ENDBRANCH  31  32
ENDBRANCH  30  31
ENDBRANCH  29  30
ENDBRANCH  28  29
ENDBRANCH  27  28
ENDBRANCH   1  27
TORSDOF 24
ENDMDL
MODEL 3
REMARK VINA RESULT:      -9.6      2.188      8.630
REMARK SMILES CO[C@H]1CCC[C@H]1NC(=O)N[C@](C)(C(=O)OCCOCCOCCOC(=O)c1ccc(-c2c3nc(c(-c4c(F)cc(S(=O)(=O)[O-])cc4F)c4ccc([nH]4)c(-c4c(F)cc(S(=O)(=O)[O-])cc4F)c4nc(c(-c5c(F)cc(S(=O)(=O)[O-])cc5F)c5ccc2[nH]5)C=C4)C=C3)cc1)C(F)(F)F
REMARK SMILES IDX 20 1 19 2 18 3 17 4 16 5 14 6 15 7 12 8 13 9 11 10 8 11 9 12
REMARK SMILES IDX 10 14 7 16 3 17 4 18 5 19 6 20 2 21 1 22 94 23 95 24 96 25
REMARK SMILES IDX 97 26 21 27 22 28 23 29 24 30 25 31 26 32 27 33 28 34 29 35
REMARK SMILES IDX 93 36 30 37 92 38 31 39 32 40 33 41 86 42 34 43 91 44 85 45
REMARK SMILES IDX 87 46 35 47 90 48 84 49 83 50 36 52 70 53 49 54 69 55 50 56
REMARK SMILES IDX 53 57 68 58 88 59 51 60 52 61 67 63 89 64 54 65 37 66 38 67
REMARK SMILES IDX 47 68 39 69 40 70 46 71 48 72 41 73 42 74 43 75 44 76 45 77
REMARK SMILES IDX 71 78 72 79 81 80 73 81 74 82 80 83 82 84 75 85 76 86 77 87
REMARK SMILES IDX 78 88 79 89 55 90 56 91 65 92 57 93 58 94 64 95 66 96 59 97
REMARK SMILES IDX 60 98 61 99 62 100 63 101
REMARK H PARENT 8 13 11 15 87 51 53 62
REMARK Flexibility Score: inf
ROOT
ATOM      1  C   UNL A   1      35.586  20.269  25.002  1.00  0.00     0.188 C 
ENDROOT
BRANCH   1   2
ATOM      2  O   UNL A   1      34.470  20.666  25.789  1.00  0.00    -0.376 OA
BRANCH   2   3
ATOM      3  C   UNL A   1      33.326  19.807  25.747  1.00  0.00     0.202 C 
BRANCH   3   4
ATOM      4  C   UNL A   1      32.435  19.936  24.499  1.00  0.00     0.261 C 
BRANCH   4   5
ATOM      5  O   UNL A   1      31.798  21.229  24.447  1.00  0.00    -0.461 OA
BRANCH   5   6
ATOM      6  C   UNL A   1      32.096  22.028  23.386  1.00  0.00     0.341 C 
ATOM      7  O   UNL A   1      32.112  21.640  22.222  1.00  0.00    -0.249 OA
BRANCH   6   8
ATOM      8  C   UNL A   1      32.370  23.490  23.801  1.00  0.00     0.232 C 
ATOM      9  C   UNL A   1      31.468  24.438  22.977  1.00  0.00     0.058 C 
BRANCH   8  10
ATOM     10  N   UNL A   1      31.987  23.580  25.243  1.00  0.00    -0.315 N 
ATOM     11  N   UNL A   1      31.886  25.870  25.860  1.00  0.00    -0.333 N 
ATOM     12  C   UNL A   1      31.781  24.565  26.123  1.00  0.00     0.316 C 
ATOM     13  H   UNL A   1      31.553  26.414  26.610  1.00  0.00     0.165 HD
ATOM     14  O   UNL A   1      31.433  24.235  27.259  1.00  0.00    -0.249 OA
ATOM     15  H   UNL A   1      31.850  22.691  25.646  1.00  0.00     0.166 HD
BRANCH  11  16
ATOM     16  C   UNL A   1      32.359  26.707  24.768  1.00  0.00     0.112 C 
ATOM     17  C   UNL A   1      31.661  28.078  24.662  1.00  0.00     0.140 C 
ATOM     18  C   UNL A   1      32.576  28.803  23.672  1.00  0.00     0.034 C 
ATOM     19  C   UNL A   1      33.992  28.301  23.981  1.00  0.00     0.005 C 
ATOM     20  C   UNL A   1      33.829  27.101  24.915  1.00  0.00     0.028 C 
BRANCH  17  21
ATOM     21  O   UNL A   1      31.658  28.726  25.939  1.00  0.00    -0.379 OA
ATOM     22  C   UNL A   1      31.584  30.144  25.832  1.00  0.00     0.195 C 
ENDBRANCH  17  21
ENDBRANCH  11  16
ENDBRANCH   8  10
BRANCH   8  23
ATOM     23  C   UNL A   1      33.893  23.665  23.582  1.00  0.00     0.422 C 
ATOM     24  F   UNL A   1      34.557  23.780  24.759  1.00  0.00    -0.168 F 
ATOM     25  F   UNL A   1      34.453  22.611  22.940  1.00  0.00    -0.168 F 
ATOM     26  F   UNL A   1      34.207  24.753  22.845  1.00  0.00    -0.168 F 
ENDBRANCH   8  23
ENDBRANCH   6   8
ENDBRANCH   5   6
ENDBRANCH   4   5
ENDBRANCH   3   4
ENDBRANCH   2   3
ENDBRANCH   1   2
BRANCH   1  27
ATOM     27  C   UNL A   1      36.743  21.268  24.923  1.00  0.00     0.188 C 
BRANCH  27  28
ATOM     28  O   UNL A   1      37.615  21.301  26.047  1.00  0.00    -0.376 OA
BRANCH  28  29
ATOM     29  C   UNL A   1      39.014  21.317  25.731  1.00  0.00     0.202 C 
BRANCH  29  30
ATOM     30  C   UNL A   1      39.677  19.933  25.553  1.00  0.00     0.261 C 
BRANCH  30  31
ATOM     31  O   UNL A   1      40.671  19.586  26.542  1.00  0.00    -0.460 OA
BRANCH  31  32
ATOM     32  C   UNL A   1      41.975  19.732  26.207  1.00  0.00     0.338 C 
ATOM     33  O   UNL A   1      42.630  18.974  25.509  1.00  0.00    -0.246 OA
BRANCH  32  34
ATOM     34  C   UNL A   1      42.409  21.104  26.587  1.00  0.00     0.060 A 
ATOM     35  C   UNL A   1      42.480  22.079  25.581  1.00  0.00     0.016 A 
ATOM     36  C   UNL A   1      42.671  21.457  27.915  1.00  0.00     0.016 A 
ATOM     37  C   UNL A   1      42.852  23.393  25.891  1.00  0.00     0.010 A 
ATOM     38  C   UNL A   1      43.054  22.767  28.222  1.00  0.00     0.010 A 
ATOM     39  C   UNL A   1      43.180  23.735  27.208  1.00  0.00    -0.014 A 
BRANCH  39  40
ATOM     40  C   UNL A   1      43.865  25.019  27.511  1.00  0.00     0.031 A 
ATOM     41  C   UNL A   1      43.033  26.145  28.066  1.00  0.00     0.074 A 
ATOM     42  C   UNL A   1      45.180  25.206  27.291  1.00  0.00     0.049 A 
ATOM     43  N   UNL A   1      43.358  27.392  28.284  1.00  0.00    -0.248 NA
ATOM     44  C   UNL A   1      41.642  25.814  28.417  1.00  0.00     0.031 C 
ATOM     45  C   UNL A   1      46.117  24.192  26.815  1.00  0.00     0.029 A 
ATOM     46  N   UNL A   1      45.950  26.339  27.425  1.00  0.00    -0.354 N 
ATOM     47  C   UNL A   1      42.210  27.998  28.781  1.00  0.00     0.074 A 
ATOM     48  C   UNL A   1      41.176  26.988  28.816  1.00  0.00     0.031 C 
ATOM     49  C   UNL A   1      47.332  24.754  26.674  1.00  0.00     0.029 A 
ATOM     50  C   UNL A   1      47.252  26.176  27.009  1.00  0.00     0.049 A 
ATOM     51  H   UNL A   1      45.603  27.187  27.785  1.00  0.00     0.167 HD
ATOM     52  C   UNL A   1      42.031  29.281  29.173  1.00  0.00     0.037 A 
ATOM     53  C   UNL A   1      48.249  27.077  26.879  1.00  0.00     0.037 A 
ATOM     54  C   UNL A   1      43.054  30.290  29.137  1.00  0.00     0.049 A 
ATOM     55  C   UNL A   1      48.003  28.524  27.238  1.00  0.00     0.074 A 
ATOM     56  C   UNL A   1      42.964  31.618  29.516  1.00  0.00     0.029 A 
ATOM     57  N   UNL A   1      44.349  30.088  28.687  1.00  0.00    -0.354 N 
ATOM     58  N   UNL A   1      46.915  29.086  27.710  1.00  0.00    -0.248 NA
ATOM     59  C   UNL A   1      49.119  29.464  27.040  1.00  0.00     0.031 C 
ATOM     60  C   UNL A   1      44.192  32.231  29.252  1.00  0.00     0.029 A 
ATOM     61  C   UNL A   1      45.063  31.273  28.760  1.00  0.00     0.049 A 
ATOM     62  H   UNL A   1      44.710  29.230  28.366  1.00  0.00     0.167 HD
ATOM     63  C   UNL A   1      47.227  30.429  27.899  1.00  0.00     0.074 A 
ATOM     64  C   UNL A   1      48.604  30.602  27.488  1.00  0.00     0.031 C 
ATOM     65  C   UNL A   1      46.444  31.429  28.374  1.00  0.00     0.037 A 
BRANCH  52  66
ATOM     66  C   UNL A   1      40.660  29.674  29.644  1.00  0.00     0.058 A 
ATOM     67  C   UNL A   1      39.584  29.815  28.754  1.00  0.00     0.135 A 
ATOM     68  C   UNL A   1      40.416  29.891  31.009  1.00  0.00     0.135 A 
ATOM     69  F   UNL A   1      39.770  29.640  27.435  1.00  0.00    -0.206 F 
ATOM     70  C   UNL A   1      38.319  30.184  29.198  1.00  0.00     0.059 A 
ATOM     71  C   UNL A   1      39.152  30.235  31.479  1.00  0.00     0.059 A 
ATOM     72  F   UNL A   1      41.413  29.775  31.901  1.00  0.00    -0.206 F 
ATOM     73  C   UNL A   1      38.114  30.394  30.563  1.00  0.00     0.060 A 
BRANCH  73  74
ATOM     74  S   UNL A   1      36.469  30.879  31.122  1.00  0.00     0.124 S 
ATOM     75  O   UNL A   1      35.793  29.587  31.190  1.00  0.00    -0.237 OA
ATOM     76  O   UNL A   1      36.750  31.514  32.406  1.00  0.00    -0.237 OA
ATOM     77  O   UNL A   1      36.002  31.776  30.071  1.00  0.00    -0.744 OA
ENDBRANCH  73  74
ENDBRANCH  52  66
BRANCH  53  78
ATOM     78  C   UNL A   1      49.577  26.654  26.353  1.00  0.00     0.058 A 
ATOM     79  C   UNL A   1      49.916  26.836  25.004  1.00  0.00     0.135 A 
ATOM     80  C   UNL A   1      50.524  26.036  27.184  1.00  0.00     0.135 A 
ATOM     81  F   UNL A   1      49.036  27.404  24.163  1.00  0.00    -0.206 F 
ATOM     82  C   UNL A   1      51.139  26.411  24.494  1.00  0.00     0.059 A 
ATOM     83  C   UNL A   1      51.764  25.625  26.704  1.00  0.00     0.059 A 
ATOM     84  F   UNL A   1      50.252  25.837  28.483  1.00  0.00    -0.206 F 
ATOM     85  C   UNL A   1      52.058  25.808  25.354  1.00  0.00     0.060 A 
BRANCH  85  86
ATOM     86  S   UNL A   1      53.660  25.296  24.691  1.00  0.00     0.124 S 
ATOM     87  O   UNL A   1      53.580  23.845  24.817  1.00  0.00    -0.237 OA
ATOM     88  O   UNL A   1      53.612  25.823  23.331  1.00  0.00    -0.237 OA
ATOM     89  O   UNL A   1      54.615  25.956  25.577  1.00  0.00    -0.744 OA
ENDBRANCH  85  86
ENDBRANCH  53  78
BRANCH  65  90
ATOM     90  C   UNL A   1      47.050  32.796  28.541  1.00  0.00     0.058 A 
ATOM     91  C   UNL A   1      47.854  33.122  29.643  1.00  0.00     0.135 A 
ATOM     92  C   UNL A   1      46.915  33.755  27.521  1.00  0.00     0.135 A 
ATOM     93  F   UNL A   1      48.013  32.245  30.646  1.00  0.00    -0.206 F 
ATOM     94  C   UNL A   1      48.505  34.350  29.729  1.00  0.00     0.059 A 
ATOM     95  C   UNL A   1      47.575  34.979  27.576  1.00  0.00     0.059 A 
ATOM     96  F   UNL A   1      46.165  33.489  26.439  1.00  0.00    -0.206 F 
ATOM     97  C   UNL A   1      48.367  35.269  28.685  1.00  0.00     0.060 A 
BRANCH  97  98
ATOM     98  S   UNL A   1      49.282  36.824  28.772  1.00  0.00     0.124 S 
ATOM     99  O   UNL A   1      49.727  36.982  27.392  1.00  0.00    -0.237 OA
ATOM    100  O   UNL A   1      48.259  37.764  29.220  1.00  0.00    -0.237 OA
ATOM    101  O   UNL A   1      50.335  36.545  29.744  1.00  0.00    -0.744 OA
ENDBRANCH  97  98
ENDBRANCH  65  90
ENDBRANCH  39  40
ENDBRANCH  32  34
ENDBRANCH  31  32
ENDBRANCH  30  31
ENDBRANCH  29  30
ENDBRANCH  28  29
ENDBRANCH  27  28
ENDBRANCH   1  27
TORSDOF 24
ENDMDL
