MODEL 1
REMARK VINA RESULT:      -8.9      0.000      0.000
REMARK SMILES C#CC[N@@H+](CC(=O)OCCOCCOCCOC(=O)c1ccc(-c2c3nc(c(-c4c(F)cc(S(=O)(=O)[O-])cc4F)c4ccc([nH]4)c(-c4c(F)cc(S(=O)(=O)[O-])cc4F)c4nc(c(-c5c(F)cc(S(=O)(=O)[O-])cc5F)c5ccc2[nH]5)C=C4)C=C3)cc1)[C@@H](C)Cc1ccco1
REMARK SMILES IDX 12 1 11 2 10 3 9 4 8 5 6 6 7 7 5 8 4 9 3 11 2 12 1 13 86 14
REMARK SMILES IDX 87 15 88 16 89 17 90 18 93 19 91 20 92 21 13 22 14 23 15 24
REMARK SMILES IDX 16 25 17 26 18 27 19 28 20 29 21 30 85 31 22 32 84 33 23 34
REMARK SMILES IDX 24 35 25 36 78 37 26 38 83 39 77 40 79 41 27 42 82 43 76 44
REMARK SMILES IDX 75 45 28 47 62 48 41 49 61 50 42 51 45 52 60 53 80 54 43 55
REMARK SMILES IDX 44 56 59 58 81 59 46 60 29 61 30 62 39 63 31 64 32 65 38 66
REMARK SMILES IDX 40 67 33 68 34 69 35 70 36 71 37 72 63 73 64 74 73 75 65 76
REMARK SMILES IDX 66 77 72 78 74 79 67 80 68 81 69 82 70 83 71 84 47 85 48 86
REMARK SMILES IDX 57 87 49 88 50 89 56 90 58 91 51 92 52 93 53 94 54 95 55 96
REMARK H PARENT 4 10 79 46 45 57
REMARK Flexibility Score: inf
ROOT
ATOM      1  C   UNL A   1      31.875  28.815  23.487  1.00  0.00     0.188 C 
ENDROOT
BRANCH   1   2
ATOM      2  O   UNL A   1      31.068  27.783  22.931  1.00  0.00    -0.376 OA
BRANCH   2   3
ATOM      3  C   UNL A   1      29.829  27.538  23.591  1.00  0.00     0.202 C 
BRANCH   3   4
ATOM      4  C   UNL A   1      29.722  26.230  24.391  1.00  0.00     0.261 C 
BRANCH   4   5
ATOM      5  O   UNL A   1      30.481  26.163  25.628  1.00  0.00    -0.459 OA
BRANCH   5   6
ATOM      6  C   UNL A   1      31.026  24.951  25.927  1.00  0.00     0.361 C 
ATOM      7  O   UNL A   1      30.815  24.378  26.997  1.00  0.00    -0.245 OA
BRANCH   6   8
ATOM      8  C   UNL A   1      32.000  24.318  24.917  1.00  0.00     0.387 C 
BRANCH   8   9
ATOM      9  N   UNL A   1      33.424  24.014  25.221  1.00  0.00    -0.313 N 
ATOM     10  H   UNL A   1      33.656  24.537  26.065  1.00  0.00     0.349 HD
BRANCH   9  11
ATOM     11  C   UNL A   1      34.351  24.563  24.243  1.00  0.00     0.354 C 
BRANCH  11  12
ATOM     12  C   UNL A   1      35.415  23.547  23.860  1.00  0.00    -0.047 C 
ATOM     13  C   UNL A   1      36.328  22.676  23.532  1.00  0.00     0.010 C 
ENDBRANCH  11  12
ENDBRANCH   9  11
BRANCH   9  14
ATOM     14  C   UNL A   1      33.665  22.627  25.660  1.00  0.00     0.189 C 
ATOM     15  C   UNL A   1      33.905  22.660  27.156  1.00  0.00     0.076 C 
BRANCH  14  16
ATOM     16  C   UNL A   1      32.608  21.511  25.377  1.00  0.00     0.140 C 
BRANCH  16  17
ATOM     17  C   UNL A   1      33.097  20.124  25.155  1.00  0.00     0.109 A 
ATOM     18  C   UNL A   1      34.265  19.586  24.652  1.00  0.00     0.046 A 
ATOM     19  O   UNL A   1      32.168  19.135  25.305  1.00  0.00    -0.469 OA
ATOM     20  C   UNL A   1      34.028  18.202  24.465  1.00  0.00     0.042 A 
ATOM     21  C   UNL A   1      32.737  17.980  24.879  1.00  0.00     0.195 A 
ENDBRANCH  16  17
ENDBRANCH  14  16
ENDBRANCH   9  14
ENDBRANCH   8   9
ENDBRANCH   6   8
ENDBRANCH   5   6
ENDBRANCH   4   5
ENDBRANCH   3   4
ENDBRANCH   2   3
ENDBRANCH   1   2
BRANCH   1  22
ATOM     22  C   UNL A   1      31.242  29.580  24.660  1.00  0.00     0.188 C 
BRANCH  22  23
ATOM     23  O   UNL A   1      32.078  29.579  25.812  1.00  0.00    -0.376 OA
BRANCH  23  24
ATOM     24  C   UNL A   1      31.785  30.449  26.905  1.00  0.00     0.202 C 
BRANCH  24  25
ATOM     25  C   UNL A   1      32.154  31.937  26.859  1.00  0.00     0.261 C 
BRANCH  25  26
ATOM     26  O   UNL A   1      33.438  32.259  27.416  1.00  0.00    -0.460 OA
BRANCH  26  27
ATOM     27  C   UNL A   1      33.557  33.405  28.133  1.00  0.00     0.338 C 
ATOM     28  O   UNL A   1      32.791  34.345  28.123  1.00  0.00    -0.246 OA
BRANCH  27  29
ATOM     29  C   UNL A   1      34.686  33.206  29.091  1.00  0.00     0.060 A 
ATOM     30  C   UNL A   1      35.964  33.684  28.772  1.00  0.00     0.016 A 
ATOM     31  C   UNL A   1      34.478  32.594  30.327  1.00  0.00     0.016 A 
ATOM     32  C   UNL A   1      37.014  33.615  29.680  1.00  0.00     0.010 A 
ATOM     33  C   UNL A   1      35.548  32.447  31.214  1.00  0.00     0.010 A 
ATOM     34  C   UNL A   1      36.822  32.946  30.884  1.00  0.00    -0.014 A 
BRANCH  34  35
ATOM     35  C   UNL A   1      38.017  32.516  31.637  1.00  0.00     0.031 A 
ATOM     36  C   UNL A   1      38.803  31.368  31.074  1.00  0.00     0.074 A 
ATOM     37  C   UNL A   1      38.438  33.171  32.732  1.00  0.00     0.049 A 
ATOM     38  N   UNL A   1      39.800  30.708  31.598  1.00  0.00    -0.248 NA
ATOM     39  C   UNL A   1      38.408  30.902  29.733  1.00  0.00     0.031 C 
ATOM     40  C   UNL A   1      37.831  34.380  33.288  1.00  0.00     0.029 A 
ATOM     41  N   UNL A   1      39.484  32.899  33.576  1.00  0.00    -0.354 N 
ATOM     42  C   UNL A   1      40.129  29.731  30.667  1.00  0.00     0.074 A 
ATOM     43  C   UNL A   1      39.222  29.875  29.551  1.00  0.00     0.031 C 
ATOM     44  C   UNL A   1      38.502  34.731  34.399  1.00  0.00     0.029 A 
ATOM     45  C   UNL A   1      39.547  33.742  34.659  1.00  0.00     0.049 A 
ATOM     46  H   UNL A   1      40.128  32.171  33.419  1.00  0.00     0.167 HD
ATOM     47  C   UNL A   1      41.101  28.795  30.743  1.00  0.00     0.037 A 
ATOM     48  C   UNL A   1      40.331  33.685  35.754  1.00  0.00     0.037 A 
ATOM     49  C   UNL A   1      42.003  28.677  31.856  1.00  0.00     0.049 A 
ATOM     50  C   UNL A   1      41.339  32.567  35.870  1.00  0.00     0.074 A 
ATOM     51  C   UNL A   1      43.012  27.753  32.052  1.00  0.00     0.029 A 
ATOM     52  N   UNL A   1      42.003  29.515  32.963  1.00  0.00    -0.354 N 
ATOM     53  N   UNL A   1      41.611  31.608  35.015  1.00  0.00    -0.248 NA
ATOM     54  C   UNL A   1      42.140  32.518  37.101  1.00  0.00     0.031 C 
ATOM     55  C   UNL A   1      43.588  27.999  33.301  1.00  0.00     0.029 A 
ATOM     56  C   UNL A   1      42.982  29.117  33.855  1.00  0.00     0.049 A 
ATOM     57  H   UNL A   1      41.398  30.280  33.092  1.00  0.00     0.167 HD
ATOM     58  C   UNL A   1      42.638  30.865  35.589  1.00  0.00     0.074 A 
ATOM     59  C   UNL A   1      42.941  31.488  36.862  1.00  0.00     0.031 C 
ATOM     60  C   UNL A   1      43.277  29.768  35.108  1.00  0.00     0.037 A 
BRANCH  47  61
ATOM     61  C   UNL A   1      41.193  27.797  29.624  1.00  0.00     0.058 A 
ATOM     62  C   UNL A   1      42.235  27.819  28.684  1.00  0.00     0.135 A 
ATOM     63  C   UNL A   1      40.221  26.790  29.500  1.00  0.00     0.135 A 
ATOM     64  F   UNL A   1      43.173  28.777  28.737  1.00  0.00    -0.206 F 
ATOM     65  C   UNL A   1      42.298  26.894  27.648  1.00  0.00     0.059 A 
ATOM     66  C   UNL A   1      40.281  25.836  28.491  1.00  0.00     0.059 A 
ATOM     67  F   UNL A   1      39.195  26.732  30.364  1.00  0.00    -0.206 F 
ATOM     68  C   UNL A   1      41.317  25.904  27.561  1.00  0.00     0.060 A 
BRANCH  68  69
ATOM     69  S   UNL A   1      41.418  24.702  26.219  1.00  0.00     0.124 S 
ATOM     70  O   UNL A   1      41.650  25.570  25.068  1.00  0.00    -0.237 OA
ATOM     71  O   UNL A   1      42.549  23.875  26.627  1.00  0.00    -0.237 OA
ATOM     72  O   UNL A   1      40.117  24.042  26.253  1.00  0.00    -0.744 OA
ENDBRANCH  68  69
ENDBRANCH  47  61
BRANCH  48  73
ATOM     73  C   UNL A   1      40.165  34.681  36.848  1.00  0.00     0.058 A 
ATOM     74  C   UNL A   1      39.154  34.543  37.811  1.00  0.00     0.135 A 
ATOM     75  C   UNL A   1      41.005  35.803  36.942  1.00  0.00     0.135 A 
ATOM     76  F   UNL A   1      38.315  33.496  37.757  1.00  0.00    -0.206 F 
ATOM     77  C   UNL A   1      38.970  35.488  38.816  1.00  0.00     0.059 A 
ATOM     78  C   UNL A   1      40.860  36.745  37.955  1.00  0.00     0.059 A 
ATOM     79  F   UNL A   1      41.991  35.982  36.050  1.00  0.00    -0.206 F 
ATOM     80  C   UNL A   1      39.830  36.585  38.881  1.00  0.00     0.060 A 
BRANCH  80  81
ATOM     81  S   UNL A   1      39.603  37.787  40.210  1.00  0.00     0.124 S 
ATOM     82  O   UNL A   1      39.892  36.979  41.389  1.00  0.00    -0.237 OA
ATOM     83  O   UNL A   1      40.594  38.805  39.874  1.00  0.00    -0.237 OA
ATOM     84  O   UNL A   1      38.212  38.201  40.054  1.00  0.00    -0.744 OA
ENDBRANCH  80  81
ENDBRANCH  48  73
BRANCH  60  85
ATOM     85  C   UNL A   1      44.405  29.203  35.928  1.00  0.00     0.058 A 
ATOM     86  C   UNL A   1      44.215  28.140  36.824  1.00  0.00     0.135 A 
ATOM     87  C   UNL A   1      45.712  29.690  35.755  1.00  0.00     0.135 A 
ATOM     88  F   UNL A   1      42.986  27.640  37.028  1.00  0.00    -0.206 F 
ATOM     89  C   UNL A   1      45.277  27.595  37.538  1.00  0.00     0.059 A 
ATOM     90  C   UNL A   1      46.794  29.139  36.434  1.00  0.00     0.059 A 
ATOM     91  F   UNL A   1      45.952  30.696  34.900  1.00  0.00    -0.206 F 
ATOM     92  C   UNL A   1      46.564  28.098  37.333  1.00  0.00     0.060 A 
BRANCH  92  93
ATOM     93  S   UNL A   1      47.939  27.353  38.234  1.00  0.00     0.124 S 
ATOM     94  O   UNL A   1      48.286  26.232  37.366  1.00  0.00    -0.237 OA
ATOM     95  O   UNL A   1      48.909  28.443  38.279  1.00  0.00    -0.237 OA
ATOM     96  O   UNL A   1      47.349  26.993  39.520  1.00  0.00    -0.744 OA
ENDBRANCH  92  93
ENDBRANCH  60  85
ENDBRANCH  34  35
ENDBRANCH  27  29
ENDBRANCH  26  27
ENDBRANCH  25  26
ENDBRANCH  24  25
ENDBRANCH  23  24
ENDBRANCH  22  23
ENDBRANCH   1  22
TORSDOF 26
ENDMDL
MODEL 2
REMARK VINA RESULT:      -8.7      2.543      8.941
REMARK SMILES C#CC[N@@H+](CC(=O)OCCOCCOCCOC(=O)c1ccc(-c2c3nc(c(-c4c(F)cc(S(=O)(=O)[O-])cc4F)c4ccc([nH]4)c(-c4c(F)cc(S(=O)(=O)[O-])cc4F)c4nc(c(-c5c(F)cc(S(=O)(=O)[O-])cc5F)c5ccc2[nH]5)C=C4)C=C3)cc1)[C@@H](C)Cc1ccco1
REMARK SMILES IDX 12 1 11 2 10 3 9 4 8 5 6 6 7 7 5 8 4 9 3 11 2 12 1 13 86 14
REMARK SMILES IDX 87 15 88 16 89 17 90 18 93 19 91 20 92 21 13 22 14 23 15 24
REMARK SMILES IDX 16 25 17 26 18 27 19 28 20 29 21 30 85 31 22 32 84 33 23 34
REMARK SMILES IDX 24 35 25 36 78 37 26 38 83 39 77 40 79 41 27 42 82 43 76 44
REMARK SMILES IDX 75 45 28 47 62 48 41 49 61 50 42 51 45 52 60 53 80 54 43 55
REMARK SMILES IDX 44 56 59 58 81 59 46 60 29 61 30 62 39 63 31 64 32 65 38 66
REMARK SMILES IDX 40 67 33 68 34 69 35 70 36 71 37 72 63 73 64 74 73 75 65 76
REMARK SMILES IDX 66 77 72 78 74 79 67 80 68 81 69 82 70 83 71 84 47 85 48 86
REMARK SMILES IDX 57 87 49 88 50 89 56 90 58 91 51 92 52 93 53 94 54 95 55 96
REMARK H PARENT 4 10 79 46 45 57
REMARK Flexibility Score: inf
ROOT
ATOM      1  C   UNL A   1      31.029  28.472  22.954  1.00  0.00     0.188 C 
ENDROOT
BRANCH   1   2
ATOM      2  O   UNL A   1      30.471  27.164  22.998  1.00  0.00    -0.376 OA
BRANCH   2   3
ATOM      3  C   UNL A   1      31.243  26.182  23.684  1.00  0.00     0.202 C 
BRANCH   3   4
ATOM      4  C   UNL A   1      31.280  24.777  23.060  1.00  0.00     0.261 C 
BRANCH   4   5
ATOM      5  O   UNL A   1      30.547  23.737  23.762  1.00  0.00    -0.459 OA
BRANCH   5   6
ATOM      6  C   UNL A   1      31.172  23.195  24.843  1.00  0.00     0.361 C 
ATOM      7  O   UNL A   1      30.551  22.734  25.802  1.00  0.00    -0.245 OA
BRANCH   6   8
ATOM      8  C   UNL A   1      32.710  23.232  24.895  1.00  0.00     0.387 C 
BRANCH   8   9
ATOM      9  N   UNL A   1      33.564  22.017  24.978  1.00  0.00    -0.313 N 
ATOM     10  H   UNL A   1      33.945  21.870  24.043  1.00  0.00     0.349 HD
BRANCH   9  11
ATOM     11  C   UNL A   1      32.808  20.796  25.209  1.00  0.00     0.354 C 
BRANCH  11  12
ATOM     12  C   UNL A   1      32.517  20.072  23.904  1.00  0.00    -0.047 C 
ATOM     13  C   UNL A   1      32.267  19.451  22.785  1.00  0.00     0.010 C 
ENDBRANCH  11  12
ENDBRANCH   9  11
BRANCH   9  14
ATOM     14  C   UNL A   1      34.795  22.197  25.770  1.00  0.00     0.189 C 
ATOM     15  C   UNL A   1      34.526  21.648  27.156  1.00  0.00     0.076 C 
BRANCH  14  16
ATOM     16  C   UNL A   1      36.149  21.593  25.278  1.00  0.00     0.140 C 
BRANCH  16  17
ATOM     17  C   UNL A   1      37.406  22.294  25.656  1.00  0.00     0.109 A 
ATOM     18  C   UNL A   1      38.673  21.872  26.009  1.00  0.00     0.046 A 
ATOM     19  O   UNL A   1      37.293  23.636  25.884  1.00  0.00    -0.469 OA
ATOM     20  C   UNL A   1      39.359  23.010  26.498  1.00  0.00     0.042 A 
ATOM     21  C   UNL A   1      38.475  24.057  26.399  1.00  0.00     0.195 A 
ENDBRANCH  16  17
ENDBRANCH  14  16
ENDBRANCH   9  14
ENDBRANCH   8   9
ENDBRANCH   6   8
ENDBRANCH   5   6
ENDBRANCH   4   5
ENDBRANCH   3   4
ENDBRANCH   2   3
ENDBRANCH   1   2
BRANCH   1  22
ATOM     22  C   UNL A   1      31.918  28.845  24.151  1.00  0.00     0.188 C 
BRANCH  22  23
ATOM     23  O   UNL A   1      31.155  29.098  25.326  1.00  0.00    -0.376 OA
BRANCH  23  24
ATOM     24  C   UNL A   1      31.818  29.358  26.562  1.00  0.00     0.202 C 
BRANCH  24  25
ATOM     25  C   UNL A   1      32.458  30.722  26.851  1.00  0.00     0.261 C 
BRANCH  25  26
ATOM     26  O   UNL A   1      33.886  30.700  27.005  1.00  0.00    -0.460 OA
BRANCH  26  27
ATOM     27  C   UNL A   1      34.456  31.616  27.828  1.00  0.00     0.338 C 
ATOM     28  O   UNL A   1      33.933  32.619  28.263  1.00  0.00    -0.246 OA
BRANCH  27  29
ATOM     29  C   UNL A   1      35.770  31.054  28.264  1.00  0.00     0.060 A 
ATOM     30  C   UNL A   1      35.864  29.705  28.631  1.00  0.00     0.016 A 
ATOM     31  C   UNL A   1      36.921  31.841  28.263  1.00  0.00     0.016 A 
ATOM     32  C   UNL A   1      37.086  29.119  28.938  1.00  0.00     0.010 A 
ATOM     33  C   UNL A   1      38.142  31.279  28.649  1.00  0.00     0.010 A 
ATOM     34  C   UNL A   1      38.222  29.919  29.001  1.00  0.00    -0.014 A 
BRANCH  34  35
ATOM     35  C   UNL A   1      39.401  29.395  29.719  1.00  0.00     0.031 A 
ATOM     36  C   UNL A   1      39.749  30.045  31.027  1.00  0.00     0.074 A 
ATOM     37  C   UNL A   1      40.087  28.329  29.274  1.00  0.00     0.049 A 
ATOM     38  N   UNL A   1      40.799  29.877  31.784  1.00  0.00    -0.248 NA
ATOM     39  C   UNL A   1      38.776  31.020  31.551  1.00  0.00     0.031 C 
ATOM     40  C   UNL A   1      39.754  27.537  28.090  1.00  0.00     0.029 A 
ATOM     41  N   UNL A   1      41.216  27.734  29.772  1.00  0.00    -0.354 N 
ATOM     42  C   UNL A   1      40.628  30.746  32.854  1.00  0.00     0.074 A 
ATOM     43  C   UNL A   1      39.381  31.448  32.646  1.00  0.00     0.031 C 
ATOM     44  C   UNL A   1      40.679  26.572  27.940  1.00  0.00     0.029 A 
ATOM     45  C   UNL A   1      41.693  26.715  28.984  1.00  0.00     0.049 A 
ATOM     46  H   UNL A   1      41.643  28.009  30.616  1.00  0.00     0.167 HD
ATOM     47  C   UNL A   1      41.444  30.941  33.914  1.00  0.00     0.037 A 
ATOM     48  C   UNL A   1      42.843  26.018  29.075  1.00  0.00     0.037 A 
ATOM     49  C   UNL A   1      42.673  30.222  34.110  1.00  0.00     0.049 A 
ATOM     50  C   UNL A   1      43.794  26.326  30.206  1.00  0.00     0.074 A 
ATOM     51  C   UNL A   1      43.592  30.353  35.134  1.00  0.00     0.029 A 
ATOM     52  N   UNL A   1      43.154  29.235  33.261  1.00  0.00    -0.354 N 
ATOM     53  N   UNL A   1      43.659  27.189  31.186  1.00  0.00    -0.248 NA
ATOM     54  C   UNL A   1      45.054  25.572  30.239  1.00  0.00     0.031 C 
ATOM     55  C   UNL A   1      44.654  29.481  34.877  1.00  0.00     0.029 A 
ATOM     56  C   UNL A   1      44.366  28.761  33.727  1.00  0.00     0.049 A 
ATOM     57  H   UNL A   1      42.698  28.917  32.448  1.00  0.00     0.167 HD
ATOM     58  C   UNL A   1      44.800  27.055  31.972  1.00  0.00     0.074 A 
ATOM     59  C   UNL A   1      45.611  26.026  31.354  1.00  0.00     0.031 C 
ATOM     60  C   UNL A   1      45.146  27.720  33.104  1.00  0.00     0.037 A 
BRANCH  47  61
ATOM     61  C   UNL A   1      41.061  32.009  34.899  1.00  0.00     0.058 A 
ATOM     62  C   UNL A   1      41.558  33.319  34.814  1.00  0.00     0.135 A 
ATOM     63  C   UNL A   1      40.168  31.713  35.942  1.00  0.00     0.135 A 
ATOM     64  F   UNL A   1      42.439  33.648  33.856  1.00  0.00    -0.206 F 
ATOM     65  C   UNL A   1      41.201  34.292  35.741  1.00  0.00     0.059 A 
ATOM     66  C   UNL A   1      39.773  32.678  36.861  1.00  0.00     0.059 A 
ATOM     67  F   UNL A   1      39.674  30.473  36.076  1.00  0.00    -0.206 F 
ATOM     68  C   UNL A   1      40.305  33.962  36.761  1.00  0.00     0.060 A 
BRANCH  68  69
ATOM     69  S   UNL A   1      39.840  35.238  37.949  1.00  0.00     0.124 S 
ATOM     70  O   UNL A   1      39.722  36.410  37.086  1.00  0.00    -0.237 OA
ATOM     71  O   UNL A   1      38.587  34.719  38.488  1.00  0.00    -0.237 OA
ATOM     72  O   UNL A   1      40.961  35.259  38.883  1.00  0.00    -0.744 OA
ENDBRANCH  68  69
ENDBRANCH  47  61
BRANCH  48  73
ATOM     73  C   UNL A   1      43.185  24.998  28.045  1.00  0.00     0.058 A 
ATOM     74  C   UNL A   1      43.975  25.324  26.932  1.00  0.00     0.135 A 
ATOM     75  C   UNL A   1      42.712  23.680  28.144  1.00  0.00     0.135 A 
ATOM     76  F   UNL A   1      44.439  26.575  26.782  1.00  0.00    -0.206 F 
ATOM     77  C   UNL A   1      44.269  24.386  25.947  1.00  0.00     0.059 A 
ATOM     78  C   UNL A   1      43.018  22.717  27.188  1.00  0.00     0.059 A 
ATOM     79  F   UNL A   1      41.955  23.312  29.189  1.00  0.00    -0.206 F 
ATOM     80  C   UNL A   1      43.788  23.083  26.085  1.00  0.00     0.060 A 
BRANCH  80  81
ATOM     81  S   UNL A   1      44.206  21.866  24.818  1.00  0.00     0.124 S 
ATOM     82  O   UNL A   1      43.804  22.560  23.600  1.00  0.00    -0.237 OA
ATOM     83  O   UNL A   1      45.642  21.700  25.015  1.00  0.00    -0.237 OA
ATOM     84  O   UNL A   1      43.392  20.709  25.182  1.00  0.00    -0.744 OA
ENDBRANCH  80  81
ENDBRANCH  48  73
BRANCH  60  85
ATOM     85  C   UNL A   1      46.427  27.320  33.783  1.00  0.00     0.058 A 
ATOM     86  C   UNL A   1      46.466  26.322  34.769  1.00  0.00     0.135 A 
ATOM     87  C   UNL A   1      47.645  27.898  33.385  1.00  0.00     0.135 A 
ATOM     88  F   UNL A   1      45.331  25.741  35.188  1.00  0.00    -0.206 F 
ATOM     89  C   UNL A   1      47.666  25.927  35.354  1.00  0.00     0.059 A 
ATOM     90  C   UNL A   1      48.859  27.495  33.933  1.00  0.00     0.059 A 
ATOM     91  F   UNL A   1      47.666  28.846  32.436  1.00  0.00    -0.206 F 
ATOM     92  C   UNL A   1      48.857  26.517  34.925  1.00  0.00     0.060 A 
BRANCH  92  93
ATOM     93  S   UNL A   1      50.410  25.964  35.662  1.00  0.00     0.124 S 
ATOM     94  O   UNL A   1      49.954  24.889  36.538  1.00  0.00    -0.237 OA
ATOM     95  O   UNL A   1      51.178  25.546  34.492  1.00  0.00    -0.237 OA
ATOM     96  O   UNL A   1      50.910  27.156  36.339  1.00  0.00    -0.744 OA
ENDBRANCH  92  93
ENDBRANCH  60  85
ENDBRANCH  34  35
ENDBRANCH  27  29
ENDBRANCH  26  27
ENDBRANCH  25  26
ENDBRANCH  24  25
ENDBRANCH  23  24
ENDBRANCH  22  23
ENDBRANCH   1  22
TORSDOF 26
ENDMDL
MODEL 3
REMARK VINA RESULT:      -8.7      2.204      3.273
REMARK SMILES C#CC[N@@H+](CC(=O)OCCOCCOCCOC(=O)c1ccc(-c2c3nc(c(-c4c(F)cc(S(=O)(=O)[O-])cc4F)c4ccc([nH]4)c(-c4c(F)cc(S(=O)(=O)[O-])cc4F)c4nc(c(-c5c(F)cc(S(=O)(=O)[O-])cc5F)c5ccc2[nH]5)C=C4)C=C3)cc1)[C@@H](C)Cc1ccco1
REMARK SMILES IDX 12 1 11 2 10 3 9 4 8 5 6 6 7 7 5 8 4 9 3 11 2 12 1 13 86 14
REMARK SMILES IDX 87 15 88 16 89 17 90 18 93 19 91 20 92 21 13 22 14 23 15 24
REMARK SMILES IDX 16 25 17 26 18 27 19 28 20 29 21 30 85 31 22 32 84 33 23 34
REMARK SMILES IDX 24 35 25 36 78 37 26 38 83 39 77 40 79 41 27 42 82 43 76 44
REMARK SMILES IDX 75 45 28 47 62 48 41 49 61 50 42 51 45 52 60 53 80 54 43 55
REMARK SMILES IDX 44 56 59 58 81 59 46 60 29 61 30 62 39 63 31 64 32 65 38 66
REMARK SMILES IDX 40 67 33 68 34 69 35 70 36 71 37 72 63 73 64 74 73 75 65 76
REMARK SMILES IDX 66 77 72 78 74 79 67 80 68 81 69 82 70 83 71 84 47 85 48 86
REMARK SMILES IDX 57 87 49 88 50 89 56 90 58 91 51 92 52 93 53 94 54 95 55 96
REMARK H PARENT 4 10 79 46 45 57
REMARK Flexibility Score: inf
ROOT
ATOM      1  C   UNL A   1      30.899  28.653  22.739  1.00  0.00     0.188 C 
ENDROOT
BRANCH   1   2
ATOM      2  O   UNL A   1      30.357  27.338  22.684  1.00  0.00    -0.376 OA
BRANCH   2   3
ATOM      3  C   UNL A   1      31.111  26.327  23.344  1.00  0.00     0.202 C 
BRANCH   3   4
ATOM      4  C   UNL A   1      31.180  24.956  22.651  1.00  0.00     0.261 C 
BRANCH   4   5
ATOM      5  O   UNL A   1      30.647  23.827  23.393  1.00  0.00    -0.459 OA
BRANCH   5   6
ATOM      6  C   UNL A   1      31.430  23.356  24.403  1.00  0.00     0.361 C 
ATOM      7  O   UNL A   1      30.991  23.142  25.533  1.00  0.00    -0.245 OA
BRANCH   6   8
ATOM      8  C   UNL A   1      32.932  23.158  24.133  1.00  0.00     0.387 C 
BRANCH   8   9
ATOM      9  N   UNL A   1      33.866  22.508  25.092  1.00  0.00    -0.313 N 
ATOM     10  H   UNL A   1      33.319  22.296  25.926  1.00  0.00     0.349 HD
BRANCH   9  11
ATOM     11  C   UNL A   1      34.888  23.409  25.601  1.00  0.00     0.354 C 
BRANCH  11  12
ATOM     12  C   UNL A   1      34.427  24.857  25.539  1.00  0.00    -0.047 C 
ATOM     13  C   UNL A   1      34.032  26.098  25.486  1.00  0.00     0.010 C 
ENDBRANCH  11  12
ENDBRANCH   9  11
BRANCH   9  14
ATOM     14  C   UNL A   1      34.310  21.162  24.683  1.00  0.00     0.189 C 
ATOM     15  C   UNL A   1      35.803  21.082  24.930  1.00  0.00     0.076 C 
BRANCH  14  16
ATOM     16  C   UNL A   1      33.659  19.888  25.312  1.00  0.00     0.140 C 
BRANCH  16  17
ATOM     17  C   UNL A   1      33.605  18.651  24.489  1.00  0.00     0.109 A 
ATOM     18  C   UNL A   1      34.395  17.521  24.399  1.00  0.00     0.046 A 
ATOM     19  O   UNL A   1      32.699  18.656  23.467  1.00  0.00    -0.469 OA
ATOM     20  C   UNL A   1      33.963  16.814  23.251  1.00  0.00     0.042 A 
ATOM     21  C   UNL A   1      32.929  17.546  22.721  1.00  0.00     0.195 A 
ENDBRANCH  16  17
ENDBRANCH  14  16
ENDBRANCH   9  14
ENDBRANCH   8   9
ENDBRANCH   6   8
ENDBRANCH   5   6
ENDBRANCH   4   5
ENDBRANCH   3   4
ENDBRANCH   2   3
ENDBRANCH   1   2
BRANCH   1  22
ATOM     22  C   UNL A   1      31.863  28.915  23.907  1.00  0.00     0.188 C 
BRANCH  22  23
ATOM     23  O   UNL A   1      31.196  28.900  25.164  1.00  0.00    -0.376 OA
BRANCH  23  24
ATOM     24  C   UNL A   1      31.955  28.921  26.373  1.00  0.00     0.202 C 
BRANCH  24  25
ATOM     25  C   UNL A   1      32.527  30.230  26.932  1.00  0.00     0.261 C 
BRANCH  25  26
ATOM     26  O   UNL A   1      33.944  30.222  27.160  1.00  0.00    -0.460 OA
BRANCH  26  27
ATOM     27  C   UNL A   1      34.512  31.328  27.707  1.00  0.00     0.338 C 
ATOM     28  O   UNL A   1      33.988  32.411  27.851  1.00  0.00    -0.246 OA
BRANCH  27  29
ATOM     29  C   UNL A   1      35.822  30.904  28.288  1.00  0.00     0.060 A 
ATOM     30  C   UNL A   1      35.926  29.675  28.953  1.00  0.00     0.016 A 
ATOM     31  C   UNL A   1      36.962  31.692  28.133  1.00  0.00     0.016 A 
ATOM     32  C   UNL A   1      37.148  29.198  29.411  1.00  0.00     0.010 A 
ATOM     33  C   UNL A   1      38.180  31.256  28.662  1.00  0.00     0.010 A 
ATOM     34  C   UNL A   1      38.270  30.013  29.315  1.00  0.00    -0.014 A 
BRANCH  34  35
ATOM     35  C   UNL A   1      39.438  29.689  30.158  1.00  0.00     0.031 A 
ATOM     36  C   UNL A   1      40.368  28.622  29.657  1.00  0.00     0.074 A 
ATOM     37  C   UNL A   1      39.711  30.370  31.284  1.00  0.00     0.049 A 
ATOM     38  N   UNL A   1      41.377  28.052  30.256  1.00  0.00    -0.248 NA
ATOM     39  C   UNL A   1      40.123  28.133  28.289  1.00  0.00     0.031 C 
ATOM     40  C   UNL A   1      38.954  31.514  31.791  1.00  0.00     0.029 A 
ATOM     41  N   UNL A   1      40.709  30.188  32.206  1.00  0.00    -0.354 N 
ATOM     42  C   UNL A   1      41.866  27.116  29.353  1.00  0.00     0.074 A 
ATOM     43  C   UNL A   1      41.039  27.186  28.169  1.00  0.00     0.031 C 
ATOM     44  C   UNL A   1      39.502  31.915  32.952  1.00  0.00     0.029 A 
ATOM     45  C   UNL A   1      40.611  31.025  33.291  1.00  0.00     0.049 A 
ATOM     46  H   UNL A   1      41.428  29.524  32.099  1.00  0.00     0.167 HD
ATOM     47  C   UNL A   1      42.911  26.273  29.503  1.00  0.00     0.037 A 
ATOM     48  C   UNL A   1      41.309  31.030  34.444  1.00  0.00     0.037 A 
ATOM     49  C   UNL A   1      43.731  26.229  30.683  1.00  0.00     0.049 A 
ATOM     50  C   UNL A   1      42.403  30.008  34.637  1.00  0.00     0.074 A 
ATOM     51  C   UNL A   1      44.802  25.400  30.956  1.00  0.00     0.029 A 
ATOM     52  N   UNL A   1      43.568  27.054  31.787  1.00  0.00    -0.354 N 
ATOM     53  N   UNL A   1      42.827  29.085  33.805  1.00  0.00    -0.248 NA
ATOM     54  C   UNL A   1      43.107  30.023  35.926  1.00  0.00     0.031 C 
ATOM     55  C   UNL A   1      45.255  25.687  32.246  1.00  0.00     0.029 A 
ATOM     56  C   UNL A   1      44.507  26.740  32.753  1.00  0.00     0.049 A 
ATOM     57  H   UNL A   1      42.887  27.760  31.870  1.00  0.00     0.167 HD
ATOM     58  C   UNL A   1      43.871  28.434  34.457  1.00  0.00     0.074 A 
ATOM     59  C   UNL A   1      44.016  29.073  35.749  1.00  0.00     0.031 C 
ATOM     60  C   UNL A   1      44.644  27.405  34.026  1.00  0.00     0.037 A 
BRANCH  47  61
ATOM     61  C   UNL A   1      43.181  25.297  28.393  1.00  0.00     0.058 A 
ATOM     62  C   UNL A   1      42.680  23.986  28.410  1.00  0.00     0.135 A 
ATOM     63  C   UNL A   1      43.950  25.690  27.285  1.00  0.00     0.135 A 
ATOM     64  F   UNL A   1      41.966  23.548  29.459  1.00  0.00    -0.206 F 
ATOM     65  C   UNL A   1      42.950  23.093  27.379  1.00  0.00     0.059 A 
ATOM     66  C   UNL A   1      44.206  24.824  26.229  1.00  0.00     0.059 A 
ATOM     67  F   UNL A   1      44.465  26.928  27.226  1.00  0.00    -0.206 F 
ATOM     68  C   UNL A   1      43.712  23.522  26.290  1.00  0.00     0.060 A 
BRANCH  68  69
ATOM     69  S   UNL A   1      44.043  22.356  24.953  1.00  0.00     0.124 S 
ATOM     70  O   UNL A   1      43.373  21.155  25.443  1.00  0.00    -0.237 OA
ATOM     71  O   UNL A   1      43.415  23.009  23.809  1.00  0.00    -0.237 OA
ATOM     72  O   UNL A   1      45.499  22.288  24.913  1.00  0.00    -0.744 OA
ENDBRANCH  68  69
ENDBRANCH  47  61
BRANCH  48  73
ATOM     73  C   UNL A   1      40.968  31.998  35.523  1.00  0.00     0.058 A 
ATOM     74  C   UNL A   1      41.732  33.156  35.730  1.00  0.00     0.135 A 
ATOM     75  C   UNL A   1      39.880  31.774  36.382  1.00  0.00     0.135 A 
ATOM     76  F   UNL A   1      42.792  33.410  34.947  1.00  0.00    -0.206 F 
ATOM     77  C   UNL A   1      41.440  34.048  36.759  1.00  0.00     0.059 A 
ATOM     78  C   UNL A   1      39.550  32.666  37.397  1.00  0.00     0.059 A 
ATOM     79  F   UNL A   1      39.112  30.684  36.226  1.00  0.00    -0.206 F 
ATOM     80  C   UNL A   1      40.345  33.794  37.586  1.00  0.00     0.060 A 
BRANCH  80  81
ATOM     81  S   UNL A   1      39.956  34.976  38.896  1.00  0.00     0.124 S 
ATOM     82  O   UNL A   1      41.248  35.115  39.559  1.00  0.00    -0.237 OA
ATOM     83  O   UNL A   1      39.501  36.136  38.136  1.00  0.00    -0.237 OA
ATOM     84  O   UNL A   1      38.921  34.295  39.667  1.00  0.00    -0.744 OA
ENDBRANCH  80  81
ENDBRANCH  48  73
BRANCH  60  85
ATOM     85  C   UNL A   1      45.752  26.938  34.930  1.00  0.00     0.058 A 
ATOM     86  C   UNL A   1      45.569  25.903  35.859  1.00  0.00     0.135 A 
ATOM     87  C   UNL A   1      47.038  27.494  34.809  1.00  0.00     0.135 A 
ATOM     88  F   UNL A   1      44.360  25.341  36.015  1.00  0.00    -0.206 F 
ATOM     89  C   UNL A   1      46.617  25.448  36.653  1.00  0.00     0.059 A 
ATOM     90  C   UNL A   1      48.107  27.032  35.571  1.00  0.00     0.059 A 
ATOM     91  F   UNL A   1      47.271  28.477  33.927  1.00  0.00    -0.206 F 
ATOM     92  C   UNL A   1      47.883  26.017  36.499  1.00  0.00     0.060 A 
BRANCH  92  93
ATOM     93  S   UNL A   1      49.243  25.388  37.506  1.00  0.00     0.124 S 
ATOM     94  O   UNL A   1      50.193  26.494  37.441  1.00  0.00    -0.237 OA
ATOM     95  O   UNL A   1      48.601  25.180  38.801  1.00  0.00    -0.237 OA
ATOM     96  O   UNL A   1      49.648  24.170  36.811  1.00  0.00    -0.744 OA
ENDBRANCH  92  93
ENDBRANCH  60  85
ENDBRANCH  34  35
ENDBRANCH  27  29
ENDBRANCH  26  27
ENDBRANCH  25  26
ENDBRANCH  24  25
ENDBRANCH  23  24
ENDBRANCH  22  23
ENDBRANCH   1  22
TORSDOF 26
ENDMDL
