MODEL 1
REMARK VINA RESULT:      -9.5      0.000      0.000
REMARK SMILES C[C@@H](C(=O)OCCOCCOCCOC(=O)c1ccc(-c2c3nc(c(-c4c(F)cc(S(=O)(=O)[O-])cc4F)c4ccc([nH]4)c(-c4c(F)cc(S(=O)(=O)[O-])cc4F)c4nc(c(-c5c(F)cc(S(=O)(=O)[O-])cc5F)c5ccc2[nH]5)C=C4)C=C3)cc1)c1ccc(C[C@@H]2CCC[C@@H]2O)cc1Br
REMARK SMILES IDX 9 1 8 2 7 3 6 4 5 5 3 6 4 7 2 8 1 9 83 10 84 11 95 12 85 13
REMARK SMILES IDX 94 14 96 15 86 16 87 17 88 18 89 19 92 20 90 21 91 22 93 23
REMARK SMILES IDX 10 25 11 26 12 27 13 28 14 29 15 30 16 31 17 32 18 33 82 34
REMARK SMILES IDX 19 35 81 36 20 37 21 38 22 39 75 40 23 41 80 42 74 43 76 44
REMARK SMILES IDX 24 45 79 46 73 47 72 48 25 50 59 51 38 52 58 53 39 54 42 55
REMARK SMILES IDX 57 56 77 57 40 58 41 59 56 61 78 62 43 63 26 64 27 65 36 66
REMARK SMILES IDX 28 67 29 68 35 69 37 70 30 71 31 72 32 73 33 74 34 75 60 76
REMARK SMILES IDX 61 77 70 78 62 79 63 80 69 81 71 82 64 83 65 84 66 85 67 86
REMARK SMILES IDX 68 87 44 88 45 89 54 90 46 91 47 92 53 93 55 94 48 95 49 96
REMARK SMILES IDX 50 97 51 98 52 99
REMARK H PARENT 93 24 76 49 42 60
REMARK Flexibility Score: inf
ROOT
ATOM      1  C   UNL A   1      35.220  32.154  27.635  1.00  0.00     0.188 C 
ENDROOT
BRANCH   1   2
ATOM      2  O   UNL A   1      35.101  30.739  27.535  1.00  0.00    -0.376 OA
BRANCH   2   3
ATOM      3  C   UNL A   1      33.832  30.194  27.175  1.00  0.00     0.202 C 
BRANCH   3   4
ATOM      4  C   UNL A   1      33.771  28.893  26.346  1.00  0.00     0.261 C 
BRANCH   4   5
ATOM      5  O   UNL A   1      33.208  27.775  27.061  1.00  0.00    -0.463 OA
BRANCH   5   6
ATOM      6  C   UNL A   1      31.877  27.531  26.908  1.00  0.00     0.313 C 
ATOM      7  O   UNL A   1      31.013  28.016  27.631  1.00  0.00    -0.252 OA
BRANCH   6   8
ATOM      8  C   UNL A   1      31.551  26.651  25.677  1.00  0.00     0.127 C 
ATOM      9  C   UNL A   1      30.029  26.559  25.449  1.00  0.00     0.025 C 
BRANCH   8  10
ATOM     10  C   UNL A   1      32.358  25.335  25.586  1.00  0.00    -0.020 A 
ATOM     11  C   UNL A   1      32.298  24.404  26.649  1.00  0.00     0.006 A 
ATOM     12  C   UNL A   1      33.288  25.034  24.566  1.00  0.00     0.022 A 
ATOM     13  C   UNL A   1      33.115  23.268  26.713  1.00  0.00     0.004 A 
ATOM     14  C   UNL A   1      34.126  23.904  24.648  1.00  0.00     0.019 A 
ATOM     15  Br  UNL A   1      33.630  26.140  23.055  1.00  0.00    -0.050 Br
ATOM     16  C   UNL A   1      34.091  23.045  25.749  1.00  0.00    -0.047 A 
BRANCH  16  17
ATOM     17  C   UNL A   1      35.153  21.983  25.921  1.00  0.00     0.041 C 
BRANCH  17  18
ATOM     18  C   UNL A   1      35.789  21.379  24.644  1.00  0.00     0.022 C 
ATOM     19  C   UNL A   1      35.959  19.854  24.644  1.00  0.00     0.007 C 
ATOM     20  C   UNL A   1      37.193  21.867  24.275  1.00  0.00     0.117 C 
ATOM     21  C   UNL A   1      37.423  19.572  24.997  1.00  0.00     0.003 C 
ATOM     22  C   UNL A   1      38.139  20.919  24.998  1.00  0.00     0.032 C 
BRANCH  20  23
ATOM     23  O   UNL A   1      37.426  23.220  24.616  1.00  0.00    -0.393 OA
ATOM     24  H   UNL A   1      37.517  23.746  23.805  1.00  0.00     0.210 HD
ENDBRANCH  20  23
ENDBRANCH  17  18
ENDBRANCH  16  17
ENDBRANCH   8  10
ENDBRANCH   6   8
ENDBRANCH   5   6
ENDBRANCH   4   5
ENDBRANCH   3   4
ENDBRANCH   2   3
ENDBRANCH   1   2
BRANCH   1  25
ATOM     25  C   UNL A   1      34.100  32.933  28.336  1.00  0.00     0.188 C 
BRANCH  25  26
ATOM     26  O   UNL A   1      34.524  34.095  29.008  1.00  0.00    -0.376 OA
BRANCH  26  27
ATOM     27  C   UNL A   1      34.744  34.044  30.407  1.00  0.00     0.202 C 
BRANCH  27  28
ATOM     28  C   UNL A   1      34.683  32.741  31.230  1.00  0.00     0.261 C 
BRANCH  28  29
ATOM     29  O   UNL A   1      35.680  31.739  30.992  1.00  0.00    -0.460 OA
BRANCH  29  30
ATOM     30  C   UNL A   1      36.618  31.555  31.951  1.00  0.00     0.338 C 
ATOM     31  O   UNL A   1      36.467  31.687  33.156  1.00  0.00    -0.246 OA
BRANCH  30  32
ATOM     32  C   UNL A   1      37.797  30.933  31.304  1.00  0.00     0.060 A 
ATOM     33  C   UNL A   1      38.677  30.160  32.076  1.00  0.00     0.016 A 
ATOM     34  C   UNL A   1      38.014  31.089  29.933  1.00  0.00     0.016 A 
ATOM     35  C   UNL A   1      39.787  29.556  31.482  1.00  0.00     0.010 A 
ATOM     36  C   UNL A   1      39.143  30.510  29.346  1.00  0.00     0.010 A 
ATOM     37  C   UNL A   1      40.050  29.764  30.122  1.00  0.00    -0.014 A 
BRANCH  37  38
ATOM     38  C   UNL A   1      41.360  29.371  29.546  1.00  0.00     0.031 A 
ATOM     39  C   UNL A   1      42.444  30.412  29.465  1.00  0.00     0.074 A 
ATOM     40  C   UNL A   1      41.585  28.126  29.092  1.00  0.00     0.049 A 
ATOM     41  N   UNL A   1      43.637  30.331  28.938  1.00  0.00    -0.248 NA
ATOM     42  C   UNL A   1      42.127  31.730  30.041  1.00  0.00     0.031 C 
ATOM     43  C   UNL A   1      40.620  27.030  29.124  1.00  0.00     0.029 A 
ATOM     44  N   UNL A   1      42.702  27.575  28.512  1.00  0.00    -0.354 N 
ATOM     45  C   UNL A   1      44.201  31.591  29.088  1.00  0.00     0.074 A 
ATOM     46  C   UNL A   1      43.217  32.423  29.745  1.00  0.00     0.031 C 
ATOM     47  C   UNL A   1      41.194  25.930  28.601  1.00  0.00     0.029 A 
ATOM     48  C   UNL A   1      42.551  26.253  28.163  1.00  0.00     0.049 A 
ATOM     49  H   UNL A   1      43.534  28.079  28.360  1.00  0.00     0.167 HD
ATOM     50  C   UNL A   1      45.429  32.019  28.707  1.00  0.00     0.037 A 
ATOM     51  C   UNL A   1      43.406  25.408  27.551  1.00  0.00     0.037 A 
ATOM     52  C   UNL A   1      46.406  31.185  28.057  1.00  0.00     0.049 A 
ATOM     53  C   UNL A   1      44.761  25.916  27.114  1.00  0.00     0.074 A 
ATOM     54  C   UNL A   1      47.685  31.522  27.650  1.00  0.00     0.029 A 
ATOM     55  N   UNL A   1      46.214  29.856  27.712  1.00  0.00    -0.354 N 
ATOM     56  N   UNL A   1      45.291  27.105  27.278  1.00  0.00    -0.248 NA
ATOM     57  C   UNL A   1      45.625  24.972  26.391  1.00  0.00     0.031 C 
ATOM     58  C   UNL A   1      48.244  30.414  27.005  1.00  0.00     0.029 A 
ATOM     59  C   UNL A   1      47.341  29.366  27.071  1.00  0.00     0.049 A 
ATOM     60  H   UNL A   1      45.398  29.337  27.896  1.00  0.00     0.167 HD
ATOM     61  C   UNL A   1      46.556  27.044  26.699  1.00  0.00     0.074 A 
ATOM     62  C   UNL A   1      46.719  25.695  26.198  1.00  0.00     0.031 C 
ATOM     63  C   UNL A   1      47.495  28.017  26.585  1.00  0.00     0.037 A 
BRANCH  50  64
ATOM     64  C   UNL A   1      45.768  33.466  28.942  1.00  0.00     0.058 A 
ATOM     65  C   UNL A   1      46.413  33.900  30.110  1.00  0.00     0.135 A 
ATOM     66  C   UNL A   1      45.472  34.428  27.961  1.00  0.00     0.135 A 
ATOM     67  F   UNL A   1      46.699  33.028  31.089  1.00  0.00    -0.206 F 
ATOM     68  C   UNL A   1      46.732  35.240  30.309  1.00  0.00     0.059 A 
ATOM     69  C   UNL A   1      45.810  35.767  28.125  1.00  0.00     0.059 A 
ATOM     70  F   UNL A   1      44.851  34.069  26.826  1.00  0.00    -0.206 F 
ATOM     71  C   UNL A   1      46.429  36.165  29.309  1.00  0.00     0.060 A 
BRANCH  71  72
ATOM     72  S   UNL A   1      46.862  37.897  29.576  1.00  0.00     0.124 S 
ATOM     73  O   UNL A   1      45.546  38.527  29.600  1.00  0.00    -0.237 OA
ATOM     74  O   UNL A   1      47.565  37.847  30.855  1.00  0.00    -0.237 OA
ATOM     75  O   UNL A   1      47.693  38.223  28.421  1.00  0.00    -0.744 OA
ENDBRANCH  71  72
ENDBRANCH  50  64
BRANCH  51  76
ATOM     76  C   UNL A   1      43.015  23.993  27.297  1.00  0.00     0.058 A 
ATOM     77  C   UNL A   1      43.000  23.050  28.336  1.00  0.00     0.135 A 
ATOM     78  C   UNL A   1      42.662  23.549  26.012  1.00  0.00     0.135 A 
ATOM     79  F   UNL A   1      43.340  23.416  29.581  1.00  0.00    -0.206 F 
ATOM     80  C   UNL A   1      42.671  21.716  28.108  1.00  0.00     0.059 A 
ATOM     81  C   UNL A   1      42.295  22.230  25.767  1.00  0.00     0.059 A 
ATOM     82  F   UNL A   1      42.652  24.411  24.983  1.00  0.00    -0.206 F 
ATOM     83  C   UNL A   1      42.315  21.317  26.820  1.00  0.00     0.060 A 
BRANCH  83  84
ATOM     84  S   UNL A   1      41.841  19.597  26.546  1.00  0.00     0.124 S 
ATOM     85  O   UNL A   1      42.636  18.908  27.553  1.00  0.00    -0.237 OA
ATOM     86  O   UNL A   1      40.401  19.638  26.784  1.00  0.00    -0.237 OA
ATOM     87  O   UNL A   1      42.232  19.359  25.160  1.00  0.00    -0.744 OA
ENDBRANCH  83  84
ENDBRANCH  51  76
BRANCH  63  88
ATOM     88  C   UNL A   1      48.804  27.657  25.929  1.00  0.00     0.058 A 
ATOM     89  C   UNL A   1      48.931  27.543  24.536  1.00  0.00     0.135 A 
ATOM     90  C   UNL A   1      49.963  27.488  26.705  1.00  0.00     0.135 A 
ATOM     91  F   UNL A   1      47.856  27.692  23.745  1.00  0.00    -0.206 F 
ATOM     92  C   UNL A   1      50.153  27.249  23.937  1.00  0.00     0.059 A 
ATOM     93  C   UNL A   1      51.202  27.226  26.127  1.00  0.00     0.059 A 
ATOM     94  F   UNL A   1      49.904  27.601  28.042  1.00  0.00    -0.206 F 
ATOM     95  C   UNL A   1      51.284  27.095  24.741  1.00  0.00     0.060 A 
BRANCH  95  96
ATOM     96  S   UNL A   1      52.869  26.746  23.949  1.00  0.00     0.124 S 
ATOM     97  O   UNL A   1      52.999  25.310  24.171  1.00  0.00    -0.237 OA
ATOM     98  O   UNL A   1      52.624  27.156  22.569  1.00  0.00    -0.237 OA
ATOM     99  O   UNL A   1      53.810  27.584  24.687  1.00  0.00    -0.744 OA
ENDBRANCH  95  96
ENDBRANCH  63  88
ENDBRANCH  37  38
ENDBRANCH  30  32
ENDBRANCH  29  30
ENDBRANCH  28  29
ENDBRANCH  27  28
ENDBRANCH  26  27
ENDBRANCH  25  26
ENDBRANCH   1  25
TORSDOF 24
ENDMDL
MODEL 2
REMARK VINA RESULT:      -9.4      1.344      8.242
REMARK SMILES C[C@@H](C(=O)OCCOCCOCCOC(=O)c1ccc(-c2c3nc(c(-c4c(F)cc(S(=O)(=O)[O-])cc4F)c4ccc([nH]4)c(-c4c(F)cc(S(=O)(=O)[O-])cc4F)c4nc(c(-c5c(F)cc(S(=O)(=O)[O-])cc5F)c5ccc2[nH]5)C=C4)C=C3)cc1)c1ccc(C[C@@H]2CCC[C@@H]2O)cc1Br
REMARK SMILES IDX 9 1 8 2 7 3 6 4 5 5 3 6 4 7 2 8 1 9 83 10 84 11 95 12 85 13
REMARK SMILES IDX 94 14 96 15 86 16 87 17 88 18 89 19 92 20 90 21 91 22 93 23
REMARK SMILES IDX 10 25 11 26 12 27 13 28 14 29 15 30 16 31 17 32 18 33 82 34
REMARK SMILES IDX 19 35 81 36 20 37 21 38 22 39 75 40 23 41 80 42 74 43 76 44
REMARK SMILES IDX 24 45 79 46 73 47 72 48 25 50 59 51 38 52 58 53 39 54 42 55
REMARK SMILES IDX 57 56 77 57 40 58 41 59 56 61 78 62 43 63 26 64 27 65 36 66
REMARK SMILES IDX 28 67 29 68 35 69 37 70 30 71 31 72 32 73 33 74 34 75 60 76
REMARK SMILES IDX 61 77 70 78 62 79 63 80 69 81 71 82 64 83 65 84 66 85 67 86
REMARK SMILES IDX 68 87 44 88 45 89 54 90 46 91 47 92 53 93 55 94 48 95 49 96
REMARK SMILES IDX 50 97 51 98 52 99
REMARK H PARENT 93 24 76 49 42 60
REMARK Flexibility Score: inf
ROOT
ATOM      1  C   UNL A   1      35.306  32.090  27.867  1.00  0.00     0.188 C 
ENDROOT
BRANCH   1   2
ATOM      2  O   UNL A   1      34.898  30.758  27.575  1.00  0.00    -0.376 OA
BRANCH   2   3
ATOM      3  C   UNL A   1      33.637  30.565  26.934  1.00  0.00     0.202 C 
BRANCH   3   4
ATOM      4  C   UNL A   1      33.429  29.336  26.024  1.00  0.00     0.261 C 
BRANCH   4   5
ATOM      5  O   UNL A   1      32.069  28.857  25.998  1.00  0.00    -0.463 OA
BRANCH   5   6
ATOM      6  C   UNL A   1      31.245  29.345  25.029  1.00  0.00     0.313 C 
ATOM      7  O   UNL A   1      30.735  30.460  25.074  1.00  0.00    -0.252 OA
BRANCH   6   8
ATOM      8  C   UNL A   1      31.082  28.391  23.822  1.00  0.00     0.127 C 
ATOM      9  C   UNL A   1      29.873  28.794  22.956  1.00  0.00     0.025 C 
BRANCH   8  10
ATOM     10  C   UNL A   1      31.242  26.889  24.154  1.00  0.00    -0.020 A 
ATOM     11  C   UNL A   1      30.450  26.311  25.173  1.00  0.00     0.006 A 
ATOM     12  C   UNL A   1      32.238  26.048  23.607  1.00  0.00     0.022 A 
ATOM     13  C   UNL A   1      30.643  25.003  25.638  1.00  0.00     0.004 A 
ATOM     14  C   UNL A   1      32.445  24.743  24.097  1.00  0.00     0.019 A 
ATOM     15  Br  UNL A   1      33.488  26.580  22.275  1.00  0.00    -0.050 Br
ATOM     16  C   UNL A   1      31.692  24.230  25.155  1.00  0.00    -0.047 A 
BRANCH  16  17
ATOM     17  C   UNL A   1      32.087  22.925  25.810  1.00  0.00     0.041 C 
BRANCH  17  18
ATOM     18  C   UNL A   1      33.211  22.092  25.145  1.00  0.00     0.022 C 
ATOM     19  C   UNL A   1      32.979  21.717  23.674  1.00  0.00     0.007 C 
ATOM     20  C   UNL A   1      33.536  20.738  25.782  1.00  0.00     0.117 C 
ATOM     21  C   UNL A   1      32.475  20.270  23.661  1.00  0.00     0.003 C 
ATOM     22  C   UNL A   1      32.612  19.747  25.087  1.00  0.00     0.032 C 
BRANCH  20  23
ATOM     23  O   UNL A   1      33.376  20.725  27.188  1.00  0.00    -0.393 OA
ATOM     24  H   UNL A   1      32.600  21.257  27.429  1.00  0.00     0.210 HD
ENDBRANCH  20  23
ENDBRANCH  17  18
ENDBRANCH  16  17
ENDBRANCH   8  10
ENDBRANCH   6   8
ENDBRANCH   5   6
ENDBRANCH   4   5
ENDBRANCH   3   4
ENDBRANCH   2   3
ENDBRANCH   1   2
BRANCH   1  25
ATOM     25  C   UNL A   1      34.363  32.980  28.689  1.00  0.00     0.188 C 
BRANCH  25  26
ATOM     26  O   UNL A   1      35.010  33.944  29.485  1.00  0.00    -0.376 OA
BRANCH  26  27
ATOM     27  C   UNL A   1      35.218  33.679  30.861  1.00  0.00     0.202 C 
BRANCH  27  28
ATOM     28  C   UNL A   1      35.150  32.266  31.475  1.00  0.00     0.261 C 
BRANCH  28  29
ATOM     29  O   UNL A   1      36.192  31.335  31.155  1.00  0.00    -0.460 OA
BRANCH  29  30
ATOM     30  C   UNL A   1      37.187  31.181  32.061  1.00  0.00     0.338 C 
ATOM     31  O   UNL A   1      37.089  31.268  33.275  1.00  0.00    -0.246 OA
BRANCH  30  32
ATOM     32  C   UNL A   1      38.367  30.651  31.337  1.00  0.00     0.060 A 
ATOM     33  C   UNL A   1      39.383  30.007  32.057  1.00  0.00     0.016 A 
ATOM     34  C   UNL A   1      38.451  30.765  29.947  1.00  0.00     0.016 A 
ATOM     35  C   UNL A   1      40.497  29.491  31.392  1.00  0.00     0.010 A 
ATOM     36  C   UNL A   1      39.581  30.275  29.286  1.00  0.00     0.010 A 
ATOM     37  C   UNL A   1      40.623  29.661  30.007  1.00  0.00    -0.014 A 
BRANCH  37  38
ATOM     38  C   UNL A   1      41.915  29.376  29.334  1.00  0.00     0.031 A 
ATOM     39  C   UNL A   1      42.132  28.001  28.764  1.00  0.00     0.074 A 
ATOM     40  C   UNL A   1      42.880  30.307  29.241  1.00  0.00     0.049 A 
ATOM     41  N   UNL A   1      43.198  27.493  28.202  1.00  0.00    -0.248 NA
ATOM     42  C   UNL A   1      40.998  27.068  28.861  1.00  0.00     0.031 C 
ATOM     43  C   UNL A   1      42.785  31.675  29.745  1.00  0.00     0.029 A 
ATOM     44  N   UNL A   1      44.136  30.239  28.686  1.00  0.00    -0.354 N 
ATOM     45  C   UNL A   1      42.876  26.174  27.908  1.00  0.00     0.074 A 
ATOM     46  C   UNL A   1      41.520  25.956  28.363  1.00  0.00     0.031 C 
ATOM     47  C   UNL A   1      43.931  32.323  29.461  1.00  0.00     0.029 A 
ATOM     48  C   UNL A   1      44.852  31.408  28.790  1.00  0.00     0.049 A 
ATOM     49  H   UNL A   1      44.490  29.428  28.255  1.00  0.00     0.167 HD
ATOM     50  C   UNL A   1      43.643  25.229  27.316  1.00  0.00     0.037 A 
ATOM     51  C   UNL A   1      46.111  31.699  28.400  1.00  0.00     0.037 A 
ATOM     52  C   UNL A   1      44.990  25.453  26.860  1.00  0.00     0.049 A 
ATOM     53  C   UNL A   1      46.955  30.619  27.764  1.00  0.00     0.074 A 
ATOM     54  C   UNL A   1      45.842  24.562  26.231  1.00  0.00     0.029 A 
ATOM     55  N   UNL A   1      45.685  26.646  26.991  1.00  0.00    -0.354 N 
ATOM     56  N   UNL A   1      46.634  29.381  27.473  1.00  0.00    -0.248 NA
ATOM     57  C   UNL A   1      48.340  30.972  27.421  1.00  0.00     0.031 C 
ATOM     58  C   UNL A   1      47.072  25.199  26.035  1.00  0.00     0.029 A 
ATOM     59  C   UNL A   1      46.965  26.506  26.480  1.00  0.00     0.049 A 
ATOM     60  H   UNL A   1      45.322  27.470  27.389  1.00  0.00     0.167 HD
ATOM     61  C   UNL A   1      47.767  28.816  26.895  1.00  0.00     0.074 A 
ATOM     62  C   UNL A   1      48.777  29.853  26.859  1.00  0.00     0.031 C 
ATOM     63  C   UNL A   1      47.959  27.551  26.441  1.00  0.00     0.037 A 
BRANCH  50  64
ATOM     64  C   UNL A   1      43.061  23.850  27.167  1.00  0.00     0.058 A 
ATOM     65  C   UNL A   1      42.610  23.359  25.931  1.00  0.00     0.135 A 
ATOM     66  C   UNL A   1      42.985  22.992  28.277  1.00  0.00     0.135 A 
ATOM     67  F   UNL A   1      42.638  24.143  24.842  1.00  0.00    -0.206 F 
ATOM     68  C   UNL A   1      42.085  22.077  25.805  1.00  0.00     0.059 A 
ATOM     69  C   UNL A   1      42.493  21.695  28.168  1.00  0.00     0.059 A 
ATOM     70  F   UNL A   1      43.397  23.410  29.485  1.00  0.00    -0.206 F 
ATOM     71  C   UNL A   1      42.033  21.252  26.930  1.00  0.00     0.060 A 
BRANCH  71  72
ATOM     72  S   UNL A   1      41.362  19.586  26.746  1.00  0.00     0.124 S 
ATOM     73  O   UNL A   1      42.550  18.834  26.356  1.00  0.00    -0.237 OA
ATOM     74  O   UNL A   1      40.847  19.309  28.084  1.00  0.00    -0.237 OA
ATOM     75  O   UNL A   1      40.348  19.740  25.707  1.00  0.00    -0.744 OA
ENDBRANCH  71  72
ENDBRANCH  50  64
BRANCH  51  76
ATOM     76  C   UNL A   1      46.666  33.066  28.606  1.00  0.00     0.058 A 
ATOM     77  C   UNL A   1      46.568  34.044  27.604  1.00  0.00     0.135 A 
ATOM     78  C   UNL A   1      47.319  33.420  29.797  1.00  0.00     0.135 A 
ATOM     79  F   UNL A   1      45.964  33.756  26.441  1.00  0.00    -0.206 F 
ATOM     80  C   UNL A   1      47.112  35.315  27.767  1.00  0.00     0.059 A 
ATOM     81  C   UNL A   1      47.840  34.694  29.997  1.00  0.00     0.059 A 
ATOM     82  F   UNL A   1      47.436  32.526  30.791  1.00  0.00    -0.206 F 
ATOM     83  C   UNL A   1      47.742  35.632  28.970  1.00  0.00     0.060 A 
BRANCH  83  84
ATOM     84  S   UNL A   1      48.401  37.299  29.190  1.00  0.00     0.124 S 
ATOM     85  O   UNL A   1      49.610  37.038  29.961  1.00  0.00    -0.237 OA
ATOM     86  O   UNL A   1      48.601  37.730  27.810  1.00  0.00    -0.237 OA
ATOM     87  O   UNL A   1      47.332  37.989  29.906  1.00  0.00    -0.744 OA
ENDBRANCH  83  84
ENDBRANCH  51  76
BRANCH  63  88
ATOM     88  C   UNL A   1      49.295  27.219  25.826  1.00  0.00     0.058 A 
ATOM     89  C   UNL A   1      49.534  27.355  24.450  1.00  0.00     0.135 A 
ATOM     90  C   UNL A   1      50.370  26.821  26.638  1.00  0.00     0.135 A 
ATOM     91  F   UNL A   1      48.543  27.730  23.625  1.00  0.00    -0.206 F 
ATOM     92  C   UNL A   1      50.783  27.084  23.897  1.00  0.00     0.059 A 
ATOM     93  C   UNL A   1      51.635  26.575  26.113  1.00  0.00     0.059 A 
ATOM     94  F   UNL A   1      50.203  26.688  27.964  1.00  0.00    -0.206 F 
ATOM     95  C   UNL A   1      51.829  26.697  24.737  1.00  0.00     0.060 A 
BRANCH  95  96
ATOM     96  S   UNL A   1      53.451  26.380  24.011  1.00  0.00     0.124 S 
ATOM     97  O   UNL A   1      53.164  26.500  22.586  1.00  0.00    -0.237 OA
ATOM     98  O   UNL A   1      54.264  27.447  24.587  1.00  0.00    -0.237 OA
ATOM     99  O   UNL A   1      53.775  25.033  24.475  1.00  0.00    -0.744 OA
ENDBRANCH  95  96
ENDBRANCH  63  88
ENDBRANCH  37  38
ENDBRANCH  30  32
ENDBRANCH  29  30
ENDBRANCH  28  29
ENDBRANCH  27  28
ENDBRANCH  26  27
ENDBRANCH  25  26
ENDBRANCH   1  25
TORSDOF 24
ENDMDL
MODEL 3
REMARK VINA RESULT:      -8.9      2.031      8.308
REMARK SMILES C[C@@H](C(=O)OCCOCCOCCOC(=O)c1ccc(-c2c3nc(c(-c4c(F)cc(S(=O)(=O)[O-])cc4F)c4ccc([nH]4)c(-c4c(F)cc(S(=O)(=O)[O-])cc4F)c4nc(c(-c5c(F)cc(S(=O)(=O)[O-])cc5F)c5ccc2[nH]5)C=C4)C=C3)cc1)c1ccc(C[C@@H]2CCC[C@@H]2O)cc1Br
REMARK SMILES IDX 9 1 8 2 7 3 6 4 5 5 3 6 4 7 2 8 1 9 83 10 84 11 95 12 85 13
REMARK SMILES IDX 94 14 96 15 86 16 87 17 88 18 89 19 92 20 90 21 91 22 93 23
REMARK SMILES IDX 10 25 11 26 12 27 13 28 14 29 15 30 16 31 17 32 18 33 82 34
REMARK SMILES IDX 19 35 81 36 20 37 21 38 22 39 75 40 23 41 80 42 74 43 76 44
REMARK SMILES IDX 24 45 79 46 73 47 72 48 25 50 59 51 38 52 58 53 39 54 42 55
REMARK SMILES IDX 57 56 77 57 40 58 41 59 56 61 78 62 43 63 26 64 27 65 36 66
REMARK SMILES IDX 28 67 29 68 35 69 37 70 30 71 31 72 32 73 33 74 34 75 60 76
REMARK SMILES IDX 61 77 70 78 62 79 63 80 69 81 71 82 64 83 65 84 66 85 67 86
REMARK SMILES IDX 68 87 44 88 45 89 54 90 46 91 47 92 53 93 55 94 48 95 49 96
REMARK SMILES IDX 50 97 51 98 52 99
REMARK H PARENT 93 24 76 49 42 60
REMARK Flexibility Score: inf
ROOT
ATOM      1  C   UNL A   1      34.913  33.664  28.333  1.00  0.00     0.188 C 
ENDROOT
BRANCH   1   2
ATOM      2  O   UNL A   1      33.961  32.790  27.736  1.00  0.00    -0.376 OA
BRANCH   2   3
ATOM      3  C   UNL A   1      34.268  31.396  27.682  1.00  0.00     0.202 C 
BRANCH   3   4
ATOM      4  C   UNL A   1      33.208  30.405  27.158  1.00  0.00     0.261 C 
BRANCH   4   5
ATOM      5  O   UNL A   1      33.462  29.939  25.817  1.00  0.00    -0.463 OA
BRANCH   5   6
ATOM      6  C   UNL A   1      32.471  29.245  25.191  1.00  0.00     0.313 C 
ATOM      7  O   UNL A   1      31.278  29.416  25.418  1.00  0.00    -0.252 OA
BRANCH   6   8
ATOM      8  C   UNL A   1      32.993  28.279  24.100  1.00  0.00     0.127 C 
ATOM      9  C   UNL A   1      32.560  28.744  22.696  1.00  0.00     0.025 C 
BRANCH   8  10
ATOM     10  C   UNL A   1      32.827  26.777  24.427  1.00  0.00    -0.020 A 
ATOM     11  C   UNL A   1      33.965  26.004  24.754  1.00  0.00     0.006 A 
ATOM     12  C   UNL A   1      31.621  26.054  24.288  1.00  0.00     0.022 A 
ATOM     13  C   UNL A   1      33.921  24.612  24.910  1.00  0.00     0.004 A 
ATOM     14  C   UNL A   1      31.587  24.651  24.419  1.00  0.00     0.019 A 
ATOM     15  Br  UNL A   1      29.953  26.822  23.787  1.00  0.00    -0.050 Br
ATOM     16  C   UNL A   1      32.745  23.912  24.671  1.00  0.00    -0.047 A 
BRANCH  16  17
ATOM     17  C   UNL A   1      32.721  22.403  24.575  1.00  0.00     0.041 C 
BRANCH  17  18
ATOM     18  C   UNL A   1      33.463  21.595  25.669  1.00  0.00     0.022 C 
ATOM     19  C   UNL A   1      34.995  21.681  25.635  1.00  0.00     0.007 C 
ATOM     20  C   UNL A   1      33.219  20.084  25.697  1.00  0.00     0.117 C 
ATOM     21  C   UNL A   1      35.495  20.406  24.948  1.00  0.00     0.003 C 
ATOM     22  C   UNL A   1      34.280  19.500  24.774  1.00  0.00     0.032 C 
BRANCH  20  23
ATOM     23  O   UNL A   1      31.909  19.718  25.306  1.00  0.00    -0.393 OA
ATOM     24  H   UNL A   1      31.596  18.990  25.867  1.00  0.00     0.210 HD
ENDBRANCH  20  23
ENDBRANCH  17  18
ENDBRANCH  16  17
ENDBRANCH   8  10
ENDBRANCH   6   8
ENDBRANCH   5   6
ENDBRANCH   4   5
ENDBRANCH   3   4
ENDBRANCH   2   3
ENDBRANCH   1   2
BRANCH   1  25
ATOM     25  C   UNL A   1      34.518  34.407  29.617  1.00  0.00     0.188 C 
BRANCH  25  26
ATOM     26  O   UNL A   1      34.040  33.580  30.651  1.00  0.00    -0.376 OA
BRANCH  26  27
ATOM     27  C   UNL A   1      34.795  32.445  31.033  1.00  0.00     0.202 C 
BRANCH  27  28
ATOM     28  C   UNL A   1      36.285  32.507  31.427  1.00  0.00     0.261 C 
BRANCH  28  29
ATOM     29  O   UNL A   1      37.045  31.291  31.404  1.00  0.00    -0.460 OA
BRANCH  29  30
ATOM     30  C   UNL A   1      37.847  31.040  32.466  1.00  0.00     0.338 C 
ATOM     31  O   UNL A   1      37.493  30.840  33.618  1.00  0.00    -0.246 OA
BRANCH  30  32
ATOM     32  C   UNL A   1      39.215  30.813  31.944  1.00  0.00     0.060 A 
ATOM     33  C   UNL A   1      39.579  31.364  30.707  1.00  0.00     0.016 A 
ATOM     34  C   UNL A   1      40.143  30.083  32.690  1.00  0.00     0.016 A 
ATOM     35  C   UNL A   1      40.866  31.171  30.203  1.00  0.00     0.010 A 
ATOM     36  C   UNL A   1      41.422  29.864  32.170  1.00  0.00     0.010 A 
ATOM     37  C   UNL A   1      41.782  30.382  30.912  1.00  0.00    -0.014 A 
BRANCH  37  38
ATOM     38  C   UNL A   1      43.041  29.936  30.265  1.00  0.00     0.031 A 
ATOM     39  C   UNL A   1      43.050  28.604  29.565  1.00  0.00     0.074 A 
ATOM     40  C   UNL A   1      44.157  30.685  30.307  1.00  0.00     0.049 A 
ATOM     41  N   UNL A   1      44.041  27.971  28.997  1.00  0.00    -0.248 NA
ATOM     42  C   UNL A   1      41.767  27.883  29.519  1.00  0.00     0.031 C 
ATOM     43  C   UNL A   1      44.272  31.993  30.946  1.00  0.00     0.029 A 
ATOM     44  N   UNL A   1      45.412  30.446  29.799  1.00  0.00    -0.354 N 
ATOM     45  C   UNL A   1      43.513  26.764  28.554  1.00  0.00     0.074 A 
ATOM     46  C   UNL A   1      42.116  26.749  28.930  1.00  0.00     0.031 C 
ATOM     47  C   UNL A   1      45.527  32.451  30.777  1.00  0.00     0.029 A 
ATOM     48  C   UNL A   1      46.313  31.454  30.052  1.00  0.00     0.049 A 
ATOM     49  H   UNL A   1      45.644  29.630  29.301  1.00  0.00     0.167 HD
ATOM     50  C   UNL A   1      44.138  25.757  27.899  1.00  0.00     0.037 A 
ATOM     51  C   UNL A   1      47.623  31.551  29.745  1.00  0.00     0.037 A 
ATOM     52  C   UNL A   1      45.527  25.780  27.524  1.00  0.00     0.049 A 
ATOM     53  C   UNL A   1      48.302  30.403  29.034  1.00  0.00     0.074 A 
ATOM     54  C   UNL A   1      46.247  24.815  26.840  1.00  0.00     0.029 A 
ATOM     55  N   UNL A   1      46.410  26.812  27.805  1.00  0.00    -0.354 N 
ATOM     56  N   UNL A   1      47.789  29.276  28.604  1.00  0.00    -0.248 NA
ATOM     57  C   UNL A   1      49.745  30.535  28.785  1.00  0.00     0.031 C 
ATOM     58  C   UNL A   1      47.578  25.238  26.761  1.00  0.00     0.029 A 
ATOM     59  C   UNL A   1      47.674  26.496  27.334  1.00  0.00     0.049 A 
ATOM     60  H   UNL A   1      46.172  27.647  28.271  1.00  0.00     0.167 HD
ATOM     61  C   UNL A   1      48.839  28.575  28.017  1.00  0.00     0.074 A 
ATOM     62  C   UNL A   1      50.013  29.414  28.129  1.00  0.00     0.031 C 
ATOM     63  C   UNL A   1      48.834  27.345  27.443  1.00  0.00     0.037 A 
BRANCH  50  64
ATOM     64  C   UNL A   1      43.334  24.524  27.585  1.00  0.00     0.058 A 
ATOM     65  C   UNL A   1      42.727  24.328  26.335  1.00  0.00     0.135 A 
ATOM     66  C   UNL A   1      43.201  23.506  28.544  1.00  0.00     0.135 A 
ATOM     67  F   UNL A   1      42.804  25.278  25.389  1.00  0.00    -0.206 F 
ATOM     68  C   UNL A   1      41.997  23.177  26.054  1.00  0.00     0.059 A 
ATOM     69  C   UNL A   1      42.502  22.334  28.274  1.00  0.00     0.059 A 
ATOM     70  F   UNL A   1      43.757  23.643  29.758  1.00  0.00    -0.206 F 
ATOM     71  C   UNL A   1      41.893  22.184  27.030  1.00  0.00     0.060 A 
BRANCH  71  72
ATOM     72  S   UNL A   1      40.955  20.692  26.644  1.00  0.00     0.124 S 
ATOM     73  O   UNL A   1      39.716  21.254  26.117  1.00  0.00    -0.237 OA
ATOM     74  O   UNL A   1      41.814  20.027  25.669  1.00  0.00    -0.237 OA
ATOM     75  O   UNL A   1      40.839  20.019  27.935  1.00  0.00    -0.744 OA
ENDBRANCH  71  72
ENDBRANCH  50  64
BRANCH  51  76
ATOM     76  C   UNL A   1      48.395  32.772  30.113  1.00  0.00     0.058 A 
ATOM     77  C   UNL A   1      49.024  32.879  31.363  1.00  0.00     0.135 A 
ATOM     78  C   UNL A   1      48.507  33.861  29.234  1.00  0.00     0.135 A 
ATOM     79  F   UNL A   1      48.939  31.873  32.246  1.00  0.00    -0.206 F 
ATOM     80  C   UNL A   1      49.719  34.026  31.735  1.00  0.00     0.059 A 
ATOM     81  C   UNL A   1      49.226  35.004  29.569  1.00  0.00     0.059 A 
ATOM     82  F   UNL A   1      47.931  33.809  28.023  1.00  0.00    -0.206 F 
ATOM     83  C   UNL A   1      49.818  35.082  30.829  1.00  0.00     0.060 A 
BRANCH  83  84
ATOM     84  S   UNL A   1      50.764  36.545  31.303  1.00  0.00     0.124 S 
ATOM     85  O   UNL A   1      52.119  36.013  31.365  1.00  0.00    -0.237 OA
ATOM     86  O   UNL A   1      50.484  37.458  30.198  1.00  0.00    -0.237 OA
ATOM     87  O   UNL A   1      50.175  36.924  32.584  1.00  0.00    -0.744 OA
ENDBRANCH  83  84
ENDBRANCH  51  76
BRANCH  63  88
ATOM     88  C   UNL A   1      50.126  26.840  26.851  1.00  0.00     0.058 A 
ATOM     89  C   UNL A   1      51.082  26.163  27.624  1.00  0.00     0.135 A 
ATOM     90  C   UNL A   1      50.379  26.982  25.477  1.00  0.00     0.135 A 
ATOM     91  F   UNL A   1      50.894  26.001  28.944  1.00  0.00    -0.206 F 
ATOM     92  C   UNL A   1      52.254  25.667  27.061  1.00  0.00     0.059 A 
ATOM     93  C   UNL A   1      51.529  26.465  24.886  1.00  0.00     0.059 A 
ATOM     94  F   UNL A   1      49.493  27.608  24.687  1.00  0.00    -0.206 F 
ATOM     95  C   UNL A   1      52.468  25.820  25.689  1.00  0.00     0.060 A 
BRANCH  95  96
ATOM     96  S   UNL A   1      53.977  25.142  24.966  1.00  0.00     0.124 S 
ATOM     97  O   UNL A   1      54.963  25.455  25.996  1.00  0.00    -0.237 OA
ATOM     98  O   UNL A   1      53.643  23.729  24.815  1.00  0.00    -0.237 OA
ATOM     99  O   UNL A   1      54.119  25.883  23.716  1.00  0.00    -0.744 OA
ENDBRANCH  95  96
ENDBRANCH  63  88
ENDBRANCH  37  38
ENDBRANCH  30  32
ENDBRANCH  29  30
ENDBRANCH  28  29
ENDBRANCH  27  28
ENDBRANCH  26  27
ENDBRANCH  25  26
ENDBRANCH   1  25
TORSDOF 24
ENDMDL
