MODEL 1
REMARK VINA RESULT:     -10.4      0.000      0.000
REMARK SMILES O=C(C[C@H](c1ccc(C2CC2)cc1)[NH+]1CCOCC1)OCCOCCOCCOC(=O)c1ccc(-c2c3nc(c(-c4c(F)cc(S(=O)(=O)[O-])cc4F)c4ccc([nH]4)c(-c4c(F)cc(S(=O)(=O)[O-])cc4F)c4nc(c(-c5c(F)cc(S(=O)(=O)[O-])cc5F)c5ccc2[nH]5)C=C4)C=C3)cc1
REMARK SMILES IDX 24 1 23 2 22 3 21 4 20 5 2 6 1 7 3 8 4 9 14 10 15 11 19 12
REMARK SMILES IDX 16 14 18 15 17 16 5 17 6 18 13 19 7 20 12 21 8 22 9 23 10 24
REMARK SMILES IDX 11 25 25 26 26 27 27 28 28 29 29 30 30 31 31 32 32 33 33 34
REMARK SMILES IDX 97 35 34 36 96 37 35 38 36 39 37 40 90 41 38 42 95 43 89 44
REMARK SMILES IDX 91 45 39 46 94 47 88 48 87 49 40 51 74 52 53 53 73 54 54 55
REMARK SMILES IDX 57 56 72 57 92 58 55 59 56 60 71 62 93 63 58 64 41 65 42 66
REMARK SMILES IDX 51 67 43 68 44 69 50 70 52 71 45 72 46 73 47 74 48 75 49 76
REMARK SMILES IDX 75 77 76 78 85 79 77 80 78 81 84 82 86 83 79 84 80 85 81 86
REMARK SMILES IDX 82 87 83 88 59 89 60 90 69 91 61 92 62 93 68 94 70 95 63 96
REMARK SMILES IDX 64 97 65 98 66 99 67 100
REMARK H PARENT 14 13 91 50 57 61
REMARK Flexibility Score: inf
ROOT
ATOM      1  C   UNL A   1      35.583  20.995  24.768  1.00  0.00     0.188 C 
ENDROOT
BRANCH   1   2
ATOM      2  O   UNL A   1      34.688  20.942  25.867  1.00  0.00    -0.376 OA
BRANCH   2   3
ATOM      3  C   UNL A   1      33.312  21.134  25.603  1.00  0.00     0.202 C 
BRANCH   3   4
ATOM      4  C   UNL A   1      32.985  22.559  25.171  1.00  0.00     0.261 C 
BRANCH   4   5
ATOM      5  O   UNL A   1      31.674  23.090  25.486  1.00  0.00    -0.463 OA
BRANCH   5   6
ATOM      6  C   UNL A   1      31.290  24.126  26.259  1.00  0.00     0.312 C 
ATOM      7  O   UNL A   1      31.302  23.991  27.482  1.00  0.00    -0.252 OA
BRANCH   6   8
ATOM      8  C   UNL A   1      30.808  25.408  25.633  1.00  0.00     0.192 C 
BRANCH   8   9
ATOM      9  C   UNL A   1      31.899  26.091  24.799  1.00  0.00     0.226 C 
BRANCH   9  10
ATOM     10  N   UNL A   1      31.391  26.396  23.430  1.00  0.00    -0.324 N 
ATOM     11  C   UNL A   1      31.380  25.198  22.549  1.00  0.00     0.291 C 
ATOM     12  C   UNL A   1      32.155  27.428  22.679  1.00  0.00     0.291 C 
ATOM     13  H   UNL A   1      30.455  26.748  23.629  1.00  0.00     0.348 HD
ATOM     14  C   UNL A   1      32.784  24.746  22.089  1.00  0.00     0.221 C 
ATOM     15  C   UNL A   1      33.562  26.975  22.265  1.00  0.00     0.221 C 
ATOM     16  O   UNL A   1      33.509  25.798  21.445  1.00  0.00    -0.370 OA
ENDBRANCH   9  10
BRANCH   9  17
ATOM     17  C   UNL A   1      32.407  27.290  25.587  1.00  0.00     0.010 A 
ATOM     18  C   UNL A   1      31.538  28.281  26.057  1.00  0.00     0.010 A 
ATOM     19  C   UNL A   1      33.774  27.403  25.865  1.00  0.00     0.010 A 
ATOM     20  C   UNL A   1      32.046  29.417  26.678  1.00  0.00     0.004 A 
ATOM     21  C   UNL A   1      34.270  28.535  26.507  1.00  0.00     0.004 A 
ATOM     22  C   UNL A   1      33.426  29.594  26.871  1.00  0.00    -0.045 A 
BRANCH  22  23
ATOM     23  C   UNL A   1      33.938  30.924  27.367  1.00  0.00     0.019 C 
ATOM     24  C   UNL A   1      34.512  31.155  28.742  1.00  0.00     0.009 C 
ATOM     25  C   UNL A   1      35.438  31.009  27.574  1.00  0.00     0.009 C 
ENDBRANCH  22  23
ENDBRANCH   9  17
ENDBRANCH   8   9
ENDBRANCH   6   8
ENDBRANCH   5   6
ENDBRANCH   4   5
ENDBRANCH   3   4
ENDBRANCH   2   3
ENDBRANCH   1   2
BRANCH   1  26
ATOM     26  C   UNL A   1      36.900  20.253  25.032  1.00  0.00     0.188 C 
BRANCH  26  27
ATOM     27  O   UNL A   1      38.091  21.019  25.149  1.00  0.00    -0.376 OA
BRANCH  27  28
ATOM     28  C   UNL A   1      37.974  22.394  25.507  1.00  0.00     0.202 C 
BRANCH  28  29
ATOM     29  C   UNL A   1      39.018  22.975  26.466  1.00  0.00     0.261 C 
BRANCH  29  30
ATOM     30  O   UNL A   1      39.039  24.417  26.540  1.00  0.00    -0.460 OA
BRANCH  30  31
ATOM     31  C   UNL A   1      40.281  24.959  26.640  1.00  0.00     0.338 C 
ATOM     32  O   UNL A   1      41.169  24.920  25.806  1.00  0.00    -0.246 OA
BRANCH  31  33
ATOM     33  C   UNL A   1      40.445  25.701  27.903  1.00  0.00     0.060 A 
ATOM     34  C   UNL A   1      39.334  25.873  28.740  1.00  0.00     0.016 A 
ATOM     35  C   UNL A   1      41.627  26.404  28.145  1.00  0.00     0.016 A 
ATOM     36  C   UNL A   1      39.391  26.786  29.799  1.00  0.00     0.010 A 
ATOM     37  C   UNL A   1      41.676  27.322  29.200  1.00  0.00     0.010 A 
ATOM     38  C   UNL A   1      40.548  27.548  30.010  1.00  0.00    -0.014 A 
BRANCH  38  39
ATOM     39  C   UNL A   1      40.550  28.687  30.966  1.00  0.00     0.031 A 
ATOM     40  C   UNL A   1      41.492  28.660  32.142  1.00  0.00     0.074 A 
ATOM     41  C   UNL A   1      39.699  29.720  30.819  1.00  0.00     0.049 A 
ATOM     42  N   UNL A   1      41.569  29.474  33.164  1.00  0.00    -0.248 NA
ATOM     43  C   UNL A   1      42.475  27.565  32.170  1.00  0.00     0.031 C 
ATOM     44  C   UNL A   1      38.764  29.894  29.711  1.00  0.00     0.029 A 
ATOM     45  N   UNL A   1      39.472  30.807  31.628  1.00  0.00    -0.354 N 
ATOM     46  C   UNL A   1      42.595  28.983  33.964  1.00  0.00     0.074 A 
ATOM     47  C   UNL A   1      43.103  27.792  33.315  1.00  0.00     0.031 C 
ATOM     48  C   UNL A   1      38.039  31.006  29.924  1.00  0.00     0.029 A 
ATOM     49  C   UNL A   1      38.434  31.602  31.201  1.00  0.00     0.049 A 
ATOM     50  H   UNL A   1      40.000  30.999  32.436  1.00  0.00     0.167 HD
ATOM     51  C   UNL A   1      43.071  29.478  35.133  1.00  0.00     0.037 A 
ATOM     52  C   UNL A   1      37.845  32.664  31.789  1.00  0.00     0.037 A 
ATOM     53  C   UNL A   1      42.574  30.666  35.777  1.00  0.00     0.049 A 
ATOM     54  C   UNL A   1      38.342  33.156  33.125  1.00  0.00     0.074 A 
ATOM     55  C   UNL A   1      43.022  31.262  36.943  1.00  0.00     0.029 A 
ATOM     56  N   UNL A   1      41.512  31.431  35.321  1.00  0.00    -0.354 N 
ATOM     57  N   UNL A   1      39.331  32.699  33.856  1.00  0.00    -0.248 NA
ATOM     58  C   UNL A   1      37.638  34.302  33.720  1.00  0.00     0.031 C 
ATOM     59  C   UNL A   1      42.200  32.360  37.219  1.00  0.00     0.029 A 
ATOM     60  C   UNL A   1      41.269  32.475  36.199  1.00  0.00     0.049 A 
ATOM     61  H   UNL A   1      41.005  31.259  34.495  1.00  0.00     0.167 HD
ATOM     62  C   UNL A   1      39.381  33.517  34.983  1.00  0.00     0.074 A 
ATOM     63  C   UNL A   1      38.330  34.499  34.835  1.00  0.00     0.031 C 
ATOM     64  C   UNL A   1      40.225  33.456  36.043  1.00  0.00     0.037 A 
BRANCH  51  65
ATOM     65  C   UNL A   1      44.175  28.719  35.814  1.00  0.00     0.058 A 
ATOM     66  C   UNL A   1      43.909  27.647  36.681  1.00  0.00     0.135 A 
ATOM     67  C   UNL A   1      45.517  29.037  35.556  1.00  0.00     0.135 A 
ATOM     68  F   UNL A   1      42.642  27.311  36.972  1.00  0.00    -0.206 F 
ATOM     69  C   UNL A   1      44.938  26.934  37.287  1.00  0.00     0.059 A 
ATOM     70  C   UNL A   1      46.562  28.322  36.133  1.00  0.00     0.059 A 
ATOM     71  F   UNL A   1      45.825  30.052  34.733  1.00  0.00    -0.206 F 
ATOM     72  C   UNL A   1      46.261  27.279  37.008  1.00  0.00     0.060 A 
BRANCH  72  73
ATOM     73  S   UNL A   1      47.586  26.340  37.796  1.00  0.00     0.124 S 
ATOM     74  O   UNL A   1      47.016  26.084  39.116  1.00  0.00    -0.237 OA
ATOM     75  O   UNL A   1      47.708  25.175  36.923  1.00  0.00    -0.237 OA
ATOM     76  O   UNL A   1      48.719  27.260  37.770  1.00  0.00    -0.744 OA
ENDBRANCH  72  73
ENDBRANCH  51  65
BRANCH  52  77
ATOM     77  C   UNL A   1      36.683  33.322  31.133  1.00  0.00     0.058 A 
ATOM     78  C   UNL A   1      35.394  33.226  31.675  1.00  0.00     0.135 A 
ATOM     79  C   UNL A   1      36.840  34.048  29.942  1.00  0.00     0.135 A 
ATOM     80  F   UNL A   1      35.191  32.528  32.803  1.00  0.00    -0.206 F 
ATOM     81  C   UNL A   1      34.298  33.817  31.055  1.00  0.00     0.059 A 
ATOM     82  C   UNL A   1      35.764  34.668  29.316  1.00  0.00     0.059 A 
ATOM     83  F   UNL A   1      38.055  34.173  29.386  1.00  0.00    -0.206 F 
ATOM     84  C   UNL A   1      34.494  34.538  29.876  1.00  0.00     0.060 A 
BRANCH  84  85
ATOM     85  S   UNL A   1      33.074  35.345  29.105  1.00  0.00     0.124 S 
ATOM     86  O   UNL A   1      32.672  34.351  28.117  1.00  0.00    -0.237 OA
ATOM     87  O   UNL A   1      32.169  35.525  30.236  1.00  0.00    -0.237 OA
ATOM     88  O   UNL A   1      33.642  36.578  28.567  1.00  0.00    -0.744 OA
ENDBRANCH  84  85
ENDBRANCH  52  77
BRANCH  64  89
ATOM     89  C   UNL A   1      40.077  34.495  37.122  1.00  0.00     0.058 A 
ATOM     90  C   UNL A   1      40.690  35.753  37.022  1.00  0.00     0.135 A 
ATOM     91  C   UNL A   1      39.250  34.256  38.230  1.00  0.00     0.135 A 
ATOM     92  F   UNL A   1      41.497  36.031  35.986  1.00  0.00    -0.206 F 
ATOM     93  C   UNL A   1      40.495  36.736  37.988  1.00  0.00     0.059 A 
ATOM     94  C   UNL A   1      39.021  35.232  39.197  1.00  0.00     0.059 A 
ATOM     95  F   UNL A   1      38.631  33.072  38.370  1.00  0.00    -0.206 F 
ATOM     96  C   UNL A   1      39.655  36.467  39.070  1.00  0.00     0.060 A 
BRANCH  96  97
ATOM     97  S   UNL A   1      39.365  37.770  40.289  1.00  0.00     0.124 S 
ATOM     98  O   UNL A   1      40.658  38.446  40.310  1.00  0.00    -0.237 OA
ATOM     99  O   UNL A   1      38.267  38.521  39.690  1.00  0.00    -0.237 OA
ATOM    100  O   UNL A   1      39.022  37.031  41.500  1.00  0.00    -0.744 OA
ENDBRANCH  96  97
ENDBRANCH  64  89
ENDBRANCH  38  39
ENDBRANCH  31  33
ENDBRANCH  30  31
ENDBRANCH  29  30
ENDBRANCH  28  29
ENDBRANCH  27  28
ENDBRANCH  26  27
ENDBRANCH   1  26
TORSDOF 24
ENDMDL
MODEL 2
REMARK VINA RESULT:      -9.9      1.636      2.573
REMARK SMILES O=C(C[C@H](c1ccc(C2CC2)cc1)[NH+]1CCOCC1)OCCOCCOCCOC(=O)c1ccc(-c2c3nc(c(-c4c(F)cc(S(=O)(=O)[O-])cc4F)c4ccc([nH]4)c(-c4c(F)cc(S(=O)(=O)[O-])cc4F)c4nc(c(-c5c(F)cc(S(=O)(=O)[O-])cc5F)c5ccc2[nH]5)C=C4)C=C3)cc1
REMARK SMILES IDX 24 1 23 2 22 3 21 4 20 5 2 6 1 7 3 8 4 9 14 10 15 11 19 12
REMARK SMILES IDX 16 14 18 15 17 16 5 17 6 18 13 19 7 20 12 21 8 22 9 23 10 24
REMARK SMILES IDX 11 25 25 26 26 27 27 28 28 29 29 30 30 31 31 32 32 33 33 34
REMARK SMILES IDX 97 35 34 36 96 37 35 38 36 39 37 40 90 41 38 42 95 43 89 44
REMARK SMILES IDX 91 45 39 46 94 47 88 48 87 49 40 51 74 52 53 53 73 54 54 55
REMARK SMILES IDX 57 56 72 57 92 58 55 59 56 60 71 62 93 63 58 64 41 65 42 66
REMARK SMILES IDX 51 67 43 68 44 69 50 70 52 71 45 72 46 73 47 74 48 75 49 76
REMARK SMILES IDX 75 77 76 78 85 79 77 80 78 81 84 82 86 83 79 84 80 85 81 86
REMARK SMILES IDX 82 87 83 88 59 89 60 90 69 91 61 92 62 93 68 94 70 95 63 96
REMARK SMILES IDX 64 97 65 98 66 99 67 100
REMARK H PARENT 14 13 91 50 57 61
REMARK Flexibility Score: inf
ROOT
ATOM      1  C   UNL A   1      34.414  21.753  24.860  1.00  0.00     0.188 C 
ENDROOT
BRANCH   1   2
ATOM      2  O   UNL A   1      33.764  22.414  25.933  1.00  0.00    -0.376 OA
BRANCH   2   3
ATOM      3  C   UNL A   1      32.363  22.257  26.047  1.00  0.00     0.202 C 
BRANCH   3   4
ATOM      4  C   UNL A   1      31.598  22.927  24.911  1.00  0.00     0.261 C 
BRANCH   4   5
ATOM      5  O   UNL A   1      30.444  23.738  25.243  1.00  0.00    -0.463 OA
BRANCH   5   6
ATOM      6  C   UNL A   1      30.285  25.074  25.330  1.00  0.00     0.312 C 
ATOM      7  O   UNL A   1      29.943  25.563  26.406  1.00  0.00    -0.252 OA
BRANCH   6   8
ATOM      8  C   UNL A   1      30.474  25.946  24.116  1.00  0.00     0.192 C 
BRANCH   8   9
ATOM      9  C   UNL A   1      31.284  27.210  24.433  1.00  0.00     0.226 C 
BRANCH   9  10
ATOM     10  N   UNL A   1      32.678  27.073  23.920  1.00  0.00    -0.324 N 
ATOM     11  C   UNL A   1      33.380  25.895  24.494  1.00  0.00     0.291 C 
ATOM     12  C   UNL A   1      33.574  28.231  24.186  1.00  0.00     0.291 C 
ATOM     13  H   UNL A   1      32.524  26.990  22.916  1.00  0.00     0.348 HD
ATOM     14  C   UNL A   1      33.782  26.065  25.976  1.00  0.00     0.221 C 
ATOM     15  C   UNL A   1      33.931  28.408  25.669  1.00  0.00     0.221 C 
ATOM     16  O   UNL A   1      34.574  27.237  26.192  1.00  0.00    -0.370 OA
ENDBRANCH   9  10
BRANCH   9  17
ATOM     17  C   UNL A   1      30.509  28.406  23.900  1.00  0.00     0.010 A 
ATOM     18  C   UNL A   1      30.705  29.694  24.410  1.00  0.00     0.010 A 
ATOM     19  C   UNL A   1      29.586  28.225  22.863  1.00  0.00     0.010 A 
ATOM     20  C   UNL A   1      29.904  30.747  23.978  1.00  0.00     0.004 A 
ATOM     21  C   UNL A   1      28.804  29.289  22.422  1.00  0.00     0.004 A 
ATOM     22  C   UNL A   1      28.901  30.557  23.013  1.00  0.00    -0.045 A 
BRANCH  22  23
ATOM     23  C   UNL A   1      27.933  31.679  22.723  1.00  0.00     0.019 C 
ATOM     24  C   UNL A   1      28.315  33.136  22.661  1.00  0.00     0.009 C 
ATOM     25  C   UNL A   1      28.121  32.373  21.388  1.00  0.00     0.009 C 
ENDBRANCH  22  23
ENDBRANCH   9  17
ENDBRANCH   8   9
ENDBRANCH   6   8
ENDBRANCH   5   6
ENDBRANCH   4   5
ENDBRANCH   3   4
ENDBRANCH   2   3
ENDBRANCH   1   2
BRANCH   1  26
ATOM     26  C   UNL A   1      35.686  21.013  25.296  1.00  0.00     0.188 C 
BRANCH  26  27
ATOM     27  O   UNL A   1      36.944  21.585  24.966  1.00  0.00    -0.376 OA
BRANCH  27  28
ATOM     28  C   UNL A   1      37.187  22.937  25.346  1.00  0.00     0.202 C 
BRANCH  28  29
ATOM     29  C   UNL A   1      38.475  23.242  26.118  1.00  0.00     0.261 C 
BRANCH  29  30
ATOM     30  O   UNL A   1      38.626  24.618  26.529  1.00  0.00    -0.460 OA
BRANCH  30  31
ATOM     31  C   UNL A   1      39.912  25.049  26.598  1.00  0.00     0.338 C 
ATOM     32  O   UNL A   1      40.777  24.917  25.750  1.00  0.00    -0.246 OA
BRANCH  31  33
ATOM     33  C   UNL A   1      40.165  25.795  27.845  1.00  0.00     0.060 A 
ATOM     34  C   UNL A   1      39.192  25.782  28.854  1.00  0.00     0.016 A 
ATOM     35  C   UNL A   1      41.248  26.673  27.919  1.00  0.00     0.016 A 
ATOM     36  C   UNL A   1      39.281  26.681  29.922  1.00  0.00     0.010 A 
ATOM     37  C   UNL A   1      41.327  27.576  28.984  1.00  0.00     0.010 A 
ATOM     38  C   UNL A   1      40.327  27.614  29.972  1.00  0.00    -0.014 A 
BRANCH  38  39
ATOM     39  C   UNL A   1      40.310  28.729  30.956  1.00  0.00     0.031 A 
ATOM     40  C   UNL A   1      41.212  28.662  32.161  1.00  0.00     0.074 A 
ATOM     41  C   UNL A   1      39.477  29.777  30.805  1.00  0.00     0.049 A 
ATOM     42  N   UNL A   1      41.265  29.450  33.204  1.00  0.00    -0.248 NA
ATOM     43  C   UNL A   1      42.180  27.554  32.195  1.00  0.00     0.031 C 
ATOM     44  C   UNL A   1      38.581  29.989  29.672  1.00  0.00     0.029 A 
ATOM     45  N   UNL A   1      39.236  30.847  31.633  1.00  0.00    -0.354 N 
ATOM     46  C   UNL A   1      42.257  28.927  34.025  1.00  0.00     0.074 A 
ATOM     47  C   UNL A   1      42.772  27.745  33.365  1.00  0.00     0.031 C 
ATOM     48  C   UNL A   1      37.863  31.105  29.888  1.00  0.00     0.029 A 
ATOM     49  C   UNL A   1      38.222  31.665  31.191  1.00  0.00     0.049 A 
ATOM     50  H   UNL A   1      39.739  31.012  32.463  1.00  0.00     0.167 HD
ATOM     51  C   UNL A   1      42.699  29.387  35.222  1.00  0.00     0.037 A 
ATOM     52  C   UNL A   1      37.627  32.719  31.786  1.00  0.00     0.037 A 
ATOM     53  C   UNL A   1      42.195  30.565  35.878  1.00  0.00     0.049 A 
ATOM     54  C   UNL A   1      38.085  33.172  33.149  1.00  0.00     0.074 A 
ATOM     55  C   UNL A   1      42.611  31.127  37.073  1.00  0.00     0.029 A 
ATOM     56  N   UNL A   1      41.158  31.354  35.406  1.00  0.00    -0.354 N 
ATOM     57  N   UNL A   1      39.043  32.686  33.901  1.00  0.00    -0.248 NA
ATOM     58  C   UNL A   1      37.375  34.313  33.748  1.00  0.00     0.031 C 
ATOM     59  C   UNL A   1      41.794  32.228  37.348  1.00  0.00     0.029 A 
ATOM     60  C   UNL A   1      40.899  32.380  36.301  1.00  0.00     0.049 A 
ATOM     61  H   UNL A   1      40.677  31.209  34.559  1.00  0.00     0.167 HD
ATOM     62  C   UNL A   1      39.065  33.475  35.048  1.00  0.00     0.074 A 
ATOM     63  C   UNL A   1      38.031  34.474  34.890  1.00  0.00     0.031 C 
ATOM     64  C   UNL A   1      39.873  33.378  36.134  1.00  0.00     0.037 A 
BRANCH  51  65
ATOM     65  C   UNL A   1      43.770  28.597  35.920  1.00  0.00     0.058 A 
ATOM     66  C   UNL A   1      43.462  27.525  36.771  1.00  0.00     0.135 A 
ATOM     67  C   UNL A   1      45.125  28.888  35.695  1.00  0.00     0.135 A 
ATOM     68  F   UNL A   1      42.182  27.214  37.031  1.00  0.00    -0.206 F 
ATOM     69  C   UNL A   1      44.461  26.783  37.394  1.00  0.00     0.059 A 
ATOM     70  C   UNL A   1      46.141  28.144  36.288  1.00  0.00     0.059 A 
ATOM     71  F   UNL A   1      45.473  29.903  34.889  1.00  0.00    -0.206 F 
ATOM     72  C   UNL A   1      45.797  27.101  37.147  1.00  0.00     0.060 A 
BRANCH  72  73
ATOM     73  S   UNL A   1      47.083  26.126  37.956  1.00  0.00     0.124 S 
ATOM     74  O   UNL A   1      48.238  26.408  37.108  1.00  0.00    -0.237 OA
ATOM     75  O   UNL A   1      47.124  26.709  39.294  1.00  0.00    -0.237 OA
ATOM     76  O   UNL A   1      46.571  24.761  37.885  1.00  0.00    -0.744 OA
ENDBRANCH  72  73
ENDBRANCH  51  65
BRANCH  52  77
ATOM     77  C   UNL A   1      36.495  33.408  31.108  1.00  0.00     0.058 A 
ATOM     78  C   UNL A   1      36.705  34.200  29.971  1.00  0.00     0.135 A 
ATOM     79  C   UNL A   1      35.184  33.298  31.596  1.00  0.00     0.135 A 
ATOM     80  F   UNL A   1      37.943  34.350  29.477  1.00  0.00    -0.206 F 
ATOM     81  C   UNL A   1      35.657  34.869  29.346  1.00  0.00     0.059 A 
ATOM     82  C   UNL A   1      34.116  33.937  30.976  1.00  0.00     0.059 A 
ATOM     83  F   UNL A   1      34.930  32.548  32.680  1.00  0.00    -0.206 F 
ATOM     84  C   UNL A   1      34.365  34.728  29.855  1.00  0.00     0.060 A 
BRANCH  84  85
ATOM     85  S   UNL A   1      33.002  35.558  29.008  1.00  0.00     0.124 S 
ATOM     86  O   UNL A   1      32.476  34.483  28.175  1.00  0.00    -0.237 OA
ATOM     87  O   UNL A   1      32.157  35.977  30.121  1.00  0.00    -0.237 OA
ATOM     88  O   UNL A   1      33.666  36.645  28.294  1.00  0.00    -0.744 OA
ENDBRANCH  84  85
ENDBRANCH  52  77
BRANCH  64  89
ATOM     89  C   UNL A   1      39.700  34.392  37.233  1.00  0.00     0.058 A 
ATOM     90  C   UNL A   1      38.983  34.095  38.402  1.00  0.00     0.135 A 
ATOM     91  C   UNL A   1      40.324  35.647  37.148  1.00  0.00     0.135 A 
ATOM     92  F   UNL A   1      38.360  32.913  38.531  1.00  0.00    -0.206 F 
ATOM     93  C   UNL A   1      38.883  35.010  39.446  1.00  0.00     0.059 A 
ATOM     94  C   UNL A   1      40.258  36.569  38.189  1.00  0.00     0.059 A 
ATOM     95  F   UNL A   1      41.031  35.978  36.056  1.00  0.00    -0.206 F 
ATOM     96  C   UNL A   1      39.529  36.244  39.332  1.00  0.00     0.060 A 
BRANCH  96  97
ATOM     97  S   UNL A   1      39.438  37.401  40.717  1.00  0.00     0.124 S 
ATOM     98  O   UNL A   1      40.835  37.798  40.861  1.00  0.00    -0.237 OA
ATOM     99  O   UNL A   1      38.536  38.430  40.207  1.00  0.00    -0.237 OA
ATOM    100  O   UNL A   1      38.901  36.589  41.804  1.00  0.00    -0.744 OA
ENDBRANCH  96  97
ENDBRANCH  64  89
ENDBRANCH  38  39
ENDBRANCH  31  33
ENDBRANCH  30  31
ENDBRANCH  29  30
ENDBRANCH  28  29
ENDBRANCH  27  28
ENDBRANCH  26  27
ENDBRANCH   1  26
TORSDOF 24
ENDMDL
MODEL 3
REMARK VINA RESULT:      -9.8      5.045     10.773
REMARK SMILES O=C(C[C@H](c1ccc(C2CC2)cc1)[NH+]1CCOCC1)OCCOCCOCCOC(=O)c1ccc(-c2c3nc(c(-c4c(F)cc(S(=O)(=O)[O-])cc4F)c4ccc([nH]4)c(-c4c(F)cc(S(=O)(=O)[O-])cc4F)c4nc(c(-c5c(F)cc(S(=O)(=O)[O-])cc5F)c5ccc2[nH]5)C=C4)C=C3)cc1
REMARK SMILES IDX 24 1 23 2 22 3 21 4 20 5 2 6 1 7 3 8 4 9 14 10 15 11 19 12
REMARK SMILES IDX 16 14 18 15 17 16 5 17 6 18 13 19 7 20 12 21 8 22 9 23 10 24
REMARK SMILES IDX 11 25 25 26 26 27 27 28 28 29 29 30 30 31 31 32 32 33 33 34
REMARK SMILES IDX 97 35 34 36 96 37 35 38 36 39 37 40 90 41 38 42 95 43 89 44
REMARK SMILES IDX 91 45 39 46 94 47 88 48 87 49 40 51 74 52 53 53 73 54 54 55
REMARK SMILES IDX 57 56 72 57 92 58 55 59 56 60 71 62 93 63 58 64 41 65 42 66
REMARK SMILES IDX 51 67 43 68 44 69 50 70 52 71 45 72 46 73 47 74 48 75 49 76
REMARK SMILES IDX 75 77 76 78 85 79 77 80 78 81 84 82 86 83 79 84 80 85 81 86
REMARK SMILES IDX 82 87 83 88 59 89 60 90 69 91 61 92 62 93 68 94 70 95 63 96
REMARK SMILES IDX 64 97 65 98 66 99 67 100
REMARK H PARENT 14 13 91 50 57 61
REMARK Flexibility Score: inf
ROOT
ATOM      1  C   UNL A   1      31.922  27.896  24.828  1.00  0.00     0.188 C 
ENDROOT
BRANCH   1   2
ATOM      2  O   UNL A   1      30.719  27.581  25.509  1.00  0.00    -0.376 OA
BRANCH   2   3
ATOM      3  C   UNL A   1      30.062  26.378  25.159  1.00  0.00     0.202 C 
BRANCH   3   4
ATOM      4  C   UNL A   1      30.966  25.155  25.272  1.00  0.00     0.261 C 
BRANCH   4   5
ATOM      5  O   UNL A   1      31.189  24.584  26.585  1.00  0.00    -0.463 OA
BRANCH   5   6
ATOM      6  C   UNL A   1      31.911  23.518  26.986  1.00  0.00     0.312 C 
ATOM      7  O   UNL A   1      31.400  22.711  27.763  1.00  0.00    -0.252 OA
BRANCH   6   8
ATOM      8  C   UNL A   1      33.336  23.346  26.529  1.00  0.00     0.192 C 
BRANCH   8   9
ATOM      9  C   UNL A   1      33.429  23.025  25.032  1.00  0.00     0.226 C 
BRANCH   9  10
ATOM     10  N   UNL A   1      34.627  23.683  24.434  1.00  0.00    -0.324 N 
ATOM     11  C   UNL A   1      34.439  25.147  24.256  1.00  0.00     0.291 C 
ATOM     12  C   UNL A   1      35.036  23.174  23.097  1.00  0.00     0.291 C 
ATOM     13  H   UNL A   1      35.351  23.458  25.116  1.00  0.00     0.348 HD
ATOM     14  C   UNL A   1      33.476  25.520  23.108  1.00  0.00     0.221 C 
ATOM     15  C   UNL A   1      34.046  23.521  21.976  1.00  0.00     0.221 C 
ATOM     16  O   UNL A   1      33.867  24.940  21.860  1.00  0.00    -0.370 OA
ENDBRANCH   9  10
BRANCH   9  17
ATOM     17  C   UNL A   1      33.372  21.512  24.875  1.00  0.00     0.010 A 
ATOM     18  C   UNL A   1      34.354  20.679  25.422  1.00  0.00     0.010 A 
ATOM     19  C   UNL A   1      32.305  20.931  24.180  1.00  0.00     0.010 A 
ATOM     20  C   UNL A   1      34.331  19.311  25.168  1.00  0.00     0.004 A 
ATOM     21  C   UNL A   1      32.280  19.558  23.949  1.00  0.00     0.004 A 
ATOM     22  C   UNL A   1      33.323  18.728  24.383  1.00  0.00    -0.045 A 
BRANCH  22  23
ATOM     23  C   UNL A   1      33.451  17.280  23.974  1.00  0.00     0.019 C 
ATOM     24  C   UNL A   1      34.541  16.355  24.451  1.00  0.00     0.009 C 
ATOM     25  C   UNL A   1      33.181  16.267  25.070  1.00  0.00     0.009 C 
ENDBRANCH  22  23
ENDBRANCH   9  17
ENDBRANCH   8   9
ENDBRANCH   6   8
ENDBRANCH   5   6
ENDBRANCH   4   5
ENDBRANCH   3   4
ENDBRANCH   2   3
ENDBRANCH   1   2
BRANCH   1  26
ATOM     26  C   UNL A   1      32.111  29.404  24.614  1.00  0.00     0.188 C 
BRANCH  26  27
ATOM     27  O   UNL A   1      31.240  30.294  25.298  1.00  0.00    -0.376 OA
BRANCH  27  28
ATOM     28  C   UNL A   1      31.668  30.825  26.549  1.00  0.00     0.202 C 
BRANCH  28  29
ATOM     29  C   UNL A   1      33.155  31.154  26.715  1.00  0.00     0.261 C 
BRANCH  29  30
ATOM     30  O   UNL A   1      33.738  30.721  27.963  1.00  0.00    -0.460 OA
BRANCH  30  31
ATOM     31  C   UNL A   1      34.384  29.528  27.900  1.00  0.00     0.338 C 
ATOM     32  O   UNL A   1      33.922  28.461  27.535  1.00  0.00    -0.246 OA
BRANCH  31  33
ATOM     33  C   UNL A   1      35.804  29.662  28.275  1.00  0.00     0.060 A 
ATOM     34  C   UNL A   1      36.750  29.922  27.274  1.00  0.00     0.016 A 
ATOM     35  C   UNL A   1      36.215  29.315  29.563  1.00  0.00     0.016 A 
ATOM     36  C   UNL A   1      38.115  29.792  27.553  1.00  0.00     0.010 A 
ATOM     37  C   UNL A   1      37.581  29.178  29.834  1.00  0.00     0.010 A 
ATOM     38  C   UNL A   1      38.538  29.378  28.823  1.00  0.00    -0.014 A 
BRANCH  38  39
ATOM     39  C   UNL A   1      39.956  29.000  29.071  1.00  0.00     0.031 A 
ATOM     40  C   UNL A   1      40.922  30.048  29.561  1.00  0.00     0.074 A 
ATOM     41  C   UNL A   1      40.395  27.751  28.830  1.00  0.00     0.049 A 
ATOM     42  N   UNL A   1      42.219  29.975  29.716  1.00  0.00    -0.248 NA
ATOM     43  C   UNL A   1      40.346  31.354  29.921  1.00  0.00     0.031 C 
ATOM     44  C   UNL A   1      39.565  26.632  28.391  1.00  0.00     0.029 A 
ATOM     45  N   UNL A   1      41.663  27.226  28.896  1.00  0.00    -0.354 N 
ATOM     46  C   UNL A   1      42.618  31.226  30.174  1.00  0.00     0.074 A 
ATOM     47  C   UNL A   1      41.427  32.043  30.260  1.00  0.00     0.031 C 
ATOM     48  C   UNL A   1      40.350  25.558  28.198  1.00  0.00     0.029 A 
ATOM     49  C   UNL A   1      41.742  25.923  28.463  1.00  0.00     0.049 A 
ATOM     50  H   UNL A   1      42.442  27.733  29.223  1.00  0.00     0.167 HD
ATOM     51  C   UNL A   1      43.864  31.655  30.492  1.00  0.00     0.037 A 
ATOM     52  C   UNL A   1      42.815  25.129  28.266  1.00  0.00     0.037 A 
ATOM     53  C   UNL A   1      45.050  30.843  30.414  1.00  0.00     0.049 A 
ATOM     54  C   UNL A   1      44.200  25.650  28.558  1.00  0.00     0.074 A 
ATOM     55  C   UNL A   1      46.349  31.184  30.755  1.00  0.00     0.029 A 
ATOM     56  N   UNL A   1      45.089  29.536  29.955  1.00  0.00    -0.354 N 
ATOM     57  N   UNL A   1      44.560  26.825  29.017  1.00  0.00    -0.248 NA
ATOM     58  C   UNL A   1      45.325  24.739  28.297  1.00  0.00     0.031 C 
ATOM     59  C   UNL A   1      47.180  30.100  30.455  1.00  0.00     0.029 A 
ATOM     60  C   UNL A   1      46.393  29.067  29.972  1.00  0.00     0.049 A 
ATOM     61  H   UNL A   1      44.306  29.017  29.661  1.00  0.00     0.167 HD
ATOM     62  C   UNL A   1      45.948  26.784  29.122  1.00  0.00     0.074 A 
ATOM     63  C   UNL A   1      46.363  25.469  28.686  1.00  0.00     0.031 C 
ATOM     64  C   UNL A   1      46.800  27.752  29.544  1.00  0.00     0.037 A 
BRANCH  51  65
ATOM     65  C   UNL A   1      44.018  33.084  30.932  1.00  0.00     0.058 A 
ATOM     66  C   UNL A   1      43.984  33.448  32.287  1.00  0.00     0.135 A 
ATOM     67  C   UNL A   1      44.250  34.095  29.986  1.00  0.00     0.135 A 
ATOM     68  F   UNL A   1      43.752  32.522  33.231  1.00  0.00    -0.206 F 
ATOM     69  C   UNL A   1      44.153  34.770  32.686  1.00  0.00     0.059 A 
ATOM     70  C   UNL A   1      44.444  35.420  30.364  1.00  0.00     0.059 A 
ATOM     71  F   UNL A   1      44.291  33.799  28.677  1.00  0.00    -0.206 F 
ATOM     72  C   UNL A   1      44.381  35.749  31.718  1.00  0.00     0.060 A 
BRANCH  72  73
ATOM     73  S   UNL A   1      44.605  37.459  32.251  1.00  0.00     0.124 S 
ATOM     74  O   UNL A   1      45.989  37.440  32.716  1.00  0.00    -0.237 OA
ATOM     75  O   UNL A   1      44.363  38.206  31.019  1.00  0.00    -0.237 OA
ATOM     76  O   UNL A   1      43.596  37.628  33.291  1.00  0.00    -0.744 OA
ENDBRANCH  72  73
ENDBRANCH  51  65
BRANCH  52  77
ATOM     77  C   UNL A   1      42.629  23.756  27.726  1.00  0.00     0.058 A 
ATOM     78  C   UNL A   1      42.595  22.641  28.575  1.00  0.00     0.135 A 
ATOM     79  C   UNL A   1      42.497  23.532  26.346  1.00  0.00     0.135 A 
ATOM     80  F   UNL A   1      42.735  22.803  29.900  1.00  0.00    -0.206 F 
ATOM     81  C   UNL A   1      42.448  21.351  28.077  1.00  0.00     0.059 A 
ATOM     82  C   UNL A   1      42.324  22.254  25.826  1.00  0.00     0.059 A 
ATOM     83  F   UNL A   1      42.518  24.567  25.492  1.00  0.00    -0.206 F 
ATOM     84  C   UNL A   1      42.310  21.168  26.700  1.00  0.00     0.060 A 
BRANCH  84  85
ATOM     85  S   UNL A   1      42.068  19.494  26.065  1.00  0.00     0.124 S 
ATOM     86  O   UNL A   1      42.458  18.685  27.214  1.00  0.00    -0.237 OA
ATOM     87  O   UNL A   1      40.646  19.492  25.735  1.00  0.00    -0.237 OA
ATOM     88  O   UNL A   1      42.968  19.439  24.917  1.00  0.00    -0.744 OA
ENDBRANCH  84  85
ENDBRANCH  52  77
BRANCH  64  89
ATOM     89  C   UNL A   1      48.268  27.428  29.587  1.00  0.00     0.058 A 
ATOM     90  C   UNL A   1      49.127  27.764  28.528  1.00  0.00     0.135 A 
ATOM     91  C   UNL A   1      48.836  26.845  30.730  1.00  0.00     0.135 A 
ATOM     92  F   UNL A   1      48.635  28.315  27.408  1.00  0.00    -0.206 F 
ATOM     93  C   UNL A   1      50.496  27.525  28.599  1.00  0.00     0.059 A 
ATOM     94  C   UNL A   1      50.206  26.619  30.834  1.00  0.00     0.059 A 
ATOM     95  F   UNL A   1      48.062  26.513  31.776  1.00  0.00    -0.206 F 
ATOM     96  C   UNL A   1      51.028  26.956  29.759  1.00  0.00     0.060 A 
BRANCH  96  97
ATOM     97  S   UNL A   1      52.814  26.703  29.861  1.00  0.00     0.124 S 
ATOM     98  O   UNL A   1      53.293  28.063  30.081  1.00  0.00    -0.237 OA
ATOM     99  O   UNL A   1      52.937  25.796  30.999  1.00  0.00    -0.237 OA
ATOM    100  O   UNL A   1      53.149  26.120  28.565  1.00  0.00    -0.744 OA
ENDBRANCH  96  97
ENDBRANCH  64  89
ENDBRANCH  38  39
ENDBRANCH  31  33
ENDBRANCH  30  31
ENDBRANCH  29  30
ENDBRANCH  28  29
ENDBRANCH  27  28
ENDBRANCH  26  27
ENDBRANCH   1  26
TORSDOF 24
ENDMDL
