MODEL 1
REMARK VINA RESULT:      -9.8      0.000      0.000
REMARK SMILES O=C(CSc1nc(-c2cccc(F)c2)n[nH]1)OCCOCCOCCOC(=O)c1ccc(-c2c3nc(c(-c4c(F)cc(S(=O)(=O)[O-])cc4F)c4ccc([nH]4)c(-c4c(F)cc(S(=O)(=O)[O-])cc4F)c4nc(c(-c5c(F)cc(S(=O)(=O)[O-])cc5F)c5ccc2[nH]5)C=C4)C=C3)cc1
REMARK SMILES IDX 21 1 20 2 19 3 18 4 17 5 2 6 1 7 3 8 4 9 5 10 6 11 16 12
REMARK SMILES IDX 7 13 15 14 8 16 9 17 14 18 10 19 12 20 11 21 13 22 22 23
REMARK SMILES IDX 23 24 24 25 25 26 26 27 27 28 28 29 29 30 30 31 94 32 31 33
REMARK SMILES IDX 93 34 32 35 33 36 34 37 87 38 35 39 92 40 86 41 88 42 36 43
REMARK SMILES IDX 91 44 85 45 84 46 37 48 71 49 50 50 70 51 51 52 54 53 69 54
REMARK SMILES IDX 89 55 52 56 53 57 68 59 90 60 55 61 38 62 39 63 48 64 40 65
REMARK SMILES IDX 41 66 47 67 49 68 42 69 43 70 44 71 45 72 46 73 72 74 73 75
REMARK SMILES IDX 82 76 74 77 75 78 81 79 83 80 76 81 77 82 78 83 79 84 80 85
REMARK SMILES IDX 56 86 57 87 66 88 58 89 59 90 65 91 67 92 60 93 61 94 62 95
REMARK SMILES IDX 63 96 64 97
REMARK H PARENT 16 15 88 47 54 58
REMARK Flexibility Score: inf
ROOT
ATOM      1  C   UNL A   1      33.477  36.510  32.169  1.00  0.00     0.188 C 
ENDROOT
BRANCH   1   2
ATOM      2  O   UNL A   1      33.185  35.498  31.221  1.00  0.00    -0.376 OA
BRANCH   2   3
ATOM      3  C   UNL A   1      34.014  35.442  30.076  1.00  0.00     0.202 C 
BRANCH   3   4
ATOM      4  C   UNL A   1      33.191  35.005  28.869  1.00  0.00     0.261 C 
BRANCH   4   5
ATOM      5  O   UNL A   1      33.910  34.267  27.854  1.00  0.00    -0.463 OA
BRANCH   5   6
ATOM      6  C   UNL A   1      34.627  33.130  27.987  1.00  0.00     0.316 C 
ATOM      7  O   UNL A   1      35.856  33.213  28.040  1.00  0.00    -0.251 OA
BRANCH   6   8
ATOM      8  C   UNL A   1      33.953  31.779  27.919  1.00  0.00     0.200 C 
BRANCH   8   9
ATOM      9  S   UNL A   1      35.082  30.368  27.710  1.00  0.00    -0.075 SA
BRANCH   9  10
ATOM     10  C   UNL A   1      34.084  29.432  26.675  1.00  0.00     0.184 A 
ATOM     11  N   UNL A   1      34.205  28.153  26.457  1.00  0.00    -0.201 NA
ATOM     12  N   UNL A   1      33.216  29.980  25.791  1.00  0.00    -0.254 N 
ATOM     13  C   UNL A   1      33.487  27.968  25.302  1.00  0.00     0.182 A 
ATOM     14  N   UNL A   1      32.809  29.057  24.900  1.00  0.00    -0.153 NA
ATOM     15  H   UNL A   1      32.924  30.920  25.799  1.00  0.00     0.192 HD
BRANCH  13  16
ATOM     16  C   UNL A   1      33.595  26.732  24.547  1.00  0.00     0.024 A 
ATOM     17  C   UNL A   1      34.052  25.559  25.168  1.00  0.00     0.012 A 
ATOM     18  C   UNL A   1      33.328  26.722  23.173  1.00  0.00     0.051 A 
ATOM     19  C   UNL A   1      34.219  24.384  24.432  1.00  0.00     0.004 A 
ATOM     20  C   UNL A   1      33.513  25.551  22.448  1.00  0.00     0.123 A 
ATOM     21  C   UNL A   1      33.948  24.382  23.065  1.00  0.00     0.039 A 
ATOM     22  F   UNL A   1      33.279  25.548  21.130  1.00  0.00    -0.207 F 
ENDBRANCH  13  16
ENDBRANCH   9  10
ENDBRANCH   8   9
ENDBRANCH   6   8
ENDBRANCH   5   6
ENDBRANCH   4   5
ENDBRANCH   3   4
ENDBRANCH   2   3
ENDBRANCH   1   2
BRANCH   1  23
ATOM     23  C   UNL A   1      34.318  35.974  33.339  1.00  0.00     0.188 C 
BRANCH  23  24
ATOM     24  O   UNL A   1      35.702  35.709  33.138  1.00  0.00    -0.376 OA
BRANCH  24  25
ATOM     25  C   UNL A   1      36.144  34.363  33.020  1.00  0.00     0.202 C 
BRANCH  25  26
ATOM     26  C   UNL A   1      36.920  33.981  31.757  1.00  0.00     0.261 C 
BRANCH  26  27
ATOM     27  O   UNL A   1      37.708  32.781  31.886  1.00  0.00    -0.460 OA
BRANCH  27  28
ATOM     28  C   UNL A   1      37.210  31.705  31.227  1.00  0.00     0.338 C 
ATOM     29  O   UNL A   1      36.036  31.445  31.026  1.00  0.00    -0.246 OA
BRANCH  28  30
ATOM     30  C   UNL A   1      38.293  30.882  30.654  1.00  0.00     0.060 A 
ATOM     31  C   UNL A   1      39.283  30.402  31.521  1.00  0.00     0.016 A 
ATOM     32  C   UNL A   1      38.433  30.742  29.272  1.00  0.00     0.016 A 
ATOM     33  C   UNL A   1      40.449  29.835  31.004  1.00  0.00     0.010 A 
ATOM     34  C   UNL A   1      39.610  30.184  28.755  1.00  0.00     0.010 A 
ATOM     35  C   UNL A   1      40.643  29.770  29.617  1.00  0.00    -0.014 A 
BRANCH  35  36
ATOM     36  C   UNL A   1      41.989  29.449  29.077  1.00  0.00     0.031 A 
ATOM     37  C   UNL A   1      42.272  28.045  28.609  1.00  0.00     0.074 A 
ATOM     38  C   UNL A   1      42.939  30.395  28.958  1.00  0.00     0.049 A 
ATOM     39  N   UNL A   1      43.378  27.537  28.130  1.00  0.00    -0.248 NA
ATOM     40  C   UNL A   1      41.155  27.090  28.685  1.00  0.00     0.031 C 
ATOM     41  C   UNL A   1      42.779  31.802  29.315  1.00  0.00     0.029 A 
ATOM     42  N   UNL A   1      44.231  30.307  28.499  1.00  0.00    -0.354 N 
ATOM     43  C   UNL A   1      43.091  26.208  27.840  1.00  0.00     0.074 A 
ATOM     44  C   UNL A   1      41.716  25.979  28.229  1.00  0.00     0.031 C 
ATOM     45  C   UNL A   1      43.931  32.448  29.062  1.00  0.00     0.029 A 
ATOM     46  C   UNL A   1      44.918  31.496  28.554  1.00  0.00     0.049 A 
ATOM     47  H   UNL A   1      44.627  29.471  28.163  1.00  0.00     0.167 HD
ATOM     48  C   UNL A   1      43.893  25.266  27.290  1.00  0.00     0.037 A 
ATOM     49  C   UNL A   1      46.200  31.780  28.245  1.00  0.00     0.037 A 
ATOM     50  C   UNL A   1      45.264  25.484  26.911  1.00  0.00     0.049 A 
ATOM     51  C   UNL A   1      47.104  30.695  27.723  1.00  0.00     0.074 A 
ATOM     52  C   UNL A   1      46.160  24.580  26.364  1.00  0.00     0.029 A 
ATOM     53  N   UNL A   1      45.940  26.687  27.041  1.00  0.00    -0.354 N 
ATOM     54  N   UNL A   1      46.825  29.438  27.475  1.00  0.00    -0.248 NA
ATOM     55  C   UNL A   1      48.500  31.065  27.444  1.00  0.00     0.031 C 
ATOM     56  C   UNL A   1      47.388  25.228  26.197  1.00  0.00     0.029 A 
ATOM     57  C   UNL A   1      47.246  26.547  26.600  1.00  0.00     0.049 A 
ATOM     58  H   UNL A   1      45.551  27.519  27.394  1.00  0.00     0.167 HD
ATOM     59  C   UNL A   1      48.001  28.874  26.989  1.00  0.00     0.074 A 
ATOM     60  C   UNL A   1      48.994  29.927  26.974  1.00  0.00     0.031 C 
ATOM     61  C   UNL A   1      48.232  27.599  26.587  1.00  0.00     0.037 A 
BRANCH  48  62
ATOM     62  C   UNL A   1      43.308  23.898  27.074  1.00  0.00     0.058 A 
ATOM     63  C   UNL A   1      43.171  23.003  28.146  1.00  0.00     0.135 A 
ATOM     64  C   UNL A   1      42.915  23.462  25.798  1.00  0.00     0.135 A 
ATOM     65  F   UNL A   1      43.523  23.372  29.387  1.00  0.00    -0.206 F 
ATOM     66  C   UNL A   1      42.673  21.717  27.959  1.00  0.00     0.059 A 
ATOM     67  C   UNL A   1      42.394  22.188  25.592  1.00  0.00     0.059 A 
ATOM     68  F   UNL A   1      43.004  24.290  24.746  1.00  0.00    -0.206 F 
ATOM     69  C   UNL A   1      42.286  21.319  26.678  1.00  0.00     0.060 A 
BRANCH  69  70
ATOM     70  S   UNL A   1      41.593  19.667  26.461  1.00  0.00     0.124 S 
ATOM     71  O   UNL A   1      41.969  19.016  27.711  1.00  0.00    -0.237 OA
ATOM     72  O   UNL A   1      40.170  19.950  26.293  1.00  0.00    -0.237 OA
ATOM     73  O   UNL A   1      42.268  19.172  25.264  1.00  0.00    -0.744 OA
ENDBRANCH  69  70
ENDBRANCH  48  62
BRANCH  49  74
ATOM     74  C   UNL A   1      46.705  33.167  28.420  1.00  0.00     0.058 A 
ATOM     75  C   UNL A   1      47.196  33.608  29.659  1.00  0.00     0.135 A 
ATOM     76  C   UNL A   1      46.680  34.085  27.360  1.00  0.00     0.135 A 
ATOM     77  F   UNL A   1      47.240  32.768  30.704  1.00  0.00    -0.206 F 
ATOM     78  C   UNL A   1      47.613  34.920  29.849  1.00  0.00     0.059 A 
ATOM     79  C   UNL A   1      47.112  35.398  27.521  1.00  0.00     0.059 A 
ATOM     80  F   UNL A   1      46.239  33.700  26.152  1.00  0.00    -0.206 F 
ATOM     81  C   UNL A   1      47.556  35.811  28.776  1.00  0.00     0.060 A 
BRANCH  81  82
ATOM     82  S   UNL A   1      48.062  37.521  29.061  1.00  0.00     0.124 S 
ATOM     83  O   UNL A   1      48.747  37.407  30.346  1.00  0.00    -0.237 OA
ATOM     84  O   UNL A   1      48.917  37.783  27.909  1.00  0.00    -0.237 OA
ATOM     85  O   UNL A   1      46.798  38.248  29.084  1.00  0.00    -0.744 OA
ENDBRANCH  81  82
ENDBRANCH  49  74
BRANCH  61  86
ATOM     86  C   UNL A   1      49.603  27.260  26.076  1.00  0.00     0.058 A 
ATOM     87  C   UNL A   1      49.877  27.286  24.698  1.00  0.00     0.135 A 
ATOM     88  C   UNL A   1      50.625  26.831  26.938  1.00  0.00     0.135 A 
ATOM     89  F   UNL A   1      48.934  27.683  23.829  1.00  0.00    -0.206 F 
ATOM     90  C   UNL A   1      51.108  26.882  24.191  1.00  0.00     0.059 A 
ATOM     91  C   UNL A   1      51.873  26.444  26.454  1.00  0.00     0.059 A 
ATOM     92  F   UNL A   1      50.419  26.799  28.263  1.00  0.00    -0.206 F 
ATOM     93  C   UNL A   1      52.098  26.457  25.077  1.00  0.00     0.060 A 
BRANCH  93  94
ATOM     94  S   UNL A   1      53.694  25.944  24.406  1.00  0.00     0.124 S 
ATOM     95  O   UNL A   1      53.742  24.537  24.790  1.00  0.00    -0.237 OA
ATOM     96  O   UNL A   1      53.531  26.208  22.980  1.00  0.00    -0.237 OA
ATOM     97  O   UNL A   1      54.645  26.815  25.091  1.00  0.00    -0.744 OA
ENDBRANCH  93  94
ENDBRANCH  61  86
ENDBRANCH  35  36
ENDBRANCH  28  30
ENDBRANCH  27  28
ENDBRANCH  26  27
ENDBRANCH  25  26
ENDBRANCH  24  25
ENDBRANCH  23  24
ENDBRANCH   1  23
TORSDOF 23
ENDMDL
MODEL 2
REMARK VINA RESULT:      -9.8      6.237     12.529
REMARK SMILES O=C(CSc1nc(-c2cccc(F)c2)n[nH]1)OCCOCCOCCOC(=O)c1ccc(-c2c3nc(c(-c4c(F)cc(S(=O)(=O)[O-])cc4F)c4ccc([nH]4)c(-c4c(F)cc(S(=O)(=O)[O-])cc4F)c4nc(c(-c5c(F)cc(S(=O)(=O)[O-])cc5F)c5ccc2[nH]5)C=C4)C=C3)cc1
REMARK SMILES IDX 21 1 20 2 19 3 18 4 17 5 2 6 1 7 3 8 4 9 5 10 6 11 16 12
REMARK SMILES IDX 7 13 15 14 8 16 9 17 14 18 10 19 12 20 11 21 13 22 22 23
REMARK SMILES IDX 23 24 24 25 25 26 26 27 27 28 28 29 29 30 30 31 94 32 31 33
REMARK SMILES IDX 93 34 32 35 33 36 34 37 87 38 35 39 92 40 86 41 88 42 36 43
REMARK SMILES IDX 91 44 85 45 84 46 37 48 71 49 50 50 70 51 51 52 54 53 69 54
REMARK SMILES IDX 89 55 52 56 53 57 68 59 90 60 55 61 38 62 39 63 48 64 40 65
REMARK SMILES IDX 41 66 47 67 49 68 42 69 43 70 44 71 45 72 46 73 72 74 73 75
REMARK SMILES IDX 82 76 74 77 75 78 81 79 83 80 76 81 77 82 78 83 79 84 80 85
REMARK SMILES IDX 56 86 57 87 66 88 58 89 59 90 65 91 67 92 60 93 61 94 62 95
REMARK SMILES IDX 63 96 64 97
REMARK H PARENT 16 15 88 47 54 58
REMARK Flexibility Score: inf
ROOT
ATOM      1  C   UNL A   1      39.082  20.957  25.722  1.00  0.00     0.188 C 
ENDROOT
BRANCH   1   2
ATOM      2  O   UNL A   1      37.778  21.504  25.819  1.00  0.00    -0.376 OA
BRANCH   2   3
ATOM      3  C   UNL A   1      37.502  22.633  25.012  1.00  0.00     0.202 C 
BRANCH   3   4
ATOM      4  C   UNL A   1      36.915  23.746  25.873  1.00  0.00     0.261 C 
BRANCH   4   5
ATOM      5  O   UNL A   1      35.490  23.954  25.743  1.00  0.00    -0.463 OA
BRANCH   5   6
ATOM      6  C   UNL A   1      34.483  23.102  26.035  1.00  0.00     0.316 C 
ATOM      7  O   UNL A   1      34.557  22.438  27.071  1.00  0.00    -0.251 OA
BRANCH   6   8
ATOM      8  C   UNL A   1      33.368  22.854  25.045  1.00  0.00     0.200 C 
BRANCH   8   9
ATOM      9  S   UNL A   1      31.810  22.265  25.776  1.00  0.00    -0.075 SA
BRANCH   9  10
ATOM     10  C   UNL A   1      30.984  23.768  25.789  1.00  0.00     0.184 A 
ATOM     11  N   UNL A   1      31.407  24.871  25.238  1.00  0.00    -0.201 NA
ATOM     12  N   UNL A   1      29.917  24.018  26.585  1.00  0.00    -0.254 N 
ATOM     13  C   UNL A   1      30.643  25.833  25.852  1.00  0.00     0.182 A 
ATOM     14  N   UNL A   1      29.670  25.340  26.637  1.00  0.00    -0.153 NA
ATOM     15  H   UNL A   1      29.396  23.330  27.059  1.00  0.00     0.192 HD
BRANCH  13  16
ATOM     16  C   UNL A   1      30.986  27.240  25.739  1.00  0.00     0.024 A 
ATOM     17  C   UNL A   1      30.822  27.914  24.519  1.00  0.00     0.012 A 
ATOM     18  C   UNL A   1      31.564  27.912  26.822  1.00  0.00     0.051 A 
ATOM     19  C   UNL A   1      31.210  29.250  24.387  1.00  0.00     0.004 A 
ATOM     20  C   UNL A   1      31.960  29.235  26.674  1.00  0.00     0.123 A 
ATOM     21  C   UNL A   1      31.782  29.912  25.472  1.00  0.00     0.039 A 
ATOM     22  F   UNL A   1      32.534  29.870  27.705  1.00  0.00    -0.207 F 
ENDBRANCH  13  16
ENDBRANCH   9  10
ENDBRANCH   8   9
ENDBRANCH   6   8
ENDBRANCH   5   6
ENDBRANCH   4   5
ENDBRANCH   3   4
ENDBRANCH   2   3
ENDBRANCH   1   2
BRANCH   1  23
ATOM     23  C   UNL A   1      40.127  21.841  26.423  1.00  0.00     0.188 C 
BRANCH  23  24
ATOM     24  O   UNL A   1      41.499  21.717  26.062  1.00  0.00    -0.376 OA
BRANCH  24  25
ATOM     25  C   UNL A   1      42.437  22.666  26.552  1.00  0.00     0.202 C 
BRANCH  25  26
ATOM     26  C   UNL A   1      42.659  23.934  25.725  1.00  0.00     0.261 C 
BRANCH  26  27
ATOM     27  O   UNL A   1      41.567  24.874  25.777  1.00  0.00    -0.460 OA
BRANCH  27  28
ATOM     28  C   UNL A   1      41.944  26.176  25.799  1.00  0.00     0.338 C 
ATOM     29  O   UNL A   1      42.080  26.918  24.840  1.00  0.00    -0.246 OA
BRANCH  28  30
ATOM     30  C   UNL A   1      42.087  26.668  27.183  1.00  0.00     0.060 A 
ATOM     31  C   UNL A   1      41.144  26.249  28.130  1.00  0.00     0.016 A 
ATOM     32  C   UNL A   1      43.015  27.662  27.499  1.00  0.00     0.016 A 
ATOM     33  C   UNL A   1      41.086  26.869  29.379  1.00  0.00     0.010 A 
ATOM     34  C   UNL A   1      42.946  28.292  28.748  1.00  0.00     0.010 A 
ATOM     35  C   UNL A   1      41.952  27.931  29.677  1.00  0.00    -0.014 A 
BRANCH  35  36
ATOM     36  C   UNL A   1      41.694  28.778  30.870  1.00  0.00     0.031 A 
ATOM     37  C   UNL A   1      40.547  29.755  30.837  1.00  0.00     0.074 A 
ATOM     38  C   UNL A   1      42.435  28.657  31.987  1.00  0.00     0.049 A 
ATOM     39  N   UNL A   1      40.159  30.608  31.749  1.00  0.00    -0.248 NA
ATOM     40  C   UNL A   1      39.727  29.764  29.615  1.00  0.00     0.031 C 
ATOM     41  C   UNL A   1      43.532  27.712  32.174  1.00  0.00     0.029 A 
ATOM     42  N   UNL A   1      42.369  29.339  33.177  1.00  0.00    -0.354 N 
ATOM     43  C   UNL A   1      39.046  31.250  31.218  1.00  0.00     0.074 A 
ATOM     44  C   UNL A   1      38.842  30.712  29.890  1.00  0.00     0.031 C 
ATOM     45  C   UNL A   1      44.039  27.873  33.409  1.00  0.00     0.029 A 
ATOM     46  C   UNL A   1      43.322  28.952  34.088  1.00  0.00     0.049 A 
ATOM     47  H   UNL A   1      41.701  30.039  33.361  1.00  0.00     0.167 HD
ATOM     48  C   UNL A   1      38.256  32.193  31.786  1.00  0.00     0.037 A 
ATOM     49  C   UNL A   1      43.595  29.425  35.322  1.00  0.00     0.037 A 
ATOM     50  C   UNL A   1      38.460  32.740  33.101  1.00  0.00     0.049 A 
ATOM     51  C   UNL A   1      42.765  30.541  35.899  1.00  0.00     0.074 A 
ATOM     52  C   UNL A   1      37.721  33.714  33.751  1.00  0.00     0.029 A 
ATOM     53  N   UNL A   1      39.475  32.365  33.967  1.00  0.00    -0.354 N 
ATOM     54  N   UNL A   1      41.729  31.153  35.376  1.00  0.00    -0.248 NA
ATOM     55  C   UNL A   1      43.142  31.034  37.232  1.00  0.00     0.031 C 
ATOM     56  C   UNL A   1      38.312  33.954  34.996  1.00  0.00     0.029 A 
ATOM     57  C   UNL A   1      39.393  33.099  35.140  1.00  0.00     0.049 A 
ATOM     58  H   UNL A   1      40.154  31.678  33.778  1.00  0.00     0.167 HD
ATOM     59  C   UNL A   1      41.318  32.084  36.324  1.00  0.00     0.074 A 
ATOM     60  C   UNL A   1      42.213  31.954  37.455  1.00  0.00     0.031 C 
ATOM     61  C   UNL A   1      40.288  32.964  36.263  1.00  0.00     0.037 A 
BRANCH  48  62
ATOM     62  C   UNL A   1      37.099  32.706  30.977  1.00  0.00     0.058 A 
ATOM     63  C   UNL A   1      37.290  33.706  30.011  1.00  0.00     0.135 A 
ATOM     64  C   UNL A   1      35.794  32.232  31.183  1.00  0.00     0.135 A 
ATOM     65  F   UNL A   1      38.520  34.188  29.769  1.00  0.00    -0.206 F 
ATOM     66  C   UNL A   1      36.225  34.226  29.283  1.00  0.00     0.059 A 
ATOM     67  C   UNL A   1      34.716  32.722  30.450  1.00  0.00     0.059 A 
ATOM     68  F   UNL A   1      35.563  31.259  32.078  1.00  0.00    -0.206 F 
ATOM     69  C   UNL A   1      34.941  33.727  29.509  1.00  0.00     0.060 A 
BRANCH  69  70
ATOM     70  S   UNL A   1      33.577  34.375  28.520  1.00  0.00     0.124 S 
ATOM     71  O   UNL A   1      32.637  34.803  29.549  1.00  0.00    -0.237 OA
ATOM     72  O   UNL A   1      34.226  35.444  27.764  1.00  0.00    -0.237 OA
ATOM     73  O   UNL A   1      33.161  33.224  27.723  1.00  0.00    -0.744 OA
ENDBRANCH  69  70
ENDBRANCH  48  62
BRANCH  49  74
ATOM     74  C   UNL A   1      44.715  28.833  36.101  1.00  0.00     0.058 A 
ATOM     75  C   UNL A   1      44.500  27.753  36.971  1.00  0.00     0.135 A 
ATOM     76  C   UNL A   1      46.013  29.356  36.012  1.00  0.00     0.135 A 
ATOM     77  F   UNL A   1      43.276  27.218  37.093  1.00  0.00    -0.206 F 
ATOM     78  C   UNL A   1      45.527  27.233  37.749  1.00  0.00     0.059 A 
ATOM     79  C   UNL A   1      47.062  28.838  36.766  1.00  0.00     0.059 A 
ATOM     80  F   UNL A   1      46.267  30.375  35.176  1.00  0.00    -0.206 F 
ATOM     81  C   UNL A   1      46.803  27.790  37.648  1.00  0.00     0.060 A 
BRANCH  81  82
ATOM     82  S   UNL A   1      48.110  27.125  38.702  1.00  0.00     0.124 S 
ATOM     83  O   UNL A   1      49.125  26.773  37.713  1.00  0.00    -0.237 OA
ATOM     84  O   UNL A   1      48.425  28.267  39.554  1.00  0.00    -0.237 OA
ATOM     85  O   UNL A   1      47.466  26.001  39.371  1.00  0.00    -0.744 OA
ENDBRANCH  81  82
ENDBRANCH  49  74
BRANCH  61  86
ATOM     86  C   UNL A   1      40.046  33.851  37.452  1.00  0.00     0.058 A 
ATOM     87  C   UNL A   1      39.080  33.508  38.412  1.00  0.00     0.135 A 
ATOM     88  C   UNL A   1      40.712  35.077  37.602  1.00  0.00     0.135 A 
ATOM     89  F   UNL A   1      38.411  32.349  38.313  1.00  0.00    -0.206 F 
ATOM     90  C   UNL A   1      38.768  34.358  39.468  1.00  0.00     0.059 A 
ATOM     91  C   UNL A   1      40.432  35.934  38.665  1.00  0.00     0.059 A 
ATOM     92  F   UNL A   1      41.653  35.447  36.719  1.00  0.00    -0.206 F 
ATOM     93  C   UNL A   1      39.446  35.572  39.583  1.00  0.00     0.060 A 
BRANCH  93  94
ATOM     94  S   UNL A   1      39.037  36.661  40.965  1.00  0.00     0.124 S 
ATOM     95  O   UNL A   1      38.212  35.792  41.796  1.00  0.00    -0.237 OA
ATOM     96  O   UNL A   1      40.354  36.990  41.501  1.00  0.00    -0.237 OA
ATOM     97  O   UNL A   1      38.335  37.770  40.325  1.00  0.00    -0.744 OA
ENDBRANCH  93  94
ENDBRANCH  61  86
ENDBRANCH  35  36
ENDBRANCH  28  30
ENDBRANCH  27  28
ENDBRANCH  26  27
ENDBRANCH  25  26
ENDBRANCH  24  25
ENDBRANCH  23  24
ENDBRANCH   1  23
TORSDOF 23
ENDMDL
MODEL 3
REMARK VINA RESULT:      -9.5      6.429     12.428
REMARK SMILES O=C(CSc1nc(-c2cccc(F)c2)n[nH]1)OCCOCCOCCOC(=O)c1ccc(-c2c3nc(c(-c4c(F)cc(S(=O)(=O)[O-])cc4F)c4ccc([nH]4)c(-c4c(F)cc(S(=O)(=O)[O-])cc4F)c4nc(c(-c5c(F)cc(S(=O)(=O)[O-])cc5F)c5ccc2[nH]5)C=C4)C=C3)cc1
REMARK SMILES IDX 21 1 20 2 19 3 18 4 17 5 2 6 1 7 3 8 4 9 5 10 6 11 16 12
REMARK SMILES IDX 7 13 15 14 8 16 9 17 14 18 10 19 12 20 11 21 13 22 22 23
REMARK SMILES IDX 23 24 24 25 25 26 26 27 27 28 28 29 29 30 30 31 94 32 31 33
REMARK SMILES IDX 93 34 32 35 33 36 34 37 87 38 35 39 92 40 86 41 88 42 36 43
REMARK SMILES IDX 91 44 85 45 84 46 37 48 71 49 50 50 70 51 51 52 54 53 69 54
REMARK SMILES IDX 89 55 52 56 53 57 68 59 90 60 55 61 38 62 39 63 48 64 40 65
REMARK SMILES IDX 41 66 47 67 49 68 42 69 43 70 44 71 45 72 46 73 72 74 73 75
REMARK SMILES IDX 82 76 74 77 75 78 81 79 83 80 76 81 77 82 78 83 79 84 80 85
REMARK SMILES IDX 56 86 57 87 66 88 58 89 59 90 65 91 67 92 60 93 61 94 62 95
REMARK SMILES IDX 63 96 64 97
REMARK H PARENT 16 15 88 47 54 58
REMARK Flexibility Score: inf
ROOT
ATOM      1  C   UNL A   1      38.732  19.787  25.250  1.00  0.00     0.188 C 
ENDROOT
BRANCH   1   2
ATOM      2  O   UNL A   1      37.402  20.126  24.898  1.00  0.00    -0.376 OA
BRANCH   2   3
ATOM      3  C   UNL A   1      37.161  21.477  24.554  1.00  0.00     0.202 C 
BRANCH   3   4
ATOM      4  C   UNL A   1      35.749  21.869  24.976  1.00  0.00     0.261 C 
BRANCH   4   5
ATOM      5  O   UNL A   1      34.912  22.417  23.932  1.00  0.00    -0.463 OA
BRANCH   5   6
ATOM      6  C   UNL A   1      34.364  23.649  23.851  1.00  0.00     0.316 C 
ATOM      7  O   UNL A   1      34.824  24.546  24.562  1.00  0.00    -0.251 OA
BRANCH   6   8
ATOM      8  C   UNL A   1      33.120  23.889  23.026  1.00  0.00     0.200 C 
BRANCH   8   9
ATOM      9  S   UNL A   1      31.569  23.331  23.795  1.00  0.00    -0.075 SA
BRANCH   9  10
ATOM     10  C   UNL A   1      31.195  24.783  24.629  1.00  0.00     0.184 A 
ATOM     11  N   UNL A   1      31.834  25.913  24.509  1.00  0.00    -0.201 NA
ATOM     12  N   UNL A   1      30.344  24.832  25.682  1.00  0.00    -0.254 N 
ATOM     13  C   UNL A   1      31.445  26.606  25.628  1.00  0.00     0.182 A 
ATOM     14  N   UNL A   1      30.478  25.999  26.339  1.00  0.00    -0.153 NA
ATOM     15  H   UNL A   1      29.717  24.116  25.931  1.00  0.00     0.192 HD
BRANCH  13  16
ATOM     16  C   UNL A   1      32.144  27.811  26.040  1.00  0.00     0.024 A 
ATOM     17  C   UNL A   1      33.375  27.723  26.708  1.00  0.00     0.012 A 
ATOM     18  C   UNL A   1      31.554  29.066  25.850  1.00  0.00     0.051 A 
ATOM     19  C   UNL A   1      34.021  28.875  27.163  1.00  0.00     0.004 A 
ATOM     20  C   UNL A   1      32.198  30.203  26.321  1.00  0.00     0.123 A 
ATOM     21  C   UNL A   1      33.427  30.121  26.967  1.00  0.00     0.039 A 
ATOM     22  F   UNL A   1      31.622  31.402  26.159  1.00  0.00    -0.207 F 
ENDBRANCH  13  16
ENDBRANCH   9  10
ENDBRANCH   8   9
ENDBRANCH   6   8
ENDBRANCH   5   6
ENDBRANCH   4   5
ENDBRANCH   3   4
ENDBRANCH   2   3
ENDBRANCH   1   2
BRANCH   1  23
ATOM     23  C   UNL A   1      39.385  20.865  26.130  1.00  0.00     0.188 C 
BRANCH  23  24
ATOM     24  O   UNL A   1      40.734  20.697  26.552  1.00  0.00    -0.376 OA
BRANCH  24  25
ATOM     25  C   UNL A   1      41.393  21.765  27.221  1.00  0.00     0.202 C 
BRANCH  25  26
ATOM     26  C   UNL A   1      41.713  23.020  26.407  1.00  0.00     0.261 C 
BRANCH  26  27
ATOM     27  O   UNL A   1      40.632  23.970  26.332  1.00  0.00    -0.460 OA
BRANCH  27  28
ATOM     28  C   UNL A   1      41.023  25.264  26.221  1.00  0.00     0.338 C 
ATOM     29  O   UNL A   1      41.198  25.893  25.192  1.00  0.00    -0.246 OA
BRANCH  28  30
ATOM     30  C   UNL A   1      41.127  25.905  27.546  1.00  0.00     0.060 A 
ATOM     31  C   UNL A   1      40.011  25.855  28.391  1.00  0.00     0.016 A 
ATOM     32  C   UNL A   1      42.230  26.695  27.876  1.00  0.00     0.016 A 
ATOM     33  C   UNL A   1      39.968  26.646  29.540  1.00  0.00     0.010 A 
ATOM     34  C   UNL A   1      42.179  27.499  29.023  1.00  0.00     0.010 A 
ATOM     35  C   UNL A   1      41.030  27.513  29.835  1.00  0.00    -0.014 A 
BRANCH  35  36
ATOM     36  C   UNL A   1      40.857  28.560  30.875  1.00  0.00     0.031 A 
ATOM     37  C   UNL A   1      41.775  28.560  32.070  1.00  0.00     0.074 A 
ATOM     38  C   UNL A   1      39.931  29.528  30.746  1.00  0.00     0.049 A 
ATOM     39  N   UNL A   1      41.787  29.357  33.106  1.00  0.00    -0.248 NA
ATOM     40  C   UNL A   1      42.821  27.525  32.094  1.00  0.00     0.031 C 
ATOM     41  C   UNL A   1      39.022  29.681  29.614  1.00  0.00     0.029 A 
ATOM     42  N   UNL A   1      39.608  30.568  31.584  1.00  0.00    -0.354 N 
ATOM     43  C   UNL A   1      42.845  28.929  33.902  1.00  0.00     0.074 A 
ATOM     44  C   UNL A   1      43.428  27.779  33.244  1.00  0.00     0.031 C 
ATOM     45  C   UNL A   1      38.239  30.754  29.827  1.00  0.00     0.029 A 
ATOM     46  C   UNL A   1      38.573  31.346  31.123  1.00  0.00     0.049 A 
ATOM     47  H   UNL A   1      40.074  30.739  32.434  1.00  0.00     0.167 HD
ATOM     48  C   UNL A   1      43.297  29.451  35.067  1.00  0.00     0.037 A 
ATOM     49  C   UNL A   1      37.956  32.404  31.687  1.00  0.00     0.037 A 
ATOM     50  C   UNL A   1      42.715  30.587  35.730  1.00  0.00     0.049 A 
ATOM     51  C   UNL A   1      38.413  32.911  33.030  1.00  0.00     0.074 A 
ATOM     52  C   UNL A   1      43.096  31.173  36.926  1.00  0.00     0.029 A 
ATOM     53  N   UNL A   1      41.629  31.309  35.261  1.00  0.00    -0.354 N 
ATOM     54  N   UNL A   1      39.400  32.482  33.780  1.00  0.00    -0.248 NA
ATOM     55  C   UNL A   1      37.671  34.042  33.605  1.00  0.00     0.031 C 
ATOM     56  C   UNL A   1      42.217  32.227  37.196  1.00  0.00     0.029 A 
ATOM     57  C   UNL A   1      41.314  32.325  36.149  1.00  0.00     0.049 A 
ATOM     58  H   UNL A   1      41.150  31.127  34.419  1.00  0.00     0.167 HD
ATOM     59  C   UNL A   1      39.411  33.305  34.902  1.00  0.00     0.074 A 
ATOM     60  C   UNL A   1      38.336  34.259  34.732  1.00  0.00     0.031 C 
ATOM     61  C   UNL A   1      40.242  33.273  35.974  1.00  0.00     0.037 A 
BRANCH  48  62
ATOM     62  C   UNL A   1      44.481  28.785  35.710  1.00  0.00     0.058 A 
ATOM     63  C   UNL A   1      45.787  29.193  35.397  1.00  0.00     0.135 A 
ATOM     64  C   UNL A   1      44.323  27.719  36.610  1.00  0.00     0.135 A 
ATOM     65  F   UNL A   1      45.994  30.212  34.549  1.00  0.00    -0.206 F 
ATOM     66  C   UNL A   1      46.897  28.560  35.948  1.00  0.00     0.059 A 
ATOM     67  C   UNL A   1      45.418  27.086  37.189  1.00  0.00     0.059 A 
ATOM     68  F   UNL A   1      43.093  27.308  36.959  1.00  0.00    -0.206 F 
ATOM     69  C   UNL A   1      46.702  27.507  36.844  1.00  0.00     0.060 A 
BRANCH  69  70
ATOM     70  S   UNL A   1      48.151  26.730  37.590  1.00  0.00     0.124 S 
ATOM     71  O   UNL A   1      48.303  27.498  38.820  1.00  0.00    -0.237 OA
ATOM     72  O   UNL A   1      47.708  25.348  37.752  1.00  0.00    -0.237 OA
ATOM     73  O   UNL A   1      49.195  26.929  36.588  1.00  0.00    -0.744 OA
ENDBRANCH  69  70
ENDBRANCH  48  62
BRANCH  49  74
ATOM     74  C   UNL A   1      36.830  33.062  30.974  1.00  0.00     0.058 A 
ATOM     75  C   UNL A   1      37.066  34.004  29.961  1.00  0.00     0.135 A 
ATOM     76  C   UNL A   1      35.498  32.782  31.311  1.00  0.00     0.135 A 
ATOM     77  F   UNL A   1      38.323  34.307  29.602  1.00  0.00    -0.206 F 
ATOM     78  C   UNL A   1      36.022  34.669  29.330  1.00  0.00     0.059 A 
ATOM     79  C   UNL A   1      34.435  33.420  30.679  1.00  0.00     0.059 A 
ATOM     80  F   UNL A   1      35.226  31.871  32.259  1.00  0.00    -0.206 F 
ATOM     81  C   UNL A   1      34.709  34.378  29.704  1.00  0.00     0.060 A 
BRANCH  81  82
ATOM     82  S   UNL A   1      33.372  35.287  28.901  1.00  0.00     0.124 S 
ATOM     83  O   UNL A   1      32.708  35.896  30.051  1.00  0.00    -0.237 OA
ATOM     84  O   UNL A   1      34.104  36.204  28.034  1.00  0.00    -0.237 OA
ATOM     85  O   UNL A   1      32.617  34.244  28.217  1.00  0.00    -0.744 OA
ENDBRANCH  81  82
ENDBRANCH  49  74
BRANCH  61  86
ATOM     86  C   UNL A   1      40.047  34.306  37.047  1.00  0.00     0.058 A 
ATOM     87  C   UNL A   1      39.236  34.033  38.161  1.00  0.00     0.135 A 
ATOM     88  C   UNL A   1      40.597  35.593  36.938  1.00  0.00     0.135 A 
ATOM     89  F   UNL A   1      38.682  32.819  38.312  1.00  0.00    -0.206 F 
ATOM     90  C   UNL A   1      38.961  35.004  39.119  1.00  0.00     0.059 A 
ATOM     91  C   UNL A   1      40.353  36.574  37.897  1.00  0.00     0.059 A 
ATOM     92  F   UNL A   1      41.389  35.902  35.899  1.00  0.00    -0.206 F 
ATOM     93  C   UNL A   1      39.519  36.274  38.974  1.00  0.00     0.060 A 
BRANCH  93  94
ATOM     94  S   UNL A   1      39.160  37.522  40.230  1.00  0.00     0.124 S 
ATOM     95  O   UNL A   1      38.184  38.362  39.546  1.00  0.00    -0.237 OA
ATOM     96  O   UNL A   1      38.645  36.715  41.331  1.00  0.00    -0.237 OA
ATOM     97  O   UNL A   1      40.461  38.141  40.473  1.00  0.00    -0.744 OA
ENDBRANCH  93  94
ENDBRANCH  61  86
ENDBRANCH  35  36
ENDBRANCH  28  30
ENDBRANCH  27  28
ENDBRANCH  26  27
ENDBRANCH  25  26
ENDBRANCH  24  25
ENDBRANCH  23  24
ENDBRANCH   1  23
TORSDOF 23
ENDMDL
