MODEL 1
REMARK VINA RESULT:     -11.4      0.000      0.000
REMARK SMILES O=C(OCCOCCOCCOC(=O)[C@@H]1Cc2ccccc2CN1C(=O)COc1ccccc1)c1ccc(-c2c3nc(c(-c4c(F)cc(S(=O)(=O)[O-])cc4F)c4ccc([nH]4)c(-c4c(F)cc(S(=O)(=O)[O-])cc4F)c4nc(c(-c5c(F)cc(S(=O)(=O)[O-])cc5F)c5ccc2[nH]5)C=C4)C=C3)cc1
REMARK SMILES IDX 8 1 7 2 6 3 5 4 4 5 3 6 2 7 1 8 35 9 36 10 100 11 37 12
REMARK SMILES IDX 99 13 38 14 39 15 40 16 93 17 41 18 98 19 92 20 94 21 42 22
REMARK SMILES IDX 97 23 91 24 90 25 43 27 77 28 56 29 76 30 57 31 60 32 75 33
REMARK SMILES IDX 95 34 58 35 59 36 74 38 96 39 61 40 44 41 45 42 54 43 46 44
REMARK SMILES IDX 47 45 53 46 55 47 48 48 49 49 50 50 51 51 52 52 78 53 79 54
REMARK SMILES IDX 88 55 80 56 81 57 87 58 89 59 82 60 83 61 84 62 85 63 86 64
REMARK SMILES IDX 62 65 63 66 72 67 64 68 65 69 71 70 73 71 66 72 67 73 68 74
REMARK SMILES IDX 69 75 70 76 9 77 10 78 11 79 12 80 13 81 14 82 15 83 16 84
REMARK SMILES IDX 24 85 17 86 23 87 18 88 22 89 19 90 21 91 20 92 25 93 26 94
REMARK SMILES IDX 27 95 28 96 29 97 30 98 34 99 31 100 33 101 32 102
REMARK H PARENT 94 26 60 37
REMARK Flexibility Score: inf
ROOT
ATOM      1  C   UNL A   1      33.422  20.740  24.460  1.00  0.00     0.188 C 
ENDROOT
BRANCH   1   2
ATOM      2  C   UNL A   1      34.444  19.611  24.627  1.00  0.00     0.188 C 
BRANCH   2   3
ATOM      3  O   UNL A   1      35.712  20.137  25.001  1.00  0.00    -0.376 OA
BRANCH   3   4
ATOM      4  C   UNL A   1      35.718  21.415  25.631  1.00  0.00     0.202 C 
BRANCH   4   5
ATOM      5  C   UNL A   1      36.853  22.410  25.285  1.00  0.00     0.261 C 
BRANCH   5   6
ATOM      6  O   UNL A   1      38.150  21.817  25.011  1.00  0.00    -0.460 OA
BRANCH   6   7
ATOM      7  C   UNL A   1      39.145  21.581  25.926  1.00  0.00     0.338 C 
ATOM      8  O   UNL A   1      39.648  20.469  26.031  1.00  0.00    -0.246 OA
BRANCH   7   9
ATOM      9  C   UNL A   1      39.580  22.673  26.829  1.00  0.00     0.060 A 
ATOM     10  C   UNL A   1      38.760  23.722  27.075  1.00  0.00     0.016 A 
ATOM     11  C   UNL A   1      40.731  22.688  27.562  1.00  0.00     0.016 A 
ATOM     12  C   UNL A   1      39.202  24.949  27.576  1.00  0.00     0.010 A 
ATOM     13  C   UNL A   1      41.092  23.879  28.282  1.00  0.00     0.010 A 
ATOM     14  C   UNL A   1      40.500  25.350  28.225  1.00  0.00    -0.014 A 
BRANCH  14  15
ATOM     15  C   UNL A   1      41.354  27.249  28.710  1.00  0.00     0.031 A 
ATOM     16  C   UNL A   1      40.457  28.816  29.220  1.00  0.00     0.074 A 
ATOM     17  C   UNL A   1      42.664  27.879  28.934  1.00  0.00     0.049 A 
ATOM     18  N   UNL A   1      40.961  29.975  29.665  1.00  0.00    -0.248 NA
ATOM     19  C   UNL A   1      38.942  28.932  29.354  1.00  0.00     0.031 C 
ATOM     20  C   UNL A   1      43.973  27.298  29.324  1.00  0.00     0.029 A 
ATOM     21  N   UNL A   1      43.159  29.041  28.296  1.00  0.00    -0.354 N 
ATOM     22  C   UNL A   1      39.892  30.739  30.187  1.00  0.00     0.074 A 
ATOM     23  C   UNL A   1      38.735  29.914  30.189  1.00  0.00     0.031 C 
ATOM     24  C   UNL A   1      44.971  27.741  28.556  1.00  0.00     0.029 A 
ATOM     25  C   UNL A   1      44.492  28.933  27.896  1.00  0.00     0.049 A 
ATOM     26  H   UNL A   1      42.615  29.849  28.149  1.00  0.00     0.167 HD
ATOM     27  C   UNL A   1      39.711  32.059  30.460  1.00  0.00     0.037 A 
ATOM     28  C   UNL A   1      45.372  29.726  27.247  1.00  0.00     0.037 A 
ATOM     29  C   UNL A   1      40.647  33.070  30.091  1.00  0.00     0.049 A 
ATOM     30  C   UNL A   1      45.149  31.193  27.384  1.00  0.00     0.074 A 
ATOM     31  C   UNL A   1      40.471  34.441  30.112  1.00  0.00     0.029 A 
ATOM     32  N   UNL A   1      41.874  32.812  29.509  1.00  0.00    -0.354 N 
ATOM     33  N   UNL A   1      44.108  31.800  27.891  1.00  0.00    -0.248 NA
ATOM     34  C   UNL A   1      46.269  32.083  27.046  1.00  0.00     0.031 C 
ATOM     35  C   UNL A   1      41.554  35.016  29.445  1.00  0.00     0.029 A 
ATOM     36  C   UNL A   1      42.446  34.005  29.120  1.00  0.00     0.049 A 
ATOM     37  H   UNL A   1      42.274  31.921  29.390  1.00  0.00     0.167 HD
ATOM     38  C   UNL A   1      44.472  33.127  28.012  1.00  0.00     0.074 A 
ATOM     39  C   UNL A   1      45.816  33.250  27.491  1.00  0.00     0.031 C 
ATOM     40  C   UNL A   1      43.760  34.136  28.558  1.00  0.00     0.037 A 
BRANCH  27  41
ATOM     41  C   UNL A   1      38.304  32.481  30.887  1.00  0.00     0.058 A 
ATOM     42  C   UNL A   1      37.374  33.027  29.982  1.00  0.00     0.135 A 
ATOM     43  C   UNL A   1      37.979  32.540  32.258  1.00  0.00     0.135 A 
ATOM     44  F   UNL A   1      37.653  33.066  28.669  1.00  0.00    -0.206 F 
ATOM     45  C   UNL A   1      36.213  33.667  30.423  1.00  0.00     0.059 A 
ATOM     46  C   UNL A   1      36.811  33.147  32.715  1.00  0.00     0.059 A 
ATOM     47  F   UNL A   1      38.841  32.081  33.178  1.00  0.00    -0.206 F 
ATOM     48  C   UNL A   1      35.951  33.740  31.793  1.00  0.00     0.060 A 
BRANCH  48  49
ATOM     49  S   UNL A   1      34.509  34.668  32.367  1.00  0.00     0.124 S 
ATOM     50  O   UNL A   1      35.132  35.671  33.226  1.00  0.00    -0.237 OA
ATOM     51  O   UNL A   1      33.938  35.170  31.122  1.00  0.00    -0.237 OA
ATOM     52  O   UNL A   1      33.710  33.659  33.058  1.00  0.00    -0.744 OA
ENDBRANCH  48  49
ENDBRANCH  27  41
BRANCH  28  53
ATOM     53  C   UNL A   1      46.650  29.153  26.709  1.00  0.00     0.058 A 
ATOM     54  C   UNL A   1      47.880  29.241  27.381  1.00  0.00     0.135 A 
ATOM     55  C   UNL A   1      46.628  28.411  25.514  1.00  0.00     0.135 A 
ATOM     56  F   UNL A   1      47.966  29.924  28.532  1.00  0.00    -0.206 F 
ATOM     57  C   UNL A   1      49.032  28.615  26.898  1.00  0.00     0.059 A 
ATOM     58  C   UNL A   1      47.765  27.774  25.012  1.00  0.00     0.059 A 
ATOM     59  F   UNL A   1      45.484  28.293  24.821  1.00  0.00    -0.206 F 
ATOM     60  C   UNL A   1      48.964  27.877  25.715  1.00  0.00     0.060 A 
BRANCH  60  61
ATOM     61  S   UNL A   1      50.452  27.024  25.132  1.00  0.00     0.124 S 
ATOM     62  O   UNL A   1      50.267  25.687  25.686  1.00  0.00    -0.237 OA
ATOM     63  O   UNL A   1      50.321  27.131  23.682  1.00  0.00    -0.237 OA
ATOM     64  O   UNL A   1      51.544  27.796  25.718  1.00  0.00    -0.744 OA
ENDBRANCH  60  61
ENDBRANCH  28  53
BRANCH  40  65
ATOM     65  C   UNL A   1      44.363  35.498  28.587  1.00  0.00     0.058 A 
ATOM     66  C   UNL A   1      44.179  36.389  27.524  1.00  0.00     0.135 A 
ATOM     67  C   UNL A   1      44.976  35.966  29.761  1.00  0.00     0.135 A 
ATOM     68  F   UNL A   1      43.585  35.981  26.391  1.00  0.00    -0.206 F 
ATOM     69  C   UNL A   1      44.579  37.712  27.624  1.00  0.00     0.059 A 
ATOM     70  C   UNL A   1      45.363  37.291  29.890  1.00  0.00     0.059 A 
ATOM     71  F   UNL A   1      45.155  35.144  30.808  1.00  0.00    -0.206 F 
ATOM     72  C   UNL A   1      45.158  38.157  28.816  1.00  0.00     0.060 A 
BRANCH  72  73
ATOM     73  S   UNL A   1      45.572  39.903  28.964  1.00  0.00     0.124 S 
ATOM     74  O   UNL A   1      46.006  39.983  30.354  1.00  0.00    -0.237 OA
ATOM     75  O   UNL A   1      46.621  40.059  27.960  1.00  0.00    -0.237 OA
ATOM     76  O   UNL A   1      44.314  40.578  28.657  1.00  0.00    -0.744 OA
ENDBRANCH  72  73
ENDBRANCH  40  65
ENDBRANCH  14  15
ENDBRANCH   7   9
ENDBRANCH   6   7
ENDBRANCH   5   6
ENDBRANCH   4   5
ENDBRANCH   3   4
ENDBRANCH   2   3
ENDBRANCH   1   2
BRANCH   1  77
ATOM     77  O   UNL A   1      32.211  20.575  25.196  1.00  0.00    -0.376 OA
BRANCH  77  78
ATOM     78  C   UNL A   1      31.402  21.742  25.378  1.00  0.00     0.202 C 
BRANCH  78  79
ATOM     79  C   UNL A   1      32.146  23.087  25.367  1.00  0.00     0.261 C 
BRANCH  79  80
ATOM     80  O   UNL A   1      31.380  24.145  24.761  1.00  0.00    -0.462 OA
BRANCH  80  81
ATOM     81  C   UNL A   1      30.683  24.957  25.616  1.00  0.00     0.329 C 
ATOM     82  O   UNL A   1      30.151  24.587  26.654  1.00  0.00    -0.250 OA
BRANCH  81  83
ATOM     83  C   UNL A   1      30.689  26.404  25.103  1.00  0.00     0.200 C 
ATOM     84  C   UNL A   1      29.368  26.577  24.316  1.00  0.00     0.073 C 
ATOM     85  N   UNL A   1      31.905  26.716  24.315  1.00  0.00    -0.321 N 
ATOM     86  C   UNL A   1      29.377  27.817  23.470  1.00  0.00    -0.040 A 
ATOM     87  C   UNL A   1      31.736  27.172  22.933  1.00  0.00     0.156 C 
ATOM     88  C   UNL A   1      28.243  28.614  23.295  1.00  0.00     0.004 A 
ATOM     89  C   UNL A   1      30.571  28.127  22.802  1.00  0.00    -0.025 A 
ATOM     90  C   UNL A   1      28.311  29.749  22.487  1.00  0.00     0.000 A 
ATOM     91  C   UNL A   1      30.634  29.272  22.002  1.00  0.00     0.006 A 
ATOM     92  C   UNL A   1      29.508  30.084  21.852  1.00  0.00     0.000 A 
BRANCH  85  93
ATOM     93  C   UNL A   1      33.196  26.745  24.826  1.00  0.00     0.261 C 
ATOM     94  O   UNL A   1      34.125  26.162  24.258  1.00  0.00    -0.271 OA
BRANCH  93  95
ATOM     95  C   UNL A   1      33.489  27.497  26.131  1.00  0.00     0.329 C 
BRANCH  95  96
ATOM     96  O   UNL A   1      34.198  28.704  26.283  1.00  0.00    -0.484 OA
BRANCH  96  97
ATOM     97  C   UNL A   1      33.635  29.852  26.813  1.00  0.00     0.120 A 
ATOM     98  C   UNL A   1      31.930  30.145  26.201  1.00  0.00     0.046 A 
ATOM     99  C   UNL A   1      34.537  31.158  27.692  1.00  0.00     0.046 A 
ATOM    100  C   UNL A   1      31.249  31.823  26.274  1.00  0.00     0.004 A 
ATOM    101  C   UNL A   1      33.774  32.763  28.001  1.00  0.00     0.004 A 
ATOM    102  C   UNL A   1      32.147  33.143  27.250  1.00  0.00     0.000 A 
ENDBRANCH  96  97
ENDBRANCH  95  96
ENDBRANCH  93  95
ENDBRANCH  85  93
ENDBRANCH  81  83
ENDBRANCH  80  81
ENDBRANCH  79  80
ENDBRANCH  78  79
ENDBRANCH  77  78
ENDBRANCH   1  77
TORSDOF 24
ENDMDL
MODEL 2
REMARK VINA RESULT:     -11.1      4.992      7.744
REMARK SMILES O=C(OCCOCCOCCOC(=O)[C@@H]1Cc2ccccc2CN1C(=O)COc1ccccc1)c1ccc(-c2c3nc(c(-c4c(F)cc(S(=O)(=O)[O-])cc4F)c4ccc([nH]4)c(-c4c(F)cc(S(=O)(=O)[O-])cc4F)c4nc(c(-c5c(F)cc(S(=O)(=O)[O-])cc5F)c5ccc2[nH]5)C=C4)C=C3)cc1
REMARK SMILES IDX 8 1 7 2 6 3 5 4 4 5 3 6 2 7 1 8 35 9 36 10 100 11 37 12
REMARK SMILES IDX 99 13 38 14 39 15 40 16 93 17 41 18 98 19 92 20 94 21 42 22
REMARK SMILES IDX 97 23 91 24 90 25 43 27 77 28 56 29 76 30 57 31 60 32 75 33
REMARK SMILES IDX 95 34 58 35 59 36 74 38 96 39 61 40 44 41 45 42 54 43 46 44
REMARK SMILES IDX 47 45 53 46 55 47 48 48 49 49 50 50 51 51 52 52 78 53 79 54
REMARK SMILES IDX 88 55 80 56 81 57 87 58 89 59 82 60 83 61 84 62 85 63 86 64
REMARK SMILES IDX 62 65 63 66 72 67 64 68 65 69 71 70 73 71 66 72 67 73 68 74
REMARK SMILES IDX 69 75 70 76 9 77 10 78 11 79 12 80 13 81 14 82 15 83 16 84
REMARK SMILES IDX 24 85 17 86 23 87 18 88 22 89 19 90 21 91 20 92 25 93 26 94
REMARK SMILES IDX 27 95 28 96 29 97 30 98 34 99 31 100 33 101 32 102
REMARK H PARENT 94 26 60 37
REMARK Flexibility Score: inf
ROOT
ATOM      1  C   UNL A   1      38.898  24.549  27.462  1.00  0.00     0.188 C 
ENDROOT
BRANCH   1   2
ATOM      2  C   UNL A   1      40.412  24.640  27.683  1.00  0.00     0.188 C 
BRANCH   2   3
ATOM      3  O   UNL A   1      41.108  24.392  26.468  1.00  0.00    -0.376 OA
BRANCH   3   4
ATOM      4  C   UNL A   1      41.943  23.238  26.429  1.00  0.00     0.202 C 
BRANCH   4   5
ATOM      5  C   UNL A   1      43.152  23.226  25.460  1.00  0.00     0.261 C 
BRANCH   5   6
ATOM      6  O   UNL A   1      43.498  24.506  24.867  1.00  0.00    -0.460 OA
BRANCH   6   7
ATOM      7  C   UNL A   1      44.506  25.343  25.274  1.00  0.00     0.338 C 
ATOM      8  O   UNL A   1      45.622  25.268  24.776  1.00  0.00    -0.246 OA
BRANCH   7   9
ATOM      9  C   UNL A   1      44.251  26.316  26.365  1.00  0.00     0.060 A 
ATOM     10  C   UNL A   1      44.792  26.123  27.590  1.00  0.00     0.016 A 
ATOM     11  C   UNL A   1      43.584  27.499  26.234  1.00  0.00     0.016 A 
ATOM     12  C   UNL A   1      44.317  26.739  28.751  1.00  0.00     0.010 A 
ATOM     13  C   UNL A   1      43.285  28.273  27.410  1.00  0.00     0.010 A 
ATOM     14  C   UNL A   1      43.387  27.907  28.950  1.00  0.00    -0.014 A 
BRANCH  14  15
ATOM     15  C   UNL A   1      42.379  28.682  30.668  1.00  0.00     0.031 A 
ATOM     16  C   UNL A   1      40.910  29.848  30.710  1.00  0.00     0.074 A 
ATOM     17  C   UNL A   1      42.344  28.523  32.130  1.00  0.00     0.049 A 
ATOM     18  N   UNL A   1      40.168  30.241  31.754  1.00  0.00    -0.248 NA
ATOM     19  C   UNL A   1      40.229  30.414  29.468  1.00  0.00     0.031 C 
ATOM     20  C   UNL A   1      42.754  27.391  32.999  1.00  0.00     0.029 A 
ATOM     21  N   UNL A   1      42.473  29.553  33.092  1.00  0.00    -0.354 N 
ATOM     22  C   UNL A   1      39.015  30.883  31.248  1.00  0.00     0.074 A 
ATOM     23  C   UNL A   1      39.012  30.713  29.837  1.00  0.00     0.031 C 
ATOM     24  C   UNL A   1      43.504  27.791  34.028  1.00  0.00     0.029 A 
ATOM     25  C   UNL A   1      43.304  29.215  34.162  1.00  0.00     0.049 A 
ATOM     26  H   UNL A   1      42.020  30.423  33.014  1.00  0.00     0.167 HD
ATOM     27  C   UNL A   1      38.101  31.746  31.769  1.00  0.00     0.037 A 
ATOM     28  C   UNL A   1      43.750  29.842  35.272  1.00  0.00     0.037 A 
ATOM     29  C   UNL A   1      38.236  32.346  33.055  1.00  0.00     0.049 A 
ATOM     30  C   UNL A   1      42.861  30.906  35.820  1.00  0.00     0.074 A 
ATOM     31  C   UNL A   1      37.503  33.390  33.588  1.00  0.00     0.029 A 
ATOM     32  N   UNL A   1      39.249  32.046  33.945  1.00  0.00    -0.354 N 
ATOM     33  N   UNL A   1      41.805  31.433  35.258  1.00  0.00    -0.248 NA
ATOM     34  C   UNL A   1      43.091  31.333  37.207  1.00  0.00     0.031 C 
ATOM     35  C   UNL A   1      38.137  33.794  34.763  1.00  0.00     0.029 A 
ATOM     36  C   UNL A   1      39.188  32.924  35.007  1.00  0.00     0.049 A 
ATOM     37  H   UNL A   1      39.908  31.323  33.839  1.00  0.00     0.167 HD
ATOM     38  C   UNL A   1      41.196  32.188  36.242  1.00  0.00     0.074 A 
ATOM     39  C   UNL A   1      42.018  32.084  37.429  1.00  0.00     0.031 C 
ATOM     40  C   UNL A   1      40.029  32.862  36.168  1.00  0.00     0.037 A 
BRANCH  27  41
ATOM     41  C   UNL A   1      37.073  32.321  30.792  1.00  0.00     0.058 A 
ATOM     42  C   UNL A   1      37.283  33.530  30.103  1.00  0.00     0.135 A 
ATOM     43  C   UNL A   1      35.780  31.761  30.729  1.00  0.00     0.135 A 
ATOM     44  F   UNL A   1      38.471  34.152  30.179  1.00  0.00    -0.206 F 
ATOM     45  C   UNL A   1      36.242  34.188  29.445  1.00  0.00     0.059 A 
ATOM     46  C   UNL A   1      34.735  32.387  30.052  1.00  0.00     0.059 A 
ATOM     47  F   UNL A   1      35.497  30.635  31.402  1.00  0.00    -0.206 F 
ATOM     48  C   UNL A   1      34.966  33.619  29.444  1.00  0.00     0.060 A 
BRANCH  48  49
ATOM     49  S   UNL A   1      33.595  34.528  28.692  1.00  0.00     0.124 S 
ATOM     50  O   UNL A   1      34.296  35.646  28.068  1.00  0.00    -0.237 OA
ATOM     51  O   UNL A   1      33.028  33.545  27.774  1.00  0.00    -0.237 OA
ATOM     52  O   UNL A   1      32.752  34.874  29.833  1.00  0.00    -0.744 OA
ENDBRANCH  48  49
ENDBRANCH  27  41
BRANCH  28  53
ATOM     53  C   UNL A   1      44.896  29.270  36.053  1.00  0.00     0.058 A 
ATOM     54  C   UNL A   1      44.750  28.241  36.998  1.00  0.00     0.135 A 
ATOM     55  C   UNL A   1      46.206  29.707  35.783  1.00  0.00     0.135 A 
ATOM     56  F   UNL A   1      43.529  27.771  37.292  1.00  0.00    -0.206 F 
ATOM     57  C   UNL A   1      45.851  27.667  37.639  1.00  0.00     0.059 A 
ATOM     58  C   UNL A   1      47.321  29.147  36.410  1.00  0.00     0.059 A 
ATOM     59  F   UNL A   1      46.412  30.692  34.894  1.00  0.00    -0.206 F 
ATOM     60  C   UNL A   1      47.135  28.121  37.333  1.00  0.00     0.060 A 
BRANCH  60  61
ATOM     61  S   UNL A   1      48.554  27.326  38.130  1.00  0.00     0.124 S 
ATOM     62  O   UNL A   1      49.548  28.394  38.105  1.00  0.00    -0.237 OA
ATOM     63  O   UNL A   1      48.021  26.990  39.447  1.00  0.00    -0.237 OA
ATOM     64  O   UNL A   1      48.842  26.186  37.265  1.00  0.00    -0.744 OA
ENDBRANCH  60  61
ENDBRANCH  28  53
BRANCH  40  65
ATOM     65  C   UNL A   1      39.559  33.607  37.371  1.00  0.00     0.058 A 
ATOM     66  C   UNL A   1      38.701  33.006  38.299  1.00  0.00     0.135 A 
ATOM     67  C   UNL A   1      40.114  34.859  37.676  1.00  0.00     0.135 A 
ATOM     68  F   UNL A   1      38.163  31.802  38.046  1.00  0.00    -0.206 F 
ATOM     69  C   UNL A   1      38.410  33.624  39.504  1.00  0.00     0.059 A 
ATOM     70  C   UNL A   1      39.853  35.484  38.887  1.00  0.00     0.059 A 
ATOM     71  F   UNL A   1      40.954  35.459  36.817  1.00  0.00    -0.206 F 
ATOM     72  C   UNL A   1      39.001  34.856  39.795  1.00  0.00     0.060 A 
BRANCH  72  73
ATOM     73  S   UNL A   1      38.694  35.591  41.410  1.00  0.00     0.124 S 
ATOM     74  O   UNL A   1      39.705  34.929  42.228  1.00  0.00    -0.237 OA
ATOM     75  O   UNL A   1      38.916  37.011  41.153  1.00  0.00    -0.237 OA
ATOM     76  O   UNL A   1      37.311  35.220  41.695  1.00  0.00    -0.744 OA
ENDBRANCH  72  73
ENDBRANCH  40  65
ENDBRANCH  14  15
ENDBRANCH   7   9
ENDBRANCH   6   7
ENDBRANCH   5   6
ENDBRANCH   4   5
ENDBRANCH   3   4
ENDBRANCH   2   3
ENDBRANCH   1   2
BRANCH   1  77
ATOM     77  O   UNL A   1      38.500  24.086  26.173  1.00  0.00    -0.376 OA
BRANCH  77  78
ATOM     78  C   UNL A   1      38.259  22.680  26.039  1.00  0.00     0.202 C 
BRANCH  78  79
ATOM     79  C   UNL A   1      36.805  22.269  25.763  1.00  0.00     0.261 C 
BRANCH  79  80
ATOM     80  O   UNL A   1      35.943  23.395  25.511  1.00  0.00    -0.462 OA
BRANCH  80  81
ATOM     81  C   UNL A   1      34.961  23.211  24.574  1.00  0.00     0.329 C 
ATOM     82  O   UNL A   1      34.895  22.259  23.809  1.00  0.00    -0.250 OA
BRANCH  81  83
ATOM     83  C   UNL A   1      33.939  24.354  24.640  1.00  0.00     0.200 C 
ATOM     84  C   UNL A   1      34.637  25.500  25.410  1.00  0.00     0.073 C 
ATOM     85  N   UNL A   1      32.652  23.923  25.237  1.00  0.00    -0.321 N 
ATOM     86  C   UNL A   1      33.662  26.552  25.854  1.00  0.00    -0.040 A 
ATOM     87  C   UNL A   1      32.174  24.624  26.432  1.00  0.00     0.156 C 
ATOM     88  C   UNL A   1      33.975  27.914  25.848  1.00  0.00     0.004 A 
ATOM     89  C   UNL A   1      32.421  26.113  26.338  1.00  0.00    -0.025 A 
ATOM     90  C   UNL A   1      33.031  28.844  26.283  1.00  0.00     0.000 A 
ATOM     91  C   UNL A   1      31.477  27.052  26.763  1.00  0.00     0.006 A 
ATOM     92  C   UNL A   1      31.780  28.414  26.728  1.00  0.00     0.000 A 
BRANCH  85  93
ATOM     93  C   UNL A   1      31.786  22.995  24.673  1.00  0.00     0.261 C 
ATOM     94  O   UNL A   1      31.758  21.823  25.060  1.00  0.00    -0.271 OA
BRANCH  93  95
ATOM     95  C   UNL A   1      30.851  23.413  23.529  1.00  0.00     0.329 C 
BRANCH  95  96
ATOM     96  O   UNL A   1      31.034  24.470  22.617  1.00  0.00    -0.484 OA
BRANCH  96  97
ATOM     97  C   UNL A   1      31.014  25.803  22.989  1.00  0.00     0.120 A 
ATOM     98  C   UNL A   1      29.371  26.332  23.615  1.00  0.00     0.046 A 
ATOM     99  C   UNL A   1      32.282  27.031  22.573  1.00  0.00     0.046 A 
ATOM    100  C   UNL A   1      28.950  28.095  23.589  1.00  0.00     0.004 A 
ATOM    101  C   UNL A   1      31.967  28.795  22.784  1.00  0.00     0.004 A 
ATOM    102  C   UNL A   1      30.284  29.359  23.237  1.00  0.00     0.000 A 
ENDBRANCH  96  97
ENDBRANCH  95  96
ENDBRANCH  93  95
ENDBRANCH  85  93
ENDBRANCH  81  83
ENDBRANCH  80  81
ENDBRANCH  79  80
ENDBRANCH  78  79
ENDBRANCH  77  78
ENDBRANCH   1  77
TORSDOF 24
ENDMDL
MODEL 3
REMARK VINA RESULT:     -11.0      4.968      9.905
REMARK SMILES O=C(OCCOCCOCCOC(=O)[C@@H]1Cc2ccccc2CN1C(=O)COc1ccccc1)c1ccc(-c2c3nc(c(-c4c(F)cc(S(=O)(=O)[O-])cc4F)c4ccc([nH]4)c(-c4c(F)cc(S(=O)(=O)[O-])cc4F)c4nc(c(-c5c(F)cc(S(=O)(=O)[O-])cc5F)c5ccc2[nH]5)C=C4)C=C3)cc1
REMARK SMILES IDX 8 1 7 2 6 3 5 4 4 5 3 6 2 7 1 8 35 9 36 10 100 11 37 12
REMARK SMILES IDX 99 13 38 14 39 15 40 16 93 17 41 18 98 19 92 20 94 21 42 22
REMARK SMILES IDX 97 23 91 24 90 25 43 27 77 28 56 29 76 30 57 31 60 32 75 33
REMARK SMILES IDX 95 34 58 35 59 36 74 38 96 39 61 40 44 41 45 42 54 43 46 44
REMARK SMILES IDX 47 45 53 46 55 47 48 48 49 49 50 50 51 51 52 52 78 53 79 54
REMARK SMILES IDX 88 55 80 56 81 57 87 58 89 59 82 60 83 61 84 62 85 63 86 64
REMARK SMILES IDX 62 65 63 66 72 67 64 68 65 69 71 70 73 71 66 72 67 73 68 74
REMARK SMILES IDX 69 75 70 76 9 77 10 78 11 79 12 80 13 81 14 82 15 83 16 84
REMARK SMILES IDX 24 85 17 86 23 87 18 88 22 89 19 90 21 91 20 92 25 93 26 94
REMARK SMILES IDX 27 95 28 96 29 97 30 98 34 99 31 100 33 101 32 102
REMARK H PARENT 94 26 60 37
REMARK Flexibility Score: inf
ROOT
ATOM      1  C   UNL A   1      39.418  22.236  26.453  1.00  0.00     0.188 C 
ENDROOT
BRANCH   1   2
ATOM      2  C   UNL A   1      40.233  20.943  26.348  1.00  0.00     0.188 C 
BRANCH   2   3
ATOM      3  O   UNL A   1      41.419  21.037  27.128  1.00  0.00    -0.376 OA
BRANCH   3   4
ATOM      4  C   UNL A   1      42.643  20.693  26.483  1.00  0.00     0.202 C 
BRANCH   4   5
ATOM      5  C   UNL A   1      43.413  21.795  25.713  1.00  0.00     0.261 C 
BRANCH   5   6
ATOM      6  O   UNL A   1      42.647  22.983  25.378  1.00  0.00    -0.460 OA
BRANCH   6   7
ATOM      7  C   UNL A   1      43.019  24.282  25.614  1.00  0.00     0.338 C 
ATOM      8  O   UNL A   1      43.790  24.860  24.857  1.00  0.00    -0.246 OA
BRANCH   7   9
ATOM      9  C   UNL A   1      42.519  24.976  26.825  1.00  0.00     0.060 A 
ATOM     10  C   UNL A   1      41.538  25.903  26.724  1.00  0.00     0.016 A 
ATOM     11  C   UNL A   1      42.883  24.694  28.110  1.00  0.00     0.016 A 
ATOM     12  C   UNL A   1      41.276  26.863  27.705  1.00  0.00     0.010 A 
ATOM     13  C   UNL A   1      42.428  25.547  29.175  1.00  0.00     0.010 A 
ATOM     14  C   UNL A   1      41.720  26.966  29.141  1.00  0.00    -0.014 A 
BRANCH  14  15
ATOM     15  C   UNL A   1      41.627  28.547  30.578  1.00  0.00     0.031 A 
ATOM     16  C   UNL A   1      42.505  28.649  32.232  1.00  0.00     0.074 A 
ATOM     17  C   UNL A   1      41.096  29.910  30.731  1.00  0.00     0.049 A 
ATOM     18  N   UNL A   1      42.583  29.676  33.089  1.00  0.00    -0.248 NA
ATOM     19  C   UNL A   1      43.431  27.567  32.779  1.00  0.00     0.031 C 
ATOM     20  C   UNL A   1      40.733  30.935  29.720  1.00  0.00     0.029 A 
ATOM     21  N   UNL A   1      40.267  30.378  31.778  1.00  0.00    -0.354 N 
ATOM     22  C   UNL A   1      43.582  29.369  34.041  1.00  0.00     0.074 A 
ATOM     23  C   UNL A   1      44.225  28.174  33.620  1.00  0.00     0.031 C 
ATOM     24  C   UNL A   1      39.539  31.481  29.962  1.00  0.00     0.029 A 
ATOM     25  C   UNL A   1      39.214  31.182  31.338  1.00  0.00     0.049 A 
ATOM     26  H   UNL A   1      40.418  30.157  32.725  1.00  0.00     0.167 HD
ATOM     27  C   UNL A   1      43.881  29.827  35.287  1.00  0.00     0.037 A 
ATOM     28  C   UNL A   1      38.177  31.819  31.924  1.00  0.00     0.037 A 
ATOM     29  C   UNL A   1      43.044  30.725  36.012  1.00  0.00     0.049 A 
ATOM     30  C   UNL A   1      38.380  32.225  33.343  1.00  0.00     0.074 A 
ATOM     31  C   UNL A   1      43.127  31.076  37.347  1.00  0.00     0.029 A 
ATOM     32  N   UNL A   1      41.899  31.302  35.496  1.00  0.00    -0.354 N 
ATOM     33  N   UNL A   1      39.355  31.878  34.143  1.00  0.00    -0.248 NA
ATOM     34  C   UNL A   1      37.474  33.242  33.894  1.00  0.00     0.031 C 
ATOM     35  C   UNL A   1      41.970  31.786  37.669  1.00  0.00     0.029 A 
ATOM     36  C   UNL A   1      41.237  31.968  36.506  1.00  0.00     0.049 A 
ATOM     37  H   UNL A   1      41.603  31.245  34.558  1.00  0.00     0.167 HD
ATOM     38  C   UNL A   1      39.232  32.688  35.255  1.00  0.00     0.074 A 
ATOM     39  C   UNL A   1      38.067  33.520  35.049  1.00  0.00     0.031 C 
ATOM     40  C   UNL A   1      40.054  32.759  36.324  1.00  0.00     0.037 A 
BRANCH  27  41
ATOM     41  C   UNL A   1      44.989  29.086  36.038  1.00  0.00     0.058 A 
ATOM     42  C   UNL A   1      46.352  29.399  35.869  1.00  0.00     0.135 A 
ATOM     43  C   UNL A   1      44.683  27.912  36.755  1.00  0.00     0.135 A 
ATOM     44  F   UNL A   1      46.714  30.466  35.137  1.00  0.00    -0.206 F 
ATOM     45  C   UNL A   1      47.360  28.548  36.326  1.00  0.00     0.059 A 
ATOM     46  C   UNL A   1      45.675  27.065  37.246  1.00  0.00     0.059 A 
ATOM     47  F   UNL A   1      43.407  27.529  36.912  1.00  0.00    -0.206 F 
ATOM     48  C   UNL A   1      47.011  27.372  36.995  1.00  0.00     0.060 A 
BRANCH  48  49
ATOM     49  S   UNL A   1      48.312  26.215  37.483  1.00  0.00     0.124 S 
ATOM     50  O   UNL A   1      48.411  25.370  36.296  1.00  0.00    -0.237 OA
ATOM     51  O   UNL A   1      49.448  27.098  37.726  1.00  0.00    -0.237 OA
ATOM     52  O   UNL A   1      47.761  25.567  38.670  1.00  0.00    -0.744 OA
ENDBRANCH  48  49
ENDBRANCH  27  41
BRANCH  28  53
ATOM     53  C   UNL A   1      37.048  32.348  31.090  1.00  0.00     0.058 A 
ATOM     54  C   UNL A   1      36.999  33.664  30.601  1.00  0.00     0.135 A 
ATOM     55  C   UNL A   1      36.016  31.480  30.689  1.00  0.00     0.135 A 
ATOM     56  F   UNL A   1      37.960  34.538  30.936  1.00  0.00    -0.206 F 
ATOM     57  C   UNL A   1      35.980  34.097  29.748  1.00  0.00     0.059 A 
ATOM     58  C   UNL A   1      34.988  31.889  29.837  1.00  0.00     0.059 A 
ATOM     59  F   UNL A   1      36.002  30.210  31.127  1.00  0.00    -0.206 F 
ATOM     60  C   UNL A   1      34.981  33.200  29.365  1.00  0.00     0.060 A 
BRANCH  60  61
ATOM     61  S   UNL A   1      33.700  33.761  28.214  1.00  0.00     0.124 S 
ATOM     62  O   UNL A   1      33.186  32.496  27.699  1.00  0.00    -0.237 OA
ATOM     63  O   UNL A   1      32.797  34.499  29.092  1.00  0.00    -0.237 OA
ATOM     64  O   UNL A   1      34.435  34.575  27.250  1.00  0.00    -0.744 OA
ENDBRANCH  60  61
ENDBRANCH  28  53
BRANCH  40  65
ATOM     65  C   UNL A   1      39.724  33.723  37.412  1.00  0.00     0.058 A 
ATOM     66  C   UNL A   1      38.834  33.376  38.435  1.00  0.00     0.135 A 
ATOM     67  C   UNL A   1      40.439  34.926  37.519  1.00  0.00     0.135 A 
ATOM     68  F   UNL A   1      38.143  32.226  38.372  1.00  0.00    -0.206 F 
ATOM     69  C   UNL A   1      38.665  34.192  39.541  1.00  0.00     0.059 A 
ATOM     70  C   UNL A   1      40.301  35.747  38.629  1.00  0.00     0.059 A 
ATOM     71  F   UNL A   1      41.314  35.285  36.565  1.00  0.00    -0.206 F 
ATOM     72  C   UNL A   1      39.414  35.369  39.635  1.00  0.00     0.060 A 
BRANCH  72  73
ATOM     73  S   UNL A   1      39.259  36.361  41.130  1.00  0.00     0.124 S 
ATOM     74  O   UNL A   1      40.650  36.466  41.556  1.00  0.00    -0.237 OA
ATOM     75  O   UNL A   1      38.654  37.591  40.626  1.00  0.00    -0.237 OA
ATOM     76  O   UNL A   1      38.397  35.552  41.988  1.00  0.00    -0.744 OA
ENDBRANCH  72  73
ENDBRANCH  40  65
ENDBRANCH  14  15
ENDBRANCH   7   9
ENDBRANCH   6   7
ENDBRANCH   5   6
ENDBRANCH   4   5
ENDBRANCH   3   4
ENDBRANCH   2   3
ENDBRANCH   1   2
BRANCH   1  77
ATOM     77  O   UNL A   1      38.045  22.119  26.081  1.00  0.00    -0.376 OA
BRANCH  77  78
ATOM     78  C   UNL A   1      37.393  23.313  25.638  1.00  0.00     0.202 C 
BRANCH  78  79
ATOM     79  C   UNL A   1      35.860  23.324  25.742  1.00  0.00     0.261 C 
BRANCH  79  80
ATOM     80  O   UNL A   1      35.287  24.611  25.442  1.00  0.00    -0.462 OA
BRANCH  80  81
ATOM     81  C   UNL A   1      33.934  24.728  25.612  1.00  0.00     0.329 C 
ATOM     82  O   UNL A   1      33.278  24.113  26.442  1.00  0.00    -0.250 OA
BRANCH  81  83
ATOM     83  C   UNL A   1      33.359  25.763  24.635  1.00  0.00     0.200 C 
ATOM     84  C   UNL A   1      32.539  26.749  25.500  1.00  0.00     0.073 C 
ATOM     85  N   UNL A   1      32.583  25.131  23.541  1.00  0.00    -0.321 N 
ATOM     86  C   UNL A   1      31.640  27.614  24.665  1.00  0.00    -0.040 A 
ATOM     87  C   UNL A   1      31.179  25.518  23.376  1.00  0.00     0.156 C 
ATOM     88  C   UNL A   1      31.407  28.959  24.961  1.00  0.00     0.004 A 
ATOM     89  C   UNL A   1      30.984  27.002  23.587  1.00  0.00    -0.025 A 
ATOM     90  C   UNL A   1      30.553  29.709  24.153  1.00  0.00     0.000 A 
ATOM     91  C   UNL A   1      30.136  27.763  22.776  1.00  0.00     0.006 A 
ATOM     92  C   UNL A   1      29.928  29.115  23.055  1.00  0.00     0.000 A 
BRANCH  85  93
ATOM     93  C   UNL A   1      33.118  24.301  22.565  1.00  0.00     0.261 C 
ATOM     94  O   UNL A   1      33.281  24.694  21.406  1.00  0.00    -0.271 OA
BRANCH  93  95
ATOM     95  C   UNL A   1      33.503  22.856  22.911  1.00  0.00     0.329 C 
BRANCH  95  96
ATOM     96  O   UNL A   1      32.922  22.026  23.889  1.00  0.00    -0.484 OA
BRANCH  96  97
ATOM     97  C   UNL A   1      32.900  20.645  23.795  1.00  0.00     0.120 A 
ATOM     98  C   UNL A   1      34.148  19.848  24.880  1.00  0.00     0.046 A 
ATOM     99  C   UNL A   1      32.055  19.692  22.504  1.00  0.00     0.046 A 
ATOM    100  C   UNL A   1      34.697  18.164  24.492  1.00  0.00     0.004 A 
ATOM    101  C   UNL A   1      32.406  17.938  22.270  1.00  0.00     0.004 A 
ATOM    102  C   UNL A   1      33.769  17.161  23.215  1.00  0.00     0.000 A 
ENDBRANCH  96  97
ENDBRANCH  95  96
ENDBRANCH  93  95
ENDBRANCH  85  93
ENDBRANCH  81  83
ENDBRANCH  80  81
ENDBRANCH  79  80
ENDBRANCH  78  79
ENDBRANCH  77  78
ENDBRANCH   1  77
TORSDOF 24
ENDMDL
