MODEL 1
REMARK VINA RESULT:     -10.3      0.000      0.000
REMARK SMILES CCN(C(=O)Cc1c(C(=O)OCCOCCOCCOC(=O)c2ccc(-c3c4nc(c(-c5c(F)cc(S(=O)(=O)[O-])cc5F)c5ccc([nH]5)c(-c5c(F)cc(S(=O)(=O)[O-])cc5F)c5nc(c(-c6c(F)cc(S(=O)(=O)[O-])cc6F)c6ccc3[nH]6)C=C5)C=C4)cc2)[nH]c2ccc(Cl)cc12)c1ccc(C)c(C)c1
REMARK SMILES IDX 15 1 14 2 13 3 12 4 11 5 9 6 10 7 8 8 7 9 96 10 89 11 90 12
REMARK SMILES IDX 95 13 91 15 93 16 92 17 94 18 6 19 4 20 5 21 3 22 2 23 1 24
REMARK SMILES IDX 97 25 98 26 104 27 99 28 102 29 100 30 103 31 101 32 16 33
REMARK SMILES IDX 17 34 18 35 19 36 20 37 21 38 22 39 23 40 24 41 88 42 25 43
REMARK SMILES IDX 87 44 26 45 27 46 28 47 81 48 29 49 86 50 80 51 82 52 30 53
REMARK SMILES IDX 85 54 79 55 78 56 31 58 65 59 44 60 64 61 45 62 48 63 63 64
REMARK SMILES IDX 83 65 46 66 47 67 62 69 84 70 49 71 32 72 33 73 42 74 34 75
REMARK SMILES IDX 35 76 41 77 43 78 36 79 37 80 38 81 39 82 40 83 66 84 67 85
REMARK SMILES IDX 76 86 68 87 69 88 75 89 77 90 70 91 71 92 72 93 73 94 74 95
REMARK SMILES IDX 50 96 51 97 60 98 52 99 53 100 59 101 61 102 54 103 55 104
REMARK SMILES IDX 56 105 57 106 58 107
REMARK H PARENT 89 14 82 57 48 68
REMARK Flexibility Score: inf
ROOT
ATOM      1  C   UNL A   1      31.535  28.146  24.622  1.00  0.00     0.188 C 
ENDROOT
BRANCH   1   2
ATOM      2  O   UNL A   1      30.493  27.338  24.112  1.00  0.00    -0.376 OA
BRANCH   2   3
ATOM      3  C   UNL A   1      30.449  25.941  24.322  1.00  0.00     0.202 C 
BRANCH   3   4
ATOM      4  C   UNL A   1      30.260  24.952  23.170  1.00  0.00     0.261 C 
BRANCH   4   5
ATOM      5  O   UNL A   1      30.598  23.597  23.461  1.00  0.00    -0.459 OA
BRANCH   5   6
ATOM      6  C   UNL A   1      31.769  23.162  22.940  1.00  0.00     0.355 C 
ATOM      7  O   UNL A   1      32.519  23.837  22.226  1.00  0.00    -0.244 OA
BRANCH   6   8
ATOM      8  C   UNL A   1      32.076  21.827  23.388  1.00  0.00     0.129 A 
ATOM      9  C   UNL A   1      32.275  21.286  24.660  1.00  0.00     0.002 A 
ATOM     10  C   UNL A   1      32.508  19.879  24.486  1.00  0.00     0.005 A 
ATOM     11  N   UNL A   1      32.154  20.788  22.490  1.00  0.00    -0.349 N 
ATOM     12  C   UNL A   1      32.416  19.602  23.124  1.00  0.00     0.046 A 
ATOM     13  C   UNL A   1      32.747  18.808  25.373  1.00  0.00     0.031 A 
ATOM     14  H   UNL A   1      32.035  20.883  21.517  1.00  0.00     0.167 HD
ATOM     15  C   UNL A   1      32.550  18.315  22.593  1.00  0.00     0.028 A 
ATOM     16  C   UNL A   1      32.871  17.513  24.858  1.00  0.00     0.041 A 
ATOM     17  C   UNL A   1      32.775  17.268  23.491  1.00  0.00     0.022 A 
ATOM     18  Cl  UNL A   1      33.130  16.196  25.939  1.00  0.00    -0.084 Cl
BRANCH   9  19
ATOM     19  C   UNL A   1      32.189  21.985  25.987  1.00  0.00     0.139 C 
BRANCH  19  20
ATOM     20  C   UNL A   1      33.566  22.270  26.591  1.00  0.00     0.231 C 
ATOM     21  O   UNL A   1      33.866  21.708  27.651  1.00  0.00    -0.274 OA
BRANCH  20  22
ATOM     22  N   UNL A   1      34.418  23.164  25.927  1.00  0.00    -0.312 N 
BRANCH  22  23
ATOM     23  C   UNL A   1      33.978  24.354  25.169  1.00  0.00     0.122 C 
ATOM     24  C   UNL A   1      33.809  25.637  25.978  1.00  0.00     0.028 C 
ENDBRANCH  22  23
BRANCH  22  25
ATOM     25  C   UNL A   1      35.795  22.843  25.760  1.00  0.00     0.044 A 
ATOM     26  C   UNL A   1      36.797  23.716  26.173  1.00  0.00     0.026 A 
ATOM     27  C   UNL A   1      36.150  21.575  25.295  1.00  0.00     0.030 A 
ATOM     28  C   UNL A   1      38.124  23.284  26.187  1.00  0.00     0.006 A 
ATOM     29  C   UNL A   1      37.467  21.109  25.341  1.00  0.00    -0.046 A 
ATOM     30  C   UNL A   1      38.470  21.975  25.797  1.00  0.00    -0.048 A 
ATOM     31  C   UNL A   1      37.725  19.693  24.908  1.00  0.00     0.044 C 
ATOM     32  C   UNL A   1      39.915  21.575  25.865  1.00  0.00     0.044 C 
ENDBRANCH  22  25
ENDBRANCH  20  22
ENDBRANCH  19  20
ENDBRANCH   9  19
ENDBRANCH   6   8
ENDBRANCH   5   6
ENDBRANCH   4   5
ENDBRANCH   3   4
ENDBRANCH   2   3
ENDBRANCH   1   2
BRANCH   1  33
ATOM     33  C   UNL A   1      31.337  29.652  24.902  1.00  0.00     0.188 C 
BRANCH  33  34
ATOM     34  O   UNL A   1      31.265  30.095  26.234  1.00  0.00    -0.376 OA
BRANCH  34  35
ATOM     35  C   UNL A   1      31.812  31.347  26.599  1.00  0.00     0.202 C 
BRANCH  35  36
ATOM     36  C   UNL A   1      33.229  31.581  27.161  1.00  0.00     0.261 C 
BRANCH  36  37
ATOM     37  O   UNL A   1      33.799  30.579  28.010  1.00  0.00    -0.460 OA
BRANCH  37  38
ATOM     38  C   UNL A   1      34.649  29.708  27.407  1.00  0.00     0.338 C 
ATOM     39  O   UNL A   1      34.483  29.151  26.336  1.00  0.00    -0.246 OA
BRANCH  38  40
ATOM     40  C   UNL A   1      35.938  29.689  28.140  1.00  0.00     0.060 A 
ATOM     41  C   UNL A   1      37.109  30.008  27.437  1.00  0.00     0.016 A 
ATOM     42  C   UNL A   1      36.001  29.344  29.491  1.00  0.00     0.016 A 
ATOM     43  C   UNL A   1      38.350  29.941  28.070  1.00  0.00     0.010 A 
ATOM     44  C   UNL A   1      37.251  29.255  30.119  1.00  0.00     0.010 A 
ATOM     45  C   UNL A   1      38.435  29.514  29.403  1.00  0.00    -0.014 A 
BRANCH  45  46
ATOM     46  C   UNL A   1      39.760  29.134  29.962  1.00  0.00     0.031 A 
ATOM     47  C   UNL A   1      40.287  29.913  31.140  1.00  0.00     0.074 A 
ATOM     48  C   UNL A   1      40.467  28.099  29.473  1.00  0.00     0.049 A 
ATOM     49  N   UNL A   1      41.408  29.770  31.799  1.00  0.00    -0.248 NA
ATOM     50  C   UNL A   1      39.430  31.002  31.641  1.00  0.00     0.031 C 
ATOM     51  C   UNL A   1      40.062  27.246  28.359  1.00  0.00     0.029 A 
ATOM     52  N   UNL A   1      41.687  27.593  29.858  1.00  0.00    -0.354 N 
ATOM     53  C   UNL A   1      41.393  30.749  32.787  1.00  0.00     0.074 A 
ATOM     54  C   UNL A   1      40.171  31.502  32.619  1.00  0.00     0.031 C 
ATOM     55  C   UNL A   1      41.021  26.326  28.142  1.00  0.00     0.029 A 
ATOM     56  C   UNL A   1      42.119  26.541  29.085  1.00  0.00     0.049 A 
ATOM     57  H   UNL A   1      42.203  27.950  30.616  1.00  0.00     0.167 HD
ATOM     58  C   UNL A   1      42.309  30.993  33.755  1.00  0.00     0.037 A 
ATOM     59  C   UNL A   1      43.274  25.844  29.123  1.00  0.00     0.037 A 
ATOM     60  C   UNL A   1      43.528  30.245  33.924  1.00  0.00     0.049 A 
ATOM     61  C   UNL A   1      44.309  26.175  30.172  1.00  0.00     0.074 A 
ATOM     62  C   UNL A   1      44.506  30.403  34.892  1.00  0.00     0.029 A 
ATOM     63  N   UNL A   1      43.943  29.208  33.103  1.00  0.00    -0.354 N 
ATOM     64  N   UNL A   1      44.264  27.078  31.123  1.00  0.00    -0.248 NA
ATOM     65  C   UNL A   1      45.550  25.386  30.156  1.00  0.00     0.031 C 
ATOM     66  C   UNL A   1      45.538  29.499  34.621  1.00  0.00     0.029 A 
ATOM     67  C   UNL A   1      45.176  28.736  33.523  1.00  0.00     0.049 A 
ATOM     68  H   UNL A   1      43.436  28.859  32.335  1.00  0.00     0.167 HD
ATOM     69  C   UNL A   1      45.457  26.947  31.832  1.00  0.00     0.074 A 
ATOM     70  C   UNL A   1      46.193  25.865  31.211  1.00  0.00     0.031 C 
ATOM     71  C   UNL A   1      45.903  27.658  32.899  1.00  0.00     0.037 A 
BRANCH  58  72
ATOM     72  C   UNL A   1      42.037  32.136  34.697  1.00  0.00     0.058 A 
ATOM     73  C   UNL A   1      41.309  31.960  35.885  1.00  0.00     0.135 A 
ATOM     74  C   UNL A   1      42.541  33.417  34.421  1.00  0.00     0.135 A 
ATOM     75  F   UNL A   1      40.788  30.761  36.188  1.00  0.00    -0.206 F 
ATOM     76  C   UNL A   1      41.069  33.021  36.753  1.00  0.00     0.059 A 
ATOM     77  C   UNL A   1      42.338  34.485  35.290  1.00  0.00     0.059 A 
ATOM     78  F   UNL A   1      43.241  33.641  33.298  1.00  0.00    -0.206 F 
ATOM     79  C   UNL A   1      41.588  34.279  36.446  1.00  0.00     0.060 A 
BRANCH  79  80
ATOM     80  S   UNL A   1      41.275  35.642  37.588  1.00  0.00     0.124 S 
ATOM     81  O   UNL A   1      42.633  36.056  37.926  1.00  0.00    -0.237 OA
ATOM     82  O   UNL A   1      40.518  36.574  36.758  1.00  0.00    -0.237 OA
ATOM     83  O   UNL A   1      40.523  35.017  38.670  1.00  0.00    -0.744 OA
ENDBRANCH  79  80
ENDBRANCH  58  72
BRANCH  59  84
ATOM     84  C   UNL A   1      43.530  24.764  28.130  1.00  0.00     0.058 A 
ATOM     85  C   UNL A   1      44.262  25.009  26.958  1.00  0.00     0.135 A 
ATOM     86  C   UNL A   1      43.030  23.467  28.324  1.00  0.00     0.135 A 
ATOM     87  F   UNL A   1      44.749  26.236  26.715  1.00  0.00    -0.206 F 
ATOM     88  C   UNL A   1      44.476  24.014  26.009  1.00  0.00     0.059 A 
ATOM     89  C   UNL A   1      43.255  22.447  27.405  1.00  0.00     0.059 A 
ATOM     90  F   UNL A   1      42.326  23.177  29.430  1.00  0.00    -0.206 F 
ATOM     91  C   UNL A   1      43.971  22.734  26.244  1.00  0.00     0.060 A 
BRANCH  91  92
ATOM     92  S   UNL A   1      44.302  21.436  25.032  1.00  0.00     0.124 S 
ATOM     93  O   UNL A   1      43.270  20.459  25.356  1.00  0.00    -0.237 OA
ATOM     94  O   UNL A   1      44.136  22.149  23.770  1.00  0.00    -0.237 OA
ATOM     95  O   UNL A   1      45.672  21.032  25.337  1.00  0.00    -0.744 OA
ENDBRANCH  91  92
ENDBRANCH  59  84
BRANCH  71  96
ATOM     96  C   UNL A   1      47.235  27.272  33.487  1.00  0.00     0.058 A 
ATOM     97  C   UNL A   1      48.432  27.877  33.070  1.00  0.00     0.135 A 
ATOM     98  C   UNL A   1      47.312  26.313  34.511  1.00  0.00     0.135 A 
ATOM     99  F   UNL A   1      48.420  28.797  32.093  1.00  0.00    -0.206 F 
ATOM    100  C   UNL A   1      49.659  27.518  33.621  1.00  0.00     0.059 A 
ATOM    101  C   UNL A   1      48.524  25.964  35.099  1.00  0.00     0.059 A 
ATOM    102  F   UNL A   1      46.198  25.714  34.961  1.00  0.00    -0.206 F 
ATOM    103  C   UNL A   1      49.695  26.560  34.635  1.00  0.00     0.060 A 
BRANCH 103 104
ATOM    104  S   UNL A   1      51.293  26.113  35.348  1.00  0.00     0.124 S 
ATOM    105  O   UNL A   1      50.927  25.830  36.733  1.00  0.00    -0.237 OA
ATOM    106  O   UNL A   1      51.681  24.957  34.547  1.00  0.00    -0.237 OA
ATOM    107  O   UNL A   1      52.103  27.310  35.145  1.00  0.00    -0.744 OA
ENDBRANCH 103 104
ENDBRANCH  71  96
ENDBRANCH  45  46
ENDBRANCH  38  40
ENDBRANCH  37  38
ENDBRANCH  36  37
ENDBRANCH  35  36
ENDBRANCH  34  35
ENDBRANCH  33  34
ENDBRANCH   1  33
TORSDOF 25
ENDMDL
MODEL 2
REMARK VINA RESULT:      -9.8      1.828      3.003
REMARK SMILES CCN(C(=O)Cc1c(C(=O)OCCOCCOCCOC(=O)c2ccc(-c3c4nc(c(-c5c(F)cc(S(=O)(=O)[O-])cc5F)c5ccc([nH]5)c(-c5c(F)cc(S(=O)(=O)[O-])cc5F)c5nc(c(-c6c(F)cc(S(=O)(=O)[O-])cc6F)c6ccc3[nH]6)C=C5)C=C4)cc2)[nH]c2ccc(Cl)cc12)c1ccc(C)c(C)c1
REMARK SMILES IDX 15 1 14 2 13 3 12 4 11 5 9 6 10 7 8 8 7 9 96 10 89 11 90 12
REMARK SMILES IDX 95 13 91 15 93 16 92 17 94 18 6 19 4 20 5 21 3 22 2 23 1 24
REMARK SMILES IDX 97 25 98 26 104 27 99 28 102 29 100 30 103 31 101 32 16 33
REMARK SMILES IDX 17 34 18 35 19 36 20 37 21 38 22 39 23 40 24 41 88 42 25 43
REMARK SMILES IDX 87 44 26 45 27 46 28 47 81 48 29 49 86 50 80 51 82 52 30 53
REMARK SMILES IDX 85 54 79 55 78 56 31 58 65 59 44 60 64 61 45 62 48 63 63 64
REMARK SMILES IDX 83 65 46 66 47 67 62 69 84 70 49 71 32 72 33 73 42 74 34 75
REMARK SMILES IDX 35 76 41 77 43 78 36 79 37 80 38 81 39 82 40 83 66 84 67 85
REMARK SMILES IDX 76 86 68 87 69 88 75 89 77 90 70 91 71 92 72 93 73 94 74 95
REMARK SMILES IDX 50 96 51 97 60 98 52 99 53 100 59 101 61 102 54 103 55 104
REMARK SMILES IDX 56 105 57 106 58 107
REMARK H PARENT 89 14 82 57 48 68
REMARK Flexibility Score: inf
ROOT
ATOM      1  C   UNL A   1      33.547  27.105  25.310  1.00  0.00     0.188 C 
ENDROOT
BRANCH   1   2
ATOM      2  O   UNL A   1      34.374  27.936  24.519  1.00  0.00    -0.376 OA
BRANCH   2   3
ATOM      3  C   UNL A   1      33.892  28.616  23.378  1.00  0.00     0.202 C 
BRANCH   3   4
ATOM      4  C   UNL A   1      33.277  27.875  22.190  1.00  0.00     0.261 C 
BRANCH   4   5
ATOM      5  O   UNL A   1      33.855  26.605  21.892  1.00  0.00    -0.459 OA
BRANCH   5   6
ATOM      6  C   UNL A   1      32.987  25.646  21.497  1.00  0.00     0.355 C 
ATOM      7  O   UNL A   1      32.907  25.195  20.349  1.00  0.00    -0.244 OA
BRANCH   6   8
ATOM      8  C   UNL A   1      32.211  25.153  22.607  1.00  0.00     0.129 A 
ATOM      9  C   UNL A   1      32.174  23.914  23.250  1.00  0.00     0.002 A 
ATOM     10  C   UNL A   1      31.229  24.028  24.328  1.00  0.00     0.005 A 
ATOM     11  N   UNL A   1      31.353  25.987  23.286  1.00  0.00    -0.349 N 
ATOM     12  C   UNL A   1      30.745  25.334  24.326  1.00  0.00     0.046 A 
ATOM     13  C   UNL A   1      30.777  23.146  25.332  1.00  0.00     0.031 A 
ATOM     14  H   UNL A   1      31.196  26.931  23.055  1.00  0.00     0.167 HD
ATOM     15  C   UNL A   1      29.831  25.813  25.271  1.00  0.00     0.028 A 
ATOM     16  C   UNL A   1      29.872  23.614  26.290  1.00  0.00     0.041 A 
ATOM     17  C   UNL A   1      29.405  24.925  26.263  1.00  0.00     0.022 A 
ATOM     18  Cl  UNL A   1      29.339  22.552  27.539  1.00  0.00    -0.084 Cl
BRANCH   9  19
ATOM     19  C   UNL A   1      33.002  22.695  22.959  1.00  0.00     0.139 C 
BRANCH  19  20
ATOM     20  C   UNL A   1      34.468  22.872  23.362  1.00  0.00     0.231 C 
ATOM     21  O   UNL A   1      35.233  23.414  22.555  1.00  0.00    -0.274 OA
BRANCH  20  22
ATOM     22  N   UNL A   1      34.881  22.400  24.616  1.00  0.00    -0.312 N 
BRANCH  22  23
ATOM     23  C   UNL A   1      33.993  21.805  25.636  1.00  0.00     0.122 C 
ATOM     24  C   UNL A   1      33.714  20.311  25.488  1.00  0.00     0.028 C 
ENDBRANCH  22  23
BRANCH  22  25
ATOM     25  C   UNL A   1      36.200  22.675  25.079  1.00  0.00     0.044 A 
ATOM     26  C   UNL A   1      36.519  23.891  25.674  1.00  0.00     0.026 A 
ATOM     27  C   UNL A   1      37.157  21.659  25.054  1.00  0.00     0.030 A 
ATOM     28  C   UNL A   1      37.757  24.047  26.300  1.00  0.00     0.006 A 
ATOM     29  C   UNL A   1      38.385  21.780  25.711  1.00  0.00    -0.046 A 
ATOM     30  C   UNL A   1      38.689  22.992  26.348  1.00  0.00    -0.048 A 
ATOM     31  C   UNL A   1      39.303  20.591  25.706  1.00  0.00     0.044 C 
ATOM     32  C   UNL A   1      39.988  23.226  27.062  1.00  0.00     0.044 C 
ENDBRANCH  22  25
ENDBRANCH  20  22
ENDBRANCH  19  20
ENDBRANCH   9  19
ENDBRANCH   6   8
ENDBRANCH   5   6
ENDBRANCH   4   5
ENDBRANCH   3   4
ENDBRANCH   2   3
ENDBRANCH   1   2
BRANCH   1  33
ATOM     33  C   UNL A   1      32.614  27.680  26.398  1.00  0.00     0.188 C 
BRANCH  33  34
ATOM     34  O   UNL A   1      31.725  28.714  26.056  1.00  0.00    -0.376 OA
BRANCH  34  35
ATOM     35  C   UNL A   1      32.093  30.066  26.258  1.00  0.00     0.202 C 
BRANCH  35  36
ATOM     36  C   UNL A   1      33.499  30.567  26.641  1.00  0.00     0.261 C 
BRANCH  36  37
ATOM     37  O   UNL A   1      33.678  31.179  27.924  1.00  0.00    -0.460 OA
BRANCH  37  38
ATOM     38  C   UNL A   1      34.564  32.209  27.967  1.00  0.00     0.338 C 
ATOM     39  O   UNL A   1      34.302  33.398  27.904  1.00  0.00    -0.246 OA
BRANCH  38  40
ATOM     40  C   UNL A   1      35.905  31.692  28.329  1.00  0.00     0.060 A 
ATOM     41  C   UNL A   1      36.091  30.304  28.388  1.00  0.00     0.016 A 
ATOM     42  C   UNL A   1      36.962  32.556  28.625  1.00  0.00     0.016 A 
ATOM     43  C   UNL A   1      37.319  29.774  28.785  1.00  0.00     0.010 A 
ATOM     44  C   UNL A   1      38.187  32.022  29.046  1.00  0.00     0.010 A 
ATOM     45  C   UNL A   1      38.361  30.630  29.167  1.00  0.00    -0.014 A 
BRANCH  45  46
ATOM     46  C   UNL A   1      39.533  30.070  29.891  1.00  0.00     0.031 A 
ATOM     47  C   UNL A   1      39.845  30.606  31.266  1.00  0.00     0.074 A 
ATOM     48  C   UNL A   1      40.284  29.082  29.371  1.00  0.00     0.049 A 
ATOM     49  N   UNL A   1      40.806  30.277  32.089  1.00  0.00    -0.248 NA
ATOM     50  C   UNL A   1      38.947  31.655  31.779  1.00  0.00     0.031 C 
ATOM     51  C   UNL A   1      40.077  28.455  28.068  1.00  0.00     0.029 A 
ATOM     52  N   UNL A   1      41.383  28.434  29.885  1.00  0.00    -0.354 N 
ATOM     53  C   UNL A   1      40.633  31.078  33.213  1.00  0.00     0.074 A 
ATOM     54  C   UNL A   1      39.497  31.934  32.951  1.00  0.00     0.031 C 
ATOM     55  C   UNL A   1      41.025  27.517  27.880  1.00  0.00     0.029 A 
ATOM     56  C   UNL A   1      41.920  27.496  29.036  1.00  0.00     0.049 A 
ATOM     57  H   UNL A   1      41.752  28.625  30.778  1.00  0.00     0.167 HD
ATOM     58  C   UNL A   1      41.347  31.094  34.364  1.00  0.00     0.037 A 
ATOM     59  C   UNL A   1      43.019  26.722  29.169  1.00  0.00     0.037 A 
ATOM     60  C   UNL A   1      42.479  30.245  34.627  1.00  0.00     0.049 A 
ATOM     61  C   UNL A   1      43.836  26.802  30.436  1.00  0.00     0.074 A 
ATOM     62  C   UNL A   1      43.251  30.171  35.774  1.00  0.00     0.029 A 
ATOM     63  N   UNL A   1      43.010  29.330  33.730  1.00  0.00    -0.354 N 
ATOM     64  N   UNL A   1      43.637  27.537  31.504  1.00  0.00    -0.248 NA
ATOM     65  C   UNL A   1      45.025  25.940  30.516  1.00  0.00     0.031 C 
ATOM     66  C   UNL A   1      44.282  29.253  35.549  1.00  0.00     0.029 A 
ATOM     67  C   UNL A   1      44.116  28.709  34.286  1.00  0.00     0.049 A 
ATOM     68  H   UNL A   1      42.653  29.149  32.831  1.00  0.00     0.167 HD
ATOM     69  C   UNL A   1      44.660  27.207  32.392  1.00  0.00     0.074 A 
ATOM     70  C   UNL A   1      45.464  26.193  31.741  1.00  0.00     0.031 C 
ATOM     71  C   UNL A   1      44.912  27.699  33.631  1.00  0.00     0.037 A 
BRANCH  58  72
ATOM     72  C   UNL A   1      40.937  32.083  35.422  1.00  0.00     0.058 A 
ATOM     73  C   UNL A   1      39.902  31.809  36.331  1.00  0.00     0.135 A 
ATOM     74  C   UNL A   1      41.611  33.308  35.549  1.00  0.00     0.135 A 
ATOM     75  F   UNL A   1      39.211  30.662  36.243  1.00  0.00    -0.206 F 
ATOM     76  C   UNL A   1      39.534  32.726  37.311  1.00  0.00     0.059 A 
ATOM     77  C   UNL A   1      41.280  34.227  36.540  1.00  0.00     0.059 A 
ATOM     78  F   UNL A   1      42.606  33.622  34.704  1.00  0.00    -0.206 F 
ATOM     79  C   UNL A   1      40.230  33.932  37.408  1.00  0.00     0.060 A 
BRANCH  79  80
ATOM     80  S   UNL A   1      39.747  35.106  38.690  1.00  0.00     0.124 S 
ATOM     81  O   UNL A   1      40.858  34.987  39.628  1.00  0.00    -0.237 OA
ATOM     82  O   UNL A   1      39.675  36.362  37.950  1.00  0.00    -0.237 OA
ATOM     83  O   UNL A   1      38.468  34.588  39.165  1.00  0.00    -0.744 OA
ENDBRANCH  79  80
ENDBRANCH  58  72
BRANCH  59  84
ATOM     84  C   UNL A   1      43.426  25.804  28.068  1.00  0.00     0.058 A 
ATOM     85  C   UNL A   1      43.126  24.435  28.112  1.00  0.00     0.135 A 
ATOM     86  C   UNL A   1      44.142  26.277  26.958  1.00  0.00     0.135 A 
ATOM     87  F   UNL A   1      42.457  23.928  29.160  1.00  0.00    -0.206 F 
ATOM     88  C   UNL A   1      43.532  23.565  27.105  1.00  0.00     0.059 A 
ATOM     89  C   UNL A   1      44.535  25.433  25.923  1.00  0.00     0.059 A 
ATOM     90  F   UNL A   1      44.453  27.580  26.863  1.00  0.00    -0.206 F 
ATOM     91  C   UNL A   1      44.234  24.075  26.012  1.00  0.00     0.060 A 
BRANCH  91  92
ATOM     92  S   UNL A   1      44.709  22.947  24.683  1.00  0.00     0.124 S 
ATOM     93  O   UNL A   1      45.229  21.811  25.433  1.00  0.00    -0.237 OA
ATOM     94  O   UNL A   1      43.438  22.734  23.997  1.00  0.00    -0.237 OA
ATOM     95  O   UNL A   1      45.697  23.713  23.929  1.00  0.00    -0.744 OA
ENDBRANCH  91  92
ENDBRANCH  59  84
BRANCH  71  96
ATOM     96  C   UNL A   1      46.085  27.128  34.384  1.00  0.00     0.058 A 
ATOM     97  C   UNL A   1      45.961  25.990  35.198  1.00  0.00     0.135 A 
ATOM     98  C   UNL A   1      47.361  27.703  34.258  1.00  0.00     0.135 A 
ATOM     99  F   UNL A   1      44.766  25.401  35.358  1.00  0.00    -0.206 F 
ATOM    100  C   UNL A   1      47.051  25.466  35.888  1.00  0.00     0.059 A 
ATOM    101  C   UNL A   1      48.471  27.176  34.913  1.00  0.00     0.059 A 
ATOM    102  F   UNL A   1      47.543  28.783  33.481  1.00  0.00    -0.206 F 
ATOM    103  C   UNL A   1      48.302  26.067  35.740  1.00  0.00     0.060 A 
BRANCH 103 104
ATOM    104  S   UNL A   1      49.709  25.369  36.631  1.00  0.00     0.124 S 
ATOM    105  O   UNL A   1      50.423  26.574  37.042  1.00  0.00    -0.237 OA
ATOM    106  O   UNL A   1      49.060  24.620  37.703  1.00  0.00    -0.237 OA
ATOM    107  O   UNL A   1      50.381  24.554  35.623  1.00  0.00    -0.744 OA
ENDBRANCH 103 104
ENDBRANCH  71  96
ENDBRANCH  45  46
ENDBRANCH  38  40
ENDBRANCH  37  38
ENDBRANCH  36  37
ENDBRANCH  35  36
ENDBRANCH  34  35
ENDBRANCH  33  34
ENDBRANCH   1  33
TORSDOF 25
ENDMDL
MODEL 3
REMARK VINA RESULT:      -9.5      4.629      7.673
REMARK SMILES CCN(C(=O)Cc1c(C(=O)OCCOCCOCCOC(=O)c2ccc(-c3c4nc(c(-c5c(F)cc(S(=O)(=O)[O-])cc5F)c5ccc([nH]5)c(-c5c(F)cc(S(=O)(=O)[O-])cc5F)c5nc(c(-c6c(F)cc(S(=O)(=O)[O-])cc6F)c6ccc3[nH]6)C=C5)C=C4)cc2)[nH]c2ccc(Cl)cc12)c1ccc(C)c(C)c1
REMARK SMILES IDX 15 1 14 2 13 3 12 4 11 5 9 6 10 7 8 8 7 9 96 10 89 11 90 12
REMARK SMILES IDX 95 13 91 15 93 16 92 17 94 18 6 19 4 20 5 21 3 22 2 23 1 24
REMARK SMILES IDX 97 25 98 26 104 27 99 28 102 29 100 30 103 31 101 32 16 33
REMARK SMILES IDX 17 34 18 35 19 36 20 37 21 38 22 39 23 40 24 41 88 42 25 43
REMARK SMILES IDX 87 44 26 45 27 46 28 47 81 48 29 49 86 50 80 51 82 52 30 53
REMARK SMILES IDX 85 54 79 55 78 56 31 58 65 59 44 60 64 61 45 62 48 63 63 64
REMARK SMILES IDX 83 65 46 66 47 67 62 69 84 70 49 71 32 72 33 73 42 74 34 75
REMARK SMILES IDX 35 76 41 77 43 78 36 79 37 80 38 81 39 82 40 83 66 84 67 85
REMARK SMILES IDX 76 86 68 87 69 88 75 89 77 90 70 91 71 92 72 93 73 94 74 95
REMARK SMILES IDX 50 96 51 97 60 98 52 99 53 100 59 101 61 102 54 103 55 104
REMARK SMILES IDX 56 105 57 106 58 107
REMARK H PARENT 89 14 82 57 48 68
REMARK Flexibility Score: inf
ROOT
ATOM      1  C   UNL A   1      35.228  22.948  23.299  1.00  0.00     0.188 C 
ENDROOT
BRANCH   1   2
ATOM      2  O   UNL A   1      34.670  24.194  22.929  1.00  0.00    -0.376 OA
BRANCH   2   3
ATOM      3  C   UNL A   1      33.800  24.334  21.823  1.00  0.00     0.202 C 
BRANCH   3   4
ATOM      4  C   UNL A   1      32.534  25.189  21.888  1.00  0.00     0.261 C 
BRANCH   4   5
ATOM      5  O   UNL A   1      31.826  25.144  23.126  1.00  0.00    -0.459 OA
BRANCH   5   6
ATOM      6  C   UNL A   1      30.812  24.250  23.186  1.00  0.00     0.355 C 
ATOM      7  O   UNL A   1      29.635  24.495  22.897  1.00  0.00    -0.244 OA
BRANCH   6   8
ATOM      8  C   UNL A   1      31.290  22.943  23.559  1.00  0.00     0.129 A 
ATOM      9  C   UNL A   1      31.363  22.285  24.789  1.00  0.00     0.002 A 
ATOM     10  C   UNL A   1      31.893  20.974  24.532  1.00  0.00     0.005 A 
ATOM     11  N   UNL A   1      31.726  22.057  22.600  1.00  0.00    -0.349 N 
ATOM     12  C   UNL A   1      32.098  20.863  23.159  1.00  0.00     0.046 A 
ATOM     13  C   UNL A   1      32.176  19.855  25.345  1.00  0.00     0.031 A 
ATOM     14  H   UNL A   1      31.764  22.255  21.636  1.00  0.00     0.167 HD
ATOM     15  C   UNL A   1      32.572  19.698  22.547  1.00  0.00     0.028 A 
ATOM     16  C   UNL A   1      32.639  18.679  24.745  1.00  0.00     0.041 A 
ATOM     17  C   UNL A   1      32.835  18.599  23.369  1.00  0.00     0.022 A 
ATOM     18  Cl  UNL A   1      32.955  17.298  25.727  1.00  0.00    -0.084 Cl
BRANCH   9  19
ATOM     19  C   UNL A   1      30.910  22.781  26.132  1.00  0.00     0.139 C 
BRANCH  19  20
ATOM     20  C   UNL A   1      32.080  23.186  27.033  1.00  0.00     0.231 C 
ATOM     21  O   UNL A   1      32.130  22.708  28.173  1.00  0.00    -0.274 OA
BRANCH  20  22
ATOM     22  N   UNL A   1      33.028  24.090  26.534  1.00  0.00    -0.312 N 
BRANCH  22  23
ATOM     23  C   UNL A   1      34.487  23.858  26.497  1.00  0.00     0.122 C 
ATOM     24  C   UNL A   1      34.950  22.453  26.876  1.00  0.00     0.028 C 
ENDBRANCH  22  23
BRANCH  22  25
ATOM     25  C   UNL A   1      32.641  25.424  26.218  1.00  0.00     0.044 A 
ATOM     26  C   UNL A   1      31.428  25.948  26.654  1.00  0.00     0.026 A 
ATOM     27  C   UNL A   1      33.550  26.263  25.572  1.00  0.00     0.030 A 
ATOM     28  C   UNL A   1      31.175  27.313  26.506  1.00  0.00     0.006 A 
ATOM     29  C   UNL A   1      33.334  27.639  25.452  1.00  0.00    -0.046 A 
ATOM     30  C   UNL A   1      32.129  28.174  25.930  1.00  0.00    -0.048 A 
ATOM     31  C   UNL A   1      34.421  28.468  24.827  1.00  0.00     0.044 C 
ATOM     32  C   UNL A   1      31.796  29.634  25.830  1.00  0.00     0.044 C 
ENDBRANCH  22  25
ENDBRANCH  20  22
ENDBRANCH  19  20
ENDBRANCH   9  19
ENDBRANCH   6   8
ENDBRANCH   5   6
ENDBRANCH   4   5
ENDBRANCH   3   4
ENDBRANCH   2   3
ENDBRANCH   1   2
BRANCH   1  33
ATOM     33  C   UNL A   1      36.755  22.730  23.377  1.00  0.00     0.188 C 
BRANCH  33  34
ATOM     34  O   UNL A   1      37.418  22.975  24.592  1.00  0.00    -0.376 OA
BRANCH  34  35
ATOM     35  C   UNL A   1      37.679  21.911  25.488  1.00  0.00     0.202 C 
BRANCH  35  36
ATOM     36  C   UNL A   1      38.738  20.808  25.291  1.00  0.00     0.261 C 
BRANCH  36  37
ATOM     37  O   UNL A   1      39.480  20.365  26.432  1.00  0.00    -0.460 OA
BRANCH  37  38
ATOM     38  C   UNL A   1      40.749  19.945  26.183  1.00  0.00     0.338 C 
ATOM     39  O   UNL A   1      41.081  18.882  25.690  1.00  0.00    -0.246 OA
BRANCH  38  40
ATOM     40  C   UNL A   1      41.692  21.069  26.399  1.00  0.00     0.060 A 
ATOM     41  C   UNL A   1      41.880  21.540  27.706  1.00  0.00     0.016 A 
ATOM     42  C   UNL A   1      42.368  21.665  25.333  1.00  0.00     0.016 A 
ATOM     43  C   UNL A   1      42.709  22.636  27.947  1.00  0.00     0.010 A 
ATOM     44  C   UNL A   1      43.182  22.780  25.573  1.00  0.00     0.010 A 
ATOM     45  C   UNL A   1      43.326  23.297  26.875  1.00  0.00    -0.014 A 
BRANCH  45  46
ATOM     46  C   UNL A   1      43.930  24.637  27.098  1.00  0.00     0.031 A 
ATOM     47  C   UNL A   1      43.029  25.761  27.544  1.00  0.00     0.074 A 
ATOM     48  C   UNL A   1      45.250  24.855  26.955  1.00  0.00     0.049 A 
ATOM     49  N   UNL A   1      43.320  27.009  27.804  1.00  0.00    -0.248 NA
ATOM     50  C   UNL A   1      41.605  25.428  27.720  1.00  0.00     0.031 C 
ATOM     51  C   UNL A   1      46.237  23.853  26.559  1.00  0.00     0.029 A 
ATOM     52  N   UNL A   1      45.988  26.003  27.127  1.00  0.00    -0.354 N 
ATOM     53  C   UNL A   1      42.120  27.610  28.169  1.00  0.00     0.074 A 
ATOM     54  C   UNL A   1      41.092  26.599  28.062  1.00  0.00     0.031 C 
ATOM     55  C   UNL A   1      47.451  24.432  26.508  1.00  0.00     0.029 A 
ATOM     56  C   UNL A   1      47.324  25.851  26.843  1.00  0.00     0.049 A 
ATOM     57  H   UNL A   1      45.595  26.855  27.425  1.00  0.00     0.167 HD
ATOM     58  C   UNL A   1      41.894  28.885  28.567  1.00  0.00     0.037 A 
ATOM     59  C   UNL A   1      48.326  26.755  26.836  1.00  0.00     0.037 A 
ATOM     60  C   UNL A   1      42.916  29.893  28.673  1.00  0.00     0.049 A 
ATOM     61  C   UNL A   1      48.039  28.186  27.224  1.00  0.00     0.074 A 
ATOM     62  C   UNL A   1      42.788  31.207  29.093  1.00  0.00     0.029 A 
ATOM     63  N   UNL A   1      44.251  29.708  28.348  1.00  0.00    -0.354 N 
ATOM     64  N   UNL A   1      46.907  28.730  27.604  1.00  0.00    -0.248 NA
ATOM     65  C   UNL A   1      49.170  29.125  27.189  1.00  0.00     0.031 C 
ATOM     66  C   UNL A   1      44.034  31.830  28.967  1.00  0.00     0.029 A 
ATOM     67  C   UNL A   1      44.952  30.889  28.528  1.00  0.00     0.049 A 
ATOM     68  H   UNL A   1      44.643  28.861  28.035  1.00  0.00     0.167 HD
ATOM     69  C   UNL A   1      47.196  30.066  27.876  1.00  0.00     0.074 A 
ATOM     70  C   UNL A   1      48.613  30.242  27.636  1.00  0.00     0.031 C 
ATOM     71  C   UNL A   1      46.364  31.056  28.287  1.00  0.00     0.037 A 
BRANCH  58  72
ATOM     72  C   UNL A   1      40.477  29.269  28.898  1.00  0.00     0.058 A 
ATOM     73  C   UNL A   1      40.049  29.452  30.223  1.00  0.00     0.135 A 
ATOM     74  C   UNL A   1      39.543  29.488  27.873  1.00  0.00     0.135 A 
ATOM     75  F   UNL A   1      40.894  29.236  31.243  1.00  0.00    -0.206 F 
ATOM     76  C   UNL A   1      38.738  29.814  30.519  1.00  0.00     0.059 A 
ATOM     77  C   UNL A   1      38.236  29.880  28.145  1.00  0.00     0.059 A 
ATOM     78  F   UNL A   1      39.899  29.324  26.589  1.00  0.00    -0.206 F 
ATOM     79  C   UNL A   1      37.840  30.026  29.473  1.00  0.00     0.060 A 
BRANCH  79  80
ATOM     80  S   UNL A   1      36.146  30.504  29.874  1.00  0.00     0.124 S 
ATOM     81  O   UNL A   1      36.005  29.970  31.225  1.00  0.00    -0.237 OA
ATOM     82  O   UNL A   1      36.201  31.959  29.770  1.00  0.00    -0.237 OA
ATOM     83  O   UNL A   1      35.350  29.835  28.850  1.00  0.00    -0.744 OA
ENDBRANCH  79  80
ENDBRANCH  58  72
BRANCH  59  84
ATOM     84  C   UNL A   1      49.702  26.346  26.438  1.00  0.00     0.058 A 
ATOM     85  C   UNL A   1      50.629  25.887  27.386  1.00  0.00     0.135 A 
ATOM     86  C   UNL A   1      50.124  26.425  25.102  1.00  0.00     0.135 A 
ATOM     87  F   UNL A   1      50.282  25.808  28.680  1.00  0.00    -0.206 F 
ATOM     88  C   UNL A   1      51.927  25.535  27.028  1.00  0.00     0.059 A 
ATOM     89  C   UNL A   1      51.407  26.052  24.714  1.00  0.00     0.059 A 
ATOM     90  F   UNL A   1      49.277  26.855  24.154  1.00  0.00    -0.206 F 
ATOM     91  C   UNL A   1      52.306  25.618  25.687  1.00  0.00     0.060 A 
BRANCH  91  92
ATOM     92  S   UNL A   1      53.976  25.107  25.225  1.00  0.00     0.124 S 
ATOM     93  O   UNL A   1      54.714  25.365  26.456  1.00  0.00    -0.237 OA
ATOM     94  O   UNL A   1      53.778  23.703  24.879  1.00  0.00    -0.237 OA
ATOM     95  O   UNL A   1      54.295  25.982  24.101  1.00  0.00    -0.744 OA
ENDBRANCH  91  92
ENDBRANCH  59  84
BRANCH  71  96
ATOM     96  C   UNL A   1      46.965  32.415  28.535  1.00  0.00     0.058 A 
ATOM     97  C   UNL A   1      47.508  32.769  29.781  1.00  0.00     0.135 A 
ATOM     98  C   UNL A   1      47.037  33.363  27.500  1.00  0.00     0.135 A 
ATOM     99  F   UNL A   1      47.465  31.904  30.807  1.00  0.00    -0.206 F 
ATOM    100  C   UNL A   1      48.066  34.025  30.002  1.00  0.00     0.059 A 
ATOM    101  C   UNL A   1      47.620  34.613  27.690  1.00  0.00     0.059 A 
ATOM    102  F   UNL A   1      46.549  33.075  26.283  1.00  0.00    -0.206 F 
ATOM    103  C   UNL A   1      48.116  34.941  28.950  1.00  0.00     0.060 A 
BRANCH 103 104
ATOM    104  S   UNL A   1      48.853  36.563  29.248  1.00  0.00     0.124 S 
ATOM    105  O   UNL A   1      47.954  37.436  28.500  1.00  0.00    -0.237 OA
ATOM    106  O   UNL A   1      48.782  36.676  30.701  1.00  0.00    -0.237 OA
ATOM    107  O   UNL A   1      50.200  36.431  28.700  1.00  0.00    -0.744 OA
ENDBRANCH 103 104
ENDBRANCH  71  96
ENDBRANCH  45  46
ENDBRANCH  38  40
ENDBRANCH  37  38
ENDBRANCH  36  37
ENDBRANCH  35  36
ENDBRANCH  34  35
ENDBRANCH  33  34
ENDBRANCH   1  33
TORSDOF 25
ENDMDL
