MODEL 1
REMARK VINA RESULT:     -10.8      0.000      0.000
REMARK SMILES CCc1c(C(=O)OCCOCCOCCOC(=O)c2ccc(-c3c4nc(c(-c5c(F)cc(S(=O)(=O)[O-])cc5F)c5ccc([nH]5)c(-c5c(F)cc(S(=O)(=O)[O-])cc5F)c5nc(c(-c6c(F)cc(S(=O)(=O)[O-])cc6F)c6ccc3[nH]6)C=C5)C=C4)cc2)nnn1-c1ccc(OC)cc1
REMARK SMILES IDX 12 1 11 2 10 3 9 4 8 5 7 6 5 7 6 8 4 9 3 10 87 11 85 12
REMARK SMILES IDX 86 13 2 14 1 15 88 16 89 17 95 18 90 19 94 20 91 21 92 22
REMARK SMILES IDX 93 23 13 24 14 25 15 26 16 27 17 28 18 29 19 30 20 31 84 32
REMARK SMILES IDX 21 33 83 34 22 35 23 36 24 37 77 38 25 39 82 40 76 41 78 42
REMARK SMILES IDX 26 43 81 44 75 45 74 46 27 48 61 49 40 50 60 51 41 52 44 53
REMARK SMILES IDX 59 54 79 55 42 56 43 57 58 59 80 60 45 61 28 62 29 63 38 64
REMARK SMILES IDX 30 65 31 66 37 67 39 68 32 69 33 70 34 71 35 72 36 73 62 74
REMARK SMILES IDX 63 75 72 76 64 77 65 78 71 79 73 80 66 81 67 82 68 83 69 84
REMARK SMILES IDX 70 85 46 86 47 87 56 88 48 89 49 90 55 91 57 92 50 93 51 94
REMARK SMILES IDX 52 95 53 96 54 97
REMARK H PARENT 78 47 44 58
REMARK Flexibility Score: inf
ROOT
ATOM      1  C   UNL A   1      39.589  22.163  26.488  1.00  0.00     0.188 C 
ENDROOT
BRANCH   1   2
ATOM      2  C   UNL A   1      38.446  21.775  25.527  1.00  0.00     0.188 C 
BRANCH   2   3
ATOM      3  O   UNL A   1      37.147  22.321  25.714  1.00  0.00    -0.376 OA
BRANCH   3   4
ATOM      4  C   UNL A   1      36.002  21.475  25.690  1.00  0.00     0.202 C 
BRANCH   4   5
ATOM      5  C   UNL A   1      34.824  21.692  26.663  1.00  0.00     0.261 C 
BRANCH   5   6
ATOM      6  O   UNL A   1      34.150  22.958  26.560  1.00  0.00    -0.458 OA
BRANCH   6   7
ATOM      7  C   UNL A   1      32.895  22.933  26.024  1.00  0.00     0.360 C 
ATOM      8  O   UNL A   1      32.296  21.913  25.721  1.00  0.00    -0.244 OA
BRANCH   7   9
ATOM      9  C   UNL A   1      32.281  24.255  25.956  1.00  0.00     0.194 A 
ATOM     10  C   UNL A   1      32.507  25.321  25.096  1.00  0.00     0.079 A 
ATOM     11  N   UNL A   1      31.547  26.250  25.485  1.00  0.00    -0.217 N 
ATOM     12  N   UNL A   1      31.368  24.642  26.911  1.00  0.00    -0.122 NA
ATOM     13  N   UNL A   1      31.034  25.903  26.685  1.00  0.00    -0.061 NA
BRANCH  10  14
ATOM     14  C   UNL A   1      33.506  25.553  24.011  1.00  0.00     0.055 C 
ATOM     15  C   UNL A   1      33.048  25.004  22.668  1.00  0.00     0.011 C 
ENDBRANCH  10  14
BRANCH  11  16
ATOM     16  C   UNL A   1      30.961  27.298  24.743  1.00  0.00     0.067 A 
ATOM     17  C   UNL A   1      31.298  28.629  25.003  1.00  0.00     0.032 A 
ATOM     18  C   UNL A   1      29.964  26.998  23.808  1.00  0.00     0.032 A 
ATOM     19  C   UNL A   1      30.688  29.646  24.260  1.00  0.00     0.048 A 
ATOM     20  C   UNL A   1      29.338  28.021  23.095  1.00  0.00     0.048 A 
ATOM     21  C   UNL A   1      29.714  29.348  23.301  1.00  0.00     0.119 A 
BRANCH  21  22
ATOM     22  O   UNL A   1      29.194  30.428  22.641  1.00  0.00    -0.497 OA
ATOM     23  C   UNL A   1      28.762  31.516  23.451  1.00  0.00     0.278 C 
ENDBRANCH  21  22
ENDBRANCH  11  16
ENDBRANCH   7   9
ENDBRANCH   6   7
ENDBRANCH   5   6
ENDBRANCH   4   5
ENDBRANCH   3   4
ENDBRANCH   2   3
ENDBRANCH   1   2
BRANCH   1  24
ATOM     24  O   UNL A   1      40.061  21.088  27.275  1.00  0.00    -0.376 OA
BRANCH  24  25
ATOM     25  C   UNL A   1      41.442  20.826  27.455  1.00  0.00     0.202 C 
BRANCH  25  26
ATOM     26  C   UNL A   1      42.208  19.832  26.587  1.00  0.00     0.261 C 
BRANCH  26  27
ATOM     27  O   UNL A   1      42.576  20.308  25.313  1.00  0.00    -0.460 OA
BRANCH  27  28
ATOM     28  C   UNL A   1      43.911  20.392  25.132  1.00  0.00     0.338 C 
ATOM     29  O   UNL A   1      44.696  19.473  25.018  1.00  0.00    -0.246 OA
BRANCH  28  30
ATOM     30  C   UNL A   1      44.275  21.806  25.195  1.00  0.00     0.060 A 
ATOM     31  C   UNL A   1      45.282  22.149  26.097  1.00  0.00     0.016 A 
ATOM     32  C   UNL A   1      43.362  22.735  24.675  1.00  0.00     0.016 A 
ATOM     33  C   UNL A   1      45.207  23.385  26.687  1.00  0.00     0.010 A 
ATOM     34  C   UNL A   1      43.265  23.949  25.294  1.00  0.00     0.010 A 
ATOM     35  C   UNL A   1      44.130  24.211  26.352  1.00  0.00    -0.014 A 
BRANCH  35  36
ATOM     36  C   UNL A   1      43.946  25.419  27.115  1.00  0.00     0.031 A 
ATOM     37  C   UNL A   1      45.029  26.392  26.884  1.00  0.00     0.074 A 
ATOM     38  C   UNL A   1      42.831  25.631  27.835  1.00  0.00     0.049 A 
ATOM     39  N   UNL A   1      45.955  26.753  27.705  1.00  0.00    -0.248 NA
ATOM     40  C   UNL A   1      45.234  26.854  25.500  1.00  0.00     0.031 C 
ATOM     41  C   UNL A   1      41.600  24.833  27.844  1.00  0.00     0.029 A 
ATOM     42  N   UNL A   1      42.516  26.685  28.627  1.00  0.00    -0.354 N 
ATOM     43  C   UNL A   1      46.693  27.700  27.009  1.00  0.00     0.074 A 
ATOM     44  C   UNL A   1      46.379  27.522  25.618  1.00  0.00     0.031 C 
ATOM     45  C   UNL A   1      40.609  25.558  28.410  1.00  0.00     0.029 A 
ATOM     46  C   UNL A   1      41.161  26.812  28.899  1.00  0.00     0.049 A 
ATOM     47  H   UNL A   1      43.192  27.309  28.980  1.00  0.00     0.167 HD
ATOM     48  C   UNL A   1      47.231  28.770  27.653  1.00  0.00     0.037 A 
ATOM     49  C   UNL A   1      40.548  27.919  29.393  1.00  0.00     0.037 A 
ATOM     50  C   UNL A   1      47.335  28.525  29.071  1.00  0.00     0.049 A 
ATOM     51  C   UNL A   1      41.609  28.767  30.007  1.00  0.00     0.074 A 
ATOM     52  C   UNL A   1      47.936  27.547  29.842  1.00  0.00     0.029 A 
ATOM     53  N   UNL A   1      46.431  29.152  29.895  1.00  0.00    -0.354 N 
ATOM     54  N   UNL A   1      42.285  28.437  31.074  1.00  0.00    -0.248 NA
ATOM     55  C   UNL A   1      42.235  29.783  29.171  1.00  0.00     0.031 C 
ATOM     56  C   UNL A   1      47.050  27.337  30.938  1.00  0.00     0.029 A 
ATOM     57  C   UNL A   1      45.988  28.233  30.811  1.00  0.00     0.049 A 
ATOM     58  H   UNL A   1      46.152  30.094  29.837  1.00  0.00     0.167 HD
ATOM     59  C   UNL A   1      43.581  28.871  30.828  1.00  0.00     0.074 A 
ATOM     60  C   UNL A   1      43.466  29.778  29.689  1.00  0.00     0.031 C 
ATOM     61  C   UNL A   1      44.656  28.234  31.380  1.00  0.00     0.037 A 
BRANCH  48  62
ATOM     62  C   UNL A   1      47.252  30.159  27.059  1.00  0.00     0.058 A 
ATOM     63  C   UNL A   1      48.452  30.894  27.095  1.00  0.00     0.135 A 
ATOM     64  C   UNL A   1      46.095  30.902  26.718  1.00  0.00     0.135 A 
ATOM     65  F   UNL A   1      49.609  30.294  27.417  1.00  0.00    -0.206 F 
ATOM     66  C   UNL A   1      48.486  32.273  26.893  1.00  0.00     0.059 A 
ATOM     67  C   UNL A   1      46.117  32.261  26.450  1.00  0.00     0.059 A 
ATOM     68  F   UNL A   1      44.864  30.377  26.726  1.00  0.00    -0.206 F 
ATOM     69  C   UNL A   1      47.308  32.948  26.588  1.00  0.00     0.060 A 
BRANCH  69  70
ATOM     70  S   UNL A   1      47.321  34.741  26.442  1.00  0.00     0.124 S 
ATOM     71  O   UNL A   1      46.014  35.081  26.993  1.00  0.00    -0.237 OA
ATOM     72  O   UNL A   1      48.475  35.101  27.257  1.00  0.00    -0.237 OA
ATOM     73  O   UNL A   1      47.480  34.959  25.007  1.00  0.00    -0.744 OA
ENDBRANCH  69  70
ENDBRANCH  48  62
BRANCH  49  74
ATOM     74  C   UNL A   1      39.197  28.447  29.053  1.00  0.00     0.058 A 
ATOM     75  C   UNL A   1      38.184  28.522  30.027  1.00  0.00     0.135 A 
ATOM     76  C   UNL A   1      38.950  29.143  27.851  1.00  0.00     0.135 A 
ATOM     77  F   UNL A   1      38.340  27.908  31.209  1.00  0.00    -0.206 F 
ATOM     78  C   UNL A   1      37.022  29.280  29.841  1.00  0.00     0.059 A 
ATOM     79  C   UNL A   1      37.793  29.891  27.637  1.00  0.00     0.059 A 
ATOM     80  F   UNL A   1      39.866  29.198  26.875  1.00  0.00    -0.206 F 
ATOM     81  C   UNL A   1      36.845  29.979  28.648  1.00  0.00     0.060 A 
BRANCH  81  82
ATOM     82  S   UNL A   1      35.438  31.100  28.470  1.00  0.00     0.124 S 
ATOM     83  O   UNL A   1      35.991  32.146  27.617  1.00  0.00    -0.237 OA
ATOM     84  O   UNL A   1      34.433  30.240  27.855  1.00  0.00    -0.237 OA
ATOM     85  O   UNL A   1      35.150  31.504  29.844  1.00  0.00    -0.744 OA
ENDBRANCH  81  82
ENDBRANCH  49  74
BRANCH  61  86
ATOM     86  C   UNL A   1      44.412  27.286  32.525  1.00  0.00     0.058 A 
ATOM     87  C   UNL A   1      44.262  27.674  33.868  1.00  0.00     0.135 A 
ATOM     88  C   UNL A   1      44.172  25.937  32.217  1.00  0.00     0.135 A 
ATOM     89  F   UNL A   1      44.369  28.959  34.232  1.00  0.00    -0.206 F 
ATOM     90  C   UNL A   1      43.929  26.754  34.865  1.00  0.00     0.059 A 
ATOM     91  C   UNL A   1      43.808  25.010  33.189  1.00  0.00     0.059 A 
ATOM     92  F   UNL A   1      44.239  25.515  30.944  1.00  0.00    -0.206 F 
ATOM     93  C   UNL A   1      43.702  25.422  34.515  1.00  0.00     0.060 A 
BRANCH  93  94
ATOM     94  S   UNL A   1      43.194  24.249  35.790  1.00  0.00     0.124 S 
ATOM     95  O   UNL A   1      44.315  23.316  35.812  1.00  0.00    -0.237 OA
ATOM     96  O   UNL A   1      43.053  25.100  36.969  1.00  0.00    -0.237 OA
ATOM     97  O   UNL A   1      41.940  23.704  35.274  1.00  0.00    -0.744 OA
ENDBRANCH  93  94
ENDBRANCH  61  86
ENDBRANCH  35  36
ENDBRANCH  28  30
ENDBRANCH  27  28
ENDBRANCH  26  27
ENDBRANCH  25  26
ENDBRANCH  24  25
ENDBRANCH   1  24
TORSDOF 23
ENDMDL
MODEL 2
REMARK VINA RESULT:     -10.3      1.038      1.745
REMARK SMILES CCc1c(C(=O)OCCOCCOCCOC(=O)c2ccc(-c3c4nc(c(-c5c(F)cc(S(=O)(=O)[O-])cc5F)c5ccc([nH]5)c(-c5c(F)cc(S(=O)(=O)[O-])cc5F)c5nc(c(-c6c(F)cc(S(=O)(=O)[O-])cc6F)c6ccc3[nH]6)C=C5)C=C4)cc2)nnn1-c1ccc(OC)cc1
REMARK SMILES IDX 12 1 11 2 10 3 9 4 8 5 7 6 5 7 6 8 4 9 3 10 87 11 85 12
REMARK SMILES IDX 86 13 2 14 1 15 88 16 89 17 95 18 90 19 94 20 91 21 92 22
REMARK SMILES IDX 93 23 13 24 14 25 15 26 16 27 17 28 18 29 19 30 20 31 84 32
REMARK SMILES IDX 21 33 83 34 22 35 23 36 24 37 77 38 25 39 82 40 76 41 78 42
REMARK SMILES IDX 26 43 81 44 75 45 74 46 27 48 61 49 40 50 60 51 41 52 44 53
REMARK SMILES IDX 59 54 79 55 42 56 43 57 58 59 80 60 45 61 28 62 29 63 38 64
REMARK SMILES IDX 30 65 31 66 37 67 39 68 32 69 33 70 34 71 35 72 36 73 62 74
REMARK SMILES IDX 63 75 72 76 64 77 65 78 71 79 73 80 66 81 67 82 68 83 69 84
REMARK SMILES IDX 70 85 46 86 47 87 56 88 48 89 49 90 55 91 57 92 50 93 51 94
REMARK SMILES IDX 52 95 53 96 54 97
REMARK H PARENT 78 47 44 58
REMARK Flexibility Score: inf
ROOT
ATOM      1  C   UNL A   1      40.767  21.620  27.518  1.00  0.00     0.188 C 
ENDROOT
BRANCH   1   2
ATOM      2  C   UNL A   1      39.901  22.109  26.339  1.00  0.00     0.188 C 
BRANCH   2   3
ATOM      3  O   UNL A   1      38.910  21.254  25.784  1.00  0.00    -0.376 OA
BRANCH   3   4
ATOM      4  C   UNL A   1      37.746  21.804  25.175  1.00  0.00     0.202 C 
BRANCH   4   5
ATOM      5  C   UNL A   1      36.371  21.742  25.873  1.00  0.00     0.261 C 
BRANCH   5   6
ATOM      6  O   UNL A   1      35.314  22.487  25.246  1.00  0.00    -0.458 OA
BRANCH   6   7
ATOM      7  C   UNL A   1      34.338  21.755  24.633  1.00  0.00     0.360 C 
ATOM      8  O   UNL A   1      34.353  20.539  24.529  1.00  0.00    -0.244 OA
BRANCH   7   9
ATOM      9  C   UNL A   1      33.201  22.566  24.211  1.00  0.00     0.194 A 
ATOM     10  C   UNL A   1      32.786  23.830  24.610  1.00  0.00     0.079 A 
ATOM     11  N   UNL A   1      31.701  24.084  23.777  1.00  0.00    -0.217 N 
ATOM     12  N   UNL A   1      32.274  22.053  23.332  1.00  0.00    -0.122 NA
ATOM     13  N   UNL A   1      31.302  22.938  23.184  1.00  0.00    -0.061 NA
BRANCH  10  14
ATOM     14  C   UNL A   1      33.270  24.769  25.664  1.00  0.00     0.055 C 
ATOM     15  C   UNL A   1      32.180  25.151  26.654  1.00  0.00     0.011 C 
ENDBRANCH  10  14
BRANCH  11  16
ATOM     16  C   UNL A   1      31.156  25.320  23.365  1.00  0.00     0.067 A 
ATOM     17  C   UNL A   1      31.849  26.140  22.472  1.00  0.00     0.032 A 
ATOM     18  C   UNL A   1      29.957  25.760  23.936  1.00  0.00     0.032 A 
ATOM     19  C   UNL A   1      31.288  27.366  22.095  1.00  0.00     0.048 A 
ATOM     20  C   UNL A   1      29.423  26.998  23.578  1.00  0.00     0.048 A 
ATOM     21  C   UNL A   1      30.073  27.797  22.639  1.00  0.00     0.119 A 
BRANCH  21  22
ATOM     22  O   UNL A   1      29.629  29.011  22.190  1.00  0.00    -0.497 OA
ATOM     23  C   UNL A   1      29.471  30.028  23.173  1.00  0.00     0.278 C 
ENDBRANCH  21  22
ENDBRANCH  11  16
ENDBRANCH   7   9
ENDBRANCH   6   7
ENDBRANCH   5   6
ENDBRANCH   4   5
ENDBRANCH   3   4
ENDBRANCH   2   3
ENDBRANCH   1   2
BRANCH   1  24
ATOM     24  O   UNL A   1      40.804  20.215  27.654  1.00  0.00    -0.376 OA
BRANCH  24  25
ATOM     25  C   UNL A   1      41.972  19.454  27.393  1.00  0.00     0.202 C 
BRANCH  25  26
ATOM     26  C   UNL A   1      42.469  19.173  25.979  1.00  0.00     0.261 C 
BRANCH  26  27
ATOM     27  O   UNL A   1      42.865  20.309  25.246  1.00  0.00    -0.460 OA
BRANCH  27  28
ATOM     28  C   UNL A   1      44.203  20.476  25.189  1.00  0.00     0.338 C 
ATOM     29  O   UNL A   1      45.053  19.610  25.202  1.00  0.00    -0.246 OA
BRANCH  28  30
ATOM     30  C   UNL A   1      44.466  21.914  25.207  1.00  0.00     0.060 A 
ATOM     31  C   UNL A   1      45.522  22.342  26.011  1.00  0.00     0.016 A 
ATOM     32  C   UNL A   1      43.445  22.767  24.765  1.00  0.00     0.016 A 
ATOM     33  C   UNL A   1      45.410  23.578  26.596  1.00  0.00     0.010 A 
ATOM     34  C   UNL A   1      43.315  23.980  25.380  1.00  0.00     0.010 A 
ATOM     35  C   UNL A   1      44.250  24.320  26.353  1.00  0.00    -0.014 A 
BRANCH  35  36
ATOM     36  C   UNL A   1      44.047  25.521  27.119  1.00  0.00     0.031 A 
ATOM     37  C   UNL A   1      45.124  26.505  26.905  1.00  0.00     0.074 A 
ATOM     38  C   UNL A   1      42.922  25.721  27.828  1.00  0.00     0.049 A 
ATOM     39  N   UNL A   1      46.037  26.871  27.737  1.00  0.00    -0.248 NA
ATOM     40  C   UNL A   1      45.340  26.976  25.525  1.00  0.00     0.031 C 
ATOM     41  C   UNL A   1      41.698  24.912  27.819  1.00  0.00     0.029 A 
ATOM     42  N   UNL A   1      42.589  26.768  28.621  1.00  0.00    -0.354 N 
ATOM     43  C   UNL A   1      46.775  27.827  27.053  1.00  0.00     0.074 A 
ATOM     44  C   UNL A   1      46.477  27.653  25.659  1.00  0.00     0.031 C 
ATOM     45  C   UNL A   1      40.695  25.625  28.379  1.00  0.00     0.029 A 
ATOM     46  C   UNL A   1      41.231  26.882  28.879  1.00  0.00     0.049 A 
ATOM     47  H   UNL A   1      43.256  27.396  28.985  1.00  0.00     0.167 HD
ATOM     48  C   UNL A   1      47.296  28.899  27.708  1.00  0.00     0.037 A 
ATOM     49  C   UNL A   1      40.603  27.981  29.372  1.00  0.00     0.037 A 
ATOM     50  C   UNL A   1      47.387  28.648  29.126  1.00  0.00     0.049 A 
ATOM     51  C   UNL A   1      41.649  28.835  30.001  1.00  0.00     0.074 A 
ATOM     52  C   UNL A   1      47.988  27.671  29.899  1.00  0.00     0.029 A 
ATOM     53  N   UNL A   1      46.468  29.263  29.944  1.00  0.00    -0.354 N 
ATOM     54  N   UNL A   1      42.317  28.506  31.074  1.00  0.00    -0.248 NA
ATOM     55  C   UNL A   1      42.275  29.861  29.177  1.00  0.00     0.031 C 
ATOM     56  C   UNL A   1      47.092  27.449  30.985  1.00  0.00     0.029 A 
ATOM     57  C   UNL A   1      46.024  28.336  30.850  1.00  0.00     0.049 A 
ATOM     58  H   UNL A   1      46.181  30.203  29.887  1.00  0.00     0.167 HD
ATOM     59  C   UNL A   1      43.611  28.952  30.844  1.00  0.00     0.074 A 
ATOM     60  C   UNL A   1      43.500  29.864  29.708  1.00  0.00     0.031 C 
ATOM     61  C   UNL A   1      44.686  28.323  31.405  1.00  0.00     0.037 A 
BRANCH  48  62
ATOM     62  C   UNL A   1      47.311  30.291  27.121  1.00  0.00     0.058 A 
ATOM     63  C   UNL A   1      48.500  31.042  27.188  1.00  0.00     0.135 A 
ATOM     64  C   UNL A   1      46.152  31.019  26.758  1.00  0.00     0.135 A 
ATOM     65  F   UNL A   1      49.658  30.456  27.533  1.00  0.00    -0.206 F 
ATOM     66  C   UNL A   1      48.520  32.422  26.992  1.00  0.00     0.059 A 
ATOM     67  C   UNL A   1      46.162  32.380  26.496  1.00  0.00     0.059 A 
ATOM     68  F   UNL A   1      44.929  30.478  26.735  1.00  0.00    -0.206 F 
ATOM     69  C   UNL A   1      47.340  33.083  26.664  1.00  0.00     0.060 A 
BRANCH  69  70
ATOM     70  S   UNL A   1      47.331  34.876  26.526  1.00  0.00     0.124 S 
ATOM     71  O   UNL A   1      47.247  35.050  25.080  1.00  0.00    -0.237 OA
ATOM     72  O   UNL A   1      46.138  35.230  27.286  1.00  0.00    -0.237 OA
ATOM     73  O   UNL A   1      48.597  35.265  27.138  1.00  0.00    -0.744 OA
ENDBRANCH  69  70
ENDBRANCH  48  62
BRANCH  49  74
ATOM     74  C   UNL A   1      39.251  28.499  29.020  1.00  0.00     0.058 A 
ATOM     75  C   UNL A   1      38.222  28.546  29.978  1.00  0.00     0.135 A 
ATOM     76  C   UNL A   1      39.014  29.212  27.825  1.00  0.00     0.135 A 
ATOM     77  F   UNL A   1      38.367  27.915  31.153  1.00  0.00    -0.206 F 
ATOM     78  C   UNL A   1      37.054  29.294  29.787  1.00  0.00     0.059 A 
ATOM     79  C   UNL A   1      37.852  29.949  27.605  1.00  0.00     0.059 A 
ATOM     80  F   UNL A   1      39.944  29.292  26.864  1.00  0.00    -0.206 F 
ATOM     81  C   UNL A   1      36.887  30.010  28.603  1.00  0.00     0.060 A 
BRANCH  81  82
ATOM     82  S   UNL A   1      35.470  31.117  28.420  1.00  0.00     0.124 S 
ATOM     83  O   UNL A   1      35.255  31.561  29.793  1.00  0.00    -0.237 OA
ATOM     84  O   UNL A   1      35.980  32.124  27.497  1.00  0.00    -0.237 OA
ATOM     85  O   UNL A   1      34.428  30.248  27.877  1.00  0.00    -0.744 OA
ENDBRANCH  81  82
ENDBRANCH  49  74
BRANCH  61  86
ATOM     86  C   UNL A   1      44.437  27.367  32.543  1.00  0.00     0.058 A 
ATOM     87  C   UNL A   1      44.214  25.987  32.394  1.00  0.00     0.135 A 
ATOM     88  C   UNL A   1      44.582  27.856  33.850  1.00  0.00     0.135 A 
ATOM     89  F   UNL A   1      44.169  25.421  31.180  1.00  0.00    -0.206 F 
ATOM     90  C   UNL A   1      44.098  25.139  33.499  1.00  0.00     0.059 A 
ATOM     91  C   UNL A   1      44.503  27.025  34.964  1.00  0.00     0.059 A 
ATOM     92  F   UNL A   1      44.857  29.154  34.057  1.00  0.00    -0.206 F 
ATOM     93  C   UNL A   1      44.247  25.668  34.782  1.00  0.00     0.060 A 
BRANCH  93  94
ATOM     94  S   UNL A   1      44.177  24.561  36.206  1.00  0.00     0.124 S 
ATOM     95  O   UNL A   1      43.221  25.239  37.076  1.00  0.00    -0.237 OA
ATOM     96  O   UNL A   1      43.717  23.307  35.614  1.00  0.00    -0.237 OA
ATOM     97  O   UNL A   1      45.555  24.539  36.691  1.00  0.00    -0.744 OA
ENDBRANCH  93  94
ENDBRANCH  61  86
ENDBRANCH  35  36
ENDBRANCH  28  30
ENDBRANCH  27  28
ENDBRANCH  26  27
ENDBRANCH  25  26
ENDBRANCH  24  25
ENDBRANCH   1  24
TORSDOF 23
ENDMDL
MODEL 3
REMARK VINA RESULT:      -9.7      2.756      7.970
REMARK SMILES CCc1c(C(=O)OCCOCCOCCOC(=O)c2ccc(-c3c4nc(c(-c5c(F)cc(S(=O)(=O)[O-])cc5F)c5ccc([nH]5)c(-c5c(F)cc(S(=O)(=O)[O-])cc5F)c5nc(c(-c6c(F)cc(S(=O)(=O)[O-])cc6F)c6ccc3[nH]6)C=C5)C=C4)cc2)nnn1-c1ccc(OC)cc1
REMARK SMILES IDX 12 1 11 2 10 3 9 4 8 5 7 6 5 7 6 8 4 9 3 10 87 11 85 12
REMARK SMILES IDX 86 13 2 14 1 15 88 16 89 17 95 18 90 19 94 20 91 21 92 22
REMARK SMILES IDX 93 23 13 24 14 25 15 26 16 27 17 28 18 29 19 30 20 31 84 32
REMARK SMILES IDX 21 33 83 34 22 35 23 36 24 37 77 38 25 39 82 40 76 41 78 42
REMARK SMILES IDX 26 43 81 44 75 45 74 46 27 48 61 49 40 50 60 51 41 52 44 53
REMARK SMILES IDX 59 54 79 55 42 56 43 57 58 59 80 60 45 61 28 62 29 63 38 64
REMARK SMILES IDX 30 65 31 66 37 67 39 68 32 69 33 70 34 71 35 72 36 73 62 74
REMARK SMILES IDX 63 75 72 76 64 77 65 78 71 79 73 80 66 81 67 82 68 83 69 84
REMARK SMILES IDX 70 85 46 86 47 87 56 88 48 89 49 90 55 91 57 92 50 93 51 94
REMARK SMILES IDX 52 95 53 96 54 97
REMARK H PARENT 78 47 44 58
REMARK Flexibility Score: inf
ROOT
ATOM      1  C   UNL A   1      35.840  24.397  25.595  1.00  0.00     0.188 C 
ENDROOT
BRANCH   1   2
ATOM      2  C   UNL A   1      35.244  24.149  24.193  1.00  0.00     0.188 C 
BRANCH   2   3
ATOM      3  O   UNL A   1      34.152  24.936  23.738  1.00  0.00    -0.376 OA
BRANCH   3   4
ATOM      4  C   UNL A   1      33.997  26.277  24.189  1.00  0.00     0.202 C 
BRANCH   4   5
ATOM      5  C   UNL A   1      32.888  26.662  25.192  1.00  0.00     0.261 C 
BRANCH   5   6
ATOM      6  O   UNL A   1      31.564  26.203  24.871  1.00  0.00    -0.458 OA
BRANCH   6   7
ATOM      7  C   UNL A   1      30.898  25.538  25.860  1.00  0.00     0.360 C 
ATOM      8  O   UNL A   1      29.967  26.005  26.497  1.00  0.00    -0.244 OA
BRANCH   7   9
ATOM      9  C   UNL A   1      31.334  24.153  26.005  1.00  0.00     0.194 A 
ATOM     10  C   UNL A   1      31.403  23.119  25.081  1.00  0.00     0.079 A 
ATOM     11  N   UNL A   1      31.985  22.085  25.807  1.00  0.00    -0.217 N 
ATOM     12  N   UNL A   1      31.678  23.664  27.245  1.00  0.00    -0.122 NA
ATOM     13  N   UNL A   1      31.942  22.372  27.126  1.00  0.00    -0.061 NA
BRANCH  10  14
ATOM     14  C   UNL A   1      30.975  23.004  23.655  1.00  0.00     0.055 C 
ATOM     15  C   UNL A   1      32.114  22.593  22.734  1.00  0.00     0.011 C 
ENDBRANCH  10  14
BRANCH  11  16
ATOM     16  C   UNL A   1      32.726  20.974  25.350  1.00  0.00     0.067 A 
ATOM     17  C   UNL A   1      32.081  19.790  24.985  1.00  0.00     0.032 A 
ATOM     18  C   UNL A   1      34.124  21.036  25.358  1.00  0.00     0.032 A 
ATOM     19  C   UNL A   1      32.844  18.701  24.549  1.00  0.00     0.048 A 
ATOM     20  C   UNL A   1      34.878  19.934  24.953  1.00  0.00     0.048 A 
ATOM     21  C   UNL A   1      34.242  18.769  24.525  1.00  0.00     0.119 A 
BRANCH  21  22
ATOM     22  O   UNL A   1      34.875  17.641  24.078  1.00  0.00    -0.497 OA
ATOM     23  C   UNL A   1      34.747  16.481  24.893  1.00  0.00     0.278 C 
ENDBRANCH  21  22
ENDBRANCH  11  16
ENDBRANCH   7   9
ENDBRANCH   6   7
ENDBRANCH   5   6
ENDBRANCH   4   5
ENDBRANCH   3   4
ENDBRANCH   2   3
ENDBRANCH   1   2
BRANCH   1  24
ATOM     24  O   UNL A   1      36.587  23.308  26.097  1.00  0.00    -0.376 OA
BRANCH  24  25
ATOM     25  C   UNL A   1      37.593  22.659  25.338  1.00  0.00     0.202 C 
BRANCH  25  26
ATOM     26  C   UNL A   1      38.219  21.336  25.767  1.00  0.00     0.261 C 
BRANCH  26  27
ATOM     27  O   UNL A   1      39.384  20.968  25.067  1.00  0.00    -0.460 OA
BRANCH  27  28
ATOM     28  C   UNL A   1      40.165  20.095  25.736  1.00  0.00     0.338 C 
ATOM     29  O   UNL A   1      40.026  18.891  25.808  1.00  0.00    -0.246 OA
BRANCH  28  30
ATOM     30  C   UNL A   1      41.172  20.869  26.457  1.00  0.00     0.060 A 
ATOM     31  C   UNL A   1      41.081  20.867  27.849  1.00  0.00     0.016 A 
ATOM     32  C   UNL A   1      41.880  21.843  25.738  1.00  0.00     0.016 A 
ATOM     33  C   UNL A   1      41.480  22.000  28.510  1.00  0.00     0.010 A 
ATOM     34  C   UNL A   1      42.239  22.986  26.394  1.00  0.00     0.010 A 
ATOM     35  C   UNL A   1      41.944  23.078  27.751  1.00  0.00    -0.014 A 
BRANCH  35  36
ATOM     36  C   UNL A   1      42.175  24.328  28.428  1.00  0.00     0.031 A 
ATOM     37  C   UNL A   1      41.098  25.302  28.177  1.00  0.00     0.074 A 
ATOM     38  C   UNL A   1      43.203  24.485  29.280  1.00  0.00     0.049 A 
ATOM     39  N   UNL A   1      41.158  26.384  27.478  1.00  0.00    -0.248 NA
ATOM     40  C   UNL A   1      39.733  24.912  28.572  1.00  0.00     0.031 C 
ATOM     41  C   UNL A   1      44.110  23.454  29.795  1.00  0.00     0.029 A 
ATOM     42  N   UNL A   1      43.579  25.592  29.967  1.00  0.00    -0.354 N 
ATOM     43  C   UNL A   1      39.891  26.942  27.583  1.00  0.00     0.074 A 
ATOM     44  C   UNL A   1      39.017  25.891  28.024  1.00  0.00     0.031 C 
ATOM     45  C   UNL A   1      44.762  23.941  30.875  1.00  0.00     0.029 A 
ATOM     46  C   UNL A   1      44.403  25.339  31.054  1.00  0.00     0.049 A 
ATOM     47  H   UNL A   1      43.292  26.500  29.714  1.00  0.00     0.167 HD
ATOM     48  C   UNL A   1      39.731  28.291  27.634  1.00  0.00     0.037 A 
ATOM     49  C   UNL A   1      44.668  26.201  32.069  1.00  0.00     0.037 A 
ATOM     50  C   UNL A   1      40.890  28.973  27.112  1.00  0.00     0.049 A 
ATOM     51  C   UNL A   1      44.315  27.565  31.586  1.00  0.00     0.074 A 
ATOM     52  C   UNL A   1      41.577  28.932  25.912  1.00  0.00     0.029 A 
ATOM     53  N   UNL A   1      41.740  29.570  28.013  1.00  0.00    -0.354 N 
ATOM     54  N   UNL A   1      44.952  28.195  30.636  1.00  0.00    -0.248 NA
ATOM     55  C   UNL A   1      42.966  28.051  31.849  1.00  0.00     0.031 C 
ATOM     56  C   UNL A   1      42.950  29.086  26.262  1.00  0.00     0.029 A 
ATOM     57  C   UNL A   1      43.025  29.269  27.643  1.00  0.00     0.049 A 
ATOM     58  H   UNL A   1      41.472  30.117  28.786  1.00  0.00     0.167 HD
ATOM     59  C   UNL A   1      43.965  28.848  29.911  1.00  0.00     0.074 A 
ATOM     60  C   UNL A   1      42.778  28.805  30.763  1.00  0.00     0.031 C 
ATOM     61  C   UNL A   1      44.119  29.105  28.578  1.00  0.00     0.037 A 
BRANCH  48  62
ATOM     62  C   UNL A   1      38.725  28.963  28.540  1.00  0.00     0.058 A 
ATOM     63  C   UNL A   1      37.838  29.905  27.986  1.00  0.00     0.135 A 
ATOM     64  C   UNL A   1      38.780  28.939  29.955  1.00  0.00     0.135 A 
ATOM     65  F   UNL A   1      37.713  30.023  26.654  1.00  0.00    -0.206 F 
ATOM     66  C   UNL A   1      37.126  30.809  28.773  1.00  0.00     0.059 A 
ATOM     67  C   UNL A   1      38.032  29.785  30.758  1.00  0.00     0.059 A 
ATOM     68  F   UNL A   1      39.634  28.168  30.638  1.00  0.00    -0.206 F 
ATOM     69  C   UNL A   1      37.245  30.750  30.159  1.00  0.00     0.060 A 
BRANCH  69  70
ATOM     70  S   UNL A   1      36.424  31.985  31.177  1.00  0.00     0.124 S 
ATOM     71  O   UNL A   1      35.417  32.493  30.252  1.00  0.00    -0.237 OA
ATOM     72  O   UNL A   1      35.929  31.178  32.286  1.00  0.00    -0.237 OA
ATOM     73  O   UNL A   1      37.501  32.910  31.513  1.00  0.00    -0.744 OA
ENDBRANCH  69  70
ENDBRANCH  48  62
BRANCH  49  74
ATOM     74  C   UNL A   1      44.855  25.887  33.514  1.00  0.00     0.058 A 
ATOM     75  C   UNL A   1      45.769  26.614  34.299  1.00  0.00     0.135 A 
ATOM     76  C   UNL A   1      43.955  25.061  34.220  1.00  0.00     0.135 A 
ATOM     77  F   UNL A   1      46.649  27.440  33.717  1.00  0.00    -0.206 F 
ATOM     78  C   UNL A   1      45.757  26.565  35.698  1.00  0.00     0.059 A 
ATOM     79  C   UNL A   1      43.936  24.984  35.611  1.00  0.00     0.059 A 
ATOM     80  F   UNL A   1      42.999  24.368  33.585  1.00  0.00    -0.206 F 
ATOM     81  C   UNL A   1      44.821  25.760  36.347  1.00  0.00     0.060 A 
BRANCH  81  82
ATOM     82  S   UNL A   1      44.681  25.827  38.148  1.00  0.00     0.124 S 
ATOM     83  O   UNL A   1      43.320  26.322  38.326  1.00  0.00    -0.237 OA
ATOM     84  O   UNL A   1      44.910  24.438  38.528  1.00  0.00    -0.237 OA
ATOM     85  O   UNL A   1      45.738  26.759  38.536  1.00  0.00    -0.744 OA
ENDBRANCH  81  82
ENDBRANCH  49  74
BRANCH  61  86
ATOM     86  C   UNL A   1      45.500  28.989  27.986  1.00  0.00     0.058 A 
ATOM     87  C   UNL A   1      46.470  30.006  28.011  1.00  0.00     0.135 A 
ATOM     88  C   UNL A   1      45.901  27.733  27.504  1.00  0.00     0.135 A 
ATOM     89  F   UNL A   1      46.202  31.203  28.552  1.00  0.00    -0.206 F 
ATOM     90  C   UNL A   1      47.768  29.795  27.540  1.00  0.00     0.059 A 
ATOM     91  C   UNL A   1      47.197  27.490  27.059  1.00  0.00     0.059 A 
ATOM     92  F   UNL A   1      45.038  26.703  27.510  1.00  0.00    -0.206 F 
ATOM     93  C   UNL A   1      48.123  28.531  27.067  1.00  0.00     0.060 A 
BRANCH  93  94
ATOM     94  S   UNL A   1      49.822  28.234  26.531  1.00  0.00     0.124 S 
ATOM     95  O   UNL A   1      50.554  29.280  27.236  1.00  0.00    -0.237 OA
ATOM     96  O   UNL A   1      50.067  26.869  26.989  1.00  0.00    -0.237 OA
ATOM     97  O   UNL A   1      49.755  28.390  25.080  1.00  0.00    -0.744 OA
ENDBRANCH  93  94
ENDBRANCH  61  86
ENDBRANCH  35  36
ENDBRANCH  28  30
ENDBRANCH  27  28
ENDBRANCH  26  27
ENDBRANCH  25  26
ENDBRANCH  24  25
ENDBRANCH   1  24
TORSDOF 23
ENDMDL
