MODEL 1
REMARK VINA RESULT:     -11.2      0.000      0.000
REMARK SMILES CC1(C)[C@H](C(=O)Nc2ccc(C(=O)Nc3cccnc3)c(Cl)c2)[C@H]1C(=O)OCCOCCOCCOC(=O)c1ccc(-c2c3nc(c(-c4c(F)cc(S(=O)(=O)[O-])cc4F)c4ccc([nH]4)c(-c4c(F)cc(S(=O)(=O)[O-])cc4F)c4nc(c(-c5c(F)cc(S(=O)(=O)[O-])cc5F)c5ccc2[nH]5)C=C4)C=C3)cc1
REMARK SMILES IDX 31 1 30 2 29 3 28 4 27 5 25 6 26 7 24 8 1 9 2 10 3 11 4 12
REMARK SMILES IDX 5 13 6 14 7 15 8 17 9 18 23 19 10 20 21 21 11 22 22 23 12 24
REMARK SMILES IDX 13 25 14 26 15 28 16 29 20 30 17 31 19 32 18 33 32 34 33 35
REMARK SMILES IDX 34 36 35 37 36 38 37 39 38 40 39 41 40 42 104 43 41 44
REMARK SMILES IDX 103 45 42 46 43 47 44 48 97 49 45 50 102 51 96 52 98 53
REMARK SMILES IDX 46 54 101 55 95 56 94 57 47 59 81 60 60 61 80 62 61 63 64 64
REMARK SMILES IDX 79 65 99 66 62 67 63 68 78 70 100 71 65 72 48 73 49 74 58 75
REMARK SMILES IDX 50 76 51 77 57 78 59 79 52 80 53 81 54 82 55 83 56 84 82 85
REMARK SMILES IDX 83 86 92 87 84 88 85 89 91 90 93 91 86 92 87 93 88 94 89 95
REMARK SMILES IDX 90 96 66 97 67 98 76 99 68 100 69 101 75 102 77 103 70 104
REMARK SMILES IDX 71 105 72 106 73 107 74 108
REMARK H PARENT 7 16 14 27 98 58 64 69
REMARK Flexibility Score: inf
ROOT
ATOM      1  C   UNL A   1      39.793  22.068  26.582  1.00  0.00     0.188 C 
ENDROOT
BRANCH   1   2
ATOM      2  O   UNL A   1      39.349  23.405  26.791  1.00  0.00    -0.376 OA
BRANCH   2   3
ATOM      3  C   UNL A   1      38.053  23.783  26.325  1.00  0.00     0.202 C 
BRANCH   3   4
ATOM      4  C   UNL A   1      37.383  22.911  25.251  1.00  0.00     0.261 C 
BRANCH   4   5
ATOM      5  O   UNL A   1      36.657  23.702  24.296  1.00  0.00    -0.463 OA
BRANCH   5   6
ATOM      6  C   UNL A   1      35.358  23.968  24.602  1.00  0.00     0.310 C 
ATOM      7  O   UNL A   1      34.894  25.048  24.879  1.00  0.00    -0.252 OA
BRANCH   6   8
ATOM      8  C   UNL A   1      34.485  22.772  24.416  1.00  0.00     0.118 C 
ATOM      9  C   UNL A   1      34.110  22.232  27.007  1.00  0.00     0.013 C 
ATOM     10  C   UNL A   1      33.900  21.905  25.542  1.00  0.00    -0.009 C 
ATOM     11  C   UNL A   1      33.940  20.412  25.331  1.00  0.00     0.013 C 
ATOM     12  C   UNL A   1      33.035  22.910  24.778  1.00  0.00     0.100 C 
BRANCH  12  13
ATOM     13  C   UNL A   1      31.896  22.758  23.822  1.00  0.00     0.228 C 
ATOM     14  O   UNL A   1      31.839  21.700  23.194  1.00  0.00    -0.274 OA
ATOM     15  N   UNL A   1      30.770  23.551  23.879  1.00  0.00    -0.326 N 
ATOM     16  H   UNL A   1      29.975  23.149  24.297  1.00  0.00     0.169 HD
BRANCH  15  17
ATOM     17  C   UNL A   1      30.625  24.866  23.408  1.00  0.00     0.042 A 
ATOM     18  C   UNL A   1      31.430  25.391  22.417  1.00  0.00     0.027 A 
ATOM     19  C   UNL A   1      29.568  25.651  23.853  1.00  0.00     0.047 A 
ATOM     20  C   UNL A   1      31.483  26.765  22.197  1.00  0.00     0.017 A 
ATOM     21  C   UNL A   1      29.476  26.990  23.443  1.00  0.00     0.055 A 
ATOM     22  C   UNL A   1      30.567  27.606  22.827  1.00  0.00     0.058 A 
ATOM     23  Cl  UNL A   1      27.910  27.715  23.509  1.00  0.00    -0.083 Cl
BRANCH  22  24
ATOM     24  C   UNL A   1      30.865  29.067  22.779  1.00  0.00     0.257 C 
ATOM     25  O   UNL A   1      30.500  29.703  21.789  1.00  0.00    -0.269 OA
ATOM     26  N   UNL A   1      31.583  29.715  23.765  1.00  0.00    -0.321 N 
ATOM     27  H   UNL A   1      31.682  30.688  23.654  1.00  0.00     0.170 HD
BRANCH  26  28
ATOM     28  C   UNL A   1      32.187  29.164  24.903  1.00  0.00     0.059 A 
ATOM     29  C   UNL A   1      31.536  29.026  26.131  1.00  0.00     0.029 A 
ATOM     30  C   UNL A   1      33.540  28.868  24.845  1.00  0.00     0.137 A 
ATOM     31  C   UNL A   1      32.280  28.710  27.269  1.00  0.00     0.022 A 
ATOM     32  N   UNL A   1      34.283  28.629  25.946  1.00  0.00    -0.263 NA
ATOM     33  C   UNL A   1      33.647  28.563  27.133  1.00  0.00     0.111 A 
ENDBRANCH  26  28
ENDBRANCH  22  24
ENDBRANCH  15  17
ENDBRANCH  12  13
ENDBRANCH   6   8
ENDBRANCH   5   6
ENDBRANCH   4   5
ENDBRANCH   3   4
ENDBRANCH   2   3
ENDBRANCH   1   2
BRANCH   1  34
ATOM     34  C   UNL A   1      40.779  21.453  27.594  1.00  0.00     0.188 C 
BRANCH  34  35
ATOM     35  O   UNL A   1      41.859  20.765  27.011  1.00  0.00    -0.376 OA
BRANCH  35  36
ATOM     36  C   UNL A   1      42.516  21.333  25.894  1.00  0.00     0.202 C 
BRANCH  36  37
ATOM     37  C   UNL A   1      43.304  22.658  25.954  1.00  0.00     0.261 C 
BRANCH  37  38
ATOM     38  O   UNL A   1      42.602  23.884  25.709  1.00  0.00    -0.460 OA
BRANCH  38  39
ATOM     39  C   UNL A   1      43.328  25.025  25.777  1.00  0.00     0.338 C 
ATOM     40  O   UNL A   1      44.262  25.339  25.059  1.00  0.00    -0.246 OA
BRANCH  39  41
ATOM     41  C   UNL A   1      42.688  25.928  26.758  1.00  0.00     0.060 A 
ATOM     42  C   UNL A   1      42.962  27.300  26.703  1.00  0.00     0.016 A 
ATOM     43  C   UNL A   1      41.864  25.415  27.762  1.00  0.00     0.016 A 
ATOM     44  C   UNL A   1      42.431  28.158  27.668  1.00  0.00     0.010 A 
ATOM     45  C   UNL A   1      41.348  26.277  28.741  1.00  0.00     0.010 A 
ATOM     46  C   UNL A   1      41.654  27.650  28.718  1.00  0.00    -0.014 A 
BRANCH  46  47
ATOM     47  C   UNL A   1      41.353  28.523  29.888  1.00  0.00     0.031 A 
ATOM     48  C   UNL A   1      42.355  28.571  31.011  1.00  0.00     0.074 A 
ATOM     49  C   UNL A   1      40.249  29.294  29.934  1.00  0.00     0.049 A 
ATOM     50  N   UNL A   1      42.337  29.284  32.107  1.00  0.00    -0.248 NA
ATOM     51  C   UNL A   1      43.527  27.688  30.888  1.00  0.00     0.031 C 
ATOM     52  C   UNL A   1      39.224  29.342  28.896  1.00  0.00     0.029 A 
ATOM     53  N   UNL A   1      39.818  30.210  30.869  1.00  0.00    -0.354 N 
ATOM     54  C   UNL A   1      43.453  28.885  32.834  1.00  0.00     0.074 A 
ATOM     55  C   UNL A   1      44.142  27.891  32.043  1.00  0.00     0.031 C 
ATOM     56  C   UNL A   1      38.320  30.285  29.218  1.00  0.00     0.029 A 
ATOM     57  C   UNL A   1      38.674  30.893  30.502  1.00  0.00     0.049 A 
ATOM     58  H   UNL A   1      40.285  30.364  31.723  1.00  0.00     0.167 HD
ATOM     59  C   UNL A   1      43.851  29.293  34.062  1.00  0.00     0.037 A 
ATOM     60  C   UNL A   1      38.020  31.909  31.118  1.00  0.00     0.037 A 
ATOM     61  C   UNL A   1      43.178  30.305  34.831  1.00  0.00     0.049 A 
ATOM     62  C   UNL A   1      38.555  32.402  32.445  1.00  0.00     0.074 A 
ATOM     63  C   UNL A   1      43.495  30.783  36.091  1.00  0.00     0.029 A 
ATOM     64  N   UNL A   1      42.054  31.001  34.412  1.00  0.00    -0.354 N 
ATOM     65  N   UNL A   1      39.650  32.055  33.082  1.00  0.00    -0.248 NA
ATOM     66  C   UNL A   1      37.761  33.425  33.143  1.00  0.00     0.031 C 
ATOM     67  C   UNL A   1      42.537  31.735  36.452  1.00  0.00     0.029 A 
ATOM     68  C   UNL A   1      41.656  31.892  35.395  1.00  0.00     0.049 A 
ATOM     69  H   UNL A   1      41.606  30.879  33.545  1.00  0.00     0.167 HD
ATOM     70  C   UNL A   1      39.675  32.829  34.241  1.00  0.00     0.074 A 
ATOM     71  C   UNL A   1      38.535  33.714  34.177  1.00  0.00     0.031 C 
ATOM     72  C   UNL A   1      40.535  32.787  35.289  1.00  0.00     0.037 A 
BRANCH  59  73
ATOM     73  C   UNL A   1      45.028  28.595  34.684  1.00  0.00     0.058 A 
ATOM     74  C   UNL A   1      46.344  29.059  34.537  1.00  0.00     0.135 A 
ATOM     75  C   UNL A   1      44.821  27.449  35.470  1.00  0.00     0.135 A 
ATOM     76  F   UNL A   1      46.600  30.135  33.777  1.00  0.00    -0.206 F 
ATOM     77  C   UNL A   1      47.415  28.399  35.131  1.00  0.00     0.059 A 
ATOM     78  C   UNL A   1      45.874  26.792  36.098  1.00  0.00     0.059 A 
ATOM     79  F   UNL A   1      43.583  26.959  35.638  1.00  0.00    -0.206 F 
ATOM     80  C   UNL A   1      47.171  27.267  35.911  1.00  0.00     0.060 A 
BRANCH  80  81
ATOM     81  S   UNL A   1      48.568  26.428  36.684  1.00  0.00     0.124 S 
ATOM     82  O   UNL A   1      48.689  27.162  37.941  1.00  0.00    -0.237 OA
ATOM     83  O   UNL A   1      48.083  25.056  36.797  1.00  0.00    -0.237 OA
ATOM     84  O   UNL A   1      49.657  26.629  35.734  1.00  0.00    -0.744 OA
ENDBRANCH  80  81
ENDBRANCH  59  73
BRANCH  60  85
ATOM     85  C   UNL A   1      36.852  32.605  30.474  1.00  0.00     0.058 A 
ATOM     86  C   UNL A   1      35.535  32.385  30.929  1.00  0.00     0.135 A 
ATOM     87  C   UNL A   1      37.002  33.512  29.415  1.00  0.00     0.135 A 
ATOM     88  F   UNL A   1      35.293  31.480  31.891  1.00  0.00    -0.206 F 
ATOM     89  C   UNL A   1      34.442  33.080  30.420  1.00  0.00     0.059 A 
ATOM     90  C   UNL A   1      35.926  34.239  28.902  1.00  0.00     0.059 A 
ATOM     91  F   UNL A   1      38.213  33.732  28.879  1.00  0.00    -0.206 F 
ATOM     92  C   UNL A   1      34.652  34.029  29.426  1.00  0.00     0.060 A 
BRANCH  92  93
ATOM     93  S   UNL A   1      33.251  35.026  28.881  1.00  0.00     0.124 S 
ATOM     94  O   UNL A   1      33.913  36.197  28.319  1.00  0.00    -0.237 OA
ATOM     95  O   UNL A   1      32.605  34.130  27.924  1.00  0.00    -0.237 OA
ATOM     96  O   UNL A   1      32.501  35.256  30.112  1.00  0.00    -0.744 OA
ENDBRANCH  92  93
ENDBRANCH  60  85
BRANCH  72  97
ATOM     97  C   UNL A   1      40.277  33.730  36.436  1.00  0.00     0.058 A 
ATOM     98  C   UNL A   1      40.917  34.978  36.517  1.00  0.00     0.135 A 
ATOM     99  C   UNL A   1      39.352  33.404  37.440  1.00  0.00     0.135 A 
ATOM    100  F   UNL A   1      41.811  35.341  35.583  1.00  0.00    -0.206 F 
ATOM    101  C   UNL A   1      40.680  35.851  37.572  1.00  0.00     0.059 A 
ATOM    102  C   UNL A   1      39.073  34.278  38.488  1.00  0.00     0.059 A 
ATOM    103  F   UNL A   1      38.698  32.232  37.404  1.00  0.00    -0.206 F 
ATOM    104  C   UNL A   1      39.756  35.493  38.554  1.00  0.00     0.060 A 
BRANCH 104 105
ATOM    105  S   UNL A   1      39.439  36.649  39.903  1.00  0.00     0.124 S 
ATOM    106  O   UNL A   1      38.744  37.727  39.208  1.00  0.00    -0.237 OA
ATOM    107  O   UNL A   1      38.623  35.851  40.813  1.00  0.00    -0.237 OA
ATOM    108  O   UNL A   1      40.774  36.976  40.391  1.00  0.00    -0.744 OA
ENDBRANCH 104 105
ENDBRANCH  72  97
ENDBRANCH  46  47
ENDBRANCH  39  41
ENDBRANCH  38  39
ENDBRANCH  37  38
ENDBRANCH  36  37
ENDBRANCH  35  36
ENDBRANCH  34  35
ENDBRANCH   1  34
TORSDOF 24
ENDMDL
MODEL 2
REMARK VINA RESULT:     -10.4      1.244      7.830
REMARK SMILES CC1(C)[C@H](C(=O)Nc2ccc(C(=O)Nc3cccnc3)c(Cl)c2)[C@H]1C(=O)OCCOCCOCCOC(=O)c1ccc(-c2c3nc(c(-c4c(F)cc(S(=O)(=O)[O-])cc4F)c4ccc([nH]4)c(-c4c(F)cc(S(=O)(=O)[O-])cc4F)c4nc(c(-c5c(F)cc(S(=O)(=O)[O-])cc5F)c5ccc2[nH]5)C=C4)C=C3)cc1
REMARK SMILES IDX 31 1 30 2 29 3 28 4 27 5 25 6 26 7 24 8 1 9 2 10 3 11 4 12
REMARK SMILES IDX 5 13 6 14 7 15 8 17 9 18 23 19 10 20 21 21 11 22 22 23 12 24
REMARK SMILES IDX 13 25 14 26 15 28 16 29 20 30 17 31 19 32 18 33 32 34 33 35
REMARK SMILES IDX 34 36 35 37 36 38 37 39 38 40 39 41 40 42 104 43 41 44
REMARK SMILES IDX 103 45 42 46 43 47 44 48 97 49 45 50 102 51 96 52 98 53
REMARK SMILES IDX 46 54 101 55 95 56 94 57 47 59 81 60 60 61 80 62 61 63 64 64
REMARK SMILES IDX 79 65 99 66 62 67 63 68 78 70 100 71 65 72 48 73 49 74 58 75
REMARK SMILES IDX 50 76 51 77 57 78 59 79 52 80 53 81 54 82 55 83 56 84 82 85
REMARK SMILES IDX 83 86 92 87 84 88 85 89 91 90 93 91 86 92 87 93 88 94 89 95
REMARK SMILES IDX 90 96 66 97 67 98 76 99 68 100 69 101 75 102 77 103 70 104
REMARK SMILES IDX 71 105 72 106 73 107 74 108
REMARK H PARENT 7 16 14 27 98 58 64 69
REMARK Flexibility Score: inf
ROOT
ATOM      1  C   UNL A   1      38.231  21.146  25.339  1.00  0.00     0.188 C 
ENDROOT
BRANCH   1   2
ATOM      2  O   UNL A   1      37.148  22.029  25.617  1.00  0.00    -0.376 OA
BRANCH   2   3
ATOM      3  C   UNL A   1      37.308  23.423  25.349  1.00  0.00     0.202 C 
BRANCH   3   4
ATOM      4  C   UNL A   1      36.053  24.250  25.024  1.00  0.00     0.261 C 
BRANCH   4   5
ATOM      5  O   UNL A   1      34.876  23.430  24.949  1.00  0.00    -0.463 OA
BRANCH   5   6
ATOM      6  C   UNL A   1      34.541  22.973  23.711  1.00  0.00     0.310 C 
ATOM      7  O   UNL A   1      35.207  23.067  22.709  1.00  0.00    -0.252 OA
BRANCH   6   8
ATOM      8  C   UNL A   1      33.276  22.183  23.733  1.00  0.00     0.118 C 
ATOM      9  C   UNL A   1      34.283  19.979  24.862  1.00  0.00     0.013 C 
ATOM     10  C   UNL A   1      33.127  20.741  24.247  1.00  0.00    -0.009 C 
ATOM     11  C   UNL A   1      32.277  19.815  23.414  1.00  0.00     0.013 C 
ATOM     12  C   UNL A   1      32.636  21.936  25.068  1.00  0.00     0.100 C 
BRANCH  12  13
ATOM     13  C   UNL A   1      31.276  22.412  25.467  1.00  0.00     0.228 C 
ATOM     14  O   UNL A   1      30.479  21.553  25.845  1.00  0.00    -0.274 OA
ATOM     15  N   UNL A   1      31.010  23.732  25.761  1.00  0.00    -0.326 N 
ATOM     16  H   UNL A   1      30.953  23.962  26.717  1.00  0.00     0.169 HD
BRANCH  15  17
ATOM     17  C   UNL A   1      30.808  24.787  24.857  1.00  0.00     0.042 A 
ATOM     18  C   UNL A   1      31.641  25.006  23.778  1.00  0.00     0.027 A 
ATOM     19  C   UNL A   1      29.674  25.583  24.959  1.00  0.00     0.047 A 
ATOM     20  C   UNL A   1      31.617  26.220  23.096  1.00  0.00     0.017 A 
ATOM     21  C   UNL A   1      29.521  26.686  24.105  1.00  0.00     0.055 A 
ATOM     22  C   UNL A   1      30.607  27.144  23.357  1.00  0.00     0.058 A 
ATOM     23  Cl  UNL A   1      27.909  27.253  23.852  1.00  0.00    -0.083 Cl
BRANCH  22  24
ATOM     24  C   UNL A   1      30.809  28.520  22.815  1.00  0.00     0.257 C 
ATOM     25  O   UNL A   1      30.414  28.759  21.673  1.00  0.00    -0.269 OA
ATOM     26  N   UNL A   1      31.472  29.507  23.516  1.00  0.00    -0.321 N 
ATOM     27  H   UNL A   1      31.509  30.390  23.082  1.00  0.00     0.170 HD
BRANCH  26  28
ATOM     28  C   UNL A   1      32.099  29.413  24.766  1.00  0.00     0.059 A 
ATOM     29  C   UNL A   1      31.690  30.135  25.889  1.00  0.00     0.029 A 
ATOM     30  C   UNL A   1      33.268  28.673  24.856  1.00  0.00     0.137 A 
ATOM     31  C   UNL A   1      32.517  30.180  27.013  1.00  0.00     0.022 A 
ATOM     32  N   UNL A   1      34.108  28.760  25.908  1.00  0.00    -0.263 NA
ATOM     33  C   UNL A   1      33.726  29.514  26.959  1.00  0.00     0.111 A 
ENDBRANCH  26  28
ENDBRANCH  22  24
ENDBRANCH  15  17
ENDBRANCH  12  13
ENDBRANCH   6   8
ENDBRANCH   5   6
ENDBRANCH   4   5
ENDBRANCH   3   4
ENDBRANCH   2   3
ENDBRANCH   1   2
BRANCH   1  34
ATOM     34  C   UNL A   1      39.492  21.226  26.221  1.00  0.00     0.188 C 
BRANCH  34  35
ATOM     35  O   UNL A   1      40.688  21.430  25.509  1.00  0.00    -0.376 OA
BRANCH  35  36
ATOM     36  C   UNL A   1      41.924  21.239  26.170  1.00  0.00     0.202 C 
BRANCH  36  37
ATOM     37  C   UNL A   1      42.444  22.166  27.288  1.00  0.00     0.261 C 
BRANCH  37  38
ATOM     38  O   UNL A   1      41.678  23.331  27.622  1.00  0.00    -0.460 OA
BRANCH  38  39
ATOM     39  C   UNL A   1      41.989  24.473  26.964  1.00  0.00     0.338 C 
ATOM     40  O   UNL A   1      42.325  24.574  25.797  1.00  0.00    -0.246 OA
BRANCH  39  41
ATOM     41  C   UNL A   1      41.680  25.619  27.847  1.00  0.00     0.060 A 
ATOM     42  C   UNL A   1      42.657  26.600  28.058  1.00  0.00     0.016 A 
ATOM     43  C   UNL A   1      40.452  25.695  28.507  1.00  0.00     0.016 A 
ATOM     44  C   UNL A   1      42.415  27.647  28.950  1.00  0.00     0.010 A 
ATOM     45  C   UNL A   1      40.219  26.737  29.417  1.00  0.00     0.010 A 
ATOM     46  C   UNL A   1      41.212  27.703  29.667  1.00  0.00    -0.014 A 
BRANCH  46  47
ATOM     47  C   UNL A   1      41.096  28.642  30.819  1.00  0.00     0.031 A 
ATOM     48  C   UNL A   1      39.939  29.606  30.832  1.00  0.00     0.074 A 
ATOM     49  C   UNL A   1      41.960  28.609  31.852  1.00  0.00     0.049 A 
ATOM     50  N   UNL A   1      39.604  30.485  31.740  1.00  0.00    -0.248 NA
ATOM     51  C   UNL A   1      39.050  29.586  29.658  1.00  0.00     0.031 C 
ATOM     52  C   UNL A   1      43.101  27.706  31.954  1.00  0.00     0.029 A 
ATOM     53  N   UNL A   1      41.997  29.325  33.029  1.00  0.00    -0.354 N 
ATOM     54  C   UNL A   1      38.511  31.167  31.218  1.00  0.00     0.074 A 
ATOM     55  C   UNL A   1      38.221  30.583  29.928  1.00  0.00     0.031 C 
ATOM     56  C   UNL A   1      43.687  27.875  33.153  1.00  0.00     0.029 A 
ATOM     57  C   UNL A   1      42.990  28.921  33.902  1.00  0.00     0.049 A 
ATOM     58  H   UNL A   1      41.372  30.060  33.229  1.00  0.00     0.167 HD
ATOM     59  C   UNL A   1      37.828  32.205  31.756  1.00  0.00     0.037 A 
ATOM     60  C   UNL A   1      43.269  29.329  35.165  1.00  0.00     0.037 A 
ATOM     61  C   UNL A   1      38.102  32.763  33.053  1.00  0.00     0.049 A 
ATOM     62  C   UNL A   1      42.419  30.426  35.766  1.00  0.00     0.074 A 
ATOM     63  C   UNL A   1      37.475  33.823  33.685  1.00  0.00     0.029 A 
ATOM     64  N   UNL A   1      39.080  32.304  33.922  1.00  0.00    -0.354 N 
ATOM     65  N   UNL A   1      41.348  31.012  35.280  1.00  0.00    -0.248 NA
ATOM     66  C   UNL A   1      42.818  30.925  37.092  1.00  0.00     0.031 C 
ATOM     67  C   UNL A   1      38.103  34.033  34.916  1.00  0.00     0.029 A 
ATOM     68  C   UNL A   1      39.084  33.068  35.076  1.00  0.00     0.049 A 
ATOM     69  H   UNL A   1      39.682  31.546  33.744  1.00  0.00     0.167 HD
ATOM     70  C   UNL A   1      40.947  31.931  36.247  1.00  0.00     0.074 A 
ATOM     71  C   UNL A   1      41.836  31.767  37.374  1.00  0.00     0.031 C 
ATOM     72  C   UNL A   1      39.960  32.860  36.198  1.00  0.00     0.037 A 
BRANCH  59  73
ATOM     73  C   UNL A   1      36.766  32.855  30.913  1.00  0.00     0.058 A 
ATOM     74  C   UNL A   1      37.063  33.821  29.941  1.00  0.00     0.135 A 
ATOM     75  C   UNL A   1      35.423  32.473  31.070  1.00  0.00     0.135 A 
ATOM     76  F   UNL A   1      38.326  34.240  29.767  1.00  0.00    -0.206 F 
ATOM     77  C   UNL A   1      36.063  34.402  29.167  1.00  0.00     0.059 A 
ATOM     78  C   UNL A   1      34.411  33.018  30.286  1.00  0.00     0.059 A 
ATOM     79  F   UNL A   1      35.083  31.557  31.990  1.00  0.00    -0.206 F 
ATOM     80  C   UNL A   1      34.740  33.992  29.346  1.00  0.00     0.060 A 
BRANCH  80  81
ATOM     81  S   UNL A   1      33.453  34.745  28.328  1.00  0.00     0.124 S 
ATOM     82  O   UNL A   1      32.758  35.578  29.307  1.00  0.00    -0.237 OA
ATOM     83  O   UNL A   1      34.230  35.464  27.324  1.00  0.00    -0.237 OA
ATOM     84  O   UNL A   1      32.697  33.600  27.831  1.00  0.00    -0.744 OA
ENDBRANCH  80  81
ENDBRANCH  59  73
BRANCH  60  85
ATOM     85  C   UNL A   1      44.327  28.657  35.998  1.00  0.00     0.058 A 
ATOM     86  C   UNL A   1      45.641  29.168  36.053  1.00  0.00     0.135 A 
ATOM     87  C   UNL A   1      44.070  27.515  36.770  1.00  0.00     0.135 A 
ATOM     88  F   UNL A   1      45.992  30.216  35.291  1.00  0.00    -0.206 F 
ATOM     89  C   UNL A   1      46.619  28.630  36.884  1.00  0.00     0.059 A 
ATOM     90  C   UNL A   1      45.026  26.968  37.628  1.00  0.00     0.059 A 
ATOM     91  F   UNL A   1      42.865  26.926  36.726  1.00  0.00    -0.206 F 
ATOM     92  C   UNL A   1      46.293  27.546  37.691  1.00  0.00     0.060 A 
BRANCH  92  93
ATOM     93  S   UNL A   1      47.524  26.951  38.868  1.00  0.00     0.124 S 
ATOM     94  O   UNL A   1      48.687  26.747  38.013  1.00  0.00    -0.237 OA
ATOM     95  O   UNL A   1      47.602  28.070  39.804  1.00  0.00    -0.237 OA
ATOM     96  O   UNL A   1      46.916  25.738  39.407  1.00  0.00    -0.744 OA
ENDBRANCH  92  93
ENDBRANCH  60  85
BRANCH  72  97
ATOM     97  C   UNL A   1      39.790  33.755  37.399  1.00  0.00     0.058 A 
ATOM     98  C   UNL A   1      40.545  34.930  37.550  1.00  0.00     0.135 A 
ATOM     99  C   UNL A   1      38.835  33.460  38.385  1.00  0.00     0.135 A 
ATOM    100  F   UNL A   1      41.472  35.260  36.637  1.00  0.00    -0.206 F 
ATOM    101  C   UNL A   1      40.389  35.758  38.655  1.00  0.00     0.059 A 
ATOM    102  C   UNL A   1      38.638  34.294  39.483  1.00  0.00     0.059 A 
ATOM    103  F   UNL A   1      38.073  32.359  38.283  1.00  0.00    -0.206 F 
ATOM    104  C   UNL A   1      39.432  35.433  39.617  1.00  0.00     0.060 A 
BRANCH 104 105
ATOM    105  S   UNL A   1      39.223  36.534  41.032  1.00  0.00     0.124 S 
ATOM    106  O   UNL A   1      38.661  37.722  40.399  1.00  0.00    -0.237 OA
ATOM    107  O   UNL A   1      38.309  35.778  41.883  1.00  0.00    -0.237 OA
ATOM    108  O   UNL A   1      40.578  36.681  41.552  1.00  0.00    -0.744 OA
ENDBRANCH 104 105
ENDBRANCH  72  97
ENDBRANCH  46  47
ENDBRANCH  39  41
ENDBRANCH  38  39
ENDBRANCH  37  38
ENDBRANCH  36  37
ENDBRANCH  35  36
ENDBRANCH  34  35
ENDBRANCH   1  34
TORSDOF 24
ENDMDL
MODEL 3
REMARK VINA RESULT:     -10.2      1.677      2.552
REMARK SMILES CC1(C)[C@H](C(=O)Nc2ccc(C(=O)Nc3cccnc3)c(Cl)c2)[C@H]1C(=O)OCCOCCOCCOC(=O)c1ccc(-c2c3nc(c(-c4c(F)cc(S(=O)(=O)[O-])cc4F)c4ccc([nH]4)c(-c4c(F)cc(S(=O)(=O)[O-])cc4F)c4nc(c(-c5c(F)cc(S(=O)(=O)[O-])cc5F)c5ccc2[nH]5)C=C4)C=C3)cc1
REMARK SMILES IDX 31 1 30 2 29 3 28 4 27 5 25 6 26 7 24 8 1 9 2 10 3 11 4 12
REMARK SMILES IDX 5 13 6 14 7 15 8 17 9 18 23 19 10 20 21 21 11 22 22 23 12 24
REMARK SMILES IDX 13 25 14 26 15 28 16 29 20 30 17 31 19 32 18 33 32 34 33 35
REMARK SMILES IDX 34 36 35 37 36 38 37 39 38 40 39 41 40 42 104 43 41 44
REMARK SMILES IDX 103 45 42 46 43 47 44 48 97 49 45 50 102 51 96 52 98 53
REMARK SMILES IDX 46 54 101 55 95 56 94 57 47 59 81 60 60 61 80 62 61 63 64 64
REMARK SMILES IDX 79 65 99 66 62 67 63 68 78 70 100 71 65 72 48 73 49 74 58 75
REMARK SMILES IDX 50 76 51 77 57 78 59 79 52 80 53 81 54 82 55 83 56 84 82 85
REMARK SMILES IDX 83 86 92 87 84 88 85 89 91 90 93 91 86 92 87 93 88 94 89 95
REMARK SMILES IDX 90 96 66 97 67 98 76 99 68 100 69 101 75 102 77 103 70 104
REMARK SMILES IDX 71 105 72 106 73 107 74 108
REMARK H PARENT 7 16 14 27 98 58 64 69
REMARK Flexibility Score: inf
ROOT
ATOM      1  C   UNL A   1      35.590  21.063  26.377  1.00  0.00     0.188 C 
ENDROOT
BRANCH   1   2
ATOM      2  O   UNL A   1      34.486  21.952  26.523  1.00  0.00    -0.376 OA
BRANCH   2   3
ATOM      3  C   UNL A   1      33.164  21.451  26.317  1.00  0.00     0.202 C 
BRANCH   3   4
ATOM      4  C   UNL A   1      32.344  22.019  25.148  1.00  0.00     0.261 C 
BRANCH   4   5
ATOM      5  O   UNL A   1      32.285  21.105  24.042  1.00  0.00    -0.463 OA
BRANCH   5   6
ATOM      6  C   UNL A   1      32.350  21.660  22.800  1.00  0.00     0.310 C 
ATOM      7  O   UNL A   1      32.032  21.133  21.762  1.00  0.00    -0.252 OA
BRANCH   6   8
ATOM      8  C   UNL A   1      32.737  23.100  22.854  1.00  0.00     0.118 C 
ATOM      9  C   UNL A   1      35.385  22.731  22.832  1.00  0.00     0.013 C 
ATOM     10  C   UNL A   1      34.175  23.642  22.902  1.00  0.00    -0.009 C 
ATOM     11  C   UNL A   1      34.434  24.779  23.857  1.00  0.00     0.013 C 
ATOM     12  C   UNL A   1      33.342  23.701  21.619  1.00  0.00     0.100 C 
BRANCH  12  13
ATOM     13  C   UNL A   1      32.749  24.829  20.837  1.00  0.00     0.228 C 
ATOM     14  O   UNL A   1      33.071  24.909  19.652  1.00  0.00    -0.274 OA
ATOM     15  N   UNL A   1      31.640  25.525  21.267  1.00  0.00    -0.326 N 
ATOM     16  H   UNL A   1      30.784  25.285  20.843  1.00  0.00     0.169 HD
BRANCH  15  17
ATOM     17  C   UNL A   1      31.587  26.538  22.238  1.00  0.00     0.042 A 
ATOM     18  C   UNL A   1      30.724  26.487  23.314  1.00  0.00     0.027 A 
ATOM     19  C   UNL A   1      32.504  27.581  22.205  1.00  0.00     0.047 A 
ATOM     20  C   UNL A   1      30.462  27.627  24.071  1.00  0.00     0.017 A 
ATOM     21  C   UNL A   1      32.393  28.633  23.128  1.00  0.00     0.055 A 
ATOM     22  C   UNL A   1      31.229  28.775  23.885  1.00  0.00     0.058 A 
ATOM     23  Cl  UNL A   1      33.827  29.542  23.443  1.00  0.00    -0.083 Cl
BRANCH  22  24
ATOM     24  C   UNL A   1      30.709  30.029  24.507  1.00  0.00     0.257 C 
ATOM     25  O   UNL A   1      29.733  30.574  23.989  1.00  0.00    -0.269 OA
ATOM     26  N   UNL A   1      31.315  30.629  25.593  1.00  0.00    -0.321 N 
ATOM     27  H   UNL A   1      30.862  31.427  25.949  1.00  0.00     0.170 HD
BRANCH  26  28
ATOM     28  C   UNL A   1      32.490  30.247  26.252  1.00  0.00     0.059 A 
ATOM     29  C   UNL A   1      32.779  28.928  26.611  1.00  0.00     0.029 A 
ATOM     30  C   UNL A   1      33.346  31.245  26.693  1.00  0.00     0.137 A 
ATOM     31  C   UNL A   1      33.838  28.672  27.484  1.00  0.00     0.022 A 
ATOM     32  N   UNL A   1      34.329  31.021  27.589  1.00  0.00    -0.263 NA
ATOM     33  C   UNL A   1      34.553  29.748  27.974  1.00  0.00     0.111 A 
ENDBRANCH  26  28
ENDBRANCH  22  24
ENDBRANCH  15  17
ENDBRANCH  12  13
ENDBRANCH   6   8
ENDBRANCH   5   6
ENDBRANCH   4   5
ENDBRANCH   3   4
ENDBRANCH   2   3
ENDBRANCH   1   2
BRANCH   1  34
ATOM     34  C   UNL A   1      36.650  21.374  25.303  1.00  0.00     0.188 C 
BRANCH  34  35
ATOM     35  O   UNL A   1      37.754  22.109  25.771  1.00  0.00    -0.376 OA
BRANCH  35  36
ATOM     36  C   UNL A   1      39.018  21.481  25.848  1.00  0.00     0.202 C 
BRANCH  36  37
ATOM     37  C   UNL A   1      40.268  22.154  26.451  1.00  0.00     0.261 C 
BRANCH  37  38
ATOM     38  O   UNL A   1      40.097  23.353  27.218  1.00  0.00    -0.460 OA
BRANCH  38  39
ATOM     39  C   UNL A   1      41.087  24.274  27.137  1.00  0.00     0.338 C 
ATOM     40  O   UNL A   1      42.057  24.239  26.400  1.00  0.00    -0.246 OA
BRANCH  39  41
ATOM     41  C   UNL A   1      40.709  25.439  27.967  1.00  0.00     0.060 A 
ATOM     42  C   UNL A   1      41.585  26.528  28.052  1.00  0.00     0.016 A 
ATOM     43  C   UNL A   1      39.522  25.432  28.701  1.00  0.00     0.016 A 
ATOM     44  C   UNL A   1      41.286  27.602  28.892  1.00  0.00     0.010 A 
ATOM     45  C   UNL A   1      39.233  26.503  29.559  1.00  0.00     0.010 A 
ATOM     46  C   UNL A   1      40.128  27.582  29.683  1.00  0.00    -0.014 A 
BRANCH  46  47
ATOM     47  C   UNL A   1      39.980  28.579  30.781  1.00  0.00     0.031 A 
ATOM     48  C   UNL A   1      40.972  28.538  31.913  1.00  0.00     0.074 A 
ATOM     49  C   UNL A   1      39.026  29.531  30.752  1.00  0.00     0.049 A 
ATOM     50  N   UNL A   1      41.074  29.323  32.953  1.00  0.00    -0.248 NA
ATOM     51  C   UNL A   1      41.973  27.458  31.875  1.00  0.00     0.031 C 
ATOM     52  C   UNL A   1      38.029  29.677  29.697  1.00  0.00     0.029 A 
ATOM     53  N   UNL A   1      38.759  30.576  31.610  1.00  0.00    -0.354 N 
ATOM     54  C   UNL A   1      42.102  28.793  33.725  1.00  0.00     0.074 A 
ATOM     55  C   UNL A   1      42.610  27.638  33.021  1.00  0.00     0.031 C 
ATOM     56  C   UNL A   1      37.302  30.784  29.935  1.00  0.00     0.029 A 
ATOM     57  C   UNL A   1      37.752  31.417  31.176  1.00  0.00     0.049 A 
ATOM     58  H   UNL A   1      39.243  30.711  32.457  1.00  0.00     0.167 HD
ATOM     59  C   UNL A   1      42.562  29.218  34.926  1.00  0.00     0.037 A 
ATOM     60  C   UNL A   1      37.283  32.574  31.704  1.00  0.00     0.037 A 
ATOM     61  C   UNL A   1      42.073  30.386  35.608  1.00  0.00     0.049 A 
ATOM     62  C   UNL A   1      37.891  33.066  33.000  1.00  0.00     0.074 A 
ATOM     63  C   UNL A   1      42.464  30.895  36.834  1.00  0.00     0.029 A 
ATOM     64  N   UNL A   1      41.088  31.233  35.120  1.00  0.00    -0.354 N 
ATOM     65  N   UNL A   1      38.908  32.583  33.678  1.00  0.00    -0.248 NA
ATOM     66  C   UNL A   1      37.286  34.261  33.607  1.00  0.00     0.031 C 
ATOM     67  C   UNL A   1      41.685  32.023  37.108  1.00  0.00     0.029 A 
ATOM     68  C   UNL A   1      40.848  32.250  36.028  1.00  0.00     0.049 A 
ATOM     69  H   UNL A   1      40.628  31.125  34.257  1.00  0.00     0.167 HD
ATOM     70  C   UNL A   1      39.064  33.426  34.777  1.00  0.00     0.074 A 
ATOM     71  C   UNL A   1      38.095  34.488  34.630  1.00  0.00     0.031 C 
ATOM     72  C   UNL A   1      39.900  33.316  35.839  1.00  0.00     0.037 A 
BRANCH  59  73
ATOM     73  C   UNL A   1      43.598  28.375  35.616  1.00  0.00     0.058 A 
ATOM     74  C   UNL A   1      44.974  28.561  35.420  1.00  0.00     0.135 A 
ATOM     75  C   UNL A   1      43.193  27.377  36.520  1.00  0.00     0.135 A 
ATOM     76  F   UNL A   1      45.414  29.484  34.550  1.00  0.00    -0.206 F 
ATOM     77  C   UNL A   1      45.913  27.774  36.078  1.00  0.00     0.059 A 
ATOM     78  C   UNL A   1      44.116  26.599  37.211  1.00  0.00     0.059 A 
ATOM     79  F   UNL A   1      41.888  27.153  36.740  1.00  0.00    -0.206 F 
ATOM     80  C   UNL A   1      45.475  26.796  36.973  1.00  0.00     0.060 A 
BRANCH  80  81
ATOM     81  S   UNL A   1      46.703  25.789  37.829  1.00  0.00     0.124 S 
ATOM     82  O   UNL A   1      47.756  25.695  36.821  1.00  0.00    -0.237 OA
ATOM     83  O   UNL A   1      47.016  26.605  38.998  1.00  0.00    -0.237 OA
ATOM     84  O   UNL A   1      45.991  24.545  38.109  1.00  0.00    -0.744 OA
ENDBRANCH  80  81
ENDBRANCH  59  73
BRANCH  60  85
ATOM     85  C   UNL A   1      36.256  33.411  30.992  1.00  0.00     0.058 A 
ATOM     86  C   UNL A   1      34.910  33.422  31.413  1.00  0.00     0.135 A 
ATOM     87  C   UNL A   1      36.573  34.231  29.899  1.00  0.00     0.135 A 
ATOM     88  F   UNL A   1      34.504  32.614  32.406  1.00  0.00    -0.206 F 
ATOM     89  C   UNL A   1      33.953  34.253  30.839  1.00  0.00     0.059 A 
ATOM     90  C   UNL A   1      35.638  35.091  29.320  1.00  0.00     0.059 A 
ATOM     91  F   UNL A   1      37.817  34.233  29.394  1.00  0.00    -0.206 F 
ATOM     92  C   UNL A   1      34.334  35.108  29.811  1.00  0.00     0.060 A 
BRANCH  92  93
ATOM     93  S   UNL A   1      33.121  36.283  29.176  1.00  0.00     0.124 S 
ATOM     94  O   UNL A   1      33.939  37.122  28.308  1.00  0.00    -0.237 OA
ATOM     95  O   UNL A   1      32.172  35.396  28.508  1.00  0.00    -0.237 OA
ATOM     96  O   UNL A   1      32.616  36.930  30.383  1.00  0.00    -0.744 OA
ENDBRANCH  92  93
ENDBRANCH  60  85
BRANCH  72  97
ATOM     97  C   UNL A   1      39.807  34.372  36.909  1.00  0.00     0.058 A 
ATOM     98  C   UNL A   1      40.508  35.586  36.804  1.00  0.00     0.135 A 
ATOM     99  C   UNL A   1      38.978  34.192  38.028  1.00  0.00     0.135 A 
ATOM    100  F   UNL A   1      41.315  35.811  35.755  1.00  0.00    -0.206 F 
ATOM    101  C   UNL A   1      40.423  36.563  37.788  1.00  0.00     0.059 A 
ATOM    102  C   UNL A   1      38.851  35.172  39.009  1.00  0.00     0.059 A 
ATOM    103  F   UNL A   1      38.271  33.059  38.171  1.00  0.00    -0.206 F 
ATOM    104  C   UNL A   1      39.591  36.348  38.888  1.00  0.00     0.060 A 
BRANCH 104 105
ATOM    105  S   UNL A   1      39.470  37.639  40.143  1.00  0.00     0.124 S 
ATOM    106  O   UNL A   1      38.589  38.602  39.490  1.00  0.00    -0.237 OA
ATOM    107  O   UNL A   1      38.894  36.921  41.276  1.00  0.00    -0.237 OA
ATOM    108  O   UNL A   1      40.852  38.072  40.320  1.00  0.00    -0.744 OA
ENDBRANCH 104 105
ENDBRANCH  72  97
ENDBRANCH  46  47
ENDBRANCH  39  41
ENDBRANCH  38  39
ENDBRANCH  37  38
ENDBRANCH  36  37
ENDBRANCH  35  36
ENDBRANCH  34  35
ENDBRANCH   1  34
TORSDOF 24
ENDMDL
