MODEL 1
REMARK VINA RESULT:      -9.9      0.000      0.000
REMARK SMILES O=C(OCCOCCOCCOC(=O)c1cc(OC[C@@H]2Cc3cc(F)ccc3O2)cs1)c1ccc(-c2c3nc(c(-c4c(F)cc(S(=O)(=O)[O-])cc4F)c4ccc([nH]4)c(-c4c(F)cc(S(=O)(=O)[O-])cc4F)c4nc(c(-c5c(F)cc(S(=O)(=O)[O-])cc5F)c5ccc2[nH]5)C=C4)C=C3)cc1
REMARK SMILES IDX 7 1 6 2 5 3 4 4 3 5 2 6 1 7 32 8 33 9 97 10 34 11 96 12
REMARK SMILES IDX 35 13 36 14 37 15 90 16 38 17 95 18 89 19 91 20 39 21 94 22
REMARK SMILES IDX 88 23 87 24 40 26 74 27 53 28 73 29 54 30 57 31 72 32 92 33
REMARK SMILES IDX 55 34 56 35 71 37 93 38 58 39 41 40 42 41 51 42 43 43 44 44
REMARK SMILES IDX 50 45 52 46 45 47 46 48 47 49 48 50 49 51 75 52 76 53 85 54
REMARK SMILES IDX 77 55 78 56 84 57 86 58 79 59 80 60 81 61 82 62 83 63 59 64
REMARK SMILES IDX 60 65 69 66 61 67 62 68 68 69 70 70 63 71 64 72 65 73 66 74
REMARK SMILES IDX 67 75 8 76 9 77 10 78 11 79 12 80 13 81 14 82 15 83 16 84
REMARK SMILES IDX 31 85 17 86 30 87 18 88 19 89 20 90 21 91 29 92 22 93 28 94
REMARK SMILES IDX 23 95 27 96 24 97 26 98 25 99
REMARK H PARENT 91 25 57 36
REMARK Flexibility Score: inf
ROOT
ATOM      1  C   UNL A   1      41.382  21.735  26.540  1.00  0.00     0.188 C 
ENDROOT
BRANCH   1   2
ATOM      2  O   UNL A   1      41.825  20.458  27.021  1.00  0.00    -0.376 OA
BRANCH   2   3
ATOM      3  C   UNL A   1      41.622  19.398  26.083  1.00  0.00     0.202 C 
BRANCH   3   4
ATOM      4  C   UNL A   1      42.826  18.475  25.852  1.00  0.00     0.261 C 
BRANCH   4   5
ATOM      5  O   UNL A   1      43.548  18.762  24.648  1.00  0.00    -0.460 OA
BRANCH   5   6
ATOM      6  C   UNL A   1      44.616  19.576  24.464  1.00  0.00     0.338 C 
ATOM      7  O   UNL A   1      45.621  19.074  23.958  1.00  0.00    -0.246 OA
BRANCH   6   8
ATOM      8  C   UNL A   1      44.677  21.032  24.843  1.00  0.00     0.060 A 
ATOM      9  C   UNL A   1      45.224  21.319  26.110  1.00  0.00     0.016 A 
ATOM     10  C   UNL A   1      44.223  22.115  24.088  1.00  0.00     0.016 A 
ATOM     11  C   UNL A   1      45.349  22.635  26.577  1.00  0.00     0.010 A 
ATOM     12  C   UNL A   1      44.364  23.434  24.536  1.00  0.00     0.010 A 
ATOM     13  C   UNL A   1      44.944  23.705  25.774  1.00  0.00    -0.014 A 
BRANCH  13  14
ATOM     14  C   UNL A   1      45.259  25.106  26.137  1.00  0.00     0.031 A 
ATOM     15  C   UNL A   1      46.631  25.684  25.956  1.00  0.00     0.074 A 
ATOM     16  C   UNL A   1      44.272  25.839  26.680  1.00  0.00     0.049 A 
ATOM     17  N   UNL A   1      47.083  26.876  26.253  1.00  0.00    -0.248 NA
ATOM     18  C   UNL A   1      47.624  24.802  25.339  1.00  0.00     0.031 C 
ATOM     19  C   UNL A   1      42.895  25.380  26.882  1.00  0.00     0.029 A 
ATOM     20  N   UNL A   1      44.273  27.121  27.155  1.00  0.00    -0.354 N 
ATOM     21  C   UNL A   1      48.419  26.892  25.857  1.00  0.00     0.074 A 
ATOM     22  C   UNL A   1      48.682  25.602  25.276  1.00  0.00     0.031 C 
ATOM     23  C   UNL A   1      42.176  26.380  27.413  1.00  0.00     0.029 A 
ATOM     24  C   UNL A   1      43.048  27.531  27.619  1.00  0.00     0.049 A 
ATOM     25  H   UNL A   1      45.073  27.694  27.162  1.00  0.00     0.167 HD
ATOM     26  C   UNL A   1      49.339  27.883  25.994  1.00  0.00     0.037 A 
ATOM     27  C   UNL A   1      42.674  28.711  28.145  1.00  0.00     0.037 A 
ATOM     28  C   UNL A   1      49.032  29.151  26.606  1.00  0.00     0.049 A 
ATOM     29  C   UNL A   1      43.692  29.807  28.264  1.00  0.00     0.074 A 
ATOM     30  C   UNL A   1      49.873  30.225  26.843  1.00  0.00     0.029 A 
ATOM     31  N   UNL A   1      47.779  29.515  27.075  1.00  0.00    -0.354 N 
ATOM     32  N   UNL A   1      44.967  29.778  27.959  1.00  0.00    -0.248 NA
ATOM     33  C   UNL A   1      43.224  31.096  28.786  1.00  0.00     0.031 C 
ATOM     34  C   UNL A   1      49.151  31.204  27.524  1.00  0.00     0.029 A 
ATOM     35  C   UNL A   1      47.832  30.791  27.599  1.00  0.00     0.049 A 
ATOM     36  H   UNL A   1      46.974  28.949  27.039  1.00  0.00     0.167 HD
ATOM     37  C   UNL A   1      45.446  31.054  28.225  1.00  0.00     0.074 A 
ATOM     38  C   UNL A   1      44.326  31.831  28.710  1.00  0.00     0.031 C 
ATOM     39  C   UNL A   1      46.701  31.539  28.077  1.00  0.00     0.037 A 
BRANCH  26  40
ATOM     40  C   UNL A   1      50.775  27.655  25.562  1.00  0.00     0.058 A 
ATOM     41  C   UNL A   1      51.787  27.233  26.437  1.00  0.00     0.135 A 
ATOM     42  C   UNL A   1      51.120  27.774  24.203  1.00  0.00     0.135 A 
ATOM     43  F   UNL A   1      51.531  27.088  27.746  1.00  0.00    -0.206 F 
ATOM     44  C   UNL A   1      53.090  26.994  25.991  1.00  0.00     0.059 A 
ATOM     45  C   UNL A   1      52.395  27.486  23.725  1.00  0.00     0.059 A 
ATOM     46  F   UNL A   1      50.216  28.210  23.309  1.00  0.00    -0.206 F 
ATOM     47  C   UNL A   1      53.384  27.130  24.632  1.00  0.00     0.060 A 
BRANCH  47  48
ATOM     48  S   UNL A   1      55.099  26.979  24.082  1.00  0.00     0.124 S 
ATOM     49  O   UNL A   1      54.926  26.804  22.644  1.00  0.00    -0.237 OA
ATOM     50  O   UNL A   1      55.674  28.248  24.510  1.00  0.00    -0.237 OA
ATOM     51  O   UNL A   1      55.577  25.797  24.792  1.00  0.00    -0.744 OA
ENDBRANCH  47  48
ENDBRANCH  26  40
BRANCH  27  52
ATOM     52  C   UNL A   1      41.255  28.924  28.513  1.00  0.00     0.058 A 
ATOM     53  C   UNL A   1      40.865  28.895  29.860  1.00  0.00     0.135 A 
ATOM     54  C   UNL A   1      40.281  29.219  27.550  1.00  0.00     0.135 A 
ATOM     55  F   UNL A   1      41.769  28.625  30.814  1.00  0.00    -0.206 F 
ATOM     56  C   UNL A   1      39.551  29.134  30.240  1.00  0.00     0.059 A 
ATOM     57  C   UNL A   1      38.963  29.485  27.907  1.00  0.00     0.059 A 
ATOM     58  F   UNL A   1      40.614  29.288  26.252  1.00  0.00    -0.206 F 
ATOM     59  C   UNL A   1      38.607  29.430  29.255  1.00  0.00     0.060 A 
BRANCH  59  60
ATOM     60  S   UNL A   1      36.913  29.784  29.768  1.00  0.00     0.124 S 
ATOM     61  O   UNL A   1      36.807  28.987  30.985  1.00  0.00    -0.237 OA
ATOM     62  O   UNL A   1      36.945  31.231  29.952  1.00  0.00    -0.237 OA
ATOM     63  O   UNL A   1      36.117  29.318  28.637  1.00  0.00    -0.744 OA
ENDBRANCH  59  60
ENDBRANCH  27  52
BRANCH  39  64
ATOM     64  C   UNL A   1      46.943  32.982  28.399  1.00  0.00     0.058 A 
ATOM     65  C   UNL A   1      47.417  33.384  29.654  1.00  0.00     0.135 A 
ATOM     66  C   UNL A   1      46.822  33.952  27.390  1.00  0.00     0.135 A 
ATOM     67  F   UNL A   1      47.559  32.488  30.644  1.00  0.00    -0.206 F 
ATOM     68  C   UNL A   1      47.752  34.708  29.905  1.00  0.00     0.059 A 
ATOM     69  C   UNL A   1      47.176  35.276  27.611  1.00  0.00     0.059 A 
ATOM     70  F   UNL A   1      46.393  33.605  26.165  1.00  0.00    -0.206 F 
ATOM     71  C   UNL A   1      47.634  35.645  28.874  1.00  0.00     0.060 A 
BRANCH  71  72
ATOM     72  S   UNL A   1      48.127  37.349  29.201  1.00  0.00     0.124 S 
ATOM     73  O   UNL A   1      48.116  37.382  30.660  1.00  0.00    -0.237 OA
ATOM     74  O   UNL A   1      49.442  37.418  28.574  1.00  0.00    -0.237 OA
ATOM     75  O   UNL A   1      47.085  38.136  28.548  1.00  0.00    -0.744 OA
ENDBRANCH  71  72
ENDBRANCH  39  64
ENDBRANCH  13  14
ENDBRANCH   6   8
ENDBRANCH   5   6
ENDBRANCH   4   5
ENDBRANCH   3   4
ENDBRANCH   2   3
ENDBRANCH   1   2
BRANCH   1  76
ATOM     76  C   UNL A   1      40.082  22.188  27.202  1.00  0.00     0.188 C 
BRANCH  76  77
ATOM     77  O   UNL A   1      38.952  22.378  26.348  1.00  0.00    -0.376 OA
BRANCH  77  78
ATOM     78  C   UNL A   1      38.438  21.242  25.668  1.00  0.00     0.202 C 
BRANCH  78  79
ATOM     79  C   UNL A   1      37.391  21.453  24.570  1.00  0.00     0.261 C 
BRANCH  79  80
ATOM     80  O   UNL A   1      36.414  22.454  24.834  1.00  0.00    -0.459 OA
BRANCH  80  81
ATOM     81  C   UNL A   1      35.754  22.889  23.721  1.00  0.00     0.348 C 
ATOM     82  O   UNL A   1      36.286  23.250  22.676  1.00  0.00    -0.245 OA
BRANCH  81  83
ATOM     83  C   UNL A   1      34.372  23.066  24.047  1.00  0.00     0.116 A 
ATOM     84  C   UNL A   1      33.920  23.734  25.157  1.00  0.00     0.074 A 
ATOM     85  S   UNL A   1      33.104  22.436  23.104  1.00  0.00    -0.133 S 
ATOM     86  C   UNL A   1      32.529  23.575  25.331  1.00  0.00     0.131 A 
ATOM     87  C   UNL A   1      31.933  23.003  24.228  1.00  0.00     0.112 A 
BRANCH  86  88
ATOM     88  O   UNL A   1      31.793  23.917  26.412  1.00  0.00    -0.489 OA
BRANCH  88  89
ATOM     89  C   UNL A   1      30.442  24.338  26.123  1.00  0.00     0.275 C 
BRANCH  89  90
ATOM     90  C   UNL A   1      30.285  25.879  26.106  1.00  0.00     0.215 C 
ATOM     91  C   UNL A   1      30.382  26.478  24.694  1.00  0.00     0.088 C 
ATOM     92  O   UNL A   1      31.313  26.503  26.942  1.00  0.00    -0.486 OA
ATOM     93  C   UNL A   1      31.691  27.150  24.764  1.00  0.00     0.001 A 
ATOM     94  C   UNL A   1      32.144  27.147  26.069  1.00  0.00     0.123 A 
ATOM     95  C   UNL A   1      32.411  27.748  23.747  1.00  0.00     0.047 A 
ATOM     96  C   UNL A   1      33.332  27.755  26.421  1.00  0.00     0.050 A 
ATOM     97  C   UNL A   1      33.618  28.348  24.085  1.00  0.00     0.123 A 
ATOM     98  C   UNL A   1      34.080  28.360  25.408  1.00  0.00     0.043 A 
ATOM     99  F   UNL A   1      34.354  28.931  23.129  1.00  0.00    -0.207 F 
ENDBRANCH  89  90
ENDBRANCH  88  89
ENDBRANCH  86  88
ENDBRANCH  81  83
ENDBRANCH  80  81
ENDBRANCH  79  80
ENDBRANCH  78  79
ENDBRANCH  77  78
ENDBRANCH  76  77
ENDBRANCH   1  76
TORSDOF 23
ENDMDL
MODEL 2
REMARK VINA RESULT:      -9.9      6.395     11.352
REMARK SMILES O=C(OCCOCCOCCOC(=O)c1cc(OC[C@@H]2Cc3cc(F)ccc3O2)cs1)c1ccc(-c2c3nc(c(-c4c(F)cc(S(=O)(=O)[O-])cc4F)c4ccc([nH]4)c(-c4c(F)cc(S(=O)(=O)[O-])cc4F)c4nc(c(-c5c(F)cc(S(=O)(=O)[O-])cc5F)c5ccc2[nH]5)C=C4)C=C3)cc1
REMARK SMILES IDX 7 1 6 2 5 3 4 4 3 5 2 6 1 7 32 8 33 9 97 10 34 11 96 12
REMARK SMILES IDX 35 13 36 14 37 15 90 16 38 17 95 18 89 19 91 20 39 21 94 22
REMARK SMILES IDX 88 23 87 24 40 26 74 27 53 28 73 29 54 30 57 31 72 32 92 33
REMARK SMILES IDX 55 34 56 35 71 37 93 38 58 39 41 40 42 41 51 42 43 43 44 44
REMARK SMILES IDX 50 45 52 46 45 47 46 48 47 49 48 50 49 51 75 52 76 53 85 54
REMARK SMILES IDX 77 55 78 56 84 57 86 58 79 59 80 60 81 61 82 62 83 63 59 64
REMARK SMILES IDX 60 65 69 66 61 67 62 68 68 69 70 70 63 71 64 72 65 73 66 74
REMARK SMILES IDX 67 75 8 76 9 77 10 78 11 79 12 80 13 81 14 82 15 83 16 84
REMARK SMILES IDX 31 85 17 86 30 87 18 88 19 89 20 90 21 91 29 92 22 93 28 94
REMARK SMILES IDX 23 95 27 96 24 97 26 98 25 99
REMARK H PARENT 91 25 57 36
REMARK Flexibility Score: inf
ROOT
ATOM      1  C   UNL A   1      45.640  21.456  25.384  1.00  0.00     0.188 C 
ENDROOT
BRANCH   1   2
ATOM      2  O   UNL A   1      45.594  22.815  24.924  1.00  0.00    -0.376 OA
BRANCH   2   3
ATOM      3  C   UNL A   1      44.270  23.274  24.643  1.00  0.00     0.202 C 
BRANCH   3   4
ATOM      4  C   UNL A   1      43.557  23.992  25.797  1.00  0.00     0.261 C 
BRANCH   4   5
ATOM      5  O   UNL A   1      42.558  24.924  25.365  1.00  0.00    -0.460 OA
BRANCH   5   6
ATOM      6  C   UNL A   1      42.463  26.253  25.613  1.00  0.00     0.338 C 
ATOM      7  O   UNL A   1      42.616  27.014  24.656  1.00  0.00    -0.246 OA
BRANCH   6   8
ATOM      8  C   UNL A   1      42.206  26.871  26.962  1.00  0.00     0.060 A 
ATOM      9  C   UNL A   1      42.879  28.080  27.229  1.00  0.00     0.016 A 
ATOM     10  C   UNL A   1      41.399  26.356  27.980  1.00  0.00     0.016 A 
ATOM     11  C   UNL A   1      42.715  28.762  28.442  1.00  0.00     0.010 A 
ATOM     12  C   UNL A   1      41.211  27.042  29.186  1.00  0.00     0.010 A 
ATOM     13  C   UNL A   1      41.853  28.257  29.419  1.00  0.00    -0.014 A 
BRANCH  13  14
ATOM     14  C   UNL A   1      41.486  29.053  30.613  1.00  0.00     0.031 A 
ATOM     15  C   UNL A   1      40.329  30.007  30.607  1.00  0.00     0.074 A 
ATOM     16  C   UNL A   1      42.262  28.923  31.703  1.00  0.00     0.049 A 
ATOM     17  N   UNL A   1      39.895  30.802  31.552  1.00  0.00    -0.248 NA
ATOM     18  C   UNL A   1      39.541  30.055  29.373  1.00  0.00     0.031 C 
ATOM     19  C   UNL A   1      43.401  28.009  31.821  1.00  0.00     0.029 A 
ATOM     20  N   UNL A   1      42.208  29.553  32.915  1.00  0.00    -0.354 N 
ATOM     21  C   UNL A   1      38.778  31.451  31.028  1.00  0.00     0.074 A 
ATOM     22  C   UNL A   1      38.595  30.927  29.700  1.00  0.00     0.031 C 
ATOM     23  C   UNL A   1      43.920  28.117  33.053  1.00  0.00     0.029 A 
ATOM     24  C   UNL A   1      43.174  29.129  33.793  1.00  0.00     0.049 A 
ATOM     25  H   UNL A   1      41.541  30.242  33.137  1.00  0.00     0.167 HD
ATOM     26  C   UNL A   1      38.001  32.410  31.597  1.00  0.00     0.037 A 
ATOM     27  C   UNL A   1      43.420  29.512  35.058  1.00  0.00     0.037 A 
ATOM     28  C   UNL A   1      38.241  32.919  32.924  1.00  0.00     0.049 A 
ATOM     29  C   UNL A   1      42.538  30.551  35.685  1.00  0.00     0.074 A 
ATOM     30  C   UNL A   1      37.560  33.912  33.607  1.00  0.00     0.029 A 
ATOM     31  N   UNL A   1      39.242  32.468  33.771  1.00  0.00    -0.354 N 
ATOM     32  N   UNL A   1      41.538  31.210  35.150  1.00  0.00    -0.248 NA
ATOM     33  C   UNL A   1      42.805  30.894  37.087  1.00  0.00     0.031 C 
ATOM     34  C   UNL A   1      38.196  34.117  34.831  1.00  0.00     0.029 A 
ATOM     35  C   UNL A   1      39.193  33.166  34.961  1.00  0.00     0.049 A 
ATOM     36  H   UNL A   1      39.889  31.758  33.555  1.00  0.00     0.167 HD
ATOM     37  C   UNL A   1      41.039  32.022  36.159  1.00  0.00     0.074 A 
ATOM     38  C   UNL A   1      41.841  31.770  37.337  1.00  0.00     0.031 C 
ATOM     39  C   UNL A   1      40.006  32.895  36.115  1.00  0.00     0.037 A 
BRANCH  26  40
ATOM     40  C   UNL A   1      36.872  33.044  30.809  1.00  0.00     0.058 A 
ATOM     41  C   UNL A   1      37.078  33.912  29.726  1.00  0.00     0.135 A 
ATOM     42  C   UNL A   1      35.540  32.689  31.093  1.00  0.00     0.135 A 
ATOM     43  F   UNL A   1      38.321  34.288  29.389  1.00  0.00    -0.206 F 
ATOM     44  C   UNL A   1      36.010  34.443  28.998  1.00  0.00     0.059 A 
ATOM     45  C   UNL A   1      34.463  33.159  30.346  1.00  0.00     0.059 A 
ATOM     46  F   UNL A   1      35.258  31.893  32.138  1.00  0.00    -0.206 F 
ATOM     47  C   UNL A   1      34.705  34.064  29.321  1.00  0.00     0.060 A 
BRANCH  47  48
ATOM     48  S   UNL A   1      33.320  34.873  28.488  1.00  0.00     0.124 S 
ATOM     49  O   UNL A   1      34.017  35.823  27.626  1.00  0.00    -0.237 OA
ATOM     50  O   UNL A   1      32.667  33.756  27.817  1.00  0.00    -0.237 OA
ATOM     51  O   UNL A   1      32.572  35.475  29.587  1.00  0.00    -0.744 OA
ENDBRANCH  47  48
ENDBRANCH  26  40
BRANCH  27  52
ATOM     52  C   UNL A   1      44.497  28.843  35.823  1.00  0.00     0.058 A 
ATOM     53  C   UNL A   1      45.802  29.357  35.800  1.00  0.00     0.135 A 
ATOM     54  C   UNL A   1      44.242  27.726  36.631  1.00  0.00     0.135 A 
ATOM     55  F   UNL A   1      46.086  30.430  35.046  1.00  0.00    -0.206 F 
ATOM     56  C   UNL A   1      46.823  28.777  36.541  1.00  0.00     0.059 A 
ATOM     57  C   UNL A   1      45.243  27.142  37.401  1.00  0.00     0.059 A 
ATOM     58  F   UNL A   1      43.002  27.218  36.708  1.00  0.00    -0.206 F 
ATOM     59  C   UNL A   1      46.533  27.671  37.340  1.00  0.00     0.060 A 
BRANCH  59  60
ATOM     60  S   UNL A   1      47.860  26.956  38.332  1.00  0.00     0.124 S 
ATOM     61  O   UNL A   1      47.116  26.403  39.457  1.00  0.00    -0.237 OA
ATOM     62  O   UNL A   1      48.441  25.985  37.411  1.00  0.00    -0.237 OA
ATOM     63  O   UNL A   1      48.706  28.106  38.638  1.00  0.00    -0.744 OA
ENDBRANCH  59  60
ENDBRANCH  27  52
BRANCH  39  64
ATOM     64  C   UNL A   1      39.643  33.623  37.373  1.00  0.00     0.058 A 
ATOM     65  C   UNL A   1      38.638  33.153  38.228  1.00  0.00     0.135 A 
ATOM     66  C   UNL A   1      40.404  34.729  37.785  1.00  0.00     0.135 A 
ATOM     67  F   UNL A   1      37.893  32.091  37.880  1.00  0.00    -0.206 F 
ATOM     68  C   UNL A   1      38.389  33.765  39.450  1.00  0.00     0.059 A 
ATOM     69  C   UNL A   1      40.191  35.341  39.013  1.00  0.00     0.059 A 
ATOM     70  F   UNL A   1      41.392  35.199  37.005  1.00  0.00    -0.206 F 
ATOM     71  C   UNL A   1      39.176  34.854  39.835  1.00  0.00     0.060 A 
BRANCH  71  72
ATOM     72  S   UNL A   1      38.877  35.602  41.450  1.00  0.00     0.124 S 
ATOM     73  O   UNL A   1      37.626  34.962  41.841  1.00  0.00    -0.237 OA
ATOM     74  O   UNL A   1      40.060  35.199  42.203  1.00  0.00    -0.237 OA
ATOM     75  O   UNL A   1      38.786  37.029  41.152  1.00  0.00    -0.744 OA
ENDBRANCH  71  72
ENDBRANCH  39  64
ENDBRANCH  13  14
ENDBRANCH   6   8
ENDBRANCH   5   6
ENDBRANCH   4   5
ENDBRANCH   3   4
ENDBRANCH   2   3
ENDBRANCH   1   2
BRANCH   1  76
ATOM     76  C   UNL A   1      45.477  20.450  24.246  1.00  0.00     0.188 C 
BRANCH  76  77
ATOM     77  O   UNL A   1      44.278  19.673  24.234  1.00  0.00    -0.376 OA
BRANCH  77  78
ATOM     78  C   UNL A   1      44.044  18.798  25.329  1.00  0.00     0.202 C 
BRANCH  78  79
ATOM     79  C   UNL A   1      42.700  18.876  26.059  1.00  0.00     0.261 C 
BRANCH  79  80
ATOM     80  O   UNL A   1      41.939  20.057  25.826  1.00  0.00    -0.459 OA
BRANCH  80  81
ATOM     81  C   UNL A   1      40.593  19.884  25.972  1.00  0.00     0.348 C 
ATOM     82  O   UNL A   1      39.975  18.861  25.696  1.00  0.00    -0.245 OA
BRANCH  81  83
ATOM     83  C   UNL A   1      40.000  21.148  26.282  1.00  0.00     0.116 A 
ATOM     84  C   UNL A   1      38.834  21.611  25.727  1.00  0.00     0.074 A 
ATOM     85  S   UNL A   1      40.691  22.261  27.369  1.00  0.00    -0.133 S 
ATOM     86  C   UNL A   1      38.597  22.962  26.059  1.00  0.00     0.131 A 
ATOM     87  C   UNL A   1      39.452  23.408  27.044  1.00  0.00     0.112 A 
BRANCH  86  88
ATOM     88  O   UNL A   1      37.668  23.787  25.528  1.00  0.00    -0.489 OA
BRANCH  88  89
ATOM     89  C   UNL A   1      36.315  23.554  25.977  1.00  0.00     0.275 C 
BRANCH  89  90
ATOM     90  C   UNL A   1      35.555  22.537  25.090  1.00  0.00     0.215 C 
ATOM     91  C   UNL A   1      35.055  23.145  23.771  1.00  0.00     0.088 C 
ATOM     92  O   UNL A   1      34.403  21.995  25.814  1.00  0.00    -0.486 OA
ATOM     93  C   UNL A   1      33.603  23.199  24.020  1.00  0.00     0.001 A 
ATOM     94  C   UNL A   1      33.306  22.507  25.178  1.00  0.00     0.123 A 
ATOM     95  C   UNL A   1      32.616  23.791  23.255  1.00  0.00     0.047 A 
ATOM     96  C   UNL A   1      32.007  22.363  25.619  1.00  0.00     0.050 A 
ATOM     97  C   UNL A   1      31.304  23.669  23.697  1.00  0.00     0.123 A 
ATOM     98  C   UNL A   1      30.992  22.960  24.865  1.00  0.00     0.043 A 
ATOM     99  F   UNL A   1      30.317  24.236  22.992  1.00  0.00    -0.207 F 
ENDBRANCH  89  90
ENDBRANCH  88  89
ENDBRANCH  86  88
ENDBRANCH  81  83
ENDBRANCH  80  81
ENDBRANCH  79  80
ENDBRANCH  78  79
ENDBRANCH  77  78
ENDBRANCH  76  77
ENDBRANCH   1  76
TORSDOF 23
ENDMDL
MODEL 3
REMARK VINA RESULT:      -9.8      6.521     10.978
REMARK SMILES O=C(OCCOCCOCCOC(=O)c1cc(OC[C@@H]2Cc3cc(F)ccc3O2)cs1)c1ccc(-c2c3nc(c(-c4c(F)cc(S(=O)(=O)[O-])cc4F)c4ccc([nH]4)c(-c4c(F)cc(S(=O)(=O)[O-])cc4F)c4nc(c(-c5c(F)cc(S(=O)(=O)[O-])cc5F)c5ccc2[nH]5)C=C4)C=C3)cc1
REMARK SMILES IDX 7 1 6 2 5 3 4 4 3 5 2 6 1 7 32 8 33 9 97 10 34 11 96 12
REMARK SMILES IDX 35 13 36 14 37 15 90 16 38 17 95 18 89 19 91 20 39 21 94 22
REMARK SMILES IDX 88 23 87 24 40 26 74 27 53 28 73 29 54 30 57 31 72 32 92 33
REMARK SMILES IDX 55 34 56 35 71 37 93 38 58 39 41 40 42 41 51 42 43 43 44 44
REMARK SMILES IDX 50 45 52 46 45 47 46 48 47 49 48 50 49 51 75 52 76 53 85 54
REMARK SMILES IDX 77 55 78 56 84 57 86 58 79 59 80 60 81 61 82 62 83 63 59 64
REMARK SMILES IDX 60 65 69 66 61 67 62 68 68 69 70 70 63 71 64 72 65 73 66 74
REMARK SMILES IDX 67 75 8 76 9 77 10 78 11 79 12 80 13 81 14 82 15 83 16 84
REMARK SMILES IDX 31 85 17 86 30 87 18 88 19 89 20 90 21 91 29 92 22 93 28 94
REMARK SMILES IDX 23 95 27 96 24 97 26 98 25 99
REMARK H PARENT 91 25 57 36
REMARK Flexibility Score: inf
ROOT
ATOM      1  C   UNL A   1      37.977  21.523  25.365  1.00  0.00     0.188 C 
ENDROOT
BRANCH   1   2
ATOM      2  O   UNL A   1      39.204  22.239  25.568  1.00  0.00    -0.376 OA
BRANCH   2   3
ATOM      3  C   UNL A   1      39.920  21.817  26.731  1.00  0.00     0.202 C 
BRANCH   3   4
ATOM      4  C   UNL A   1      41.104  22.704  27.141  1.00  0.00     0.261 C 
BRANCH   4   5
ATOM      5  O   UNL A   1      41.385  23.754  26.208  1.00  0.00    -0.460 OA
BRANCH   5   6
ATOM      6  C   UNL A   1      42.120  24.880  26.382  1.00  0.00     0.338 C 
ATOM      7  O   UNL A   1      43.098  25.029  25.648  1.00  0.00    -0.246 OA
BRANCH   6   8
ATOM      8  C   UNL A   1      41.848  25.947  27.409  1.00  0.00     0.060 A 
ATOM      9  C   UNL A   1      40.711  25.753  28.218  1.00  0.00     0.016 A 
ATOM     10  C   UNL A   1      42.584  27.116  27.618  1.00  0.00     0.016 A 
ATOM     11  C   UNL A   1      40.355  26.667  29.219  1.00  0.00     0.010 A 
ATOM     12  C   UNL A   1      42.249  28.023  28.631  1.00  0.00     0.010 A 
ATOM     13  C   UNL A   1      41.144  27.797  29.450  1.00  0.00    -0.014 A 
BRANCH  13  14
ATOM     14  C   UNL A   1      40.928  28.663  30.632  1.00  0.00     0.031 A 
ATOM     15  C   UNL A   1      39.870  29.725  30.655  1.00  0.00     0.074 A 
ATOM     16  C   UNL A   1      41.751  28.492  31.681  1.00  0.00     0.049 A 
ATOM     17  N   UNL A   1      39.572  30.589  31.592  1.00  0.00    -0.248 NA
ATOM     18  C   UNL A   1      39.019  29.811  29.467  1.00  0.00     0.031 C 
ATOM     19  C   UNL A   1      42.802  27.475  31.770  1.00  0.00     0.029 A 
ATOM     20  N   UNL A   1      41.830  29.162  32.869  1.00  0.00    -0.354 N 
ATOM     21  C   UNL A   1      38.493  31.327  31.108  1.00  0.00     0.074 A 
ATOM     22  C   UNL A   1      38.182  30.781  29.813  1.00  0.00     0.031 C 
ATOM     23  C   UNL A   1      43.402  27.570  32.966  1.00  0.00     0.029 A 
ATOM     24  C   UNL A   1      42.802  28.674  33.707  1.00  0.00     0.049 A 
ATOM     25  H   UNL A   1      41.248  29.921  33.102  1.00  0.00     0.167 HD
ATOM     26  C   UNL A   1      37.848  32.376  31.683  1.00  0.00     0.037 A 
ATOM     27  C   UNL A   1      43.158  29.071  34.942  1.00  0.00     0.037 A 
ATOM     28  C   UNL A   1      38.214  32.901  32.974  1.00  0.00     0.049 A 
ATOM     29  C   UNL A   1      42.419  30.212  35.577  1.00  0.00     0.074 A 
ATOM     30  C   UNL A   1      37.674  33.978  33.656  1.00  0.00     0.029 A 
ATOM     31  N   UNL A   1      39.215  32.382  33.780  1.00  0.00    -0.354 N 
ATOM     32  N   UNL A   1      41.458  30.948  35.074  1.00  0.00    -0.248 NA
ATOM     33  C   UNL A   1      42.801  30.571  36.948  1.00  0.00     0.031 C 
ATOM     34  C   UNL A   1      38.398  34.158  34.834  1.00  0.00     0.029 A 
ATOM     35  C   UNL A   1      39.305  33.118  34.943  1.00  0.00     0.049 A 
ATOM     36  H   UNL A   1      39.777  31.604  33.555  1.00  0.00     0.167 HD
ATOM     37  C   UNL A   1      41.100  31.838  36.079  1.00  0.00     0.074 A 
ATOM     38  C   UNL A   1      41.943  31.546  37.219  1.00  0.00     0.031 C 
ATOM     39  C   UNL A   1      40.155  32.807  36.059  1.00  0.00     0.037 A 
BRANCH  26  40
ATOM     40  C   UNL A   1      36.740  33.092  30.936  1.00  0.00     0.058 A 
ATOM     41  C   UNL A   1      36.974  34.010  29.901  1.00  0.00     0.135 A 
ATOM     42  C   UNL A   1      35.397  32.772  31.207  1.00  0.00     0.135 A 
ATOM     43  F   UNL A   1      38.229  34.358  29.578  1.00  0.00    -0.206 F 
ATOM     44  C   UNL A   1      35.924  34.618  29.207  1.00  0.00     0.059 A 
ATOM     45  C   UNL A   1      34.336  33.320  30.492  1.00  0.00     0.059 A 
ATOM     46  F   UNL A   1      35.089  31.931  32.209  1.00  0.00    -0.206 F 
ATOM     47  C   UNL A   1      34.607  34.270  29.516  1.00  0.00     0.060 A 
BRANCH  47  48
ATOM     48  S   UNL A   1      33.251  35.172  28.735  1.00  0.00     0.124 S 
ATOM     49  O   UNL A   1      32.538  35.687  29.901  1.00  0.00    -0.237 OA
ATOM     50  O   UNL A   1      33.958  36.159  27.928  1.00  0.00    -0.237 OA
ATOM     51  O   UNL A   1      32.542  34.137  27.990  1.00  0.00    -0.744 OA
ENDBRANCH  47  48
ENDBRANCH  26  40
BRANCH  27  52
ATOM     52  C   UNL A   1      44.210  28.324  35.669  1.00  0.00     0.058 A 
ATOM     53  C   UNL A   1      43.868  27.219  36.462  1.00  0.00     0.135 A 
ATOM     54  C   UNL A   1      45.567  28.653  35.545  1.00  0.00     0.135 A 
ATOM     55  F   UNL A   1      42.581  26.866  36.600  1.00  0.00    -0.206 F 
ATOM     56  C   UNL A   1      44.835  26.472  37.121  1.00  0.00     0.059 A 
ATOM     57  C   UNL A   1      46.556  27.907  36.176  1.00  0.00     0.059 A 
ATOM     58  F   UNL A   1      45.943  29.684  34.772  1.00  0.00    -0.206 F 
ATOM     59  C   UNL A   1      46.178  26.823  36.970  1.00  0.00     0.060 A 
BRANCH  59  60
ATOM     60  S   UNL A   1      47.426  25.816  37.797  1.00  0.00     0.124 S 
ATOM     61  O   UNL A   1      47.307  24.555  37.074  1.00  0.00    -0.237 OA
ATOM     62  O   UNL A   1      48.645  26.580  37.552  1.00  0.00    -0.237 OA
ATOM     63  O   UNL A   1      46.974  25.794  39.185  1.00  0.00    -0.744 OA
ENDBRANCH  59  60
ENDBRANCH  27  52
BRANCH  39  64
ATOM     64  C   UNL A   1      39.939  33.607  37.308  1.00  0.00     0.058 A 
ATOM     65  C   UNL A   1      40.614  34.814  37.531  1.00  0.00     0.135 A 
ATOM     66  C   UNL A   1      38.946  33.219  38.222  1.00  0.00     0.135 A 
ATOM     67  F   UNL A   1      41.562  35.229  36.676  1.00  0.00    -0.206 F 
ATOM     68  C   UNL A   1      40.319  35.608  38.632  1.00  0.00     0.059 A 
ATOM     69  C   UNL A   1      38.618  34.010  39.315  1.00  0.00     0.059 A 
ATOM     70  F   UNL A   1      38.260  32.080  38.034  1.00  0.00    -0.206 F 
ATOM     71  C   UNL A   1      39.315  35.200  39.514  1.00  0.00     0.060 A 
BRANCH  71  72
ATOM     72  S   UNL A   1      38.907  36.271  40.907  1.00  0.00     0.124 S 
ATOM     73  O   UNL A   1      37.813  35.535  41.530  1.00  0.00    -0.237 OA
ATOM     74  O   UNL A   1      40.161  36.300  41.654  1.00  0.00    -0.237 OA
ATOM     75  O   UNL A   1      38.535  37.531  40.270  1.00  0.00    -0.744 OA
ENDBRANCH  71  72
ENDBRANCH  39  64
ENDBRANCH  13  14
ENDBRANCH   6   8
ENDBRANCH   5   6
ENDBRANCH   4   5
ENDBRANCH   3   4
ENDBRANCH   2   3
ENDBRANCH   1   2
BRANCH   1  76
ATOM     76  C   UNL A   1      36.749  22.357  25.724  1.00  0.00     0.188 C 
BRANCH  76  77
ATOM     77  O   UNL A   1      35.597  21.648  26.184  1.00  0.00    -0.376 OA
BRANCH  77  78
ATOM     78  C   UNL A   1      34.920  20.810  25.257  1.00  0.00     0.202 C 
BRANCH  78  79
ATOM     79  C   UNL A   1      33.921  21.445  24.285  1.00  0.00     0.261 C 
BRANCH  79  80
ATOM     80  O   UNL A   1      33.077  22.450  24.837  1.00  0.00    -0.459 OA
BRANCH  80  81
ATOM     81  C   UNL A   1      32.046  22.815  24.020  1.00  0.00     0.348 C 
ATOM     82  O   UNL A   1      31.839  22.369  22.896  1.00  0.00    -0.245 OA
BRANCH  81  83
ATOM     83  C   UNL A   1      31.388  23.949  24.591  1.00  0.00     0.116 A 
ATOM     84  C   UNL A   1      30.669  24.870  23.871  1.00  0.00     0.074 A 
ATOM     85  S   UNL A   1      31.440  24.320  26.252  1.00  0.00    -0.133 S 
ATOM     86  C   UNL A   1      30.308  25.983  24.657  1.00  0.00     0.131 A 
ATOM     87  C   UNL A   1      30.548  25.766  25.998  1.00  0.00     0.112 A 
BRANCH  86  88
ATOM     88  O   UNL A   1      29.784  27.154  24.232  1.00  0.00    -0.489 OA
BRANCH  88  89
ATOM     89  C   UNL A   1      30.226  27.584  22.926  1.00  0.00     0.275 C 
BRANCH  89  90
ATOM     90  C   UNL A   1      31.243  28.750  22.990  1.00  0.00     0.215 C 
ATOM     91  C   UNL A   1      32.678  28.282  23.280  1.00  0.00     0.088 C 
ATOM     92  O   UNL A   1      30.852  29.707  24.029  1.00  0.00    -0.486 OA
ATOM     93  C   UNL A   1      32.856  28.761  24.661  1.00  0.00     0.001 A 
ATOM     94  C   UNL A   1      31.798  29.580  25.007  1.00  0.00     0.123 A 
ATOM     95  C   UNL A   1      33.897  28.513  25.536  1.00  0.00     0.047 A 
ATOM     96  C   UNL A   1      31.739  30.201  26.239  1.00  0.00     0.050 A 
ATOM     97  C   UNL A   1      33.842  29.118  26.786  1.00  0.00     0.123 A 
ATOM     98  C   UNL A   1      32.779  29.959  27.141  1.00  0.00     0.043 A 
ATOM     99  F   UNL A   1      34.825  28.897  27.668  1.00  0.00    -0.207 F 
ENDBRANCH  89  90
ENDBRANCH  88  89
ENDBRANCH  86  88
ENDBRANCH  81  83
ENDBRANCH  80  81
ENDBRANCH  79  80
ENDBRANCH  78  79
ENDBRANCH  77  78
ENDBRANCH  76  77
ENDBRANCH   1  76
TORSDOF 23
ENDMDL
