MODEL 1
REMARK VINA RESULT:      -9.4      0.000      0.000
REMARK SMILES CC(C)N(CC1CC1)C(=O)N1CC[C@H](C(=O)OCCOCCOCCOC(=O)c2ccc(-c3c4nc(c(-c5c(F)cc(S(=O)(=O)[O-])cc5F)c5ccc([nH]5)c(-c5c(F)cc(S(=O)(=O)[O-])cc5F)c5nc(c(-c6c(F)cc(S(=O)(=O)[O-])cc6F)c6ccc3[nH]6)C=C5)C=C4)cc2)[C@H]1C
REMARK SMILES IDX 21 1 20 2 19 3 18 4 17 5 15 6 16 7 14 8 11 9 12 10 95 11
REMARK SMILES IDX 13 12 96 13 9 14 10 15 4 16 2 17 1 18 3 19 5 20 6 21 7 22
REMARK SMILES IDX 8 23 22 24 23 25 24 26 25 27 26 28 27 29 28 30 29 31 30 32
REMARK SMILES IDX 94 33 31 34 93 35 32 36 33 37 34 38 87 39 35 40 92 41 86 42
REMARK SMILES IDX 88 43 36 44 91 45 85 46 84 47 37 49 71 50 50 51 70 52 51 53
REMARK SMILES IDX 54 54 69 55 89 56 52 57 53 58 68 60 90 61 55 62 38 63 39 64
REMARK SMILES IDX 48 65 40 66 41 67 47 68 49 69 42 70 43 71 44 72 45 73 46 74
REMARK SMILES IDX 72 75 73 76 82 77 74 78 75 79 81 80 83 81 76 82 77 83 78 84
REMARK SMILES IDX 79 85 80 86 56 87 57 88 66 89 58 90 59 91 65 92 67 93 60 94
REMARK SMILES IDX 61 95 62 96 63 97 64 98
REMARK H PARENT 88 48 54 59
REMARK Flexibility Score: inf
ROOT
ATOM      1  C   UNL A   1      40.532  21.045  26.901  1.00  0.00     0.188 C 
ENDROOT
BRANCH   1   2
ATOM      2  O   UNL A   1      39.763  21.982  26.167  1.00  0.00    -0.376 OA
BRANCH   2   3
ATOM      3  C   UNL A   1      38.568  21.544  25.521  1.00  0.00     0.202 C 
BRANCH   3   4
ATOM      4  C   UNL A   1      37.249  22.329  25.668  1.00  0.00     0.261 C 
BRANCH   4   5
ATOM      5  O   UNL A   1      36.075  21.593  25.267  1.00  0.00    -0.463 OA
BRANCH   5   6
ATOM      6  C   UNL A   1      35.335  22.146  24.276  1.00  0.00     0.311 C 
ATOM      7  O   UNL A   1      35.812  22.777  23.337  1.00  0.00    -0.252 OA
BRANCH   6   8
ATOM      8  C   UNL A   1      33.853  21.776  24.320  1.00  0.00     0.123 C 
ATOM      9  N   UNL A   1      32.748  23.841  24.450  1.00  0.00    -0.321 N 
ATOM     10  C   UNL A   1      32.696  23.266  25.793  1.00  0.00     0.122 C 
ATOM     11  C   UNL A   1      33.085  22.796  23.485  1.00  0.00     0.098 C 
ATOM     12  C   UNL A   1      33.090  21.816  25.645  1.00  0.00     0.039 C 
ATOM     13  C   UNL A   1      31.866  22.125  22.842  1.00  0.00     0.032 C 
BRANCH   9  14
ATOM     14  C   UNL A   1      33.140  25.161  24.378  1.00  0.00     0.320 C 
ATOM     15  O   UNL A   1      34.350  25.415  24.434  1.00  0.00    -0.248 OA
BRANCH  14  16
ATOM     16  N   UNL A   1      32.212  26.191  24.347  1.00  0.00    -0.322 N 
BRANCH  16  17
ATOM     17  C   UNL A   1      31.197  26.111  23.263  1.00  0.00     0.080 C 
ATOM     18  C   UNL A   1      29.827  25.615  23.769  1.00  0.00     0.031 C 
ATOM     19  C   UNL A   1      31.053  27.410  22.467  1.00  0.00     0.031 C 
ENDBRANCH  16  17
BRANCH  16  20
ATOM     20  C   UNL A   1      32.283  27.483  25.052  1.00  0.00     0.125 C 
BRANCH  20  21
ATOM     21  C   UNL A   1      32.489  27.404  26.543  1.00  0.00     0.009 C 
ATOM     22  C   UNL A   1      33.123  28.502  27.362  1.00  0.00     0.006 C 
ATOM     23  C   UNL A   1      31.663  28.207  27.525  1.00  0.00     0.006 C 
ENDBRANCH  20  21
ENDBRANCH  16  20
ENDBRANCH  14  16
ENDBRANCH   9  14
ENDBRANCH   6   8
ENDBRANCH   5   6
ENDBRANCH   4   5
ENDBRANCH   3   4
ENDBRANCH   2   3
ENDBRANCH   1   2
BRANCH   1  24
ATOM     24  C   UNL A   1      41.467  20.125  26.115  1.00  0.00     0.188 C 
BRANCH  24  25
ATOM     25  O   UNL A   1      42.833  20.218  26.419  1.00  0.00    -0.376 OA
BRANCH  25  26
ATOM     26  C   UNL A   1      43.648  21.160  25.746  1.00  0.00     0.202 C 
BRANCH  26  27
ATOM     27  C   UNL A   1      44.112  22.512  26.334  1.00  0.00     0.261 C 
BRANCH  27  28
ATOM     28  O   UNL A   1      43.138  23.403  26.893  1.00  0.00    -0.460 OA
BRANCH  28  29
ATOM     29  C   UNL A   1      42.847  24.526  26.192  1.00  0.00     0.338 C 
ATOM     30  O   UNL A   1      42.736  24.621  24.979  1.00  0.00    -0.246 OA
BRANCH  29  31
ATOM     31  C   UNL A   1      42.400  25.555  27.167  1.00  0.00     0.060 A 
ATOM     32  C   UNL A   1      42.946  26.848  27.097  1.00  0.00     0.016 A 
ATOM     33  C   UNL A   1      41.413  25.262  28.107  1.00  0.00     0.016 A 
ATOM     34  C   UNL A   1      42.523  27.842  27.983  1.00  0.00     0.010 A 
ATOM     35  C   UNL A   1      41.016  26.248  29.016  1.00  0.00     0.010 A 
ATOM     36  C   UNL A   1      41.588  27.533  28.978  1.00  0.00    -0.014 A 
BRANCH  36  37
ATOM     37  C   UNL A   1      41.365  28.469  30.111  1.00  0.00     0.031 A 
ATOM     38  C   UNL A   1      42.238  28.318  31.329  1.00  0.00     0.074 A 
ATOM     39  C   UNL A   1      40.419  29.424  30.072  1.00  0.00     0.049 A 
ATOM     40  N   UNL A   1      42.174  28.933  32.480  1.00  0.00    -0.248 NA
ATOM     41  C   UNL A   1      43.331  27.335  31.231  1.00  0.00     0.031 C 
ATOM     42  C   UNL A   1      39.546  29.709  28.935  1.00  0.00     0.029 A 
ATOM     43  N   UNL A   1      40.026  30.327  31.032  1.00  0.00    -0.354 N 
ATOM     44  C   UNL A   1      43.207  28.405  33.247  1.00  0.00     0.074 A 
ATOM     45  C   UNL A   1      43.863  27.399  32.442  1.00  0.00     0.031 C 
ATOM     46  C   UNL A   1      38.706  30.706  29.271  1.00  0.00     0.029 A 
ATOM     47  C   UNL A   1      38.953  31.102  30.657  1.00  0.00     0.049 A 
ATOM     48  H   UNL A   1      40.471  30.410  31.906  1.00  0.00     0.167 HD
ATOM     49  C   UNL A   1      43.580  28.734  34.506  1.00  0.00     0.037 A 
ATOM     50  C   UNL A   1      38.238  32.002  31.363  1.00  0.00     0.037 A 
ATOM     51  C   UNL A   1      42.921  29.732  35.306  1.00  0.00     0.049 A 
ATOM     52  C   UNL A   1      38.615  32.286  32.797  1.00  0.00     0.074 A 
ATOM     53  C   UNL A   1      43.225  30.139  36.593  1.00  0.00     0.029 A 
ATOM     54  N   UNL A   1      41.821  30.475  34.901  1.00  0.00    -0.354 N 
ATOM     55  N   UNL A   1      39.599  31.788  33.510  1.00  0.00    -0.248 NA
ATOM     56  C   UNL A   1      37.784  33.257  33.526  1.00  0.00     0.031 C 
ATOM     57  C   UNL A   1      42.276  31.089  36.986  1.00  0.00     0.029 A 
ATOM     58  C   UNL A   1      41.422  31.321  35.921  1.00  0.00     0.049 A 
ATOM     59  H   UNL A   1      41.390  30.410  34.019  1.00  0.00     0.167 HD
ATOM     60  C   UNL A   1      39.528  32.414  34.752  1.00  0.00     0.074 A 
ATOM     61  C   UNL A   1      38.411  33.332  34.692  1.00  0.00     0.031 C 
ATOM     62  C   UNL A   1      40.318  32.246  35.843  1.00  0.00     0.037 A 
BRANCH  49  63
ATOM     63  C   UNL A   1      44.742  27.991  35.106  1.00  0.00     0.058 A 
ATOM     64  C   UNL A   1      44.568  26.785  35.803  1.00  0.00     0.135 A 
ATOM     65  C   UNL A   1      46.053  28.471  34.946  1.00  0.00     0.135 A 
ATOM     66  F   UNL A   1      43.336  26.291  36.005  1.00  0.00    -0.206 F 
ATOM     67  C   UNL A   1      45.650  26.091  36.335  1.00  0.00     0.059 A 
ATOM     68  C   UNL A   1      47.151  27.778  35.444  1.00  0.00     0.059 A 
ATOM     69  F   UNL A   1      46.276  29.623  34.294  1.00  0.00    -0.206 F 
ATOM     70  C   UNL A   1      46.938  26.594  36.147  1.00  0.00     0.060 A 
BRANCH  70  71
ATOM     71  S   UNL A   1      48.331  25.669  36.828  1.00  0.00     0.124 S 
ATOM     72  O   UNL A   1      48.321  26.111  38.219  1.00  0.00    -0.237 OA
ATOM     73  O   UNL A   1      47.925  24.286  36.600  1.00  0.00    -0.237 OA
ATOM     74  O   UNL A   1      49.466  26.127  36.033  1.00  0.00    -0.744 OA
ENDBRANCH  70  71
ENDBRANCH  49  63
BRANCH  50  75
ATOM     75  C   UNL A   1      37.075  32.696  30.741  1.00  0.00     0.058 A 
ATOM     76  C   UNL A   1      35.759  32.284  31.006  1.00  0.00     0.135 A 
ATOM     77  C   UNL A   1      37.255  33.760  29.844  1.00  0.00     0.135 A 
ATOM     78  F   UNL A   1      35.533  31.261  31.843  1.00  0.00    -0.206 F 
ATOM     79  C   UNL A   1      34.667  32.885  30.387  1.00  0.00     0.059 A 
ATOM     80  C   UNL A   1      36.176  34.399  29.237  1.00  0.00     0.059 A 
ATOM     81  F   UNL A   1      38.490  34.199  29.558  1.00  0.00    -0.206 F 
ATOM     82  C   UNL A   1      34.886  33.944  29.504  1.00  0.00     0.060 A 
BRANCH  82  83
ATOM     83  S   UNL A   1      33.458  34.735  28.731  1.00  0.00     0.124 S 
ATOM     84  O   UNL A   1      34.054  35.946  28.182  1.00  0.00    -0.237 OA
ATOM     85  O   UNL A   1      33.042  33.729  27.759  1.00  0.00    -0.237 OA
ATOM     86  O   UNL A   1      32.540  34.934  29.849  1.00  0.00    -0.744 OA
ENDBRANCH  82  83
ENDBRANCH  50  75
BRANCH  62  87
ATOM     87  C   UNL A   1      40.047  33.111  37.047  1.00  0.00     0.058 A 
ATOM     88  C   UNL A   1      40.795  34.268  37.317  1.00  0.00     0.135 A 
ATOM     89  C   UNL A   1      38.981  32.806  37.910  1.00  0.00     0.135 A 
ATOM     90  F   UNL A   1      41.827  34.605  36.528  1.00  0.00    -0.206 F 
ATOM     91  C   UNL A   1      40.512  35.078  38.414  1.00  0.00     0.059 A 
ATOM     92  C   UNL A   1      38.659  33.619  38.993  1.00  0.00     0.059 A 
ATOM     93  F   UNL A   1      38.224  31.719  37.694  1.00  0.00    -0.206 F 
ATOM     94  C   UNL A   1      39.439  34.746  39.244  1.00  0.00     0.060 A 
BRANCH  94  95
ATOM     95  S   UNL A   1      39.062  35.825  40.643  1.00  0.00     0.124 S 
ATOM     96  O   UNL A   1      38.004  35.078  41.315  1.00  0.00    -0.237 OA
ATOM     97  O   UNL A   1      40.341  35.884  41.344  1.00  0.00    -0.237 OA
ATOM     98  O   UNL A   1      38.645  37.072  40.008  1.00  0.00    -0.744 OA
ENDBRANCH  94  95
ENDBRANCH  62  87
ENDBRANCH  36  37
ENDBRANCH  29  31
ENDBRANCH  28  29
ENDBRANCH  27  28
ENDBRANCH  26  27
ENDBRANCH  25  26
ENDBRANCH  24  25
ENDBRANCH   1  24
TORSDOF 25
ENDMDL
MODEL 2
REMARK VINA RESULT:      -9.3      1.136      2.331
REMARK SMILES CC(C)N(CC1CC1)C(=O)N1CC[C@H](C(=O)OCCOCCOCCOC(=O)c2ccc(-c3c4nc(c(-c5c(F)cc(S(=O)(=O)[O-])cc5F)c5ccc([nH]5)c(-c5c(F)cc(S(=O)(=O)[O-])cc5F)c5nc(c(-c6c(F)cc(S(=O)(=O)[O-])cc6F)c6ccc3[nH]6)C=C5)C=C4)cc2)[C@H]1C
REMARK SMILES IDX 21 1 20 2 19 3 18 4 17 5 15 6 16 7 14 8 11 9 12 10 95 11
REMARK SMILES IDX 13 12 96 13 9 14 10 15 4 16 2 17 1 18 3 19 5 20 6 21 7 22
REMARK SMILES IDX 8 23 22 24 23 25 24 26 25 27 26 28 27 29 28 30 29 31 30 32
REMARK SMILES IDX 94 33 31 34 93 35 32 36 33 37 34 38 87 39 35 40 92 41 86 42
REMARK SMILES IDX 88 43 36 44 91 45 85 46 84 47 37 49 71 50 50 51 70 52 51 53
REMARK SMILES IDX 54 54 69 55 89 56 52 57 53 58 68 60 90 61 55 62 38 63 39 64
REMARK SMILES IDX 48 65 40 66 41 67 47 68 49 69 42 70 43 71 44 72 45 73 46 74
REMARK SMILES IDX 72 75 73 76 82 77 74 78 75 79 81 80 83 81 76 82 77 83 78 84
REMARK SMILES IDX 79 85 80 86 56 87 57 88 66 89 58 90 59 91 65 92 67 93 60 94
REMARK SMILES IDX 61 95 62 96 63 97 64 98
REMARK H PARENT 88 48 54 59
REMARK Flexibility Score: inf
ROOT
ATOM      1  C   UNL A   1      38.145  23.692  26.598  1.00  0.00     0.188 C 
ENDROOT
BRANCH   1   2
ATOM      2  O   UNL A   1      36.968  24.122  25.938  1.00  0.00    -0.376 OA
BRANCH   2   3
ATOM      3  C   UNL A   1      36.410  23.303  24.911  1.00  0.00     0.202 C 
BRANCH   3   4
ATOM      4  C   UNL A   1      35.461  22.136  25.249  1.00  0.00     0.261 C 
BRANCH   4   5
ATOM      5  O   UNL A   1      34.091  22.352  24.849  1.00  0.00    -0.463 OA
BRANCH   5   6
ATOM      6  C   UNL A   1      33.180  22.400  25.851  1.00  0.00     0.311 C 
ATOM      7  O   UNL A   1      33.470  22.356  27.042  1.00  0.00    -0.252 OA
BRANCH   6   8
ATOM      8  C   UNL A   1      31.754  22.690  25.385  1.00  0.00     0.123 C 
ATOM      9  N   UNL A   1      31.700  25.020  25.119  1.00  0.00    -0.321 N 
ATOM     10  C   UNL A   1      30.990  24.736  26.365  1.00  0.00     0.122 C 
ATOM     11  C   UNL A   1      31.816  23.794  24.333  1.00  0.00     0.098 C 
ATOM     12  C   UNL A   1      30.724  23.249  26.367  1.00  0.00     0.039 C 
ATOM     13  C   UNL A   1      30.688  23.600  23.312  1.00  0.00     0.032 C 
BRANCH   9  14
ATOM     14  C   UNL A   1      32.638  26.029  25.181  1.00  0.00     0.320 C 
ATOM     15  O   UNL A   1      33.491  25.979  26.076  1.00  0.00    -0.248 OA
BRANCH  14  16
ATOM     16  N   UNL A   1      32.577  27.127  24.336  1.00  0.00    -0.322 N 
BRANCH  16  17
ATOM     17  C   UNL A   1      33.643  27.203  23.302  1.00  0.00     0.080 C 
ATOM     18  C   UNL A   1      33.289  26.412  22.027  1.00  0.00     0.031 C 
ATOM     19  C   UNL A   1      34.061  28.636  22.963  1.00  0.00     0.031 C 
ENDBRANCH  16  17
BRANCH  16  20
ATOM     20  C   UNL A   1      31.786  28.356  24.519  1.00  0.00     0.125 C 
BRANCH  20  21
ATOM     21  C   UNL A   1      31.034  28.837  23.303  1.00  0.00     0.009 C 
ATOM     22  C   UNL A   1      29.688  28.301  22.882  1.00  0.00     0.006 C 
ATOM     23  C   UNL A   1      29.797  29.703  23.398  1.00  0.00     0.006 C 
ENDBRANCH  20  21
ENDBRANCH  16  20
ENDBRANCH  14  16
ENDBRANCH   9  14
ENDBRANCH   6   8
ENDBRANCH   5   6
ENDBRANCH   4   5
ENDBRANCH   3   4
ENDBRANCH   2   3
ENDBRANCH   1   2
BRANCH   1  24
ATOM     24  C   UNL A   1      39.102  22.787  25.823  1.00  0.00     0.188 C 
BRANCH  24  25
ATOM     25  O   UNL A   1      39.367  21.531  26.387  1.00  0.00    -0.376 OA
BRANCH  25  26
ATOM     26  C   UNL A   1      40.557  21.320  27.125  1.00  0.00     0.202 C 
BRANCH  26  27
ATOM     27  C   UNL A   1      41.923  21.970  26.810  1.00  0.00     0.261 C 
BRANCH  27  28
ATOM     28  O   UNL A   1      42.294  23.179  27.485  1.00  0.00    -0.460 OA
BRANCH  28  29
ATOM     29  C   UNL A   1      42.353  24.313  26.743  1.00  0.00     0.338 C 
ATOM     30  O   UNL A   1      42.468  24.385  25.529  1.00  0.00    -0.246 OA
BRANCH  29  31
ATOM     31  C   UNL A   1      41.962  25.443  27.626  1.00  0.00     0.060 A 
ATOM     32  C   UNL A   1      42.750  26.607  27.639  1.00  0.00     0.016 A 
ATOM     33  C   UNL A   1      40.801  25.375  28.395  1.00  0.00     0.016 A 
ATOM     34  C   UNL A   1      42.390  27.694  28.438  1.00  0.00     0.010 A 
ATOM     35  C   UNL A   1      40.461  26.450  29.221  1.00  0.00     0.010 A 
ATOM     36  C   UNL A   1      41.267  27.603  29.270  1.00  0.00    -0.014 A 
BRANCH  36  37
ATOM     37  C   UNL A   1      41.050  28.605  30.346  1.00  0.00     0.031 A 
ATOM     38  C   UNL A   1      41.926  28.523  31.568  1.00  0.00     0.074 A 
ATOM     39  C   UNL A   1      40.108  29.560  30.252  1.00  0.00     0.049 A 
ATOM     40  N   UNL A   1      41.867  29.205  32.682  1.00  0.00    -0.248 NA
ATOM     41  C   UNL A   1      43.014  27.531  31.527  1.00  0.00     0.031 C 
ATOM     42  C   UNL A   1      39.233  29.781  29.103  1.00  0.00     0.029 A 
ATOM     43  N   UNL A   1      39.721  30.519  31.158  1.00  0.00    -0.354 N 
ATOM     44  C   UNL A   1      42.899  28.719  33.476  1.00  0.00     0.074 A 
ATOM     45  C   UNL A   1      43.550  27.665  32.731  1.00  0.00     0.031 C 
ATOM     46  C   UNL A   1      38.398  30.799  29.381  1.00  0.00     0.029 A 
ATOM     47  C   UNL A   1      38.650  31.275  30.740  1.00  0.00     0.049 A 
ATOM     48  H   UNL A   1      40.168  30.652  32.025  1.00  0.00     0.167 HD
ATOM     49  C   UNL A   1      43.277  29.121  34.713  1.00  0.00     0.037 A 
ATOM     50  C   UNL A   1      37.940  32.218  31.393  1.00  0.00     0.037 A 
ATOM     51  C   UNL A   1      42.624  30.166  35.454  1.00  0.00     0.049 A 
ATOM     52  C   UNL A   1      38.322  32.585  32.808  1.00  0.00     0.074 A 
ATOM     53  C   UNL A   1      42.932  30.648  36.714  1.00  0.00     0.029 A 
ATOM     54  N   UNL A   1      41.526  30.889  35.008  1.00  0.00    -0.354 N 
ATOM     55  N   UNL A   1      39.305  32.126  33.547  1.00  0.00    -0.248 NA
ATOM     56  C   UNL A   1      37.497  33.601  33.480  1.00  0.00     0.031 C 
ATOM     57  C   UNL A   1      41.988  31.623  37.052  1.00  0.00     0.029 A 
ATOM     58  C   UNL A   1      41.132  31.795  35.977  1.00  0.00     0.049 A 
ATOM     59  H   UNL A   1      41.092  30.774  34.132  1.00  0.00     0.167 HD
ATOM     60  C   UNL A   1      39.240  32.825  34.750  1.00  0.00     0.074 A 
ATOM     61  C   UNL A   1      38.126  33.743  34.638  1.00  0.00     0.031 C 
ATOM     62  C   UNL A   1      40.031  32.719  35.847  1.00  0.00     0.037 A 
BRANCH  49  63
ATOM     63  C   UNL A   1      44.438  28.410  35.353  1.00  0.00     0.058 A 
ATOM     64  C   UNL A   1      45.757  28.868  35.207  1.00  0.00     0.135 A 
ATOM     65  C   UNL A   1      44.223  27.279  36.158  1.00  0.00     0.135 A 
ATOM     66  F   UNL A   1      46.023  29.931  34.431  1.00  0.00    -0.206 F 
ATOM     67  C   UNL A   1      46.823  28.219  35.821  1.00  0.00     0.059 A 
ATOM     68  C   UNL A   1      45.271  26.633  36.806  1.00  0.00     0.059 A 
ATOM     69  F   UNL A   1      42.982  26.795  36.327  1.00  0.00    -0.206 F 
ATOM     70  C   UNL A   1      46.569  27.104  36.622  1.00  0.00     0.060 A 
BRANCH  70  71
ATOM     71  S   UNL A   1      47.964  26.288  37.426  1.00  0.00     0.124 S 
ATOM     72  O   UNL A   1      48.276  25.232  36.468  1.00  0.00    -0.237 OA
ATOM     73  O   UNL A   1      48.942  27.367  37.521  1.00  0.00    -0.237 OA
ATOM     74  O   UNL A   1      47.407  25.835  38.697  1.00  0.00    -0.744 OA
ENDBRANCH  70  71
ENDBRANCH  49  63
BRANCH  50  75
ATOM     75  C   UNL A   1      36.778  32.879  30.735  1.00  0.00     0.058 A 
ATOM     76  C   UNL A   1      36.965  33.893  29.782  1.00  0.00     0.135 A 
ATOM     77  C   UNL A   1      35.458  32.536  31.069  1.00  0.00     0.135 A 
ATOM     78  F   UNL A   1      38.205  34.269  29.439  1.00  0.00    -0.206 F 
ATOM     79  C   UNL A   1      35.888  34.558  29.203  1.00  0.00     0.059 A 
ATOM     80  C   UNL A   1      34.365  33.166  30.480  1.00  0.00     0.059 A 
ATOM     81  F   UNL A   1      35.221  31.571  31.971  1.00  0.00    -0.206 F 
ATOM     82  C   UNL A   1      34.591  34.186  29.559  1.00  0.00     0.060 A 
BRANCH  82  83
ATOM     83  S   UNL A   1      33.203  35.038  28.777  1.00  0.00     0.124 S 
ATOM     84  O   UNL A   1      33.871  36.170  28.145  1.00  0.00    -0.237 OA
ATOM     85  O   UNL A   1      32.687  34.015  27.874  1.00  0.00    -0.237 OA
ATOM     86  O   UNL A   1      32.334  35.367  29.903  1.00  0.00    -0.744 OA
ENDBRANCH  82  83
ENDBRANCH  50  75
BRANCH  62  87
ATOM     87  C   UNL A   1      39.767  33.654  36.998  1.00  0.00     0.058 A 
ATOM     88  C   UNL A   1      38.914  33.309  38.058  1.00  0.00     0.135 A 
ATOM     89  C   UNL A   1      40.428  34.893  37.068  1.00  0.00     0.135 A 
ATOM     90  F   UNL A   1      38.255  32.140  38.042  1.00  0.00    -0.206 F 
ATOM     91  C   UNL A   1      38.706  34.168  39.134  1.00  0.00     0.059 A 
ATOM     92  C   UNL A   1      40.260  35.753  38.149  1.00  0.00     0.059 A 
ATOM     93  F   UNL A   1      41.264  35.270  36.089  1.00  0.00    -0.206 F 
ATOM     94  C   UNL A   1      39.387  35.387  39.172  1.00  0.00     0.060 A 
BRANCH  94  95
ATOM     95  S   UNL A   1      39.134  36.475  40.591  1.00  0.00     0.124 S 
ATOM     96  O   UNL A   1      38.630  37.685  39.948  1.00  0.00    -0.237 OA
ATOM     97  O   UNL A   1      38.165  35.729  41.387  1.00  0.00    -0.237 OA
ATOM     98  O   UNL A   1      40.466  36.585  41.178  1.00  0.00    -0.744 OA
ENDBRANCH  94  95
ENDBRANCH  62  87
ENDBRANCH  36  37
ENDBRANCH  29  31
ENDBRANCH  28  29
ENDBRANCH  27  28
ENDBRANCH  26  27
ENDBRANCH  25  26
ENDBRANCH  24  25
ENDBRANCH   1  24
TORSDOF 25
ENDMDL
MODEL 3
REMARK VINA RESULT:      -9.2      5.915     11.863
REMARK SMILES CC(C)N(CC1CC1)C(=O)N1CC[C@H](C(=O)OCCOCCOCCOC(=O)c2ccc(-c3c4nc(c(-c5c(F)cc(S(=O)(=O)[O-])cc5F)c5ccc([nH]5)c(-c5c(F)cc(S(=O)(=O)[O-])cc5F)c5nc(c(-c6c(F)cc(S(=O)(=O)[O-])cc6F)c6ccc3[nH]6)C=C5)C=C4)cc2)[C@H]1C
REMARK SMILES IDX 21 1 20 2 19 3 18 4 17 5 15 6 16 7 14 8 11 9 12 10 95 11
REMARK SMILES IDX 13 12 96 13 9 14 10 15 4 16 2 17 1 18 3 19 5 20 6 21 7 22
REMARK SMILES IDX 8 23 22 24 23 25 24 26 25 27 26 28 27 29 28 30 29 31 30 32
REMARK SMILES IDX 94 33 31 34 93 35 32 36 33 37 34 38 87 39 35 40 92 41 86 42
REMARK SMILES IDX 88 43 36 44 91 45 85 46 84 47 37 49 71 50 50 51 70 52 51 53
REMARK SMILES IDX 54 54 69 55 89 56 52 57 53 58 68 60 90 61 55 62 38 63 39 64
REMARK SMILES IDX 48 65 40 66 41 67 47 68 49 69 42 70 43 71 44 72 45 73 46 74
REMARK SMILES IDX 72 75 73 76 82 77 74 78 75 79 81 80 83 81 76 82 77 83 78 84
REMARK SMILES IDX 79 85 80 86 56 87 57 88 66 89 58 90 59 91 65 92 67 93 60 94
REMARK SMILES IDX 61 95 62 96 63 97 64 98
REMARK H PARENT 88 48 54 59
REMARK Flexibility Score: inf
ROOT
ATOM      1  C   UNL A   1      34.719  30.549  27.713  1.00  0.00     0.188 C 
ENDROOT
BRANCH   1   2
ATOM      2  O   UNL A   1      34.040  29.390  27.265  1.00  0.00    -0.376 OA
BRANCH   2   3
ATOM      3  C   UNL A   1      33.497  29.371  25.945  1.00  0.00     0.202 C 
BRANCH   3   4
ATOM      4  C   UNL A   1      32.379  28.382  25.557  1.00  0.00     0.261 C 
BRANCH   4   5
ATOM      5  O   UNL A   1      32.285  27.227  26.416  1.00  0.00    -0.463 OA
BRANCH   5   6
ATOM      6  C   UNL A   1      32.571  26.034  25.842  1.00  0.00     0.311 C 
ATOM      7  O   UNL A   1      33.480  25.863  25.035  1.00  0.00    -0.252 OA
BRANCH   6   8
ATOM      8  C   UNL A   1      31.776  24.860  26.413  1.00  0.00     0.123 C 
ATOM      9  N   UNL A   1      32.533  23.006  25.190  1.00  0.00    -0.321 N 
ATOM     10  C   UNL A   1      31.215  23.339  24.651  1.00  0.00     0.122 C 
ATOM     11  C   UNL A   1      32.706  23.652  26.489  1.00  0.00     0.098 C 
ATOM     12  C   UNL A   1      30.586  24.291  25.640  1.00  0.00     0.039 C 
ATOM     13  C   UNL A   1      32.312  22.771  27.680  1.00  0.00     0.032 C 
BRANCH   9  14
ATOM     14  C   UNL A   1      33.526  22.795  24.256  1.00  0.00     0.320 C 
ATOM     15  O   UNL A   1      33.275  23.045  23.071  1.00  0.00    -0.248 OA
BRANCH  14  16
ATOM     16  N   UNL A   1      34.739  22.223  24.607  1.00  0.00    -0.322 N 
BRANCH  16  17
ATOM     17  C   UNL A   1      35.936  23.083  24.415  1.00  0.00     0.080 C 
ATOM     18  C   UNL A   1      36.882  23.063  25.634  1.00  0.00     0.031 C 
ATOM     19  C   UNL A   1      36.699  22.787  23.122  1.00  0.00     0.031 C 
ENDBRANCH  16  17
BRANCH  16  20
ATOM     20  C   UNL A   1      35.019  20.798  24.857  1.00  0.00     0.125 C 
BRANCH  20  21
ATOM     21  C   UNL A   1      33.932  19.836  24.450  1.00  0.00     0.009 C 
ATOM     22  C   UNL A   1      34.096  18.336  24.446  1.00  0.00     0.006 C 
ATOM     23  C   UNL A   1      33.186  18.978  25.449  1.00  0.00     0.006 C 
ENDBRANCH  20  21
ENDBRANCH  16  20
ENDBRANCH  14  16
ENDBRANCH   9  14
ENDBRANCH   6   8
ENDBRANCH   5   6
ENDBRANCH   4   5
ENDBRANCH   3   4
ENDBRANCH   2   3
ENDBRANCH   1   2
BRANCH   1  24
ATOM     24  C   UNL A   1      33.936  31.862  27.747  1.00  0.00     0.188 C 
BRANCH  24  25
ATOM     25  O   UNL A   1      34.601  32.971  28.289  1.00  0.00    -0.376 OA
BRANCH  25  26
ATOM     26  C   UNL A   1      34.552  33.218  29.682  1.00  0.00     0.202 C 
BRANCH  26  27
ATOM     27  C   UNL A   1      35.355  32.440  30.749  1.00  0.00     0.261 C 
BRANCH  27  28
ATOM     28  O   UNL A   1      36.101  31.280  30.356  1.00  0.00    -0.460 OA
BRANCH  28  29
ATOM     29  C   UNL A   1      36.777  30.616  31.325  1.00  0.00     0.338 C 
ATOM     30  O   UNL A   1      36.299  30.095  32.322  1.00  0.00    -0.246 OA
BRANCH  29  31
ATOM     31  C   UNL A   1      38.156  30.380  30.824  1.00  0.00     0.060 A 
ATOM     32  C   UNL A   1      38.385  30.355  29.437  1.00  0.00     0.016 A 
ATOM     33  C   UNL A   1      39.220  30.237  31.712  1.00  0.00     0.016 A 
ATOM     34  C   UNL A   1      39.677  30.164  28.939  1.00  0.00     0.010 A 
ATOM     35  C   UNL A   1      40.506  30.010  31.212  1.00  0.00     0.010 A 
ATOM     36  C   UNL A   1      40.738  29.944  29.826  1.00  0.00    -0.014 A 
BRANCH  36  37
ATOM     37  C   UNL A   1      42.038  29.429  29.323  1.00  0.00     0.031 A 
ATOM     38  C   UNL A   1      43.184  30.400  29.218  1.00  0.00     0.074 A 
ATOM     39  C   UNL A   1      42.206  28.143  28.966  1.00  0.00     0.049 A 
ATOM     40  N   UNL A   1      44.377  30.227  28.713  1.00  0.00    -0.248 NA
ATOM     41  C   UNL A   1      42.947  31.751  29.753  1.00  0.00     0.031 C 
ATOM     42  C   UNL A   1      41.196  27.093  29.070  1.00  0.00     0.029 A 
ATOM     43  N   UNL A   1      43.298  27.506  28.425  1.00  0.00    -0.354 N 
ATOM     44  C   UNL A   1      45.028  31.447  28.859  1.00  0.00     0.074 A 
ATOM     45  C   UNL A   1      44.089  32.360  29.471  1.00  0.00     0.031 C 
ATOM     46  C   UNL A   1      41.708  25.945  28.589  1.00  0.00     0.029 A 
ATOM     47  C   UNL A   1      43.068  26.188  28.107  1.00  0.00     0.049 A 
ATOM     48  H   UNL A   1      44.164  27.952  28.279  1.00  0.00     0.167 HD
ATOM     49  C   UNL A   1      46.297  31.776  28.521  1.00  0.00     0.037 A 
ATOM     50  C   UNL A   1      43.854  25.293  27.472  1.00  0.00     0.037 A 
ATOM     51  C   UNL A   1      47.228  30.866  27.907  1.00  0.00     0.049 A 
ATOM     52  C   UNL A   1      45.234  25.709  27.020  1.00  0.00     0.074 A 
ATOM     53  C   UNL A   1      48.537  31.103  27.527  1.00  0.00     0.029 A 
ATOM     54  N   UNL A   1      46.948  29.548  27.575  1.00  0.00    -0.354 N 
ATOM     55  N   UNL A   1      45.843  26.863  27.171  1.00  0.00    -0.248 NA
ATOM     56  C   UNL A   1      46.036  24.701  26.311  1.00  0.00     0.031 C 
ATOM     57  C   UNL A   1      49.031  29.946  26.917  1.00  0.00     0.029 A 
ATOM     58  C   UNL A   1      48.052  28.968  26.976  1.00  0.00     0.049 A 
ATOM     59  H   UNL A   1      46.091  29.093  27.742  1.00  0.00     0.167 HD
ATOM     60  C   UNL A   1      47.108  26.704  26.614  1.00  0.00     0.074 A 
ATOM     61  C   UNL A   1      47.182  25.342  26.129  1.00  0.00     0.031 C 
ATOM     62  C   UNL A   1      48.120  27.603  26.514  1.00  0.00     0.037 A 
BRANCH  49  63
ATOM     63  C   UNL A   1      46.748  33.186  28.787  1.00  0.00     0.058 A 
ATOM     64  C   UNL A   1      46.586  34.205  27.835  1.00  0.00     0.135 A 
ATOM     65  C   UNL A   1      47.311  33.532  30.026  1.00  0.00     0.135 A 
ATOM     66  F   UNL A   1      46.073  33.928  26.626  1.00  0.00    -0.206 F 
ATOM     67  C   UNL A   1      46.983  35.513  28.096  1.00  0.00     0.059 A 
ATOM     68  C   UNL A   1      47.687  34.838  30.320  1.00  0.00     0.059 A 
ATOM     69  F   UNL A   1      47.495  32.595  30.971  1.00  0.00    -0.206 F 
ATOM     70  C   UNL A   1      47.529  35.820  29.343  1.00  0.00     0.060 A 
BRANCH  70  71
ATOM     71  S   UNL A   1      48.021  37.526  29.670  1.00  0.00     0.124 S 
ATOM     72  O   UNL A   1      49.469  37.447  29.512  1.00  0.00    -0.237 OA
ATOM     73  O   UNL A   1      47.308  38.258  28.629  1.00  0.00    -0.237 OA
ATOM     74  O   UNL A   1      47.551  37.761  31.032  1.00  0.00    -0.744 OA
ENDBRANCH  70  71
ENDBRANCH  49  63
BRANCH  50  75
ATOM     75  C   UNL A   1      43.360  23.913  27.201  1.00  0.00     0.058 A 
ATOM     76  C   UNL A   1      42.796  23.576  25.961  1.00  0.00     0.135 A 
ATOM     77  C   UNL A   1      43.410  22.915  28.187  1.00  0.00     0.135 A 
ATOM     78  F   UNL A   1      42.711  24.497  24.991  1.00  0.00    -0.206 F 
ATOM     79  C   UNL A   1      42.278  22.307  25.716  1.00  0.00     0.059 A 
ATOM     80  C   UNL A   1      42.927  21.630  27.954  1.00  0.00     0.059 A 
ATOM     81  F   UNL A   1      43.942  23.180  29.389  1.00  0.00    -0.206 F 
ATOM     82  C   UNL A   1      42.349  21.340  26.719  1.00  0.00     0.060 A 
BRANCH  82  83
ATOM     83  S   UNL A   1      41.701  19.689  26.376  1.00  0.00     0.124 S 
ATOM     84  O   UNL A   1      42.084  18.966  27.582  1.00  0.00    -0.237 OA
ATOM     85  O   UNL A   1      40.274  19.950  26.213  1.00  0.00    -0.237 OA
ATOM     86  O   UNL A   1      42.402  19.300  25.156  1.00  0.00    -0.744 OA
ENDBRANCH  82  83
ENDBRANCH  50  75
BRANCH  62  87
ATOM     87  C   UNL A   1      49.420  27.136  25.910  1.00  0.00     0.058 A 
ATOM     88  C   UNL A   1      49.650  27.161  24.526  1.00  0.00     0.135 A 
ATOM     89  C   UNL A   1      50.472  26.712  26.740  1.00  0.00     0.135 A 
ATOM     90  F   UNL A   1      48.679  27.553  23.686  1.00  0.00    -0.206 F 
ATOM     91  C   UNL A   1      50.868  26.760  23.983  1.00  0.00     0.059 A 
ATOM     92  C   UNL A   1      51.709  26.338  26.222  1.00  0.00     0.059 A 
ATOM     93  F   UNL A   1      50.313  26.679  28.072  1.00  0.00    -0.206 F 
ATOM     94  C   UNL A   1      51.893  26.353  24.841  1.00  0.00     0.060 A 
BRANCH  94  95
ATOM     95  S   UNL A   1      53.479  25.869  24.125  1.00  0.00     0.124 S 
ATOM     96  O   UNL A   1      54.387  26.830  24.744  1.00  0.00    -0.237 OA
ATOM     97  O   UNL A   1      53.614  24.487  24.574  1.00  0.00    -0.237 OA
ATOM     98  O   UNL A   1      53.270  26.038  22.690  1.00  0.00    -0.744 OA
ENDBRANCH  94  95
ENDBRANCH  62  87
ENDBRANCH  36  37
ENDBRANCH  29  31
ENDBRANCH  28  29
ENDBRANCH  27  28
ENDBRANCH  26  27
ENDBRANCH  25  26
ENDBRANCH  24  25
ENDBRANCH   1  24
TORSDOF 25
ENDMDL
