MODEL 1
REMARK VINA RESULT:     -10.1      0.000      0.000
REMARK SMILES C[NH2+][C@@]1(C(=O)OCCOCCOCCOC(=O)c2ccc(-c3c4nc(c(-c5c(F)cc(S(=O)(=O)[O-])cc5F)c5ccc([nH]5)c(-c5c(F)cc(S(=O)(=O)[O-])cc5F)c5nc(c(-c6c(F)cc(S(=O)(=O)[O-])cc6F)c6ccc3[nH]6)C=C5)C=C4)cc2)CCC[C@H](Oc2cccc(OC)c2)C1
REMARK SMILES IDX 10 1 9 2 8 3 7 4 6 5 4 6 5 7 3 8 84 9 97 10 85 11 87 12
REMARK SMILES IDX 86 13 2 14 1 15 88 18 89 19 90 20 96 21 91 22 93 23 92 24
REMARK SMILES IDX 94 25 95 26 11 27 12 28 13 29 14 30 15 31 16 32 17 33 18 34
REMARK SMILES IDX 19 35 83 36 20 37 82 38 21 39 22 40 23 41 76 42 24 43 81 44
REMARK SMILES IDX 75 45 77 46 25 47 80 48 74 49 73 50 26 52 60 53 39 54 59 55
REMARK SMILES IDX 40 56 43 57 58 58 78 59 41 60 42 61 57 63 79 64 44 65 27 66
REMARK SMILES IDX 28 67 37 68 29 69 30 70 36 71 38 72 31 73 32 74 33 75 34 76
REMARK SMILES IDX 35 77 61 78 62 79 71 80 63 81 64 82 70 83 72 84 65 85 66 86
REMARK SMILES IDX 67 87 68 88 69 89 45 90 46 91 55 92 47 93 48 94 54 95 56 96
REMARK SMILES IDX 49 97 50 98 51 99 52 100 53 101
REMARK H PARENT 2 16 2 17 77 51 43 62
REMARK Flexibility Score: inf
ROOT
ATOM      1  C   UNL A   1      34.150  31.527  27.658  1.00  0.00     0.188 C 
ENDROOT
BRANCH   1   2
ATOM      2  O   UNL A   1      32.745  31.365  27.527  1.00  0.00    -0.376 OA
BRANCH   2   3
ATOM      3  C   UNL A   1      32.273  30.383  26.609  1.00  0.00     0.202 C 
BRANCH   3   4
ATOM      4  C   UNL A   1      32.085  28.955  27.140  1.00  0.00     0.261 C 
BRANCH   4   5
ATOM      5  O   UNL A   1      31.759  27.976  26.121  1.00  0.00    -0.459 OA
BRANCH   5   6
ATOM      6  C   UNL A   1      32.764  27.144  25.757  1.00  0.00     0.368 C 
ATOM      7  O   UNL A   1      33.934  27.353  26.080  1.00  0.00    -0.245 OA
BRANCH   6   8
ATOM      8  C   UNL A   1      32.366  25.836  24.939  1.00  0.00     0.197 C 
ATOM      9  C   UNL A   1      33.580  25.604  24.004  1.00  0.00     0.081 C 
ATOM     10  C   UNL A   1      31.088  25.768  24.046  1.00  0.00     0.126 C 
ATOM     11  C   UNL A   1      33.603  26.615  22.856  1.00  0.00     0.011 C 
ATOM     12  C   UNL A   1      31.061  26.681  22.808  1.00  0.00     0.180 C 
ATOM     13  C   UNL A   1      32.349  26.503  21.998  1.00  0.00     0.046 C 
BRANCH   8  14
ATOM     14  N   UNL A   1      32.407  24.743  25.968  1.00  0.00    -0.334 N 
ATOM     15  C   UNL A   1      31.176  24.222  26.520  1.00  0.00     0.331 C 
ATOM     16  H   UNL A   1      32.894  23.955  25.541  1.00  0.00     0.347 HD
ATOM     17  H   UNL A   1      32.852  25.192  26.768  1.00  0.00     0.347 HD
ENDBRANCH   8  14
BRANCH  12  18
ATOM     18  O   UNL A   1      30.874  28.003  23.289  1.00  0.00    -0.490 OA
BRANCH  18  19
ATOM     19  C   UNL A   1      29.648  28.589  23.319  1.00  0.00     0.123 A 
ATOM     20  C   UNL A   1      28.417  27.968  23.149  1.00  0.00     0.047 A 
ATOM     21  C   UNL A   1      29.705  29.977  23.492  1.00  0.00     0.092 A 
ATOM     22  C   UNL A   1      27.259  28.744  23.066  1.00  0.00     0.008 A 
ATOM     23  C   UNL A   1      28.556  30.759  23.425  1.00  0.00     0.122 A 
ATOM     24  C   UNL A   1      27.333  30.134  23.186  1.00  0.00     0.046 A 
BRANCH  23  25
ATOM     25  O   UNL A   1      28.508  32.120  23.549  1.00  0.00    -0.497 OA
ATOM     26  C   UNL A   1      28.843  32.872  22.385  1.00  0.00     0.278 C 
ENDBRANCH  23  25
ENDBRANCH  18  19
ENDBRANCH  12  18
ENDBRANCH   6   8
ENDBRANCH   5   6
ENDBRANCH   4   5
ENDBRANCH   3   4
ENDBRANCH   2   3
ENDBRANCH   1   2
BRANCH   1  27
ATOM     27  C   UNL A   1      34.656  32.849  28.243  1.00  0.00     0.188 C 
BRANCH  27  28
ATOM     28  O   UNL A   1      33.945  33.291  29.384  1.00  0.00    -0.376 OA
BRANCH  28  29
ATOM     29  C   UNL A   1      34.682  33.350  30.596  1.00  0.00     0.202 C 
BRANCH  29  30
ATOM     30  C   UNL A   1      36.113  32.830  30.404  1.00  0.00     0.261 C 
BRANCH  30  31
ATOM     31  O   UNL A   1      36.492  31.776  31.310  1.00  0.00    -0.460 OA
BRANCH  31  32
ATOM     32  C   UNL A   1      36.548  30.520  30.803  1.00  0.00     0.338 C 
ATOM     33  O   UNL A   1      35.601  29.803  30.527  1.00  0.00    -0.246 OA
BRANCH  32  34
ATOM     34  C   UNL A   1      37.945  30.277  30.369  1.00  0.00     0.060 A 
ATOM     35  C   UNL A   1      38.210  30.126  28.999  1.00  0.00     0.016 A 
ATOM     36  C   UNL A   1      38.992  30.274  31.293  1.00  0.00     0.016 A 
ATOM     37  C   UNL A   1      39.520  29.933  28.554  1.00  0.00     0.010 A 
ATOM     38  C   UNL A   1      40.299  30.065  30.849  1.00  0.00     0.010 A 
ATOM     39  C   UNL A   1      40.566  29.857  29.482  1.00  0.00    -0.014 A 
BRANCH  39  40
ATOM     40  C   UNL A   1      41.893  29.332  29.076  1.00  0.00     0.031 A 
ATOM     41  C   UNL A   1      43.041  30.305  29.018  1.00  0.00     0.074 A 
ATOM     42  C   UNL A   1      42.086  28.038  28.759  1.00  0.00     0.049 A 
ATOM     43  N   UNL A   1      44.266  30.125  28.600  1.00  0.00    -0.248 NA
ATOM     44  C   UNL A   1      42.759  31.672  29.489  1.00  0.00     0.031 C 
ATOM     45  C   UNL A   1      41.070  26.990  28.815  1.00  0.00     0.029 A 
ATOM     46  N   UNL A   1      43.212  27.394  28.308  1.00  0.00    -0.354 N 
ATOM     47  C   UNL A   1      44.896  31.356  28.745  1.00  0.00     0.074 A 
ATOM     48  C   UNL A   1      43.911  32.282  29.257  1.00  0.00     0.031 C 
ATOM     49  C   UNL A   1      41.615  25.834  28.392  1.00  0.00     0.029 A 
ATOM     50  C   UNL A   1      43.005  26.068  28.002  1.00  0.00     0.049 A 
ATOM     51  H   UNL A   1      44.085  27.837  28.211  1.00  0.00     0.167 HD
ATOM     52  C   UNL A   1      46.183  31.684  28.484  1.00  0.00     0.037 A 
ATOM     53  C   UNL A   1      43.835  25.162  27.446  1.00  0.00     0.037 A 
ATOM     54  C   UNL A   1      47.159  30.761  27.969  1.00  0.00     0.049 A 
ATOM     55  C   UNL A   1      45.246  25.567  27.091  1.00  0.00     0.074 A 
ATOM     56  C   UNL A   1      48.491  30.993  27.680  1.00  0.00     0.029 A 
ATOM     57  N   UNL A   1      46.906  29.433  27.657  1.00  0.00    -0.354 N 
ATOM     58  N   UNL A   1      45.837  26.729  27.250  1.00  0.00    -0.248 NA
ATOM     59  C   UNL A   1      46.104  24.539  26.485  1.00  0.00     0.031 C 
ATOM     60  C   UNL A   1      49.030  29.820  27.141  1.00  0.00     0.029 A 
ATOM     61  C   UNL A   1      48.051  28.840  27.155  1.00  0.00     0.049 A 
ATOM     62  H   UNL A   1      46.040  28.981  27.775  1.00  0.00     0.167 HD
ATOM     63  C   UNL A   1      47.142  26.560  26.793  1.00  0.00     0.074 A 
ATOM     64  C   UNL A   1      47.257  25.183  26.361  1.00  0.00     0.031 C 
ATOM     65  C   UNL A   1      48.154  27.462  26.739  1.00  0.00     0.037 A 
BRANCH  52  66
ATOM     66  C   UNL A   1      46.597  33.110  28.725  1.00  0.00     0.058 A 
ATOM     67  C   UNL A   1      46.600  34.065  27.695  1.00  0.00     0.135 A 
ATOM     68  C   UNL A   1      46.977  33.532  30.010  1.00  0.00     0.135 A 
ATOM     69  F   UNL A   1      46.269  33.712  26.444  1.00  0.00    -0.206 F 
ATOM     70  C   UNL A   1      46.994  35.379  27.925  1.00  0.00     0.059 A 
ATOM     71  C   UNL A   1      47.343  34.849  30.268  1.00  0.00     0.059 A 
ATOM     72  F   UNL A   1      46.998  32.660  31.029  1.00  0.00    -0.206 F 
ATOM     73  C   UNL A   1      47.363  35.762  29.215  1.00  0.00     0.060 A 
BRANCH  73  74
ATOM     74  S   UNL A   1      47.867  37.472  29.494  1.00  0.00     0.124 S 
ATOM     75  O   UNL A   1      48.389  37.403  30.855  1.00  0.00    -0.237 OA
ATOM     76  O   UNL A   1      48.859  37.678  28.444  1.00  0.00    -0.237 OA
ATOM     77  O   UNL A   1      46.625  38.223  29.336  1.00  0.00    -0.744 OA
ENDBRANCH  73  74
ENDBRANCH  52  66
BRANCH  53  78
ATOM     78  C   UNL A   1      43.353  23.780  27.166  1.00  0.00     0.058 A 
ATOM     79  C   UNL A   1      43.227  22.831  28.191  1.00  0.00     0.135 A 
ATOM     80  C   UNL A   1      43.020  23.377  25.862  1.00  0.00     0.135 A 
ATOM     81  F   UNL A   1      43.550  23.159  29.451  1.00  0.00    -0.206 F 
ATOM     82  C   UNL A   1      42.803  21.529  27.935  1.00  0.00     0.059 A 
ATOM     83  C   UNL A   1      42.565  22.090  25.586  1.00  0.00     0.059 A 
ATOM     84  F   UNL A   1      43.119  24.244  24.844  1.00  0.00    -0.206 F 
ATOM     85  C   UNL A   1      42.469  21.170  26.628  1.00  0.00     0.060 A 
BRANCH  85  86
ATOM     86  S   UNL A   1      41.875  19.493  26.316  1.00  0.00     0.124 S 
ATOM     87  O   UNL A   1      42.596  19.147  25.097  1.00  0.00    -0.237 OA
ATOM     88  O   UNL A   1      42.292  18.791  27.526  1.00  0.00    -0.237 OA
ATOM     89  O   UNL A   1      40.433  19.670  26.167  1.00  0.00    -0.744 OA
ENDBRANCH  85  86
ENDBRANCH  53  78
BRANCH  65  90
ATOM     90  C   UNL A   1      49.494  26.986  26.239  1.00  0.00     0.058 A 
ATOM     91  C   UNL A   1      50.433  26.381  27.089  1.00  0.00     0.135 A 
ATOM     92  C   UNL A   1      49.813  27.076  24.874  1.00  0.00     0.135 A 
ATOM     93  F   UNL A   1      50.182  26.269  28.403  1.00  0.00    -0.206 F 
ATOM     94  C   UNL A   1      51.650  25.907  26.610  1.00  0.00     0.059 A 
ATOM     95  C   UNL A   1      51.011  26.581  24.366  1.00  0.00     0.059 A 
ATOM     96  F   UNL A   1      48.946  27.633  24.013  1.00  0.00    -0.206 F 
ATOM     97  C   UNL A   1      51.929  26.009  25.245  1.00  0.00     0.060 A 
BRANCH  97  98
ATOM     98  S   UNL A   1      53.496  25.358  24.629  1.00  0.00     0.124 S 
ATOM     99  O   UNL A   1      53.410  25.673  23.208  1.00  0.00    -0.237 OA
ATOM    100  O   UNL A   1      54.474  26.130  25.391  1.00  0.00    -0.237 OA
ATOM    101  O   UNL A   1      53.432  23.939  24.963  1.00  0.00    -0.744 OA
ENDBRANCH  97  98
ENDBRANCH  65  90
ENDBRANCH  39  40
ENDBRANCH  32  34
ENDBRANCH  31  32
ENDBRANCH  30  31
ENDBRANCH  29  30
ENDBRANCH  28  29
ENDBRANCH  27  28
ENDBRANCH   1  27
TORSDOF 24
ENDMDL
MODEL 2
REMARK VINA RESULT:      -9.6      1.715      4.156
REMARK SMILES C[NH2+][C@@]1(C(=O)OCCOCCOCCOC(=O)c2ccc(-c3c4nc(c(-c5c(F)cc(S(=O)(=O)[O-])cc5F)c5ccc([nH]5)c(-c5c(F)cc(S(=O)(=O)[O-])cc5F)c5nc(c(-c6c(F)cc(S(=O)(=O)[O-])cc6F)c6ccc3[nH]6)C=C5)C=C4)cc2)CCC[C@H](Oc2cccc(OC)c2)C1
REMARK SMILES IDX 10 1 9 2 8 3 7 4 6 5 4 6 5 7 3 8 84 9 97 10 85 11 87 12
REMARK SMILES IDX 86 13 2 14 1 15 88 18 89 19 90 20 96 21 91 22 93 23 92 24
REMARK SMILES IDX 94 25 95 26 11 27 12 28 13 29 14 30 15 31 16 32 17 33 18 34
REMARK SMILES IDX 19 35 83 36 20 37 82 38 21 39 22 40 23 41 76 42 24 43 81 44
REMARK SMILES IDX 75 45 77 46 25 47 80 48 74 49 73 50 26 52 60 53 39 54 59 55
REMARK SMILES IDX 40 56 43 57 58 58 78 59 41 60 42 61 57 63 79 64 44 65 27 66
REMARK SMILES IDX 28 67 37 68 29 69 30 70 36 71 38 72 31 73 32 74 33 75 34 76
REMARK SMILES IDX 35 77 61 78 62 79 71 80 63 81 64 82 70 83 72 84 65 85 66 86
REMARK SMILES IDX 67 87 68 88 69 89 45 90 46 91 55 92 47 93 48 94 54 95 56 96
REMARK SMILES IDX 49 97 50 98 51 99 52 100 53 101
REMARK H PARENT 2 16 2 17 77 51 43 62
REMARK Flexibility Score: inf
ROOT
ATOM      1  C   UNL A   1      33.774  29.733  26.953  1.00  0.00     0.188 C 
ENDROOT
BRANCH   1   2
ATOM      2  O   UNL A   1      32.420  29.692  27.380  1.00  0.00    -0.376 OA
BRANCH   2   3
ATOM      3  C   UNL A   1      31.846  28.415  27.646  1.00  0.00     0.202 C 
BRANCH   3   4
ATOM      4  C   UNL A   1      31.391  27.583  26.439  1.00  0.00     0.261 C 
BRANCH   4   5
ATOM      5  O   UNL A   1      32.373  26.626  25.967  1.00  0.00    -0.459 OA
BRANCH   5   6
ATOM      6  C   UNL A   1      31.884  25.564  25.283  1.00  0.00     0.368 C 
ATOM      7  O   UNL A   1      31.223  24.681  25.833  1.00  0.00    -0.245 OA
BRANCH   6   8
ATOM      8  C   UNL A   1      32.142  25.529  23.711  1.00  0.00     0.197 C 
ATOM      9  C   UNL A   1      30.994  24.637  23.172  1.00  0.00     0.081 C 
ATOM     10  C   UNL A   1      33.467  24.982  23.096  1.00  0.00     0.126 C 
ATOM     11  C   UNL A   1      31.235  23.161  23.494  1.00  0.00     0.011 C 
ATOM     12  C   UNL A   1      33.749  23.481  23.285  1.00  0.00     0.180 C 
ATOM     13  C   UNL A   1      32.527  22.662  22.859  1.00  0.00     0.046 C 
BRANCH   8  14
ATOM     14  N   UNL A   1      31.835  26.929  23.267  1.00  0.00    -0.334 N 
ATOM     15  C   UNL A   1      31.124  27.156  22.027  1.00  0.00     0.331 C 
ATOM     16  H   UNL A   1      31.280  27.359  24.007  1.00  0.00     0.347 HD
ATOM     17  H   UNL A   1      32.758  27.324  23.083  1.00  0.00     0.347 HD
ENDBRANCH   8  14
BRANCH  12  18
ATOM     18  O   UNL A   1      34.099  23.308  24.649  1.00  0.00    -0.490 OA
BRANCH  18  19
ATOM     19  C   UNL A   1      35.363  22.986  25.030  1.00  0.00     0.123 A 
ATOM     20  C   UNL A   1      36.351  23.855  25.479  1.00  0.00     0.047 A 
ATOM     21  C   UNL A   1      35.654  21.625  24.881  1.00  0.00     0.092 A 
ATOM     22  C   UNL A   1      37.644  23.375  25.694  1.00  0.00     0.008 A 
ATOM     23  C   UNL A   1      36.936  21.134  25.105  1.00  0.00     0.122 A 
ATOM     24  C   UNL A   1      37.938  22.024  25.490  1.00  0.00     0.046 A 
BRANCH  23  25
ATOM     25  O   UNL A   1      37.331  19.832  24.957  1.00  0.00    -0.497 OA
ATOM     26  C   UNL A   1      36.292  18.879  24.747  1.00  0.00     0.278 C 
ENDBRANCH  23  25
ENDBRANCH  18  19
ENDBRANCH  12  18
ENDBRANCH   6   8
ENDBRANCH   5   6
ENDBRANCH   4   5
ENDBRANCH   3   4
ENDBRANCH   2   3
ENDBRANCH   1   2
BRANCH   1  27
ATOM     27  C   UNL A   1      34.599  30.964  27.340  1.00  0.00     0.188 C 
BRANCH  27  28
ATOM     28  O   UNL A   1      33.952  31.837  28.246  1.00  0.00    -0.376 OA
BRANCH  28  29
ATOM     29  C   UNL A   1      34.798  32.670  29.025  1.00  0.00     0.202 C 
BRANCH  29  30
ATOM     30  C   UNL A   1      35.210  31.980  30.331  1.00  0.00     0.261 C 
BRANCH  30  31
ATOM     31  O   UNL A   1      35.973  30.771  30.154  1.00  0.00    -0.460 OA
BRANCH  31  32
ATOM     32  C   UNL A   1      36.720  30.354  31.205  1.00  0.00     0.338 C 
ATOM     33  O   UNL A   1      36.308  29.993  32.295  1.00  0.00    -0.246 OA
BRANCH  32  34
ATOM     34  C   UNL A   1      38.101  30.134  30.711  1.00  0.00     0.060 A 
ATOM     35  C   UNL A   1      38.334  30.152  29.326  1.00  0.00     0.016 A 
ATOM     36  C   UNL A   1      39.166  29.988  31.601  1.00  0.00     0.016 A 
ATOM     37  C   UNL A   1      39.629  29.986  28.830  1.00  0.00     0.010 A 
ATOM     38  C   UNL A   1      40.458  29.804  31.104  1.00  0.00     0.010 A 
ATOM     39  C   UNL A   1      40.691  29.766  29.716  1.00  0.00    -0.014 A 
BRANCH  39  40
ATOM     40  C   UNL A   1      41.995  29.264  29.216  1.00  0.00     0.031 A 
ATOM     41  C   UNL A   1      43.125  30.252  29.100  1.00  0.00     0.074 A 
ATOM     42  C   UNL A   1      42.181  27.979  28.864  1.00  0.00     0.049 A 
ATOM     43  N   UNL A   1      44.322  30.095  28.600  1.00  0.00    -0.248 NA
ATOM     44  C   UNL A   1      42.860  31.607  29.612  1.00  0.00     0.031 C 
ATOM     45  C   UNL A   1      41.183  26.917  28.967  1.00  0.00     0.029 A 
ATOM     46  N   UNL A   1      43.282  27.356  28.329  1.00  0.00    -0.354 N 
ATOM     47  C   UNL A   1      44.947  31.331  28.725  1.00  0.00     0.074 A 
ATOM     48  C   UNL A   1      43.986  32.236  29.317  1.00  0.00     0.031 C 
ATOM     49  C   UNL A   1      41.712  25.775  28.490  1.00  0.00     0.029 A 
ATOM     50  C   UNL A   1      43.072  26.033  28.014  1.00  0.00     0.049 A 
ATOM     51  H   UNL A   1      44.143  27.812  28.184  1.00  0.00     0.167 HD
ATOM     52  C   UNL A   1      46.210  31.679  28.387  1.00  0.00     0.037 A 
ATOM     53  C   UNL A   1      43.873  25.147  27.389  1.00  0.00     0.037 A 
ATOM     54  C   UNL A   1      47.161  30.778  27.793  1.00  0.00     0.049 A 
ATOM     55  C   UNL A   1      45.254  25.575  26.951  1.00  0.00     0.074 A 
ATOM     56  C   UNL A   1      48.469  31.031  27.422  1.00  0.00     0.029 A 
ATOM     57  N   UNL A   1      46.903  29.452  27.475  1.00  0.00    -0.354 N 
ATOM     58  N   UNL A   1      45.840  26.741  27.091  1.00  0.00    -0.248 NA
ATOM     59  C   UNL A   1      46.082  24.568  26.272  1.00  0.00     0.031 C 
ATOM     60  C   UNL A   1      48.985  29.874  26.829  1.00  0.00     0.029 A 
ATOM     61  C   UNL A   1      48.020  28.881  26.890  1.00  0.00     0.049 A 
ATOM     62  H   UNL A   1      46.051  28.987  27.641  1.00  0.00     0.167 HD
ATOM     63  C   UNL A   1      47.115  26.597  26.548  1.00  0.00     0.074 A 
ATOM     64  C   UNL A   1      47.217  25.229  26.085  1.00  0.00     0.031 C 
ATOM     65  C   UNL A   1      48.111  27.512  26.444  1.00  0.00     0.037 A 
BRANCH  52  66
ATOM     66  C   UNL A   1      46.623  33.107  28.626  1.00  0.00     0.058 A 
ATOM     67  C   UNL A   1      47.250  33.506  29.817  1.00  0.00     0.135 A 
ATOM     68  C   UNL A   1      46.406  34.083  27.640  1.00  0.00     0.135 A 
ATOM     69  F   UNL A   1      47.460  32.620  30.802  1.00  0.00    -0.206 F 
ATOM     70  C   UNL A   1      47.620  34.829  30.033  1.00  0.00     0.059 A 
ATOM     71  C   UNL A   1      46.797  35.405  27.823  1.00  0.00     0.059 A 
ATOM     72  F   UNL A   1      45.805  33.757  26.486  1.00  0.00    -0.206 F 
ATOM     73  C   UNL A   1      47.391  35.772  29.030  1.00  0.00     0.060 A 
BRANCH  73  74
ATOM     74  S   UNL A   1      47.881  37.483  29.328  1.00  0.00     0.124 S 
ATOM     75  O   UNL A   1      49.331  37.357  29.428  1.00  0.00    -0.237 OA
ATOM     76  O   UNL A   1      47.384  38.160  28.134  1.00  0.00    -0.237 OA
ATOM     77  O   UNL A   1      47.193  37.823  30.570  1.00  0.00    -0.744 OA
ENDBRANCH  73  74
ENDBRANCH  52  66
BRANCH  53  78
ATOM     78  C   UNL A   1      43.390  23.764  27.117  1.00  0.00     0.058 A 
ATOM     79  C   UNL A   1      42.939  23.387  25.843  1.00  0.00     0.135 A 
ATOM     80  C   UNL A   1      43.358  22.792  28.131  1.00  0.00     0.135 A 
ATOM     81  F   UNL A   1      42.931  24.283  24.843  1.00  0.00    -0.206 F 
ATOM     82  C   UNL A   1      42.460  22.105  25.586  1.00  0.00     0.059 A 
ATOM     83  C   UNL A   1      42.911  21.496  27.891  1.00  0.00     0.059 A 
ATOM     84  F   UNL A   1      43.780  23.097  29.367  1.00  0.00    -0.206 F 
ATOM     85  C   UNL A   1      42.455  21.165  26.617  1.00  0.00     0.060 A 
BRANCH  85  86
ATOM     86  S   UNL A   1      41.877  19.491  26.259  1.00  0.00     0.124 S 
ATOM     87  O   UNL A   1      42.581  19.195  25.017  1.00  0.00    -0.237 OA
ATOM     88  O   UNL A   1      42.324  18.755  27.438  1.00  0.00    -0.237 OA
ATOM     89  O   UNL A   1      40.430  19.653  26.141  1.00  0.00    -0.744 OA
ENDBRANCH  85  86
ENDBRANCH  53  78
BRANCH  65  90
ATOM     90  C   UNL A   1      49.421  27.061  25.850  1.00  0.00     0.058 A 
ATOM     91  C   UNL A   1      49.718  27.230  24.489  1.00  0.00     0.135 A 
ATOM     92  C   UNL A   1      50.419  26.513  26.672  1.00  0.00     0.135 A 
ATOM     93  F   UNL A   1      48.801  27.747  23.656  1.00  0.00    -0.206 F 
ATOM     94  C   UNL A   1      50.946  26.849  23.959  1.00  0.00     0.059 A 
ATOM     95  C   UNL A   1      51.667  26.153  26.171  1.00  0.00     0.059 A 
ATOM     96  F   UNL A   1      50.195  26.341  27.985  1.00  0.00    -0.206 F 
ATOM     97  C   UNL A   1      51.917  26.314  24.810  1.00  0.00     0.060 A 
BRANCH  97  98
ATOM     98  S   UNL A   1      53.520  25.855  24.116  1.00  0.00     0.124 S 
ATOM     99  O   UNL A   1      53.671  24.487  24.600  1.00  0.00    -0.237 OA
ATOM    100  O   UNL A   1      53.290  25.998  22.681  1.00  0.00    -0.237 OA
ATOM    101  O   UNL A   1      54.435  26.832  24.698  1.00  0.00    -0.744 OA
ENDBRANCH  97  98
ENDBRANCH  65  90
ENDBRANCH  39  40
ENDBRANCH  32  34
ENDBRANCH  31  32
ENDBRANCH  30  31
ENDBRANCH  29  30
ENDBRANCH  28  29
ENDBRANCH  27  28
ENDBRANCH   1  27
TORSDOF 24
ENDMDL
MODEL 3
REMARK VINA RESULT:      -9.5      0.979      8.099
REMARK SMILES C[NH2+][C@@]1(C(=O)OCCOCCOCCOC(=O)c2ccc(-c3c4nc(c(-c5c(F)cc(S(=O)(=O)[O-])cc5F)c5ccc([nH]5)c(-c5c(F)cc(S(=O)(=O)[O-])cc5F)c5nc(c(-c6c(F)cc(S(=O)(=O)[O-])cc6F)c6ccc3[nH]6)C=C5)C=C4)cc2)CCC[C@H](Oc2cccc(OC)c2)C1
REMARK SMILES IDX 10 1 9 2 8 3 7 4 6 5 4 6 5 7 3 8 84 9 97 10 85 11 87 12
REMARK SMILES IDX 86 13 2 14 1 15 88 18 89 19 90 20 96 21 91 22 93 23 92 24
REMARK SMILES IDX 94 25 95 26 11 27 12 28 13 29 14 30 15 31 16 32 17 33 18 34
REMARK SMILES IDX 19 35 83 36 20 37 82 38 21 39 22 40 23 41 76 42 24 43 81 44
REMARK SMILES IDX 75 45 77 46 25 47 80 48 74 49 73 50 26 52 60 53 39 54 59 55
REMARK SMILES IDX 40 56 43 57 58 58 78 59 41 60 42 61 57 63 79 64 44 65 27 66
REMARK SMILES IDX 28 67 37 68 29 69 30 70 36 71 38 72 31 73 32 74 33 75 34 76
REMARK SMILES IDX 35 77 61 78 62 79 71 80 63 81 64 82 70 83 72 84 65 85 66 86
REMARK SMILES IDX 67 87 68 88 69 89 45 90 46 91 55 92 47 93 48 94 54 95 56 96
REMARK SMILES IDX 49 97 50 98 51 99 52 100 53 101
REMARK H PARENT 2 16 2 17 77 51 43 62
REMARK Flexibility Score: inf
ROOT
ATOM      1  C   UNL A   1      33.586  30.868  27.083  1.00  0.00     0.188 C 
ENDROOT
BRANCH   1   2
ATOM      2  O   UNL A   1      32.702  29.858  27.550  1.00  0.00    -0.376 OA
BRANCH   2   3
ATOM      3  C   UNL A   1      33.090  28.499  27.364  1.00  0.00     0.202 C 
BRANCH   3   4
ATOM      4  C   UNL A   1      33.818  28.147  26.060  1.00  0.00     0.261 C 
BRANCH   4   5
ATOM      5  O   UNL A   1      33.070  27.277  25.173  1.00  0.00    -0.459 OA
BRANCH   5   6
ATOM      6  C   UNL A   1      33.122  25.954  25.459  1.00  0.00     0.368 C 
ATOM      7  O   UNL A   1      34.188  25.371  25.664  1.00  0.00    -0.245 OA
BRANCH   6   8
ATOM      8  C   UNL A   1      31.734  25.182  25.586  1.00  0.00     0.197 C 
ATOM      9  C   UNL A   1      31.812  24.103  24.475  1.00  0.00     0.081 C 
ATOM     10  C   UNL A   1      30.360  25.904  25.418  1.00  0.00     0.126 C 
ATOM     11  C   UNL A   1      31.627  24.716  23.086  1.00  0.00     0.011 C 
ATOM     12  C   UNL A   1      30.043  26.470  24.024  1.00  0.00     0.180 C 
ATOM     13  C   UNL A   1      30.268  25.394  22.958  1.00  0.00     0.046 C 
BRANCH   8  14
ATOM     14  N   UNL A   1      31.846  24.454  26.893  1.00  0.00    -0.334 N 
ATOM     15  C   UNL A   1      31.345  23.102  27.014  1.00  0.00     0.331 C 
ATOM     16  H   UNL A   1      32.838  24.422  27.129  1.00  0.00     0.347 HD
ATOM     17  H   UNL A   1      31.234  24.986  27.511  1.00  0.00     0.347 HD
ENDBRANCH   8  14
BRANCH  12  18
ATOM     18  O   UNL A   1      30.867  27.612  23.857  1.00  0.00    -0.490 OA
BRANCH  18  19
ATOM     19  C   UNL A   1      30.347  28.842  23.600  1.00  0.00     0.123 A 
ATOM     20  C   UNL A   1      30.448  29.978  24.394  1.00  0.00     0.047 A 
ATOM     21  C   UNL A   1      29.599  28.887  22.418  1.00  0.00     0.092 A 
ATOM     22  C   UNL A   1      29.731  31.125  24.048  1.00  0.00     0.008 A 
ATOM     23  C   UNL A   1      28.892  30.029  22.057  1.00  0.00     0.122 A 
ATOM     24  C   UNL A   1      28.943  31.143  22.894  1.00  0.00     0.046 A 
BRANCH  23  25
ATOM     25  O   UNL A   1      28.108  30.165  20.944  1.00  0.00    -0.497 OA
ATOM     26  C   UNL A   1      27.853  31.499  20.511  1.00  0.00     0.278 C 
ENDBRANCH  23  25
ENDBRANCH  18  19
ENDBRANCH  12  18
ENDBRANCH   6   8
ENDBRANCH   5   6
ENDBRANCH   4   5
ENDBRANCH   3   4
ENDBRANCH   2   3
ENDBRANCH   1   2
BRANCH   1  27
ATOM     27  C   UNL A   1      34.782  31.224  27.970  1.00  0.00     0.188 C 
BRANCH  27  28
ATOM     28  O   UNL A   1      34.618  32.414  28.718  1.00  0.00    -0.376 OA
BRANCH  28  29
ATOM     29  C   UNL A   1      35.811  33.041  29.166  1.00  0.00     0.202 C 
BRANCH  29  30
ATOM     30  C   UNL A   1      36.109  32.688  30.629  1.00  0.00     0.261 C 
BRANCH  30  31
ATOM     31  O   UNL A   1      36.381  31.293  30.863  1.00  0.00    -0.460 OA
BRANCH  31  32
ATOM     32  C   UNL A   1      37.310  30.996  31.805  1.00  0.00     0.338 C 
ATOM     33  O   UNL A   1      37.128  30.916  33.008  1.00  0.00    -0.246 OA
BRANCH  32  34
ATOM     34  C   UNL A   1      38.516  30.500  31.100  1.00  0.00     0.060 A 
ATOM     35  C   UNL A   1      39.560  29.943  31.857  1.00  0.00     0.016 A 
ATOM     36  C   UNL A   1      38.587  30.511  29.705  1.00  0.00     0.016 A 
ATOM     37  C   UNL A   1      40.693  29.431  31.220  1.00  0.00     0.010 A 
ATOM     38  C   UNL A   1      39.728  30.015  29.071  1.00  0.00     0.010 A 
ATOM     39  C   UNL A   1      40.802  29.506  29.826  1.00  0.00    -0.014 A 
BRANCH  39  40
ATOM     40  C   UNL A   1      42.109  29.280  29.162  1.00  0.00     0.031 A 
ATOM     41  C   UNL A   1      42.391  27.902  28.625  1.00  0.00     0.074 A 
ATOM     42  C   UNL A   1      43.030  30.255  29.040  1.00  0.00     0.049 A 
ATOM     43  N   UNL A   1      43.485  27.419  28.098  1.00  0.00    -0.248 NA
ATOM     44  C   UNL A   1      41.283  26.934  28.705  1.00  0.00     0.031 C 
ATOM     45  C   UNL A   1      42.865  31.638  29.479  1.00  0.00     0.029 A 
ATOM     46  N   UNL A   1      44.300  30.215  28.520  1.00  0.00    -0.354 N 
ATOM     47  C   UNL A   1      43.202  26.092  27.796  1.00  0.00     0.074 A 
ATOM     48  C   UNL A   1      41.847  25.835  28.229  1.00  0.00     0.031 C 
ATOM     49  C   UNL A   1      44.002  32.313  29.228  1.00  0.00     0.029 A 
ATOM     50  C   UNL A   1      44.987  31.401  28.645  1.00  0.00     0.049 A 
ATOM     51  H   UNL A   1      44.685  29.414  28.097  1.00  0.00     0.167 HD
ATOM     52  C   UNL A   1      43.997  25.171  27.203  1.00  0.00     0.037 A 
ATOM     53  C   UNL A   1      46.268  31.703  28.350  1.00  0.00     0.037 A 
ATOM     54  C   UNL A   1      45.348  25.428  26.779  1.00  0.00     0.049 A 
ATOM     55  C   UNL A   1      47.163  30.640  27.757  1.00  0.00     0.074 A 
ATOM     56  C   UNL A   1      46.233  24.565  26.159  1.00  0.00     0.029 A 
ATOM     57  N   UNL A   1      46.011  26.637  26.939  1.00  0.00    -0.354 N 
ATOM     58  N   UNL A   1      46.880  29.393  27.460  1.00  0.00    -0.248 NA
ATOM     59  C   UNL A   1      48.550  31.025  27.459  1.00  0.00     0.031 C 
ATOM     60  C   UNL A   1      47.450  25.234  25.995  1.00  0.00     0.029 A 
ATOM     61  C   UNL A   1      47.303  26.534  26.452  1.00  0.00     0.049 A 
ATOM     62  H   UNL A   1      45.621  27.447  27.340  1.00  0.00     0.167 HD
ATOM     63  C   UNL A   1      48.043  28.857  26.910  1.00  0.00     0.074 A 
ATOM     64  C   UNL A   1      49.029  29.916  26.908  1.00  0.00     0.031 C 
ATOM     65  C   UNL A   1      48.272  27.603  26.446  1.00  0.00     0.037 A 
BRANCH  52  66
ATOM     66  C   UNL A   1      43.432  23.791  27.007  1.00  0.00     0.058 A 
ATOM     67  C   UNL A   1      43.008  23.336  25.747  1.00  0.00     0.135 A 
ATOM     68  C   UNL A   1      43.331  22.903  28.091  1.00  0.00     0.135 A 
ATOM     69  F   UNL A   1      43.058  24.150  24.682  1.00  0.00    -0.206 F 
ATOM     70  C   UNL A   1      42.477  22.062  25.576  1.00  0.00     0.059 A 
ATOM     71  C   UNL A   1      42.834  21.614  27.936  1.00  0.00     0.059 A 
ATOM     72  F   UNL A   1      43.717  23.288  29.317  1.00  0.00    -0.206 F 
ATOM     73  C   UNL A   1      42.395  21.207  26.676  1.00  0.00     0.060 A 
BRANCH  73  74
ATOM     74  S   UNL A   1      41.708  19.556  26.434  1.00  0.00     0.124 S 
ATOM     75  O   UNL A   1      42.158  18.873  27.643  1.00  0.00    -0.237 OA
ATOM     76  O   UNL A   1      40.276  19.825  26.355  1.00  0.00    -0.237 OA
ATOM     77  O   UNL A   1      42.329  19.108  25.192  1.00  0.00    -0.744 OA
ENDBRANCH  73  74
ENDBRANCH  52  66
BRANCH  53  78
ATOM     78  C   UNL A   1      46.797  33.068  28.627  1.00  0.00     0.058 A 
ATOM     79  C   UNL A   1      46.752  34.078  27.654  1.00  0.00     0.135 A 
ATOM     80  C   UNL A   1      47.371  33.387  29.868  1.00  0.00     0.135 A 
ATOM     81  F   UNL A   1      46.231  33.820  26.445  1.00  0.00    -0.206 F 
ATOM     82  C   UNL A   1      47.268  35.348  27.894  1.00  0.00     0.059 A 
ATOM     83  C   UNL A   1      47.867  34.658  30.143  1.00  0.00     0.059 A 
ATOM     84  F   UNL A   1      47.438  32.460  30.836  1.00  0.00    -0.206 F 
ATOM     85  C   UNL A   1      47.820  35.630  29.145  1.00  0.00     0.060 A 
BRANCH  85  86
ATOM     86  S   UNL A   1      48.443  37.296  29.462  1.00  0.00     0.124 S 
ATOM     87  O   UNL A   1      47.210  38.075  29.469  1.00  0.00    -0.237 OA
ATOM     88  O   UNL A   1      49.104  37.135  30.754  1.00  0.00    -0.237 OA
ATOM     89  O   UNL A   1      49.338  37.540  28.334  1.00  0.00    -0.744 OA
ENDBRANCH  85  86
ENDBRANCH  53  78
BRANCH  65  90
ATOM     90  C   UNL A   1      49.625  27.310  25.851  1.00  0.00     0.058 A 
ATOM     91  C   UNL A   1      50.706  26.881  26.637  1.00  0.00     0.135 A 
ATOM     92  C   UNL A   1      49.821  27.396  24.463  1.00  0.00     0.135 A 
ATOM     93  F   UNL A   1      50.576  26.781  27.969  1.00  0.00    -0.206 F 
ATOM     94  C   UNL A   1      51.939  26.572  26.071  1.00  0.00     0.059 A 
ATOM     95  C   UNL A   1      51.037  27.064  23.872  1.00  0.00     0.059 A 
ATOM     96  F   UNL A   1      48.818  27.788  23.661  1.00  0.00    -0.206 F 
ATOM     97  C   UNL A   1      52.094  26.664  24.686  1.00  0.00     0.060 A 
BRANCH  97  98
ATOM     98  S   UNL A   1      53.689  26.227  23.961  1.00  0.00     0.124 S 
ATOM     99  O   UNL A   1      53.327  25.993  22.568  1.00  0.00    -0.237 OA
ATOM    100  O   UNL A   1      54.485  27.425  24.216  1.00  0.00    -0.237 OA
ATOM    101  O   UNL A   1      54.093  25.043  24.713  1.00  0.00    -0.744 OA
ENDBRANCH  97  98
ENDBRANCH  65  90
ENDBRANCH  39  40
ENDBRANCH  32  34
ENDBRANCH  31  32
ENDBRANCH  30  31
ENDBRANCH  29  30
ENDBRANCH  28  29
ENDBRANCH  27  28
ENDBRANCH   1  27
TORSDOF 24
ENDMDL
