MODEL 1
REMARK VINA RESULT:      -9.2      0.000      0.000
REMARK SMILES C[C@H](C(=O)OCCOCCOCCOC(=O)c1ccc(-c2c3nc(c(-c4c(F)cc(S(=O)(=O)[O-])cc4F)c4ccc([nH]4)c(-c4c(F)cc(S(=O)(=O)[O-])cc4F)c4nc(c(-c5c(F)cc(S(=O)(=O)[O-])cc5F)c5ccc2[nH]5)C=C4)C=C3)cc1)c1ccc(-c2ccccc2)c(F)c1
REMARK SMILES IDX 10 1 9 2 8 3 7 4 6 5 5 6 3 7 4 8 2 9 1 10 83 11 84 12 95 13
REMARK SMILES IDX 85 14 93 15 86 16 94 17 87 18 88 19 92 20 89 21 91 22 90 23
REMARK SMILES IDX 11 24 12 25 13 26 14 27 15 28 16 29 17 30 18 31 82 32 19 33
REMARK SMILES IDX 81 34 20 35 21 36 22 37 75 38 23 39 80 40 74 41 76 42 24 43
REMARK SMILES IDX 79 44 73 45 72 46 25 48 59 49 38 50 58 51 39 52 42 53 57 54
REMARK SMILES IDX 77 55 40 56 41 57 56 59 78 60 43 61 26 62 27 63 36 64 28 65
REMARK SMILES IDX 29 66 35 67 37 68 30 69 31 70 32 71 33 72 34 73 60 74 61 75
REMARK SMILES IDX 70 76 62 77 63 78 69 79 71 80 64 81 65 82 66 83 67 84 68 85
REMARK SMILES IDX 44 86 45 87 54 88 46 89 47 90 53 91 55 92 48 93 49 94 50 95
REMARK SMILES IDX 51 96 52 97
REMARK H PARENT 76 47 42 58
REMARK Flexibility Score: inf
ROOT
ATOM      1  C   UNL A   1      34.026  34.734  28.366  1.00  0.00     0.188 C 
ENDROOT
BRANCH   1   2
ATOM      2  C   UNL A   1      33.503  35.727  29.410  1.00  0.00     0.188 C 
BRANCH   2   3
ATOM      3  O   UNL A   1      32.831  35.207  30.549  1.00  0.00    -0.376 OA
BRANCH   3   4
ATOM      4  C   UNL A   1      33.249  35.634  31.842  1.00  0.00     0.202 C 
BRANCH   4   5
ATOM      5  C   UNL A   1      33.693  34.562  32.854  1.00  0.00     0.261 C 
BRANCH   5   6
ATOM      6  O   UNL A   1      35.115  34.287  32.892  1.00  0.00    -0.463 OA
BRANCH   6   7
ATOM      7  C   UNL A   1      35.521  33.067  32.443  1.00  0.00     0.313 C 
ATOM      8  O   UNL A   1      34.836  32.350  31.718  1.00  0.00    -0.252 OA
BRANCH   7   9
ATOM      9  C   UNL A   1      36.948  32.658  32.843  1.00  0.00     0.126 C 
ATOM     10  C   UNL A   1      36.987  31.150  33.139  1.00  0.00     0.025 C 
BRANCH   9  11
ATOM     11  C   UNL A   1      38.101  33.168  31.976  1.00  0.00    -0.031 A 
ATOM     12  C   UNL A   1      37.822  34.106  30.970  1.00  0.00     0.005 A 
ATOM     13  C   UNL A   1      39.447  32.814  32.173  1.00  0.00     0.044 A 
ATOM     14  C   UNL A   1      38.845  34.667  30.193  1.00  0.00     0.012 A 
ATOM     15  C   UNL A   1      40.459  33.349  31.369  1.00  0.00     0.131 A 
ATOM     16  C   UNL A   1      40.183  34.288  30.373  1.00  0.00     0.017 A 
ATOM     17  F   UNL A   1      41.722  32.951  31.591  1.00  0.00    -0.206 F 
BRANCH  16  18
ATOM     18  C   UNL A   1      41.244  34.880  29.548  1.00  0.00    -0.015 A 
ATOM     19  C   UNL A   1      40.968  35.348  28.253  1.00  0.00     0.009 A 
ATOM     20  C   UNL A   1      42.560  34.976  30.025  1.00  0.00     0.009 A 
ATOM     21  C   UNL A   1      41.980  35.885  27.454  1.00  0.00     0.001 A 
ATOM     22  C   UNL A   1      43.574  35.509  29.224  1.00  0.00     0.001 A 
ATOM     23  C   UNL A   1      43.284  35.960  27.939  1.00  0.00     0.000 A 
ENDBRANCH  16  18
ENDBRANCH   9  11
ENDBRANCH   7   9
ENDBRANCH   6   7
ENDBRANCH   5   6
ENDBRANCH   4   5
ENDBRANCH   3   4
ENDBRANCH   2   3
ENDBRANCH   1   2
BRANCH   1  24
ATOM     24  O   UNL A   1      33.937  33.382  28.764  1.00  0.00    -0.376 OA
BRANCH  24  25
ATOM     25  C   UNL A   1      34.148  32.397  27.770  1.00  0.00     0.202 C 
BRANCH  25  26
ATOM     26  C   UNL A   1      34.410  31.000  28.346  1.00  0.00     0.261 C 
BRANCH  26  27
ATOM     27  O   UNL A   1      35.777  30.552  28.268  1.00  0.00    -0.460 OA
BRANCH  27  28
ATOM     28  C   UNL A   1      36.332  30.078  29.410  1.00  0.00     0.338 C 
ATOM     29  O   UNL A   1      35.736  29.706  30.409  1.00  0.00    -0.246 OA
BRANCH  28  30
ATOM     30  C   UNL A   1      37.770  29.841  29.148  1.00  0.00     0.060 A 
ATOM     31  C   UNL A   1      38.206  29.691  27.822  1.00  0.00     0.016 A 
ATOM     32  C   UNL A   1      38.689  29.804  30.198  1.00  0.00     0.016 A 
ATOM     33  C   UNL A   1      39.559  29.477  27.547  1.00  0.00     0.010 A 
ATOM     34  C   UNL A   1      40.040  29.570  29.922  1.00  0.00     0.010 A 
ATOM     35  C   UNL A   1      40.479  29.375  28.600  1.00  0.00    -0.014 A 
BRANCH  35  36
ATOM     36  C   UNL A   1      41.856  28.877  28.349  1.00  0.00     0.031 A 
ATOM     37  C   UNL A   1      42.982  29.876  28.333  1.00  0.00     0.074 A 
ATOM     38  C   UNL A   1      42.112  27.572  28.136  1.00  0.00     0.049 A 
ATOM     39  N   UNL A   1      44.246  29.702  28.047  1.00  0.00    -0.248 NA
ATOM     40  C   UNL A   1      42.629  31.263  28.681  1.00  0.00     0.031 C 
ATOM     41  C   UNL A   1      41.122  26.499  28.164  1.00  0.00     0.029 A 
ATOM     42  N   UNL A   1      43.292  26.936  27.834  1.00  0.00    -0.354 N 
ATOM     43  C   UNL A   1      44.837  30.955  28.172  1.00  0.00     0.074 A 
ATOM     44  C   UNL A   1      43.787  31.884  28.526  1.00  0.00     0.031 C 
ATOM     45  C   UNL A   1      41.733  25.337  27.870  1.00  0.00     0.029 A 
ATOM     46  C   UNL A   1      43.148  25.588  27.596  1.00  0.00     0.049 A 
ATOM     47  H   UNL A   1      44.159  27.399  27.792  1.00  0.00     0.167 HD
ATOM     48  C   UNL A   1      46.138  31.298  28.017  1.00  0.00     0.037 A 
ATOM     49  C   UNL A   1      44.045  24.674  27.176  1.00  0.00     0.037 A 
ATOM     50  C   UNL A   1      47.179  30.373  27.656  1.00  0.00     0.049 A 
ATOM     51  C   UNL A   1      45.475  25.092  26.930  1.00  0.00     0.074 A 
ATOM     52  C   UNL A   1      48.528  30.623  27.481  1.00  0.00     0.029 A 
ATOM     53  N   UNL A   1      46.989  29.022  27.404  1.00  0.00    -0.354 N 
ATOM     54  N   UNL A   1      46.026  26.275  27.070  1.00  0.00    -0.248 NA
ATOM     55  C   UNL A   1      46.406  24.050  26.473  1.00  0.00     0.031 C 
ATOM     56  C   UNL A   1      49.144  29.438  27.068  1.00  0.00     0.029 A 
ATOM     57  C   UNL A   1      48.191  28.431  27.050  1.00  0.00     0.049 A 
ATOM     58  H   UNL A   1      46.126  28.552  27.467  1.00  0.00     0.167 HD
ATOM     59  C   UNL A   1      47.371  26.111  26.748  1.00  0.00     0.074 A 
ATOM     60  C   UNL A   1      47.554  24.714  26.417  1.00  0.00     0.031 C 
ATOM     61  C   UNL A   1      48.366  27.035  26.732  1.00  0.00     0.037 A 
BRANCH  48  62
ATOM     62  C   UNL A   1      46.501  32.746  28.207  1.00  0.00     0.058 A 
ATOM     63  C   UNL A   1      46.972  33.237  29.437  1.00  0.00     0.135 A 
ATOM     64  C   UNL A   1      46.400  33.652  27.138  1.00  0.00     0.135 A 
ATOM     65  F   UNL A   1      47.069  32.421  30.498  1.00  0.00    -0.206 F 
ATOM     66  C   UNL A   1      47.301  34.577  29.606  1.00  0.00     0.059 A 
ATOM     67  C   UNL A   1      46.755  34.990  27.277  1.00  0.00     0.059 A 
ATOM     68  F   UNL A   1      45.953  33.238  25.942  1.00  0.00    -0.206 F 
ATOM     69  C   UNL A   1      47.190  35.446  28.520  1.00  0.00     0.060 A 
BRANCH  69  70
ATOM     70  S   UNL A   1      47.624  37.182  28.757  1.00  0.00     0.124 S 
ATOM     71  O   UNL A   1      48.250  37.503  27.477  1.00  0.00    -0.237 OA
ATOM     72  O   UNL A   1      46.322  37.797  28.998  1.00  0.00    -0.237 OA
ATOM     73  O   UNL A   1      48.525  37.156  29.905  1.00  0.00    -0.744 OA
ENDBRANCH  69  70
ENDBRANCH  48  62
BRANCH  49  74
ATOM     74  C   UNL A   1      43.618  23.266  26.937  1.00  0.00     0.058 A 
ATOM     75  C   UNL A   1      43.542  22.738  25.640  1.00  0.00     0.135 A 
ATOM     76  C   UNL A   1      43.267  22.423  28.004  1.00  0.00     0.135 A 
ATOM     77  F   UNL A   1      43.848  23.506  24.584  1.00  0.00    -0.206 F 
ATOM     78  C   UNL A   1      43.124  21.431  25.406  1.00  0.00     0.059 A 
ATOM     79  C   UNL A   1      42.875  21.104  27.799  1.00  0.00     0.059 A 
ATOM     80  F   UNL A   1      43.325  22.877  29.266  1.00  0.00    -0.206 F 
ATOM     81  C   UNL A   1      42.797  20.619  26.494  1.00  0.00     0.060 A 
BRANCH  81  82
ATOM     82  S   UNL A   1      42.308  18.909  26.182  1.00  0.00     0.124 S 
ATOM     83  O   UNL A   1      42.571  18.286  27.475  1.00  0.00    -0.237 OA
ATOM     84  O   UNL A   1      40.903  19.056  25.818  1.00  0.00    -0.237 OA
ATOM     85  O   UNL A   1      43.191  18.499  25.094  1.00  0.00    -0.744 OA
ENDBRANCH  81  82
ENDBRANCH  49  74
BRANCH  61  86
ATOM     86  C   UNL A   1      49.757  26.565  26.390  1.00  0.00     0.058 A 
ATOM     87  C   UNL A   1      50.283  26.676  25.094  1.00  0.00     0.135 A 
ATOM     88  C   UNL A   1      50.598  26.055  27.394  1.00  0.00     0.135 A 
ATOM     89  F   UNL A   1      49.524  27.153  24.095  1.00  0.00    -0.206 F 
ATOM     90  C   UNL A   1      51.583  26.273  24.799  1.00  0.00     0.059 A 
ATOM     91  C   UNL A   1      51.911  25.677  27.129  1.00  0.00     0.059 A 
ATOM     92  F   UNL A   1      50.152  25.938  28.655  1.00  0.00    -0.206 F 
ATOM     93  C   UNL A   1      52.391  25.778  25.824  1.00  0.00     0.060 A 
BRANCH  93  94
ATOM     94  S   UNL A   1      54.086  25.292  25.434  1.00  0.00     0.124 S 
ATOM     95  O   UNL A   1      54.723  25.368  26.744  1.00  0.00    -0.237 OA
ATOM     96  O   UNL A   1      53.908  23.949  24.891  1.00  0.00    -0.237 OA
ATOM     97  O   UNL A   1      54.516  26.301  24.468  1.00  0.00    -0.744 OA
ENDBRANCH  93  94
ENDBRANCH  61  86
ENDBRANCH  35  36
ENDBRANCH  28  30
ENDBRANCH  27  28
ENDBRANCH  26  27
ENDBRANCH  25  26
ENDBRANCH  24  25
ENDBRANCH   1  24
TORSDOF 22
ENDMDL
MODEL 2
REMARK VINA RESULT:      -9.2      5.301     11.968
REMARK SMILES C[C@H](C(=O)OCCOCCOCCOC(=O)c1ccc(-c2c3nc(c(-c4c(F)cc(S(=O)(=O)[O-])cc4F)c4ccc([nH]4)c(-c4c(F)cc(S(=O)(=O)[O-])cc4F)c4nc(c(-c5c(F)cc(S(=O)(=O)[O-])cc5F)c5ccc2[nH]5)C=C4)C=C3)cc1)c1ccc(-c2ccccc2)c(F)c1
REMARK SMILES IDX 10 1 9 2 8 3 7 4 6 5 5 6 3 7 4 8 2 9 1 10 83 11 84 12 95 13
REMARK SMILES IDX 85 14 93 15 86 16 94 17 87 18 88 19 92 20 89 21 91 22 90 23
REMARK SMILES IDX 11 24 12 25 13 26 14 27 15 28 16 29 17 30 18 31 82 32 19 33
REMARK SMILES IDX 81 34 20 35 21 36 22 37 75 38 23 39 80 40 74 41 76 42 24 43
REMARK SMILES IDX 79 44 73 45 72 46 25 48 59 49 38 50 58 51 39 52 42 53 57 54
REMARK SMILES IDX 77 55 40 56 41 57 56 59 78 60 43 61 26 62 27 63 36 64 28 65
REMARK SMILES IDX 29 66 35 67 37 68 30 69 31 70 32 71 33 72 34 73 60 74 61 75
REMARK SMILES IDX 70 76 62 77 63 78 69 79 71 80 64 81 65 82 66 83 67 84 68 85
REMARK SMILES IDX 44 86 45 87 54 88 46 89 47 90 53 91 55 92 48 93 49 94 50 95
REMARK SMILES IDX 51 96 52 97
REMARK H PARENT 76 47 42 58
REMARK Flexibility Score: inf
ROOT
ATOM      1  C   UNL A   1      35.215  23.744  23.876  1.00  0.00     0.188 C 
ENDROOT
BRANCH   1   2
ATOM      2  C   UNL A   1      34.575  24.608  24.968  1.00  0.00     0.188 C 
BRANCH   2   3
ATOM      3  O   UNL A   1      33.971  25.835  24.581  1.00  0.00    -0.376 OA
BRANCH   3   4
ATOM      4  C   UNL A   1      33.653  26.787  25.591  1.00  0.00     0.202 C 
BRANCH   4   5
ATOM      5  C   UNL A   1      32.442  26.508  26.500  1.00  0.00     0.261 C 
BRANCH   5   6
ATOM      6  O   UNL A   1      31.145  26.788  25.917  1.00  0.00    -0.463 OA
BRANCH   6   7
ATOM      7  C   UNL A   1      30.296  25.735  25.760  1.00  0.00     0.313 C 
ATOM      8  O   UNL A   1      29.521  25.354  26.633  1.00  0.00    -0.252 OA
BRANCH   7   9
ATOM      9  C   UNL A   1      30.308  25.079  24.369  1.00  0.00     0.126 C 
ATOM     10  C   UNL A   1      30.684  26.127  23.310  1.00  0.00     0.025 C 
BRANCH   9  11
ATOM     11  C   UNL A   1      31.030  23.738  24.224  1.00  0.00    -0.031 A 
ATOM     12  C   UNL A   1      31.190  22.934  25.363  1.00  0.00     0.005 A 
ATOM     13  C   UNL A   1      31.479  23.217  22.998  1.00  0.00     0.044 A 
ATOM     14  C   UNL A   1      31.776  21.663  25.281  1.00  0.00     0.012 A 
ATOM     15  C   UNL A   1      32.096  21.964  22.929  1.00  0.00     0.131 A 
ATOM     16  C   UNL A   1      32.249  21.160  24.061  1.00  0.00     0.017 A 
ATOM     17  F   UNL A   1      32.526  21.534  21.732  1.00  0.00    -0.206 F 
BRANCH  16  18
ATOM     18  C   UNL A   1      32.865  19.829  23.990  1.00  0.00    -0.015 A 
ATOM     19  C   UNL A   1      34.035  19.541  24.712  1.00  0.00     0.009 A 
ATOM     20  C   UNL A   1      32.312  18.819  23.188  1.00  0.00     0.009 A 
ATOM     21  C   UNL A   1      34.640  18.285  24.625  1.00  0.00     0.001 A 
ATOM     22  C   UNL A   1      32.920  17.564  23.097  1.00  0.00     0.001 A 
ATOM     23  C   UNL A   1      34.085  17.299  23.813  1.00  0.00     0.000 A 
ENDBRANCH  16  18
ENDBRANCH   9  11
ENDBRANCH   7   9
ENDBRANCH   6   7
ENDBRANCH   5   6
ENDBRANCH   4   5
ENDBRANCH   3   4
ENDBRANCH   2   3
ENDBRANCH   1   2
BRANCH   1  24
ATOM     24  O   UNL A   1      35.561  22.443  24.303  1.00  0.00    -0.376 OA
BRANCH  24  25
ATOM     25  C   UNL A   1      36.834  21.953  23.925  1.00  0.00     0.202 C 
BRANCH  25  26
ATOM     26  C   UNL A   1      37.777  21.735  25.114  1.00  0.00     0.261 C 
BRANCH  26  27
ATOM     27  O   UNL A   1      38.147  22.929  25.831  1.00  0.00    -0.460 OA
BRANCH  27  28
ATOM     28  C   UNL A   1      39.253  22.858  26.609  1.00  0.00     0.338 C 
ATOM     29  O   UNL A   1      39.981  21.888  26.755  1.00  0.00    -0.246 OA
BRANCH  28  30
ATOM     30  C   UNL A   1      39.582  24.232  27.053  1.00  0.00     0.060 A 
ATOM     31  C   UNL A   1      40.094  25.146  26.119  1.00  0.00     0.016 A 
ATOM     32  C   UNL A   1      39.351  24.630  28.371  1.00  0.00     0.016 A 
ATOM     33  C   UNL A   1      40.402  26.452  26.509  1.00  0.00     0.010 A 
ATOM     34  C   UNL A   1      39.679  25.932  28.764  1.00  0.00     0.010 A 
ATOM     35  C   UNL A   1      40.233  26.841  27.845  1.00  0.00    -0.014 A 
BRANCH  35  36
ATOM     36  C   UNL A   1      40.809  28.121  28.334  1.00  0.00     0.031 A 
ATOM     37  C   UNL A   1      42.303  28.299  28.268  1.00  0.00     0.074 A 
ATOM     38  C   UNL A   1      40.036  29.105  28.830  1.00  0.00     0.049 A 
ATOM     39  N   UNL A   1      43.045  29.278  28.715  1.00  0.00    -0.248 NA
ATOM     40  C   UNL A   1      43.061  27.219  27.615  1.00  0.00     0.031 C 
ATOM     41  C   UNL A   1      38.578  29.076  28.913  1.00  0.00     0.029 A 
ATOM     42  N   UNL A   1      40.382  30.318  29.375  1.00  0.00    -0.354 N 
ATOM     43  C   UNL A   1      44.355  28.931  28.404  1.00  0.00     0.074 A 
ATOM     44  C   UNL A   1      44.308  27.635  27.764  1.00  0.00     0.031 C 
ATOM     45  C   UNL A   1      38.153  30.212  29.496  1.00  0.00     0.029 A 
ATOM     46  C   UNL A   1      39.309  31.030  29.861  1.00  0.00     0.049 A 
ATOM     47  H   UNL A   1      41.308  30.646  29.415  1.00  0.00     0.167 HD
ATOM     48  C   UNL A   1      45.493  29.632  28.624  1.00  0.00     0.037 A 
ATOM     49  C   UNL A   1      39.270  32.191  30.547  1.00  0.00     0.037 A 
ATOM     50  C   UNL A   1      45.537  30.917  29.270  1.00  0.00     0.049 A 
ATOM     51  C   UNL A   1      40.557  32.919  30.854  1.00  0.00     0.074 A 
ATOM     52  C   UNL A   1      46.640  31.709  29.531  1.00  0.00     0.029 A 
ATOM     53  N   UNL A   1      44.433  31.595  29.765  1.00  0.00    -0.354 N 
ATOM     54  N   UNL A   1      41.788  32.589  30.539  1.00  0.00    -0.248 NA
ATOM     55  C   UNL A   1      40.449  34.178  31.604  1.00  0.00     0.031 C 
ATOM     56  C   UNL A   1      46.212  32.839  30.236  1.00  0.00     0.029 A 
ATOM     57  C   UNL A   1      44.832  32.785  30.354  1.00  0.00     0.049 A 
ATOM     58  H   UNL A   1      43.503  31.278  29.707  1.00  0.00     0.167 HD
ATOM     59  C   UNL A   1      42.595  33.615  31.026  1.00  0.00     0.074 A 
ATOM     60  C   UNL A   1      41.713  34.580  31.647  1.00  0.00     0.031 C 
ATOM     61  C   UNL A   1      43.944  33.746  30.962  1.00  0.00     0.037 A 
BRANCH  48  62
ATOM     62  C   UNL A   1      46.789  29.005  28.187  1.00  0.00     0.058 A 
ATOM     63  C   UNL A   1      47.311  29.202  26.897  1.00  0.00     0.135 A 
ATOM     64  C   UNL A   1      47.533  28.214  29.078  1.00  0.00     0.135 A 
ATOM     65  F   UNL A   1      46.632  29.932  25.998  1.00  0.00    -0.206 F 
ATOM     66  C   UNL A   1      48.507  28.616  26.499  1.00  0.00     0.059 A 
ATOM     67  C   UNL A   1      48.749  27.644  28.712  1.00  0.00     0.059 A 
ATOM     68  F   UNL A   1      47.081  27.989  30.321  1.00  0.00    -0.206 F 
ATOM     69  C   UNL A   1      49.220  27.839  27.414  1.00  0.00     0.060 A 
BRANCH  69  70
ATOM     70  S   UNL A   1      50.771  27.087  26.881  1.00  0.00     0.124 S 
ATOM     71  O   UNL A   1      50.788  27.429  25.461  1.00  0.00    -0.237 OA
ATOM     72  O   UNL A   1      51.753  27.780  27.711  1.00  0.00    -0.237 OA
ATOM     73  O   UNL A   1      50.586  25.671  27.181  1.00  0.00    -0.744 OA
ENDBRANCH  69  70
ENDBRANCH  48  62
BRANCH  49  74
ATOM     74  C   UNL A   1      37.964  32.734  31.016  1.00  0.00     0.058 A 
ATOM     75  C   UNL A   1      37.514  32.520  32.328  1.00  0.00     0.135 A 
ATOM     76  C   UNL A   1      37.134  33.473  30.157  1.00  0.00     0.135 A 
ATOM     77  F   UNL A   1      38.260  31.805  33.184  1.00  0.00    -0.206 F 
ATOM     78  C   UNL A   1      36.287  33.006  32.768  1.00  0.00     0.059 A 
ATOM     79  C   UNL A   1      35.917  33.995  30.582  1.00  0.00     0.059 A 
ATOM     80  F   UNL A   1      37.518  33.710  28.893  1.00  0.00    -0.206 F 
ATOM     81  C   UNL A   1      35.497  33.748  31.888  1.00  0.00     0.060 A 
BRANCH  81  82
ATOM     82  S   UNL A   1      33.931  34.420  32.487  1.00  0.00     0.124 S 
ATOM     83  O   UNL A   1      34.385  35.506  33.348  1.00  0.00    -0.237 OA
ATOM     84  O   UNL A   1      33.277  34.820  31.245  1.00  0.00    -0.237 OA
ATOM     85  O   UNL A   1      33.318  33.286  33.172  1.00  0.00    -0.744 OA
ENDBRANCH  81  82
ENDBRANCH  49  74
BRANCH  61  86
ATOM     86  C   UNL A   1      44.558  34.998  31.535  1.00  0.00     0.058 A 
ATOM     87  C   UNL A   1      45.041  35.056  32.851  1.00  0.00     0.135 A 
ATOM     88  C   UNL A   1      44.722  36.138  30.729  1.00  0.00     0.135 A 
ATOM     89  F   UNL A   1      44.909  33.998  33.667  1.00  0.00    -0.206 F 
ATOM     90  C   UNL A   1      45.640  36.207  33.357  1.00  0.00     0.059 A 
ATOM     91  C   UNL A   1      45.347  37.288  31.203  1.00  0.00     0.059 A 
ATOM     92  F   UNL A   1      44.291  36.136  29.458  1.00  0.00    -0.206 F 
ATOM     93  C   UNL A   1      45.792  37.317  32.524  1.00  0.00     0.060 A 
BRANCH  93  94
ATOM     94  S   UNL A   1      46.602  38.790  33.183  1.00  0.00     0.124 S 
ATOM     95  O   UNL A   1      46.572  39.683  32.031  1.00  0.00    -0.237 OA
ATOM     96  O   UNL A   1      45.728  39.156  34.293  1.00  0.00    -0.237 OA
ATOM     97  O   UNL A   1      47.926  38.307  33.569  1.00  0.00    -0.744 OA
ENDBRANCH  93  94
ENDBRANCH  61  86
ENDBRANCH  35  36
ENDBRANCH  28  30
ENDBRANCH  27  28
ENDBRANCH  26  27
ENDBRANCH  25  26
ENDBRANCH  24  25
ENDBRANCH   1  24
TORSDOF 22
ENDMDL
MODEL 3
REMARK VINA RESULT:      -8.7      5.114     11.739
REMARK SMILES C[C@H](C(=O)OCCOCCOCCOC(=O)c1ccc(-c2c3nc(c(-c4c(F)cc(S(=O)(=O)[O-])cc4F)c4ccc([nH]4)c(-c4c(F)cc(S(=O)(=O)[O-])cc4F)c4nc(c(-c5c(F)cc(S(=O)(=O)[O-])cc5F)c5ccc2[nH]5)C=C4)C=C3)cc1)c1ccc(-c2ccccc2)c(F)c1
REMARK SMILES IDX 10 1 9 2 8 3 7 4 6 5 5 6 3 7 4 8 2 9 1 10 83 11 84 12 95 13
REMARK SMILES IDX 85 14 93 15 86 16 94 17 87 18 88 19 92 20 89 21 91 22 90 23
REMARK SMILES IDX 11 24 12 25 13 26 14 27 15 28 16 29 17 30 18 31 82 32 19 33
REMARK SMILES IDX 81 34 20 35 21 36 22 37 75 38 23 39 80 40 74 41 76 42 24 43
REMARK SMILES IDX 79 44 73 45 72 46 25 48 59 49 38 50 58 51 39 52 42 53 57 54
REMARK SMILES IDX 77 55 40 56 41 57 56 59 78 60 43 61 26 62 27 63 36 64 28 65
REMARK SMILES IDX 29 66 35 67 37 68 30 69 31 70 32 71 33 72 34 73 60 74 61 75
REMARK SMILES IDX 70 76 62 77 63 78 69 79 71 80 64 81 65 82 66 83 67 84 68 85
REMARK SMILES IDX 44 86 45 87 54 88 46 89 47 90 53 91 55 92 48 93 49 94 50 95
REMARK SMILES IDX 51 96 52 97
REMARK H PARENT 76 47 42 58
REMARK Flexibility Score: inf
ROOT
ATOM      1  C   UNL A   1      36.145  23.223  23.674  1.00  0.00     0.188 C 
ENDROOT
BRANCH   1   2
ATOM      2  C   UNL A   1      34.706  23.627  23.336  1.00  0.00     0.188 C 
BRANCH   2   3
ATOM      3  O   UNL A   1      34.508  24.775  22.522  1.00  0.00    -0.376 OA
BRANCH   3   4
ATOM      4  C   UNL A   1      33.623  25.792  22.979  1.00  0.00     0.202 C 
BRANCH   4   5
ATOM      5  C   UNL A   1      33.484  26.007  24.498  1.00  0.00     0.261 C 
BRANCH   5   6
ATOM      6  O   UNL A   1      32.214  26.544  24.940  1.00  0.00    -0.463 OA
BRANCH   6   7
ATOM      7  C   UNL A   1      31.424  25.726  25.691  1.00  0.00     0.313 C 
ATOM      8  O   UNL A   1      31.309  25.830  26.909  1.00  0.00    -0.252 OA
BRANCH   7   9
ATOM      9  C   UNL A   1      30.608  24.690  24.902  1.00  0.00     0.126 C 
ATOM     10  C   UNL A   1      29.947  25.369  23.692  1.00  0.00     0.025 C 
BRANCH   9  11
ATOM     11  C   UNL A   1      31.273  23.347  24.595  1.00  0.00    -0.031 A 
ATOM     12  C   UNL A   1      31.725  22.561  25.666  1.00  0.00     0.005 A 
ATOM     13  C   UNL A   1      31.392  22.807  23.303  1.00  0.00     0.044 A 
ATOM     14  C   UNL A   1      32.276  21.289  25.454  1.00  0.00     0.012 A 
ATOM     15  C   UNL A   1      31.976  21.554  23.095  1.00  0.00     0.131 A 
ATOM     16  C   UNL A   1      32.420  20.767  24.161  1.00  0.00     0.017 A 
ATOM     17  F   UNL A   1      32.084  21.106  21.834  1.00  0.00    -0.206 F 
BRANCH  16  18
ATOM     18  C   UNL A   1      33.002  19.436  23.953  1.00  0.00    -0.015 A 
ATOM     19  C   UNL A   1      34.205  19.073  24.582  1.00  0.00     0.009 A 
ATOM     20  C   UNL A   1      32.383  18.501  23.110  1.00  0.00     0.009 A 
ATOM     21  C   UNL A   1      34.777  17.818  24.365  1.00  0.00     0.001 A 
ATOM     22  C   UNL A   1      32.958  17.246  22.888  1.00  0.00     0.001 A 
ATOM     23  C   UNL A   1      34.156  16.906  23.513  1.00  0.00     0.000 A 
ENDBRANCH  16  18
ENDBRANCH   9  11
ENDBRANCH   7   9
ENDBRANCH   6   7
ENDBRANCH   5   6
ENDBRANCH   4   5
ENDBRANCH   3   4
ENDBRANCH   2   3
ENDBRANCH   1   2
BRANCH   1  24
ATOM     24  O   UNL A   1      36.250  22.339  24.770  1.00  0.00    -0.376 OA
BRANCH  24  25
ATOM     25  C   UNL A   1      37.421  21.549  24.857  1.00  0.00     0.202 C 
BRANCH  25  26
ATOM     26  C   UNL A   1      38.243  21.818  26.123  1.00  0.00     0.261 C 
BRANCH  26  27
ATOM     27  O   UNL A   1      39.667  21.662  25.976  1.00  0.00    -0.460 OA
BRANCH  27  28
ATOM     28  C   UNL A   1      40.400  21.625  27.114  1.00  0.00     0.338 C 
ATOM     29  O   UNL A   1      40.896  20.636  27.630  1.00  0.00    -0.246 OA
BRANCH  28  30
ATOM     30  C   UNL A   1      40.722  23.022  27.488  1.00  0.00     0.060 A 
ATOM     31  C   UNL A   1      40.129  24.073  26.772  1.00  0.00     0.016 A 
ATOM     32  C   UNL A   1      41.571  23.295  28.563  1.00  0.00     0.016 A 
ATOM     33  C   UNL A   1      40.408  25.400  27.112  1.00  0.00     0.010 A 
ATOM     34  C   UNL A   1      41.863  24.623  28.888  1.00  0.00     0.010 A 
ATOM     35  C   UNL A   1      41.309  25.682  28.148  1.00  0.00    -0.014 A 
BRANCH  35  36
ATOM     36  C   UNL A   1      41.826  27.062  28.339  1.00  0.00     0.031 A 
ATOM     37  C   UNL A   1      43.265  27.337  27.990  1.00  0.00     0.074 A 
ATOM     38  C   UNL A   1      41.049  28.053  28.814  1.00  0.00     0.049 A 
ATOM     39  N   UNL A   1      43.968  28.426  28.155  1.00  0.00    -0.248 NA
ATOM     40  C   UNL A   1      44.011  26.225  27.378  1.00  0.00     0.031 C 
ATOM     41  C   UNL A   1      39.633  27.932  29.153  1.00  0.00     0.029 A 
ATOM     42  N   UNL A   1      41.356  29.360  29.110  1.00  0.00    -0.354 N 
ATOM     43  C   UNL A   1      45.239  28.131  27.675  1.00  0.00     0.074 A 
ATOM     44  C   UNL A   1      45.219  26.750  27.246  1.00  0.00     0.031 C 
ATOM     45  C   UNL A   1      39.197  29.112  29.630  1.00  0.00     0.029 A 
ATOM     46  C   UNL A   1      40.310  30.060  29.666  1.00  0.00     0.049 A 
ATOM     47  H   UNL A   1      42.239  29.757  28.940  1.00  0.00     0.167 HD
ATOM     48  C   UNL A   1      46.323  28.939  27.590  1.00  0.00     0.037 A 
ATOM     49  C   UNL A   1      40.267  31.309  30.174  1.00  0.00     0.037 A 
ATOM     50  C   UNL A   1      46.343  30.311  28.026  1.00  0.00     0.049 A 
ATOM     51  C   UNL A   1      41.508  32.168  30.144  1.00  0.00     0.074 A 
ATOM     52  C   UNL A   1      47.390  31.213  27.974  1.00  0.00     0.029 A 
ATOM     53  N   UNL A   1      45.271  30.976  28.602  1.00  0.00    -0.354 N 
ATOM     54  N   UNL A   1      42.699  31.884  29.671  1.00  0.00    -0.248 NA
ATOM     55  C   UNL A   1      41.398  33.520  30.712  1.00  0.00     0.031 C 
ATOM     56  C   UNL A   1      46.970  32.406  28.572  1.00  0.00     0.029 A 
ATOM     57  C   UNL A   1      45.639  32.270  28.934  1.00  0.00     0.049 A 
ATOM     58  H   UNL A   1      44.379  30.587  28.752  1.00  0.00     0.167 HD
ATOM     59  C   UNL A   1      43.468  33.031  29.857  1.00  0.00     0.074 A 
ATOM     60  C   UNL A   1      42.606  34.015  30.476  1.00  0.00     0.031 C 
ATOM     61  C   UNL A   1      44.770  33.248  29.541  1.00  0.00     0.037 A 
BRANCH  48  62
ATOM     62  C   UNL A   1      47.588  28.347  27.029  1.00  0.00     0.058 A 
ATOM     63  C   UNL A   1      47.783  28.187  25.647  1.00  0.00     0.135 A 
ATOM     64  C   UNL A   1      48.631  27.956  27.886  1.00  0.00     0.135 A 
ATOM     65  F   UNL A   1      46.812  28.524  24.784  1.00  0.00    -0.206 F 
ATOM     66  C   UNL A   1      48.953  27.635  25.137  1.00  0.00     0.059 A 
ATOM     67  C   UNL A   1      49.823  27.432  27.396  1.00  0.00     0.059 A 
ATOM     68  F   UNL A   1      48.497  28.084  29.215  1.00  0.00    -0.206 F 
ATOM     69  C   UNL A   1      49.968  27.261  26.019  1.00  0.00     0.060 A 
BRANCH  69  70
ATOM     70  S   UNL A   1      51.480  26.548  25.340  1.00  0.00     0.124 S 
ATOM     71  O   UNL A   1      52.497  27.434  25.903  1.00  0.00    -0.237 OA
ATOM     72  O   UNL A   1      51.454  25.192  25.880  1.00  0.00    -0.237 OA
ATOM     73  O   UNL A   1      51.290  26.651  23.897  1.00  0.00    -0.744 OA
ENDBRANCH  69  70
ENDBRANCH  48  62
BRANCH  49  74
ATOM     74  C   UNL A   1      39.006  31.823  30.779  1.00  0.00     0.058 A 
ATOM     75  C   UNL A   1      38.789  31.774  32.165  1.00  0.00     0.135 A 
ATOM     76  C   UNL A   1      37.986  32.367  29.981  1.00  0.00     0.135 A 
ATOM     77  F   UNL A   1      39.724  31.248  32.971  1.00  0.00    -0.206 F 
ATOM     78  C   UNL A   1      37.606  32.233  32.736  1.00  0.00     0.059 A 
ATOM     79  C   UNL A   1      36.807  32.859  30.531  1.00  0.00     0.059 A 
ATOM     80  F   UNL A   1      38.143  32.440  28.650  1.00  0.00    -0.206 F 
ATOM     81  C   UNL A   1      36.622  32.779  31.911  1.00  0.00     0.060 A 
BRANCH  81  82
ATOM     82  S   UNL A   1      35.114  33.421  32.669  1.00  0.00     0.124 S 
ATOM     83  O   UNL A   1      35.181  32.834  34.002  1.00  0.00    -0.237 OA
ATOM     84  O   UNL A   1      35.326  34.863  32.595  1.00  0.00    -0.237 OA
ATOM     85  O   UNL A   1      34.057  32.905  31.805  1.00  0.00    -0.744 OA
ENDBRANCH  81  82
ENDBRANCH  49  74
BRANCH  61  86
ATOM     86  C   UNL A   1      45.340  34.617  29.812  1.00  0.00     0.058 A 
ATOM     87  C   UNL A   1      45.166  35.687  28.920  1.00  0.00     0.135 A 
ATOM     88  C   UNL A   1      46.018  34.875  31.016  1.00  0.00     0.135 A 
ATOM     89  F   UNL A   1      44.529  35.498  27.754  1.00  0.00    -0.206 F 
ATOM     90  C   UNL A   1      45.665  36.957  29.200  1.00  0.00     0.059 A 
ATOM     91  C   UNL A   1      46.497  36.144  31.331  1.00  0.00     0.059 A 
ATOM     92  F   UNL A   1      46.203  33.893  31.912  1.00  0.00    -0.206 F 
ATOM     93  C   UNL A   1      46.326  37.176  30.410  1.00  0.00     0.060 A 
BRANCH  93  94
ATOM     94  S   UNL A   1      46.937  38.836  30.774  1.00  0.00     0.124 S 
ATOM     95  O   UNL A   1      46.220  39.151  32.004  1.00  0.00    -0.237 OA
ATOM     96  O   UNL A   1      48.373  38.615  30.916  1.00  0.00    -0.237 OA
ATOM     97  O   UNL A   1      46.541  39.611  29.600  1.00  0.00    -0.744 OA
ENDBRANCH  93  94
ENDBRANCH  61  86
ENDBRANCH  35  36
ENDBRANCH  28  30
ENDBRANCH  27  28
ENDBRANCH  26  27
ENDBRANCH  25  26
ENDBRANCH  24  25
ENDBRANCH   1  24
TORSDOF 22
ENDMDL
