MODEL 1
REMARK VINA RESULT:     -10.4      0.000      0.000
REMARK SMILES Cc1cnn([C@H]2CC[C@@]([NH3+])(C(=O)OCCOCCOCCOC(=O)c3ccc(-c4c5nc(c(-c6c(F)cc(S(=O)(=O)[O-])cc6F)c6ccc([nH]6)c(-c6c(F)cc(S(=O)(=O)[O-])cc6F)c6nc(c(-c7c(F)cc(S(=O)(=O)[O-])cc7F)c7ccc4[nH]7)C=C6)C=C5)cc3)C2)c1
REMARK SMILES IDX 18 1 17 2 16 3 15 4 14 5 13 6 11 7 12 8 9 9 6 10 7 11 91 12
REMARK SMILES IDX 8 13 5 14 1 15 2 16 3 17 92 18 4 19 10 20 19 24 20 25 21 26
REMARK SMILES IDX 22 27 23 28 24 29 25 30 26 31 90 32 27 33 89 34 28 35 29 36
REMARK SMILES IDX 30 37 83 38 31 39 88 40 82 41 84 42 32 43 87 44 81 45 80 46
REMARK SMILES IDX 33 48 67 49 46 50 66 51 47 52 50 53 65 54 85 55 48 56 49 57
REMARK SMILES IDX 64 59 86 60 51 61 34 62 35 63 44 64 36 65 37 66 43 67 45 68
REMARK SMILES IDX 38 69 39 70 40 71 41 72 42 73 68 74 69 75 78 76 70 77 71 78
REMARK SMILES IDX 77 79 79 80 72 81 73 82 74 83 75 84 76 85 52 86 53 87 62 88
REMARK SMILES IDX 54 89 55 90 61 91 63 92 56 93 57 94 58 95 59 96 60 97
REMARK H PARENT 10 21 10 22 10 23 84 47 50 58
REMARK Flexibility Score: inf
ROOT
ATOM      1  C   UNL A   1      39.874  22.065  26.706  1.00  0.00     0.188 C 
ENDROOT
BRANCH   1   2
ATOM      2  C   UNL A   1      38.561  22.561  26.095  1.00  0.00     0.188 C 
BRANCH   2   3
ATOM      3  O   UNL A   1      38.011  21.688  25.121  1.00  0.00    -0.376 OA
BRANCH   3   4
ATOM      4  C   UNL A   1      36.667  21.295  25.358  1.00  0.00     0.202 C 
BRANCH   4   5
ATOM      5  C   UNL A   1      35.617  22.125  24.610  1.00  0.00     0.261 C 
BRANCH   5   6
ATOM      6  O   UNL A   1      35.338  23.432  25.158  1.00  0.00    -0.459 OA
BRANCH   6   7
ATOM      7  C   UNL A   1      34.413  23.536  26.141  1.00  0.00     0.368 C 
ATOM      8  O   UNL A   1      34.432  22.856  27.163  1.00  0.00    -0.245 OA
BRANCH   7   9
ATOM      9  C   UNL A   1      33.208  24.470  25.757  1.00  0.00     0.194 C 
ATOM     10  C   UNL A   1      31.609  23.077  24.520  1.00  0.00     0.114 C 
ATOM     11  C   UNL A   1      30.989  23.396  25.894  1.00  0.00     0.034 C 
ATOM     12  C   UNL A   1      32.689  24.159  24.343  1.00  0.00     0.108 C 
ATOM     13  C   UNL A   1      31.920  24.399  26.588  1.00  0.00     0.083 C 
BRANCH  10  14
ATOM     14  N   UNL A   1      32.024  21.686  24.404  1.00  0.00    -0.269 N 
ATOM     15  C   UNL A   1      32.651  18.221  25.347  1.00  0.00     0.048 C 
ATOM     16  C   UNL A   1      32.502  19.562  24.743  1.00  0.00    -0.013 A 
ATOM     17  C   UNL A   1      32.592  19.919  23.382  1.00  0.00     0.138 A 
ATOM     18  C   UNL A   1      32.221  20.754  25.380  1.00  0.00     0.112 A 
ATOM     19  N   UNL A   1      32.303  21.204  23.176  1.00  0.00    -0.181 NA
ENDBRANCH  10  14
BRANCH   9  20
ATOM     20  N   UNL A   1      33.740  25.853  25.827  1.00  0.00    -0.343 N 
ATOM     21  H   UNL A   1      33.791  26.246  24.888  1.00  0.00     0.345 HD
ATOM     22  H   UNL A   1      34.673  25.838  26.241  1.00  0.00     0.345 HD
ATOM     23  H   UNL A   1      33.123  26.425  26.403  1.00  0.00     0.345 HD
ENDBRANCH   9  20
ENDBRANCH   7   9
ENDBRANCH   6   7
ENDBRANCH   5   6
ENDBRANCH   4   5
ENDBRANCH   3   4
ENDBRANCH   2   3
ENDBRANCH   1   2
BRANCH   1  24
ATOM     24  O   UNL A   1      40.126  20.677  26.884  1.00  0.00    -0.376 OA
BRANCH  24  25
ATOM     25  C   UNL A   1      41.407  20.249  27.314  1.00  0.00     0.202 C 
BRANCH  25  26
ATOM     26  C   UNL A   1      42.241  19.445  26.328  1.00  0.00     0.261 C 
BRANCH  26  27
ATOM     27  O   UNL A   1      42.774  20.246  25.287  1.00  0.00    -0.460 OA
BRANCH  27  28
ATOM     28  C   UNL A   1      44.127  20.299  25.238  1.00  0.00     0.338 C 
ATOM     29  O   UNL A   1      44.904  19.367  25.323  1.00  0.00    -0.246 OA
BRANCH  28  30
ATOM     30  C   UNL A   1      44.517  21.715  25.140  1.00  0.00     0.060 A 
ATOM     31  C   UNL A   1      45.590  22.120  25.935  1.00  0.00     0.016 A 
ATOM     32  C   UNL A   1      43.668  22.640  24.509  1.00  0.00     0.016 A 
ATOM     33  C   UNL A   1      45.642  23.439  26.324  1.00  0.00     0.010 A 
ATOM     34  C   UNL A   1      43.717  23.955  24.900  1.00  0.00     0.010 A 
ATOM     35  C   UNL A   1      44.628  24.299  25.891  1.00  0.00    -0.014 A 
BRANCH  35  36
ATOM     36  C   UNL A   1      44.416  25.508  26.654  1.00  0.00     0.031 A 
ATOM     37  C   UNL A   1      45.417  26.569  26.483  1.00  0.00     0.074 A 
ATOM     38  C   UNL A   1      43.319  25.647  27.422  1.00  0.00     0.049 A 
ATOM     39  N   UNL A   1      46.273  26.984  27.354  1.00  0.00    -0.248 NA
ATOM     40  C   UNL A   1      45.556  27.171  25.153  1.00  0.00     0.031 C 
ATOM     41  C   UNL A   1      42.120  24.803  27.460  1.00  0.00     0.029 A 
ATOM     42  N   UNL A   1      43.016  26.658  28.273  1.00  0.00    -0.354 N 
ATOM     43  C   UNL A   1      46.942  28.039  26.748  1.00  0.00     0.074 A 
ATOM     44  C   UNL A   1      46.576  28.006  25.355  1.00  0.00     0.031 C 
ATOM     45  C   UNL A   1      41.145  25.456  28.130  1.00  0.00     0.029 A 
ATOM     46  C   UNL A   1      41.686  26.697  28.659  1.00  0.00     0.049 A 
ATOM     47  H   UNL A   1      43.683  27.310  28.589  1.00  0.00     0.167 HD
ATOM     48  C   UNL A   1      47.590  28.984  27.482  1.00  0.00     0.037 A 
ATOM     49  C   UNL A   1      41.071  27.732  29.283  1.00  0.00     0.037 A 
ATOM     50  C   UNL A   1      47.785  28.560  28.845  1.00  0.00     0.049 A 
ATOM     51  C   UNL A   1      42.136  28.529  29.958  1.00  0.00     0.074 A 
ATOM     52  C   UNL A   1      48.435  27.495  29.438  1.00  0.00     0.029 A 
ATOM     53  N   UNL A   1      46.953  29.075  29.813  1.00  0.00    -0.354 N 
ATOM     54  N   UNL A   1      42.846  28.091  30.965  1.00  0.00    -0.248 NA
ATOM     55  C   UNL A   1      42.729  29.644  29.231  1.00  0.00     0.031 C 
ATOM     56  C   UNL A   1      47.625  27.135  30.553  1.00  0.00     0.029 A 
ATOM     57  C   UNL A   1      46.550  28.024  30.600  1.00  0.00     0.049 A 
ATOM     58  H   UNL A   1      46.697  30.020  29.921  1.00  0.00     0.167 HD
ATOM     59  C   UNL A   1      44.129  28.575  30.743  1.00  0.00     0.074 A 
ATOM     60  C   UNL A   1      43.971  29.606  29.721  1.00  0.00     0.031 C 
ATOM     61  C   UNL A   1      45.235  27.909  31.195  1.00  0.00     0.037 A 
BRANCH  48  62
ATOM     62  C   UNL A   1      47.765  30.414  27.045  1.00  0.00     0.058 A 
ATOM     63  C   UNL A   1      49.043  31.002  27.102  1.00  0.00     0.135 A 
ATOM     64  C   UNL A   1      46.688  31.301  26.831  1.00  0.00     0.135 A 
ATOM     65  F   UNL A   1      50.135  30.249  27.308  1.00  0.00    -0.206 F 
ATOM     66  C   UNL A   1      49.228  32.383  27.027  1.00  0.00     0.059 A 
ATOM     67  C   UNL A   1      46.856  32.672  26.694  1.00  0.00     0.059 A 
ATOM     68  F   UNL A   1      45.412  30.893  26.851  1.00  0.00    -0.206 F 
ATOM     69  C   UNL A   1      48.124  33.209  26.845  1.00  0.00     0.060 A 
BRANCH  69  70
ATOM     70  S   UNL A   1      48.336  34.996  26.898  1.00  0.00     0.124 S 
ATOM     71  O   UNL A   1      48.185  35.343  25.490  1.00  0.00    -0.237 OA
ATOM     72  O   UNL A   1      47.250  35.407  27.781  1.00  0.00    -0.237 OA
ATOM     73  O   UNL A   1      49.679  35.157  27.449  1.00  0.00    -0.744 OA
ENDBRANCH  69  70
ENDBRANCH  48  62
BRANCH  49  74
ATOM     74  C   UNL A   1      39.698  28.238  29.017  1.00  0.00     0.058 A 
ATOM     75  C   UNL A   1      38.720  28.260  30.026  1.00  0.00     0.135 A 
ATOM     76  C   UNL A   1      39.381  28.946  27.837  1.00  0.00     0.135 A 
ATOM     77  F   UNL A   1      38.943  27.640  31.194  1.00  0.00    -0.206 F 
ATOM     78  C   UNL A   1      37.522  28.973  29.890  1.00  0.00     0.059 A 
ATOM     79  C   UNL A   1      38.189  29.645  27.670  1.00  0.00     0.059 A 
ATOM     80  F   UNL A   1      40.261  29.067  26.832  1.00  0.00    -0.206 F 
ATOM     81  C   UNL A   1      37.273  29.677  28.712  1.00  0.00     0.060 A 
BRANCH  81  82
ATOM     82  S   UNL A   1      35.818  30.743  28.591  1.00  0.00     0.124 S 
ATOM     83  O   UNL A   1      34.863  29.873  27.916  1.00  0.00    -0.237 OA
ATOM     84  O   UNL A   1      35.536  31.038  29.992  1.00  0.00    -0.237 OA
ATOM     85  O   UNL A   1      36.294  31.879  27.804  1.00  0.00    -0.744 OA
ENDBRANCH  81  82
ENDBRANCH  49  74
BRANCH  61  86
ATOM     86  C   UNL A   1      45.039  26.784  32.181  1.00  0.00     0.058 A 
ATOM     87  C   UNL A   1      44.921  26.972  33.569  1.00  0.00     0.135 A 
ATOM     88  C   UNL A   1      44.787  25.493  31.690  1.00  0.00     0.135 A 
ATOM     89  F   UNL A   1      45.030  28.193  34.110  1.00  0.00    -0.206 F 
ATOM     90  C   UNL A   1      44.614  25.921  34.435  1.00  0.00     0.059 A 
ATOM     91  C   UNL A   1      44.447  24.435  32.531  1.00  0.00     0.059 A 
ATOM     92  F   UNL A   1      44.813  25.259  30.368  1.00  0.00    -0.206 F 
ATOM     93  C   UNL A   1      44.376  24.654  33.906  1.00  0.00     0.060 A 
BRANCH  93  94
ATOM     94  S   UNL A   1      43.886  23.318  35.018  1.00  0.00     0.124 S 
ATOM     95  O   UNL A   1      42.448  23.532  35.138  1.00  0.00    -0.237 OA
ATOM     96  O   UNL A   1      44.289  22.122  34.281  1.00  0.00    -0.237 OA
ATOM     97  O   UNL A   1      44.660  23.581  36.228  1.00  0.00    -0.744 OA
ENDBRANCH  93  94
ENDBRANCH  61  86
ENDBRANCH  35  36
ENDBRANCH  28  30
ENDBRANCH  27  28
ENDBRANCH  26  27
ENDBRANCH  25  26
ENDBRANCH  24  25
ENDBRANCH   1  24
TORSDOF 22
ENDMDL
MODEL 2
REMARK VINA RESULT:     -10.4      0.937      2.200
REMARK SMILES Cc1cnn([C@H]2CC[C@@]([NH3+])(C(=O)OCCOCCOCCOC(=O)c3ccc(-c4c5nc(c(-c6c(F)cc(S(=O)(=O)[O-])cc6F)c6ccc([nH]6)c(-c6c(F)cc(S(=O)(=O)[O-])cc6F)c6nc(c(-c7c(F)cc(S(=O)(=O)[O-])cc7F)c7ccc4[nH]7)C=C6)C=C5)cc3)C2)c1
REMARK SMILES IDX 18 1 17 2 16 3 15 4 14 5 13 6 11 7 12 8 9 9 6 10 7 11 91 12
REMARK SMILES IDX 8 13 5 14 1 15 2 16 3 17 92 18 4 19 10 20 19 24 20 25 21 26
REMARK SMILES IDX 22 27 23 28 24 29 25 30 26 31 90 32 27 33 89 34 28 35 29 36
REMARK SMILES IDX 30 37 83 38 31 39 88 40 82 41 84 42 32 43 87 44 81 45 80 46
REMARK SMILES IDX 33 48 67 49 46 50 66 51 47 52 50 53 65 54 85 55 48 56 49 57
REMARK SMILES IDX 64 59 86 60 51 61 34 62 35 63 44 64 36 65 37 66 43 67 45 68
REMARK SMILES IDX 38 69 39 70 40 71 41 72 42 73 68 74 69 75 78 76 70 77 71 78
REMARK SMILES IDX 77 79 79 80 72 81 73 82 74 83 75 84 76 85 52 86 53 87 62 88
REMARK SMILES IDX 54 89 55 90 61 91 63 92 56 93 57 94 58 95 59 96 60 97
REMARK H PARENT 10 21 10 22 10 23 84 47 50 58
REMARK Flexibility Score: inf
ROOT
ATOM      1  C   UNL A   1      40.145  21.295  26.436  1.00  0.00     0.188 C 
ENDROOT
BRANCH   1   2
ATOM      2  C   UNL A   1      39.265  22.546  26.491  1.00  0.00     0.188 C 
BRANCH   2   3
ATOM      3  O   UNL A   1      38.066  22.443  25.739  1.00  0.00    -0.376 OA
BRANCH   3   4
ATOM      4  C   UNL A   1      37.234  23.593  25.775  1.00  0.00     0.202 C 
BRANCH   4   5
ATOM      5  C   UNL A   1      35.741  23.308  25.580  1.00  0.00     0.261 C 
BRANCH   5   6
ATOM      6  O   UNL A   1      35.342  21.925  25.690  1.00  0.00    -0.459 OA
BRANCH   6   7
ATOM      7  C   UNL A   1      34.271  21.621  26.459  1.00  0.00     0.368 C 
ATOM      8  O   UNL A   1      34.255  21.749  27.681  1.00  0.00    -0.245 OA
BRANCH   7   9
ATOM      9  C   UNL A   1      33.122  20.906  25.660  1.00  0.00     0.194 C 
ATOM     10  C   UNL A   1      31.806  22.679  24.585  1.00  0.00     0.114 C 
ATOM     11  C   UNL A   1      32.585  21.937  23.482  1.00  0.00     0.034 C 
ATOM     12  C   UNL A   1      31.800  21.688  25.762  1.00  0.00     0.108 C 
ATOM     13  C   UNL A   1      33.268  20.733  24.142  1.00  0.00     0.083 C 
BRANCH  10  14
ATOM     14  N   UNL A   1      32.329  24.016  24.835  1.00  0.00    -0.269 N 
ATOM     15  C   UNL A   1      33.694  27.328  24.161  1.00  0.00     0.048 C 
ATOM     16  C   UNL A   1      33.166  26.047  24.679  1.00  0.00    -0.013 A 
ATOM     17  C   UNL A   1      32.714  25.755  25.982  1.00  0.00     0.138 A 
ATOM     18  C   UNL A   1      32.981  24.865  23.991  1.00  0.00     0.112 A 
ATOM     19  N   UNL A   1      32.208  24.525  26.077  1.00  0.00    -0.181 NA
ENDBRANCH  10  14
BRANCH   9  20
ATOM     20  N   UNL A   1      32.985  19.564  26.278  1.00  0.00    -0.343 N 
ATOM     21  H   UNL A   1      33.730  19.425  26.960  1.00  0.00     0.345 HD
ATOM     22  H   UNL A   1      33.049  18.849  25.553  1.00  0.00     0.345 HD
ATOM     23  H   UNL A   1      32.080  19.495  26.743  1.00  0.00     0.345 HD
ENDBRANCH   9  20
ENDBRANCH   7   9
ENDBRANCH   6   7
ENDBRANCH   5   6
ENDBRANCH   4   5
ENDBRANCH   3   4
ENDBRANCH   2   3
ENDBRANCH   1   2
BRANCH   1  24
ATOM     24  O   UNL A   1      40.742  20.762  27.611  1.00  0.00    -0.376 OA
BRANCH  24  25
ATOM     25  C   UNL A   1      41.597  19.636  27.512  1.00  0.00     0.202 C 
BRANCH  25  26
ATOM     26  C   UNL A   1      42.312  19.418  26.186  1.00  0.00     0.261 C 
BRANCH  26  27
ATOM     27  O   UNL A   1      43.610  19.987  26.168  1.00  0.00    -0.460 OA
BRANCH  27  28
ATOM     28  C   UNL A   1      44.107  20.242  24.933  1.00  0.00     0.338 C 
ATOM     29  O   UNL A   1      44.215  19.462  24.007  1.00  0.00    -0.246 OA
BRANCH  28  30
ATOM     30  C   UNL A   1      44.578  21.637  24.919  1.00  0.00     0.060 A 
ATOM     31  C   UNL A   1      45.609  21.953  25.805  1.00  0.00     0.016 A 
ATOM     32  C   UNL A   1      43.828  22.629  24.266  1.00  0.00     0.016 A 
ATOM     33  C   UNL A   1      45.702  23.252  26.249  1.00  0.00     0.010 A 
ATOM     34  C   UNL A   1      43.917  23.925  24.711  1.00  0.00     0.010 A 
ATOM     35  C   UNL A   1      44.770  24.182  25.779  1.00  0.00    -0.014 A 
BRANCH  35  36
ATOM     36  C   UNL A   1      44.566  25.373  26.571  1.00  0.00     0.031 A 
ATOM     37  C   UNL A   1      45.570  26.434  26.422  1.00  0.00     0.074 A 
ATOM     38  C   UNL A   1      43.473  25.498  27.348  1.00  0.00     0.049 A 
ATOM     39  N   UNL A   1      46.432  26.825  27.298  1.00  0.00    -0.248 NA
ATOM     40  C   UNL A   1      45.706  27.068  25.106  1.00  0.00     0.031 C 
ATOM     41  C   UNL A   1      42.271  24.658  27.371  1.00  0.00     0.029 A 
ATOM     42  N   UNL A   1      43.178  26.489  28.224  1.00  0.00    -0.354 N 
ATOM     43  C   UNL A   1      47.103  27.891  26.715  1.00  0.00     0.074 A 
ATOM     44  C   UNL A   1      46.730  27.893  25.323  1.00  0.00     0.031 C 
ATOM     45  C   UNL A   1      41.302  25.298  28.061  1.00  0.00     0.029 A 
ATOM     46  C   UNL A   1      41.850  26.524  28.618  1.00  0.00     0.049 A 
ATOM     47  H   UNL A   1      43.849  27.130  28.553  1.00  0.00     0.167 HD
ATOM     48  C   UNL A   1      47.757  28.816  27.468  1.00  0.00     0.037 A 
ATOM     49  C   UNL A   1      41.243  27.546  29.270  1.00  0.00     0.037 A 
ATOM     50  C   UNL A   1      47.957  28.358  28.820  1.00  0.00     0.049 A 
ATOM     51  C   UNL A   1      42.314  28.322  29.959  1.00  0.00     0.074 A 
ATOM     52  C   UNL A   1      48.606  27.276  29.384  1.00  0.00     0.029 A 
ATOM     53  N   UNL A   1      47.132  28.852  29.804  1.00  0.00    -0.354 N 
ATOM     54  N   UNL A   1      43.027  27.857  30.951  1.00  0.00    -0.248 NA
ATOM     55  C   UNL A   1      42.907  29.452  29.256  1.00  0.00     0.031 C 
ATOM     56  C   UNL A   1      47.800  26.892  30.494  1.00  0.00     0.029 A 
ATOM     57  C   UNL A   1      46.728  27.784  30.567  1.00  0.00     0.049 A 
ATOM     58  H   UNL A   1      46.880  29.795  29.936  1.00  0.00     0.167 HD
ATOM     59  C   UNL A   1      44.310  28.341  30.735  1.00  0.00     0.074 A 
ATOM     60  C   UNL A   1      44.152  29.397  29.739  1.00  0.00     0.031 C 
ATOM     61  C   UNL A   1      45.416  27.660  31.165  1.00  0.00     0.037 A 
BRANCH  48  62
ATOM     62  C   UNL A   1      47.936  30.254  27.066  1.00  0.00     0.058 A 
ATOM     63  C   UNL A   1      49.219  30.834  27.125  1.00  0.00     0.135 A 
ATOM     64  C   UNL A   1      46.862  31.153  26.884  1.00  0.00     0.135 A 
ATOM     65  F   UNL A   1      50.308  30.071  27.302  1.00  0.00    -0.206 F 
ATOM     66  C   UNL A   1      49.411  32.215  27.083  1.00  0.00     0.059 A 
ATOM     67  C   UNL A   1      47.037  32.526  26.780  1.00  0.00     0.059 A 
ATOM     68  F   UNL A   1      45.584  30.751  26.906  1.00  0.00    -0.206 F 
ATOM     69  C   UNL A   1      48.309  33.052  26.932  1.00  0.00     0.060 A 
BRANCH  69  70
ATOM     70  S   UNL A   1      48.532  34.836  27.027  1.00  0.00     0.124 S 
ATOM     71  O   UNL A   1      49.956  34.962  26.742  1.00  0.00    -0.237 OA
ATOM     72  O   UNL A   1      47.625  35.313  25.988  1.00  0.00    -0.237 OA
ATOM     73  O   UNL A   1      48.130  35.151  28.395  1.00  0.00    -0.744 OA
ENDBRANCH  69  70
ENDBRANCH  48  62
BRANCH  49  74
ATOM     74  C   UNL A   1      39.870  28.063  29.022  1.00  0.00     0.058 A 
ATOM     75  C   UNL A   1      38.897  28.063  30.036  1.00  0.00     0.135 A 
ATOM     76  C   UNL A   1      39.551  28.803  27.862  1.00  0.00     0.135 A 
ATOM     77  F   UNL A   1      39.121  27.413  31.187  1.00  0.00    -0.206 F 
ATOM     78  C   UNL A   1      37.700  28.784  29.923  1.00  0.00     0.059 A 
ATOM     79  C   UNL A   1      38.361  29.510  27.718  1.00  0.00     0.059 A 
ATOM     80  F   UNL A   1      40.428  28.946  26.857  1.00  0.00    -0.206 F 
ATOM     81  C   UNL A   1      37.450  29.519  28.764  1.00  0.00     0.060 A 
BRANCH  81  82
ATOM     82  S   UNL A   1      35.998  30.594  28.677  1.00  0.00     0.124 S 
ATOM     83  O   UNL A   1      36.497  31.709  27.881  1.00  0.00    -0.237 OA
ATOM     84  O   UNL A   1      35.016  29.732  28.027  1.00  0.00    -0.237 OA
ATOM     85  O   UNL A   1      35.719  30.901  30.079  1.00  0.00    -0.744 OA
ENDBRANCH  81  82
ENDBRANCH  49  74
BRANCH  61  86
ATOM     86  C   UNL A   1      45.219  26.512  32.124  1.00  0.00     0.058 A 
ATOM     87  C   UNL A   1      44.874  25.209  31.724  1.00  0.00     0.135 A 
ATOM     88  C   UNL A   1      45.561  26.693  33.474  1.00  0.00     0.135 A 
ATOM     89  F   UNL A   1      44.647  24.922  30.435  1.00  0.00    -0.206 F 
ATOM     90  C   UNL A   1      44.825  24.146  32.627  1.00  0.00     0.059 A 
ATOM     91  C   UNL A   1      45.551  25.641  34.387  1.00  0.00     0.059 A 
ATOM     92  F   UNL A   1      45.968  27.897  33.908  1.00  0.00    -0.206 F 
ATOM     93  C   UNL A   1      45.168  24.371  33.959  1.00  0.00     0.060 A 
BRANCH  93  94
ATOM     94  S   UNL A   1      45.197  22.975  35.105  1.00  0.00     0.124 S 
ATOM     95  O   UNL A   1      43.988  22.249  34.732  1.00  0.00    -0.237 OA
ATOM     96  O   UNL A   1      46.459  22.316  34.777  1.00  0.00    -0.237 OA
ATOM     97  O   UNL A   1      45.162  23.612  36.419  1.00  0.00    -0.744 OA
ENDBRANCH  93  94
ENDBRANCH  61  86
ENDBRANCH  35  36
ENDBRANCH  28  30
ENDBRANCH  27  28
ENDBRANCH  26  27
ENDBRANCH  25  26
ENDBRANCH  24  25
ENDBRANCH   1  24
TORSDOF 22
ENDMDL
MODEL 3
REMARK VINA RESULT:     -10.3      1.618      2.914
REMARK SMILES Cc1cnn([C@H]2CC[C@@]([NH3+])(C(=O)OCCOCCOCCOC(=O)c3ccc(-c4c5nc(c(-c6c(F)cc(S(=O)(=O)[O-])cc6F)c6ccc([nH]6)c(-c6c(F)cc(S(=O)(=O)[O-])cc6F)c6nc(c(-c7c(F)cc(S(=O)(=O)[O-])cc7F)c7ccc4[nH]7)C=C6)C=C5)cc3)C2)c1
REMARK SMILES IDX 18 1 17 2 16 3 15 4 14 5 13 6 11 7 12 8 9 9 6 10 7 11 91 12
REMARK SMILES IDX 8 13 5 14 1 15 2 16 3 17 92 18 4 19 10 20 19 24 20 25 21 26
REMARK SMILES IDX 22 27 23 28 24 29 25 30 26 31 90 32 27 33 89 34 28 35 29 36
REMARK SMILES IDX 30 37 83 38 31 39 88 40 82 41 84 42 32 43 87 44 81 45 80 46
REMARK SMILES IDX 33 48 67 49 46 50 66 51 47 52 50 53 65 54 85 55 48 56 49 57
REMARK SMILES IDX 64 59 86 60 51 61 34 62 35 63 44 64 36 65 37 66 43 67 45 68
REMARK SMILES IDX 38 69 39 70 40 71 41 72 42 73 68 74 69 75 78 76 70 77 71 78
REMARK SMILES IDX 77 79 79 80 72 81 73 82 74 83 75 84 76 85 52 86 53 87 62 88
REMARK SMILES IDX 54 89 55 90 61 91 63 92 56 93 57 94 58 95 59 96 60 97
REMARK H PARENT 10 21 10 22 10 23 84 47 50 58
REMARK Flexibility Score: inf
ROOT
ATOM      1  C   UNL A   1      37.661  22.926  25.453  1.00  0.00     0.188 C 
ENDROOT
BRANCH   1   2
ATOM      2  C   UNL A   1      36.354  23.435  26.066  1.00  0.00     0.188 C 
BRANCH   2   3
ATOM      3  O   UNL A   1      35.418  22.411  26.362  1.00  0.00    -0.376 OA
BRANCH   3   4
ATOM      4  C   UNL A   1      34.188  22.863  26.909  1.00  0.00     0.202 C 
BRANCH   4   5
ATOM      5  C   UNL A   1      33.412  23.840  26.017  1.00  0.00     0.261 C 
BRANCH   5   6
ATOM      6  O   UNL A   1      33.606  23.686  24.595  1.00  0.00    -0.459 OA
BRANCH   6   7
ATOM      7  C   UNL A   1      33.472  24.775  23.803  1.00  0.00     0.368 C 
ATOM      8  O   UNL A   1      34.048  25.840  24.012  1.00  0.00    -0.245 OA
BRANCH   7   9
ATOM      9  C   UNL A   1      32.359  24.607  22.706  1.00  0.00     0.194 C 
ATOM     10  C   UNL A   1      30.639  26.292  23.189  1.00  0.00     0.114 C 
ATOM     11  C   UNL A   1      31.373  26.724  21.906  1.00  0.00     0.034 C 
ATOM     12  C   UNL A   1      30.953  24.790  23.304  1.00  0.00     0.108 C 
ATOM     13  C   UNL A   1      32.327  25.585  21.524  1.00  0.00     0.083 C 
BRANCH  10  14
ATOM     14  N   UNL A   1      30.964  27.137  24.330  1.00  0.00    -0.269 N 
ATOM     15  C   UNL A   1      31.671  28.098  27.774  1.00  0.00     0.048 C 
ATOM     16  C   UNL A   1      31.406  27.956  26.326  1.00  0.00    -0.013 A 
ATOM     17  C   UNL A   1      31.656  28.889  25.299  1.00  0.00     0.138 A 
ATOM     18  C   UNL A   1      30.874  26.868  25.663  1.00  0.00     0.112 A 
ATOM     19  N   UNL A   1      31.389  28.394  24.090  1.00  0.00    -0.181 NA
ENDBRANCH  10  14
BRANCH   9  20
ATOM     20  N   UNL A   1      32.528  23.231  22.177  1.00  0.00    -0.343 N 
ATOM     21  H   UNL A   1      32.590  23.263  21.160  1.00  0.00     0.345 HD
ATOM     22  H   UNL A   1      31.727  22.661  22.452  1.00  0.00     0.345 HD
ATOM     23  H   UNL A   1      33.381  22.824  22.558  1.00  0.00     0.345 HD
ENDBRANCH   9  20
ENDBRANCH   7   9
ENDBRANCH   6   7
ENDBRANCH   5   6
ENDBRANCH   4   5
ENDBRANCH   3   4
ENDBRANCH   2   3
ENDBRANCH   1   2
BRANCH   1  24
ATOM     24  O   UNL A   1      38.289  21.743  25.932  1.00  0.00    -0.376 OA
BRANCH  24  25
ATOM     25  C   UNL A   1      39.607  21.811  26.450  1.00  0.00     0.202 C 
BRANCH  25  26
ATOM     26  C   UNL A   1      40.443  20.542  26.398  1.00  0.00     0.261 C 
BRANCH  26  27
ATOM     27  O   UNL A   1      41.771  20.746  26.851  1.00  0.00    -0.460 OA
BRANCH  27  28
ATOM     28  C   UNL A   1      42.717  20.721  25.881  1.00  0.00     0.338 C 
ATOM     29  O   UNL A   1      43.038  19.775  25.188  1.00  0.00    -0.246 OA
BRANCH  28  30
ATOM     30  C   UNL A   1      43.365  22.043  25.853  1.00  0.00     0.060 A 
ATOM     31  C   UNL A   1      44.228  22.334  26.910  1.00  0.00     0.016 A 
ATOM     32  C   UNL A   1      42.904  23.038  24.974  1.00  0.00     0.016 A 
ATOM     33  C   UNL A   1      44.404  23.655  27.255  1.00  0.00     0.010 A 
ATOM     34  C   UNL A   1      43.075  24.355  25.319  1.00  0.00     0.010 A 
ATOM     35  C   UNL A   1      43.720  24.628  26.520  1.00  0.00    -0.014 A 
BRANCH  35  36
ATOM     36  C   UNL A   1      43.522  25.914  27.149  1.00  0.00     0.031 A 
ATOM     37  C   UNL A   1      44.549  26.931  26.887  1.00  0.00     0.074 A 
ATOM     38  C   UNL A   1      42.417  26.154  27.878  1.00  0.00     0.049 A 
ATOM     39  N   UNL A   1      45.400  27.418  27.725  1.00  0.00    -0.248 NA
ATOM     40  C   UNL A   1      44.722  27.389  25.504  1.00  0.00     0.031 C 
ATOM     41  C   UNL A   1      41.199  25.344  27.983  1.00  0.00     0.029 A 
ATOM     42  N   UNL A   1      42.122  27.255  28.614  1.00  0.00    -0.354 N 
ATOM     43  C   UNL A   1      46.102  28.390  27.025  1.00  0.00     0.074 A 
ATOM     44  C   UNL A   1      45.757  28.219  25.637  1.00  0.00     0.031 C 
ATOM     45  C   UNL A   1      40.228  26.082  28.563  1.00  0.00     0.029 A 
ATOM     46  C   UNL A   1      40.788  27.361  28.970  1.00  0.00     0.049 A 
ATOM     47  H   UNL A   1      42.798  27.922  28.873  1.00  0.00     0.167 HD
ATOM     48  C   UNL A   1      46.758  29.393  27.668  1.00  0.00     0.037 A 
ATOM     49  C   UNL A   1      40.186  28.467  29.472  1.00  0.00     0.037 A 
ATOM     50  C   UNL A   1      46.922  29.109  29.072  1.00  0.00     0.049 A 
ATOM     51  C   UNL A   1      41.257  29.308  30.080  1.00  0.00     0.074 A 
ATOM     52  C   UNL A   1      47.540  28.099  29.784  1.00  0.00     0.029 A 
ATOM     53  N   UNL A   1      46.087  29.739  29.966  1.00  0.00    -0.354 N 
ATOM     54  N   UNL A   1      41.942  28.963  31.140  1.00  0.00    -0.248 NA
ATOM     55  C   UNL A   1      41.885  30.330  29.252  1.00  0.00     0.031 C 
ATOM     56  C   UNL A   1      46.704  27.873  30.916  1.00  0.00     0.029 A 
ATOM     57  C   UNL A   1      45.648  28.784  30.850  1.00  0.00     0.049 A 
ATOM     58  H   UNL A   1      45.849  30.695  29.971  1.00  0.00     0.167 HD
ATOM     59  C   UNL A   1      43.238  29.396  30.892  1.00  0.00     0.074 A 
ATOM     60  C   UNL A   1      43.119  30.318  29.765  1.00  0.00     0.031 C 
ATOM     61  C   UNL A   1      44.322  28.758  31.430  1.00  0.00     0.037 A 
BRANCH  48  62
ATOM     62  C   UNL A   1      46.971  30.765  27.089  1.00  0.00     0.058 A 
ATOM     63  C   UNL A   1      48.271  31.307  27.055  1.00  0.00     0.135 A 
ATOM     64  C   UNL A   1      45.921  31.668  26.816  1.00  0.00     0.135 A 
ATOM     65  F   UNL A   1      49.341  30.537  27.307  1.00  0.00    -0.206 F 
ATOM     66  C   UNL A   1      48.503  32.666  26.840  1.00  0.00     0.059 A 
ATOM     67  C   UNL A   1      46.134  33.012  26.541  1.00  0.00     0.059 A 
ATOM     68  F   UNL A   1      44.632  31.313  26.908  1.00  0.00    -0.206 F 
ATOM     69  C   UNL A   1      47.424  33.512  26.606  1.00  0.00     0.060 A 
BRANCH  69  70
ATOM     70  S   UNL A   1      47.701  35.286  26.477  1.00  0.00     0.124 S 
ATOM     71  O   UNL A   1      48.991  35.325  25.798  1.00  0.00    -0.237 OA
ATOM     72  O   UNL A   1      46.550  35.720  25.692  1.00  0.00    -0.237 OA
ATOM     73  O   UNL A   1      47.705  35.726  27.869  1.00  0.00    -0.744 OA
ENDBRANCH  69  70
ENDBRANCH  48  62
BRANCH  49  74
ATOM     74  C   UNL A   1      38.829  28.970  29.130  1.00  0.00     0.058 A 
ATOM     75  C   UNL A   1      37.868  29.214  30.126  1.00  0.00     0.135 A 
ATOM     76  C   UNL A   1      38.520  29.465  27.843  1.00  0.00     0.135 A 
ATOM     77  F   UNL A   1      38.085  28.808  31.386  1.00  0.00    -0.206 F 
ATOM     78  C   UNL A   1      36.695  29.937  29.873  1.00  0.00     0.059 A 
ATOM     79  C   UNL A   1      37.352  30.168  27.562  1.00  0.00     0.059 A 
ATOM     80  F   UNL A   1      39.388  29.366  26.826  1.00  0.00    -0.206 F 
ATOM     81  C   UNL A   1      36.455  30.425  28.589  1.00  0.00     0.060 A 
BRANCH  81  82
ATOM     82  S   UNL A   1      35.039  31.508  28.289  1.00  0.00     0.124 S 
ATOM     83  O   UNL A   1      34.139  30.629  27.552  1.00  0.00    -0.237 OA
ATOM     84  O   UNL A   1      34.625  31.856  29.644  1.00  0.00    -0.237 OA
ATOM     85  O   UNL A   1      35.611  32.608  27.515  1.00  0.00    -0.744 OA
ENDBRANCH  81  82
ENDBRANCH  49  74
BRANCH  61  86
ATOM     86  C   UNL A   1      44.085  27.746  32.523  1.00  0.00     0.058 A 
ATOM     87  C   UNL A   1      43.889  26.374  32.289  1.00  0.00     0.135 A 
ATOM     88  C   UNL A   1      44.235  28.148  33.860  1.00  0.00     0.135 A 
ATOM     89  F   UNL A   1      43.852  25.886  31.042  1.00  0.00    -0.206 F 
ATOM     90  C   UNL A   1      43.800  25.451  33.333  1.00  0.00     0.059 A 
ATOM     91  C   UNL A   1      44.181  27.241  34.916  1.00  0.00     0.059 A 
ATOM     92  F   UNL A   1      44.494  29.434  34.150  1.00  0.00    -0.206 F 
ATOM     93  C   UNL A   1      43.950  25.894  34.646  1.00  0.00     0.060 A 
BRANCH  93  94
ATOM     94  S   UNL A   1      43.929  24.685  35.987  1.00  0.00     0.124 S 
ATOM     95  O   UNL A   1      45.348  24.394  36.159  1.00  0.00    -0.237 OA
ATOM     96  O   UNL A   1      43.297  25.425  37.077  1.00  0.00    -0.237 OA
ATOM     97  O   UNL A   1      43.128  23.590  35.446  1.00  0.00    -0.744 OA
ENDBRANCH  93  94
ENDBRANCH  61  86
ENDBRANCH  35  36
ENDBRANCH  28  30
ENDBRANCH  27  28
ENDBRANCH  26  27
ENDBRANCH  25  26
ENDBRANCH  24  25
ENDBRANCH   1  24
TORSDOF 22
ENDMDL
