MODEL 1
REMARK VINA RESULT:     -11.2      0.000      0.000
REMARK SMILES O=C(OCCOCCOCCOC(=O)c1cccn2c(=O)c3ccc(Cl)cc3nc12)c1ccc(-c2c3nc(c(-c4c(F)cc(S(=O)(=O)[O-])cc4F)c4ccc([nH]4)c(-c4c(F)cc(S(=O)(=O)[O-])cc4F)c4nc(c(-c5c(F)cc(S(=O)(=O)[O-])cc5F)c5ccc2[nH]5)C=C4)C=C3)cc1
REMARK SMILES IDX 6 1 5 2 4 3 3 4 2 5 1 6 31 7 32 8 96 9 33 10 95 11 34 12
REMARK SMILES IDX 35 13 36 14 89 15 37 16 94 17 88 18 90 19 38 20 93 21 87 22
REMARK SMILES IDX 86 23 39 25 73 26 52 27 72 28 53 29 56 30 71 31 91 32 54 33
REMARK SMILES IDX 55 34 70 36 92 37 57 38 40 39 41 40 50 41 42 42 43 43 49 44
REMARK SMILES IDX 51 45 44 46 45 47 46 48 47 49 48 50 74 51 75 52 84 53 76 54
REMARK SMILES IDX 77 55 83 56 85 57 78 58 79 59 80 60 81 61 82 62 58 63 59 64
REMARK SMILES IDX 68 65 60 66 61 67 67 68 69 69 62 70 63 71 64 72 65 73 66 74
REMARK SMILES IDX 7 75 8 76 9 77 10 78 11 79 12 80 13 81 14 82 15 83 16 84
REMARK SMILES IDX 30 85 17 86 19 87 29 88 18 89 20 90 28 91 21 92 22 93 27 94
REMARK SMILES IDX 23 95 25 96 24 97 26 98
REMARK H PARENT 90 24 56 35
REMARK Flexibility Score: inf
ROOT
ATOM      1  O   UNL A   1      39.950  22.544  27.083  1.00  0.00    -0.376 OA
ENDROOT
BRANCH   1   2
ATOM      2  C   UNL A   1      41.276  22.420  27.600  1.00  0.00     0.202 C 
BRANCH   2   3
ATOM      3  C   UNL A   1      42.337  23.208  26.828  1.00  0.00     0.261 C 
BRANCH   3   4
ATOM      4  O   UNL A   1      41.785  24.166  25.917  1.00  0.00    -0.460 OA
BRANCH   4   5
ATOM      5  C   UNL A   1      41.629  25.504  26.074  1.00  0.00     0.338 C 
ATOM      6  O   UNL A   1      41.630  26.188  25.050  1.00  0.00    -0.246 OA
BRANCH   5   7
ATOM      7  C   UNL A   1      41.487  26.225  27.390  1.00  0.00     0.060 A 
ATOM      8  C   UNL A   1      42.557  27.066  27.758  1.00  0.00     0.016 A 
ATOM      9  C   UNL A   1      40.412  26.147  28.277  1.00  0.00     0.016 A 
ATOM     10  C   UNL A   1      42.543  27.802  28.951  1.00  0.00     0.010 A 
ATOM     11  C   UNL A   1      40.372  26.902  29.452  1.00  0.00     0.010 A 
ATOM     12  C   UNL A   1      41.430  27.743  29.793  1.00  0.00    -0.014 A 
BRANCH  12  13
ATOM     13  C   UNL A   1      41.249  28.695  30.907  1.00  0.00     0.031 A 
ATOM     14  C   UNL A   1      41.942  28.529  32.223  1.00  0.00     0.074 A 
ATOM     15  C   UNL A   1      40.315  29.651  30.752  1.00  0.00     0.049 A 
ATOM     16  N   UNL A   1      41.956  29.345  33.246  1.00  0.00    -0.248 NA
ATOM     17  C   UNL A   1      42.703  27.290  32.434  1.00  0.00     0.031 C 
ATOM     18  C   UNL A   1      39.484  29.834  29.556  1.00  0.00     0.029 A 
ATOM     19  N   UNL A   1      39.867  30.610  31.618  1.00  0.00    -0.354 N 
ATOM     20  C   UNL A   1      42.823  28.779  34.168  1.00  0.00     0.074 A 
ATOM     21  C   UNL A   1      43.203  27.486  33.651  1.00  0.00     0.031 C 
ATOM     22  C   UNL A   1      38.602  30.816  29.784  1.00  0.00     0.029 A 
ATOM     23  C   UNL A   1      38.810  31.335  31.131  1.00  0.00     0.049 A 
ATOM     24  H   UNL A   1      40.267  30.765  32.506  1.00  0.00     0.167 HD
ATOM     25  C   UNL A   1      43.290  29.318  35.317  1.00  0.00     0.037 A 
ATOM     26  C   UNL A   1      38.086  32.307  31.712  1.00  0.00     0.037 A 
ATOM     27  C   UNL A   1      42.771  30.526  35.896  1.00  0.00     0.049 A 
ATOM     28  C   UNL A   1      38.485  32.788  33.076  1.00  0.00     0.074 A 
ATOM     29  C   UNL A   1      43.160  31.166  37.059  1.00  0.00     0.029 A 
ATOM     30  N   UNL A   1      41.698  31.239  35.383  1.00  0.00    -0.354 N 
ATOM     31  N   UNL A   1      39.465  32.371  33.841  1.00  0.00    -0.248 NA
ATOM     32  C   UNL A   1      37.699  33.890  33.646  1.00  0.00     0.031 C 
ATOM     33  C   UNL A   1      42.275  32.227  37.285  1.00  0.00     0.029 A 
ATOM     34  C   UNL A   1      41.370  32.275  36.237  1.00  0.00     0.049 A 
ATOM     35  H   UNL A   1      41.239  31.036  34.537  1.00  0.00     0.167 HD
ATOM     36  C   UNL A   1      39.447  33.192  34.961  1.00  0.00     0.074 A 
ATOM     37  C   UNL A   1      38.350  34.121  34.778  1.00  0.00     0.031 C 
ATOM     38  C   UNL A   1      40.275  33.189  36.034  1.00  0.00     0.037 A 
BRANCH  25  39
ATOM     39  C   UNL A   1      44.455  28.659  35.994  1.00  0.00     0.058 A 
ATOM     40  C   UNL A   1      44.230  27.638  36.932  1.00  0.00     0.135 A 
ATOM     41  C   UNL A   1      45.780  28.931  35.627  1.00  0.00     0.135 A 
ATOM     42  F   UNL A   1      42.980  27.349  37.329  1.00  0.00    -0.206 F 
ATOM     43  C   UNL A   1      45.276  26.907  37.481  1.00  0.00     0.059 A 
ATOM     44  C   UNL A   1      46.846  28.206  36.158  1.00  0.00     0.059 A 
ATOM     45  F   UNL A   1      46.049  29.896  34.735  1.00  0.00    -0.206 F 
ATOM     46  C   UNL A   1      46.582  27.195  37.084  1.00  0.00     0.060 A 
BRANCH  46  47
ATOM     47  S   UNL A   1      47.923  26.217  37.794  1.00  0.00     0.124 S 
ATOM     48  O   UNL A   1      49.045  27.146  37.679  1.00  0.00    -0.237 OA
ATOM     49  O   UNL A   1      47.442  25.969  39.150  1.00  0.00    -0.237 OA
ATOM     50  O   UNL A   1      47.987  25.046  36.926  1.00  0.00    -0.744 OA
ENDBRANCH  46  47
ENDBRANCH  25  39
BRANCH  26  51
ATOM     51  C   UNL A   1      36.950  32.909  30.973  1.00  0.00     0.058 A 
ATOM     52  C   UNL A   1      35.629  32.560  31.281  1.00  0.00     0.135 A 
ATOM     53  C   UNL A   1      37.163  33.879  29.981  1.00  0.00     0.135 A 
ATOM     54  F   UNL A   1      35.381  31.644  32.228  1.00  0.00    -0.206 F 
ATOM     55  C   UNL A   1      34.554  33.140  30.618  1.00  0.00     0.059 A 
ATOM     56  C   UNL A   1      36.103  34.487  29.318  1.00  0.00     0.059 A 
ATOM     57  F   UNL A   1      38.411  34.264  29.672  1.00  0.00    -0.206 F 
ATOM     58  C   UNL A   1      34.801  34.103  29.637  1.00  0.00     0.060 A 
BRANCH  58  59
ATOM     59  S   UNL A   1      33.394  34.875  28.812  1.00  0.00     0.124 S 
ATOM     60  O   UNL A   1      34.025  36.024  28.174  1.00  0.00    -0.237 OA
ATOM     61  O   UNL A   1      32.944  33.814  27.916  1.00  0.00    -0.237 OA
ATOM     62  O   UNL A   1      32.487  35.182  29.913  1.00  0.00    -0.744 OA
ENDBRANCH  58  59
ENDBRANCH  26  51
BRANCH  38  63
ATOM     63  C   UNL A   1      40.047  34.238  37.080  1.00  0.00     0.058 A 
ATOM     64  C   UNL A   1      40.573  35.532  36.945  1.00  0.00     0.135 A 
ATOM     65  C   UNL A   1      39.249  33.959  38.200  1.00  0.00     0.135 A 
ATOM     66  F   UNL A   1      41.345  35.843  35.893  1.00  0.00    -0.206 F 
ATOM     67  C   UNL A   1      40.332  36.510  37.903  1.00  0.00     0.059 A 
ATOM     68  C   UNL A   1      38.975  34.930  39.156  1.00  0.00     0.059 A 
ATOM     69  F   UNL A   1      38.714  32.739  38.363  1.00  0.00    -0.206 F 
ATOM     70  C   UNL A   1      39.531  36.199  39.005  1.00  0.00     0.060 A 
BRANCH  70  71
ATOM     71  S   UNL A   1      39.201  37.487  40.224  1.00  0.00     0.124 S 
ATOM     72  O   UNL A   1      38.235  38.320  39.515  1.00  0.00    -0.237 OA
ATOM     73  O   UNL A   1      38.672  36.723  41.350  1.00  0.00    -0.237 OA
ATOM     74  O   UNL A   1      40.512  38.090  40.444  1.00  0.00    -0.744 OA
ENDBRANCH  70  71
ENDBRANCH  38  63
ENDBRANCH  12  13
ENDBRANCH   5   7
ENDBRANCH   4   5
ENDBRANCH   3   4
ENDBRANCH   2   3
ENDBRANCH   1   2
BRANCH   1  75
ATOM     75  C   UNL A   1      39.601  21.499  26.163  1.00  0.00     0.188 C 
BRANCH  75  76
ATOM     76  C   UNL A   1      38.255  21.766  25.488  1.00  0.00     0.188 C 
BRANCH  76  77
ATOM     77  O   UNL A   1      37.412  20.627  25.304  1.00  0.00    -0.376 OA
BRANCH  77  78
ATOM     78  C   UNL A   1      36.038  20.878  25.032  1.00  0.00     0.202 C 
BRANCH  78  79
ATOM     79  C   UNL A   1      35.171  21.470  26.152  1.00  0.00     0.261 C 
BRANCH  79  80
ATOM     80  O   UNL A   1      33.806  21.030  26.215  1.00  0.00    -0.460 OA
BRANCH  80  81
ATOM     81  C   UNL A   1      32.892  22.030  26.068  1.00  0.00     0.342 C 
ATOM     82  O   UNL A   1      32.055  22.362  26.894  1.00  0.00    -0.246 OA
BRANCH  81  83
ATOM     83  C   UNL A   1      32.892  22.538  24.689  1.00  0.00     0.103 A 
ATOM     84  C   UNL A   1      32.545  21.629  23.763  1.00  0.00     0.021 A 
ATOM     85  C   UNL A   1      33.128  23.962  24.289  1.00  0.00     0.154 A 
ATOM     86  C   UNL A   1      32.439  21.994  22.381  1.00  0.00     0.019 A 
ATOM     87  N   UNL A   1      33.079  24.230  22.911  1.00  0.00    -0.267 N 
ATOM     88  N   UNL A   1      33.340  24.885  25.180  1.00  0.00    -0.229 NA
ATOM     89  C   UNL A   1      32.734  23.239  21.997  1.00  0.00     0.096 A 
ATOM     90  C   UNL A   1      33.346  25.505  22.410  1.00  0.00     0.265 A 
ATOM     91  C   UNL A   1      33.484  26.215  24.754  1.00  0.00     0.080 A 
ATOM     92  O   UNL A   1      33.423  25.803  21.220  1.00  0.00    -0.268 OA
ATOM     93  C   UNL A   1      33.516  26.569  23.406  1.00  0.00     0.066 A 
ATOM     94  C   UNL A   1      33.574  27.234  25.707  1.00  0.00     0.049 A 
ATOM     95  C   UNL A   1      33.654  27.904  23.000  1.00  0.00     0.017 A 
ATOM     96  C   UNL A   1      33.689  28.571  25.310  1.00  0.00     0.043 A 
ATOM     97  C   UNL A   1      33.737  28.910  23.959  1.00  0.00     0.021 A 
ATOM     98  Cl  UNL A   1      33.749  29.815  26.496  1.00  0.00    -0.084 Cl
ENDBRANCH  81  83
ENDBRANCH  80  81
ENDBRANCH  79  80
ENDBRANCH  78  79
ENDBRANCH  77  78
ENDBRANCH  76  77
ENDBRANCH  75  76
ENDBRANCH   1  75
TORSDOF 20
ENDMDL
MODEL 2
REMARK VINA RESULT:     -11.2      1.212      1.923
REMARK SMILES O=C(OCCOCCOCCOC(=O)c1cccn2c(=O)c3ccc(Cl)cc3nc12)c1ccc(-c2c3nc(c(-c4c(F)cc(S(=O)(=O)[O-])cc4F)c4ccc([nH]4)c(-c4c(F)cc(S(=O)(=O)[O-])cc4F)c4nc(c(-c5c(F)cc(S(=O)(=O)[O-])cc5F)c5ccc2[nH]5)C=C4)C=C3)cc1
REMARK SMILES IDX 6 1 5 2 4 3 3 4 2 5 1 6 31 7 32 8 96 9 33 10 95 11 34 12
REMARK SMILES IDX 35 13 36 14 89 15 37 16 94 17 88 18 90 19 38 20 93 21 87 22
REMARK SMILES IDX 86 23 39 25 73 26 52 27 72 28 53 29 56 30 71 31 91 32 54 33
REMARK SMILES IDX 55 34 70 36 92 37 57 38 40 39 41 40 50 41 42 42 43 43 49 44
REMARK SMILES IDX 51 45 44 46 45 47 46 48 47 49 48 50 74 51 75 52 84 53 76 54
REMARK SMILES IDX 77 55 83 56 85 57 78 58 79 59 80 60 81 61 82 62 58 63 59 64
REMARK SMILES IDX 68 65 60 66 61 67 67 68 69 69 62 70 63 71 64 72 65 73 66 74
REMARK SMILES IDX 7 75 8 76 9 77 10 78 11 79 12 80 13 81 14 82 15 83 16 84
REMARK SMILES IDX 30 85 17 86 19 87 29 88 18 89 20 90 28 91 21 92 22 93 27 94
REMARK SMILES IDX 23 95 25 96 24 97 26 98
REMARK H PARENT 90 24 56 35
REMARK Flexibility Score: inf
ROOT
ATOM      1  O   UNL A   1      42.453  21.340  27.644  1.00  0.00    -0.376 OA
ENDROOT
BRANCH   1   2
ATOM      2  C   UNL A   1      42.618  22.754  27.757  1.00  0.00     0.202 C 
BRANCH   2   3
ATOM      3  C   UNL A   1      43.048  23.450  26.463  1.00  0.00     0.261 C 
BRANCH   3   4
ATOM      4  O   UNL A   1      42.008  24.231  25.864  1.00  0.00    -0.460 OA
BRANCH   4   5
ATOM      5  C   UNL A   1      41.735  25.551  26.017  1.00  0.00     0.338 C 
ATOM      6  O   UNL A   1      41.607  26.216  24.988  1.00  0.00    -0.246 OA
BRANCH   5   7
ATOM      7  C   UNL A   1      41.605  26.276  27.332  1.00  0.00     0.060 A 
ATOM      8  C   UNL A   1      42.648  27.166  27.659  1.00  0.00     0.016 A 
ATOM      9  C   UNL A   1      40.564  26.158  28.255  1.00  0.00     0.016 A 
ATOM     10  C   UNL A   1      42.641  27.911  28.846  1.00  0.00     0.010 A 
ATOM     11  C   UNL A   1      40.530  26.921  29.426  1.00  0.00     0.010 A 
ATOM     12  C   UNL A   1      41.561  27.809  29.725  1.00  0.00    -0.014 A 
BRANCH  12  13
ATOM     13  C   UNL A   1      41.375  28.762  30.838  1.00  0.00     0.031 A 
ATOM     14  C   UNL A   1      42.081  28.610  32.149  1.00  0.00     0.074 A 
ATOM     15  C   UNL A   1      40.425  29.704  30.688  1.00  0.00     0.049 A 
ATOM     16  N   UNL A   1      42.091  29.428  33.169  1.00  0.00    -0.248 NA
ATOM     17  C   UNL A   1      42.862  27.383  32.357  1.00  0.00     0.031 C 
ATOM     18  C   UNL A   1      39.583  29.871  29.499  1.00  0.00     0.029 A 
ATOM     19  N   UNL A   1      39.971  30.658  31.556  1.00  0.00    -0.354 N 
ATOM     20  C   UNL A   1      42.974  28.878  34.086  1.00  0.00     0.074 A 
ATOM     21  C   UNL A   1      43.368  27.589  33.569  1.00  0.00     0.031 C 
ATOM     22  C   UNL A   1      38.687  30.841  29.731  1.00  0.00     0.029 A 
ATOM     23  C   UNL A   1      38.899  31.367  31.075  1.00  0.00     0.049 A 
ATOM     24  H   UNL A   1      40.375  30.821  32.439  1.00  0.00     0.167 HD
ATOM     25  C   UNL A   1      43.442  29.427  35.229  1.00  0.00     0.037 A 
ATOM     26  C   UNL A   1      38.165  32.329  31.659  1.00  0.00     0.037 A 
ATOM     27  C   UNL A   1      42.909  30.629  35.810  1.00  0.00     0.049 A 
ATOM     28  C   UNL A   1      38.568  32.820  33.019  1.00  0.00     0.074 A 
ATOM     29  C   UNL A   1      43.299  31.278  36.968  1.00  0.00     0.029 A 
ATOM     30  N   UNL A   1      41.823  31.324  35.304  1.00  0.00    -0.354 N 
ATOM     31  N   UNL A   1      39.561  32.419  33.777  1.00  0.00    -0.248 NA
ATOM     32  C   UNL A   1      37.772  33.912  33.592  1.00  0.00     0.031 C 
ATOM     33  C   UNL A   1      42.401  32.326  37.198  1.00  0.00     0.029 A 
ATOM     34  C   UNL A   1      41.486  32.358  36.157  1.00  0.00     0.049 A 
ATOM     35  H   UNL A   1      41.360  31.113  34.462  1.00  0.00     0.167 HD
ATOM     36  C   UNL A   1      39.540  33.244  34.895  1.00  0.00     0.074 A 
ATOM     37  C   UNL A   1      38.428  34.155  34.719  1.00  0.00     0.031 C 
ATOM     38  C   UNL A   1      40.377  33.255  35.961  1.00  0.00     0.037 A 
BRANCH  25  39
ATOM     39  C   UNL A   1      44.622  28.787  35.899  1.00  0.00     0.058 A 
ATOM     40  C   UNL A   1      45.920  29.235  35.600  1.00  0.00     0.135 A 
ATOM     41  C   UNL A   1      44.474  27.840  36.921  1.00  0.00     0.135 A 
ATOM     42  F   UNL A   1      46.118  30.130  34.620  1.00  0.00    -0.206 F 
ATOM     43  C   UNL A   1      47.030  28.769  36.295  1.00  0.00     0.059 A 
ATOM     44  C   UNL A   1      45.572  27.363  37.636  1.00  0.00     0.059 A 
ATOM     45  F   UNL A   1      43.256  27.380  37.244  1.00  0.00    -0.206 F 
ATOM     46  C   UNL A   1      46.846  27.835  37.315  1.00  0.00     0.060 A 
BRANCH  46  47
ATOM     47  S   UNL A   1      48.301  27.261  38.216  1.00  0.00     0.124 S 
ATOM     48  O   UNL A   1      49.377  27.734  37.349  1.00  0.00    -0.237 OA
ATOM     49  O   UNL A   1      48.167  27.953  39.494  1.00  0.00    -0.237 OA
ATOM     50  O   UNL A   1      48.123  25.814  38.263  1.00  0.00    -0.744 OA
ENDBRANCH  46  47
ENDBRANCH  25  39
BRANCH  26  51
ATOM     51  C   UNL A   1      37.015  32.913  30.928  1.00  0.00     0.058 A 
ATOM     52  C   UNL A   1      35.713  32.447  31.150  1.00  0.00     0.135 A 
ATOM     53  C   UNL A   1      37.191  33.979  30.032  1.00  0.00     0.135 A 
ATOM     54  F   UNL A   1      35.500  31.435  32.004  1.00  0.00    -0.206 F 
ATOM     55  C   UNL A   1      34.623  33.005  30.495  1.00  0.00     0.059 A 
ATOM     56  C   UNL A   1      36.112  34.567  29.380  1.00  0.00     0.059 A 
ATOM     57  F   UNL A   1      38.417  34.477  29.809  1.00  0.00    -0.206 F 
ATOM     58  C   UNL A   1      34.832  34.066  29.611  1.00  0.00     0.060 A 
BRANCH  58  59
ATOM     59  S   UNL A   1      33.402  34.806  28.797  1.00  0.00     0.124 S 
ATOM     60  O   UNL A   1      32.512  35.041  29.927  1.00  0.00    -0.237 OA
ATOM     61  O   UNL A   1      33.982  35.996  28.181  1.00  0.00    -0.237 OA
ATOM     62  O   UNL A   1      32.976  33.770  27.861  1.00  0.00    -0.744 OA
ENDBRANCH  58  59
ENDBRANCH  26  51
BRANCH  38  63
ATOM     63  C   UNL A   1      40.142  34.304  37.006  1.00  0.00     0.058 A 
ATOM     64  C   UNL A   1      40.795  35.544  36.958  1.00  0.00     0.135 A 
ATOM     65  C   UNL A   1      39.212  34.083  38.034  1.00  0.00     0.135 A 
ATOM     66  F   UNL A   1      41.695  35.799  35.996  1.00  0.00    -0.206 F 
ATOM     67  C   UNL A   1      40.550  36.525  37.912  1.00  0.00     0.059 A 
ATOM     68  C   UNL A   1      38.934  35.059  38.983  1.00  0.00     0.059 A 
ATOM     69  F   UNL A   1      38.554  32.916  38.111  1.00  0.00    -0.206 F 
ATOM     70  C   UNL A   1      39.617  36.273  38.920  1.00  0.00     0.060 A 
BRANCH  70  71
ATOM     71  S   UNL A   1      39.285  37.566  40.134  1.00  0.00     0.124 S 
ATOM     72  O   UNL A   1      38.194  38.294  39.494  1.00  0.00    -0.237 OA
ATOM     73  O   UNL A   1      38.922  36.795  41.320  1.00  0.00    -0.237 OA
ATOM     74  O   UNL A   1      40.554  38.282  40.223  1.00  0.00    -0.744 OA
ENDBRANCH  70  71
ENDBRANCH  38  63
ENDBRANCH  12  13
ENDBRANCH   5   7
ENDBRANCH   4   5
ENDBRANCH   3   4
ENDBRANCH   2   3
ENDBRANCH   1   2
BRANCH   1  75
ATOM     75  C   UNL A   1      41.881  20.934  26.392  1.00  0.00     0.188 C 
BRANCH  75  76
ATOM     76  C   UNL A   1      40.375  20.696  26.508  1.00  0.00     0.188 C 
BRANCH  76  77
ATOM     77  O   UNL A   1      39.554  21.865  26.465  1.00  0.00    -0.376 OA
BRANCH  77  78
ATOM     78  C   UNL A   1      38.475  21.863  25.538  1.00  0.00     0.202 C 
BRANCH  78  79
ATOM     79  C   UNL A   1      37.223  22.684  25.875  1.00  0.00     0.261 C 
BRANCH  79  80
ATOM     80  O   UNL A   1      36.855  23.714  24.945  1.00  0.00    -0.460 OA
BRANCH  80  81
ATOM     81  C   UNL A   1      35.975  23.308  23.986  1.00  0.00     0.342 C 
ATOM     82  O   UNL A   1      36.207  23.228  22.790  1.00  0.00    -0.246 OA
BRANCH  81  83
ATOM     83  C   UNL A   1      34.621  23.173  24.544  1.00  0.00     0.103 A 
ATOM     84  C   UNL A   1      34.160  21.912  24.579  1.00  0.00     0.021 A 
ATOM     85  C   UNL A   1      33.819  24.282  25.152  1.00  0.00     0.154 A 
ATOM     86  C   UNL A   1      32.881  21.616  25.153  1.00  0.00     0.019 A 
ATOM     87  N   UNL A   1      32.546  23.929  25.629  1.00  0.00    -0.267 N 
ATOM     88  N   UNL A   1      34.299  25.487  25.245  1.00  0.00    -0.229 NA
ATOM     89  C   UNL A   1      32.114  22.607  25.618  1.00  0.00     0.096 A 
ATOM     90  C   UNL A   1      31.679  24.887  26.158  1.00  0.00     0.265 A 
ATOM     91  C   UNL A   1      33.532  26.471  25.889  1.00  0.00     0.080 A 
ATOM     92  O   UNL A   1      30.517  24.684  26.505  1.00  0.00    -0.268 OA
ATOM     93  C   UNL A   1      32.233  26.234  26.335  1.00  0.00     0.066 A 
ATOM     94  C   UNL A   1      34.091  27.732  26.118  1.00  0.00     0.049 A 
ATOM     95  C   UNL A   1      31.485  27.229  26.981  1.00  0.00     0.017 A 
ATOM     96  C   UNL A   1      33.358  28.723  26.783  1.00  0.00     0.043 A 
ATOM     97  C   UNL A   1      32.055  28.479  27.209  1.00  0.00     0.021 A 
ATOM     98  Cl  UNL A   1      34.078  30.253  27.100  1.00  0.00    -0.084 Cl
ENDBRANCH  81  83
ENDBRANCH  80  81
ENDBRANCH  79  80
ENDBRANCH  78  79
ENDBRANCH  77  78
ENDBRANCH  76  77
ENDBRANCH  75  76
ENDBRANCH   1  75
TORSDOF 20
ENDMDL
MODEL 3
REMARK VINA RESULT:     -11.0      1.250      8.142
REMARK SMILES O=C(OCCOCCOCCOC(=O)c1cccn2c(=O)c3ccc(Cl)cc3nc12)c1ccc(-c2c3nc(c(-c4c(F)cc(S(=O)(=O)[O-])cc4F)c4ccc([nH]4)c(-c4c(F)cc(S(=O)(=O)[O-])cc4F)c4nc(c(-c5c(F)cc(S(=O)(=O)[O-])cc5F)c5ccc2[nH]5)C=C4)C=C3)cc1
REMARK SMILES IDX 6 1 5 2 4 3 3 4 2 5 1 6 31 7 32 8 96 9 33 10 95 11 34 12
REMARK SMILES IDX 35 13 36 14 89 15 37 16 94 17 88 18 90 19 38 20 93 21 87 22
REMARK SMILES IDX 86 23 39 25 73 26 52 27 72 28 53 29 56 30 71 31 91 32 54 33
REMARK SMILES IDX 55 34 70 36 92 37 57 38 40 39 41 40 50 41 42 42 43 43 49 44
REMARK SMILES IDX 51 45 44 46 45 47 46 48 47 49 48 50 74 51 75 52 84 53 76 54
REMARK SMILES IDX 77 55 83 56 85 57 78 58 79 59 80 60 81 61 82 62 58 63 59 64
REMARK SMILES IDX 68 65 60 66 61 67 67 68 69 69 62 70 63 71 64 72 65 73 66 74
REMARK SMILES IDX 7 75 8 76 9 77 10 78 11 79 12 80 13 81 14 82 15 83 16 84
REMARK SMILES IDX 30 85 17 86 19 87 29 88 18 89 20 90 28 91 21 92 22 93 27 94
REMARK SMILES IDX 23 95 25 96 24 97 26 98
REMARK H PARENT 90 24 56 35
REMARK Flexibility Score: inf
ROOT
ATOM      1  O   UNL A   1      41.001  21.152  25.848  1.00  0.00    -0.376 OA
ENDROOT
BRANCH   1   2
ATOM      2  C   UNL A   1      42.229  21.841  26.083  1.00  0.00     0.202 C 
BRANCH   2   3
ATOM      3  C   UNL A   1      42.076  23.203  26.764  1.00  0.00     0.261 C 
BRANCH   3   4
ATOM      4  O   UNL A   1      42.175  24.307  25.857  1.00  0.00    -0.460 OA
BRANCH   4   5
ATOM      5  C   UNL A   1      41.764  25.589  26.024  1.00  0.00     0.338 C 
ATOM      6  O   UNL A   1      41.587  26.254  25.002  1.00  0.00    -0.246 OA
BRANCH   5   7
ATOM      7  C   UNL A   1      41.536  26.276  27.346  1.00  0.00     0.060 A 
ATOM      8  C   UNL A   1      42.541  27.172  27.764  1.00  0.00     0.016 A 
ATOM      9  C   UNL A   1      40.439  26.117  28.195  1.00  0.00     0.016 A 
ATOM     10  C   UNL A   1      42.444  27.884  28.968  1.00  0.00     0.010 A 
ATOM     11  C   UNL A   1      40.316  26.846  29.381  1.00  0.00     0.010 A 
ATOM     12  C   UNL A   1      41.310  27.742  29.770  1.00  0.00    -0.014 A 
BRANCH  12  13
ATOM     13  C   UNL A   1      41.036  28.661  30.894  1.00  0.00     0.031 A 
ATOM     14  C   UNL A   1      40.109  29.828  30.766  1.00  0.00     0.074 A 
ATOM     15  C   UNL A   1      41.771  28.501  32.011  1.00  0.00     0.049 A 
ATOM     16  N   UNL A   1      39.698  30.649  31.698  1.00  0.00    -0.248 NA
ATOM     17  C   UNL A   1      39.584  30.130  29.427  1.00  0.00     0.031 C 
ATOM     18  C   UNL A   1      42.798  27.473  32.205  1.00  0.00     0.029 A 
ATOM     19  N   UNL A   1      41.806  29.232  33.166  1.00  0.00    -0.354 N 
ATOM     20  C   UNL A   1      38.774  31.483  31.086  1.00  0.00     0.074 A 
ATOM     21  C   UNL A   1      38.790  31.167  29.678  1.00  0.00     0.031 C 
ATOM     22  C   UNL A   1      43.390  27.666  33.392  1.00  0.00     0.029 A 
ATOM     23  C   UNL A   1      42.779  28.821  34.041  1.00  0.00     0.049 A 
ATOM     24  H   UNL A   1      41.192  29.979  33.352  1.00  0.00     0.167 HD
ATOM     25  C   UNL A   1      37.958  32.394  31.664  1.00  0.00     0.037 A 
ATOM     26  C   UNL A   1      43.142  29.326  35.233  1.00  0.00     0.037 A 
ATOM     27  C   UNL A   1      38.079  32.812  33.033  1.00  0.00     0.049 A 
ATOM     28  C   UNL A   1      42.353  30.469  35.803  1.00  0.00     0.074 A 
ATOM     29  C   UNL A   1      37.313  33.732  33.728  1.00  0.00     0.029 A 
ATOM     30  N   UNL A   1      39.075  32.383  33.896  1.00  0.00    -0.354 N 
ATOM     31  N   UNL A   1      41.328  31.100  35.283  1.00  0.00    -0.248 NA
ATOM     32  C   UNL A   1      42.750  30.949  37.132  1.00  0.00     0.031 C 
ATOM     33  C   UNL A   1      37.892  33.909  34.990  1.00  0.00     0.029 A 
ATOM     34  C   UNL A   1      38.985  33.062  35.096  1.00  0.00     0.049 A 
ATOM     35  H   UNL A   1      39.747  31.695  33.684  1.00  0.00     0.167 HD
ATOM     36  C   UNL A   1      40.924  32.020  36.243  1.00  0.00     0.074 A 
ATOM     37  C   UNL A   1      41.825  31.870  37.368  1.00  0.00     0.031 C 
ATOM     38  C   UNL A   1      39.890  32.896  36.203  1.00  0.00     0.037 A 
BRANCH  25  39
ATOM     39  C   UNL A   1      36.826  32.953  30.855  1.00  0.00     0.058 A 
ATOM     40  C   UNL A   1      35.511  32.531  31.111  1.00  0.00     0.135 A 
ATOM     41  C   UNL A   1      37.012  33.993  29.933  1.00  0.00     0.135 A 
ATOM     42  F   UNL A   1      35.279  31.529  31.974  1.00  0.00    -0.206 F 
ATOM     43  C   UNL A   1      34.419  33.120  30.485  1.00  0.00     0.059 A 
ATOM     44  C   UNL A   1      35.932  34.604  29.298  1.00  0.00     0.059 A 
ATOM     45  F   UNL A   1      38.248  34.433  29.653  1.00  0.00    -0.206 F 
ATOM     46  C   UNL A   1      34.640  34.161  29.582  1.00  0.00     0.060 A 
BRANCH  46  47
ATOM     47  S   UNL A   1      33.205  34.925  28.797  1.00  0.00     0.124 S 
ATOM     48  O   UNL A   1      33.818  36.082  28.149  1.00  0.00    -0.237 OA
ATOM     49  O   UNL A   1      32.741  33.869  27.903  1.00  0.00    -0.237 OA
ATOM     50  O   UNL A   1      32.324  35.229  29.920  1.00  0.00    -0.744 OA
ENDBRANCH  46  47
ENDBRANCH  25  39
BRANCH  26  51
ATOM     51  C   UNL A   1      44.272  28.713  35.971  1.00  0.00     0.058 A 
ATOM     52  C   UNL A   1      44.060  27.630  36.834  1.00  0.00     0.135 A 
ATOM     53  C   UNL A   1      45.588  29.165  35.789  1.00  0.00     0.135 A 
ATOM     54  F   UNL A   1      42.819  27.161  37.030  1.00  0.00    -0.206 F 
ATOM     55  C   UNL A   1      45.114  27.026  37.509  1.00  0.00     0.059 A 
ATOM     56  C   UNL A   1      46.661  28.563  36.438  1.00  0.00     0.059 A 
ATOM     57  F   UNL A   1      45.841  30.182  34.950  1.00  0.00    -0.206 F 
ATOM     58  C   UNL A   1      46.411  27.500  37.304  1.00  0.00     0.060 A 
BRANCH  58  59
ATOM     59  S   UNL A   1      47.774  26.680  38.157  1.00  0.00     0.124 S 
ATOM     60  O   UNL A   1      47.061  25.739  39.011  1.00  0.00    -0.237 OA
ATOM     61  O   UNL A   1      48.524  26.098  37.049  1.00  0.00    -0.237 OA
ATOM     62  O   UNL A   1      48.444  27.778  38.849  1.00  0.00    -0.744 OA
ENDBRANCH  58  59
ENDBRANCH  26  51
BRANCH  38  63
ATOM     63  C   UNL A   1      39.658  33.739  37.420  1.00  0.00     0.058 A 
ATOM     64  C   UNL A   1      38.815  33.311  38.457  1.00  0.00     0.135 A 
ATOM     65  C   UNL A   1      40.329  34.962  37.572  1.00  0.00     0.135 A 
ATOM     66  F   UNL A   1      38.149  32.151  38.353  1.00  0.00    -0.206 F 
ATOM     67  C   UNL A   1      38.628  34.083  39.597  1.00  0.00     0.059 A 
ATOM     68  C   UNL A   1      40.175  35.737  38.715  1.00  0.00     0.059 A 
ATOM     69  F   UNL A   1      41.156  35.404  36.612  1.00  0.00    -0.206 F 
ATOM     70  C   UNL A   1      39.313  35.294  39.717  1.00  0.00     0.060 A 
BRANCH  70  71
ATOM     71  S   UNL A   1      39.085  36.271  41.217  1.00  0.00     0.124 S 
ATOM     72  O   UNL A   1      37.893  35.653  41.790  1.00  0.00    -0.237 OA
ATOM     73  O   UNL A   1      40.331  36.032  41.938  1.00  0.00    -0.237 OA
ATOM     74  O   UNL A   1      38.910  37.630  40.713  1.00  0.00    -0.744 OA
ENDBRANCH  70  71
ENDBRANCH  38  63
ENDBRANCH  12  13
ENDBRANCH   5   7
ENDBRANCH   4   5
ENDBRANCH   3   4
ENDBRANCH   2   3
ENDBRANCH   1   2
BRANCH   1  75
ATOM     75  C   UNL A   1      39.916  21.637  26.651  1.00  0.00     0.188 C 
BRANCH  75  76
ATOM     76  C   UNL A   1      38.722  22.060  25.795  1.00  0.00     0.188 C 
BRANCH  76  77
ATOM     77  O   UNL A   1      37.829  21.012  25.409  1.00  0.00    -0.376 OA
BRANCH  77  78
ATOM     78  C   UNL A   1      36.437  21.303  25.452  1.00  0.00     0.202 C 
BRANCH  78  79
ATOM     79  C   UNL A   1      35.943  22.597  24.791  1.00  0.00     0.261 C 
BRANCH  79  80
ATOM     80  O   UNL A   1      35.524  23.653  25.669  1.00  0.00    -0.460 OA
BRANCH  80  81
ATOM     81  C   UNL A   1      34.441  23.341  26.435  1.00  0.00     0.342 C 
ATOM     82  O   UNL A   1      34.438  22.588  27.397  1.00  0.00    -0.246 OA
BRANCH  81  83
ATOM     83  C   UNL A   1      33.206  23.864  25.831  1.00  0.00     0.103 A 
ATOM     84  C   UNL A   1      32.325  22.919  25.466  1.00  0.00     0.021 A 
ATOM     85  C   UNL A   1      32.844  25.313  25.716  1.00  0.00     0.154 A 
ATOM     86  C   UNL A   1      31.049  23.279  24.920  1.00  0.00     0.019 A 
ATOM     87  N   UNL A   1      31.610  25.591  25.105  1.00  0.00    -0.267 N 
ATOM     88  N   UNL A   1      33.627  26.242  26.180  1.00  0.00    -0.229 NA
ATOM     89  C   UNL A   1      30.747  24.567  24.727  1.00  0.00     0.096 A 
ATOM     90  C   UNL A   1      31.190  26.903  24.882  1.00  0.00     0.265 A 
ATOM     91  C   UNL A   1      33.204  27.579  26.110  1.00  0.00     0.080 A 
ATOM     92  O   UNL A   1      30.178  27.235  24.269  1.00  0.00    -0.268 OA
ATOM     93  C   UNL A   1      32.028  27.958  25.464  1.00  0.00     0.066 A 
ATOM     94  C   UNL A   1      33.970  28.572  26.727  1.00  0.00     0.049 A 
ATOM     95  C   UNL A   1      31.620  29.299  25.409  1.00  0.00     0.017 A 
ATOM     96  C   UNL A   1      33.557  29.909  26.696  1.00  0.00     0.043 A 
ATOM     97  C   UNL A   1      32.388  30.278  26.033  1.00  0.00     0.021 A 
ATOM     98  Cl  UNL A   1      34.486  31.112  27.502  1.00  0.00    -0.084 Cl
ENDBRANCH  81  83
ENDBRANCH  80  81
ENDBRANCH  79  80
ENDBRANCH  78  79
ENDBRANCH  77  78
ENDBRANCH  76  77
ENDBRANCH  75  76
ENDBRANCH   1  75
TORSDOF 20
ENDMDL
