MODEL 1
REMARK VINA RESULT:      -9.1      0.000      0.000
REMARK SMILES CC[C@H](C)Oc1ccc(NC(=O)/C=C/C(=O)OCCOCCOCCOC(=O)c2ccc(-c3c4nc(c(-c5c(F)cc(S(=O)(=O)[O-])cc5F)c5ccc([nH]5)c(-c5c(F)cc(S(=O)(=O)[O-])cc5F)c5nc(c(-c6c(F)cc(S(=O)(=O)[O-])cc6F)c6ccc3[nH]6)C=C5)C=C4)cc2)cc1
REMARK SMILES IDX 21 1 20 2 19 3 18 4 17 5 15 6 16 7 14 8 13 9 11 10 10 11
REMARK SMILES IDX 12 13 9 14 6 15 7 16 96 17 8 18 95 19 5 20 3 21 4 22 2 23
REMARK SMILES IDX 1 24 22 25 23 26 24 27 25 28 26 29 27 30 28 31 29 32 30 33
REMARK SMILES IDX 94 34 31 35 93 36 32 37 33 38 34 39 87 40 35 41 92 42 86 43
REMARK SMILES IDX 88 44 36 45 91 46 85 47 84 48 37 50 71 51 50 52 70 53 51 54
REMARK SMILES IDX 54 55 69 56 89 57 52 58 53 59 68 61 90 62 55 63 38 64 39 65
REMARK SMILES IDX 48 66 40 67 41 68 47 69 49 70 42 71 43 72 44 73 45 74 46 75
REMARK SMILES IDX 72 76 73 77 82 78 74 79 75 80 81 81 83 82 76 83 77 84 78 85
REMARK SMILES IDX 79 86 80 87 56 88 57 89 66 90 58 91 59 92 65 93 67 94 60 95
REMARK SMILES IDX 61 96 62 97 63 98 64 99
REMARK H PARENT 10 12 88 49 54 60
REMARK Flexibility Score: inf
ROOT
ATOM      1  C   UNL A   1      33.545  34.964  29.388  1.00  0.00     0.188 C 
ENDROOT
BRANCH   1   2
ATOM      2  O   UNL A   1      33.316  33.591  29.124  1.00  0.00    -0.376 OA
BRANCH   2   3
ATOM      3  C   UNL A   1      33.550  33.102  27.810  1.00  0.00     0.202 C 
BRANCH   3   4
ATOM      4  C   UNL A   1      33.446  31.600  27.489  1.00  0.00     0.261 C 
BRANCH   4   5
ATOM      5  O   UNL A   1      32.189  31.169  26.937  1.00  0.00    -0.460 OA
BRANCH   5   6
ATOM      6  C   UNL A   1      32.145  29.866  26.557  1.00  0.00     0.331 C 
ATOM      7  O   UNL A   1      32.112  28.898  27.303  1.00  0.00    -0.247 OA
BRANCH   6   8
ATOM      8  C   UNL A   1      32.031  29.698  25.094  1.00  0.00     0.099 C 
ATOM      9  C   UNL A   1      30.993  29.134  24.460  1.00  0.00     0.079 C 
BRANCH   9  10
ATOM     10  C   UNL A   1      30.977  28.951  22.992  1.00  0.00     0.248 C 
ATOM     11  N   UNL A   1      31.590  27.895  22.375  1.00  0.00    -0.323 N 
ATOM     12  H   UNL A   1      31.635  27.987  21.395  1.00  0.00     0.170 HD
ATOM     13  O   UNL A   1      30.395  29.796  22.311  1.00  0.00    -0.270 OA
BRANCH  11  14
ATOM     14  C   UNL A   1      32.173  26.704  22.850  1.00  0.00     0.041 A 
ATOM     15  C   UNL A   1      33.308  24.230  23.570  1.00  0.00     0.119 A 
ATOM     16  C   UNL A   1      34.013  25.412  23.755  1.00  0.00     0.048 A 
ATOM     17  C   UNL A   1      31.994  24.290  23.127  1.00  0.00     0.048 A 
ATOM     18  C   UNL A   1      33.439  26.636  23.415  1.00  0.00     0.030 A 
ATOM     19  C   UNL A   1      31.428  25.524  22.769  1.00  0.00     0.030 A 
BRANCH  15  20
ATOM     20  O   UNL A   1      33.989  23.109  23.915  1.00  0.00    -0.491 OA
BRANCH  20  21
ATOM     21  C   UNL A   1      33.730  22.440  25.160  1.00  0.00     0.170 C 
ATOM     22  C   UNL A   1      33.415  20.966  24.937  1.00  0.00     0.053 C 
BRANCH  21  23
ATOM     23  C   UNL A   1      34.667  22.833  26.322  1.00  0.00     0.041 C 
ATOM     24  C   UNL A   1      36.103  23.139  25.934  1.00  0.00     0.008 C 
ENDBRANCH  21  23
ENDBRANCH  20  21
ENDBRANCH  15  20
ENDBRANCH  11  14
ENDBRANCH   9  10
ENDBRANCH   6   8
ENDBRANCH   5   6
ENDBRANCH   4   5
ENDBRANCH   3   4
ENDBRANCH   2   3
ENDBRANCH   1   2
BRANCH   1  25
ATOM     25  C   UNL A   1      32.880  35.625  30.613  1.00  0.00     0.188 C 
BRANCH  25  26
ATOM     26  O   UNL A   1      33.691  36.444  31.417  1.00  0.00    -0.376 OA
BRANCH  26  27
ATOM     27  C   UNL A   1      34.424  35.887  32.495  1.00  0.00     0.202 C 
BRANCH  27  28
ATOM     28  C   UNL A   1      34.708  34.391  32.737  1.00  0.00     0.261 C 
BRANCH  28  29
ATOM     29  O   UNL A   1      35.755  33.756  32.003  1.00  0.00    -0.460 OA
BRANCH  29  30
ATOM     30  C   UNL A   1      35.498  32.492  31.593  1.00  0.00     0.338 C 
ATOM     31  O   UNL A   1      34.398  31.949  31.517  1.00  0.00    -0.246 OA
BRANCH  30  32
ATOM     32  C   UNL A   1      36.742  31.877  31.114  1.00  0.00     0.060 A 
ATOM     33  C   UNL A   1      37.589  31.240  32.028  1.00  0.00     0.016 A 
ATOM     34  C   UNL A   1      37.093  31.975  29.766  1.00  0.00     0.016 A 
ATOM     35  C   UNL A   1      38.799  30.696  31.591  1.00  0.00     0.010 A 
ATOM     36  C   UNL A   1      38.313  31.449  29.337  1.00  0.00     0.010 A 
ATOM     37  C   UNL A   1      39.178  30.820  30.247  1.00  0.00    -0.014 A 
BRANCH  37  38
ATOM     38  C   UNL A   1      40.524  30.384  29.804  1.00  0.00     0.031 A 
ATOM     39  C   UNL A   1      41.668  31.353  29.872  1.00  0.00     0.074 A 
ATOM     40  C   UNL A   1      40.711  29.150  29.303  1.00  0.00     0.049 A 
ATOM     41  N   UNL A   1      42.908  31.197  29.489  1.00  0.00    -0.248 NA
ATOM     42  C   UNL A   1      41.366  32.684  30.418  1.00  0.00     0.031 C 
ATOM     43  C   UNL A   1      39.667  28.143  29.158  1.00  0.00     0.029 A 
ATOM     44  N   UNL A   1      41.843  28.537  28.825  1.00  0.00    -0.354 N 
ATOM     45  C   UNL A   1      43.527  32.421  29.710  1.00  0.00     0.074 A 
ATOM     46  C   UNL A   1      42.525  33.307  30.264  1.00  0.00     0.031 C 
ATOM     47  C   UNL A   1      40.209  27.026  28.646  1.00  0.00     0.029 A 
ATOM     48  C   UNL A   1      41.639  27.238  28.426  1.00  0.00     0.049 A 
ATOM     49  H   UNL A   1      42.717  28.986  28.772  1.00  0.00     0.167 HD
ATOM     50  C   UNL A   1      44.809  32.775  29.455  1.00  0.00     0.037 A 
ATOM     51  C   UNL A   1      42.510  26.321  27.955  1.00  0.00     0.037 A 
ATOM     52  C   UNL A   1      45.796  31.890  28.890  1.00  0.00     0.049 A 
ATOM     53  C   UNL A   1      43.947  26.723  27.734  1.00  0.00     0.074 A 
ATOM     54  C   UNL A   1      47.120  32.158  28.588  1.00  0.00     0.029 A 
ATOM     55  N   UNL A   1      45.564  30.569  28.534  1.00  0.00    -0.354 N 
ATOM     56  N   UNL A   1      44.527  27.875  27.975  1.00  0.00    -0.248 NA
ATOM     57  C   UNL A   1      44.840  25.712  27.151  1.00  0.00     0.031 C 
ATOM     58  C   UNL A   1      47.676  31.013  28.007  1.00  0.00     0.029 A 
ATOM     59  C   UNL A   1      46.716  30.013  27.998  1.00  0.00     0.049 A 
ATOM     60  H   UNL A   1      44.708  30.095  28.645  1.00  0.00     0.167 HD
ATOM     61  C   UNL A   1      45.847  27.731  27.558  1.00  0.00     0.074 A 
ATOM     62  C   UNL A   1      45.994  26.366  27.097  1.00  0.00     0.031 C 
ATOM     63  C   UNL A   1      46.844  28.653  27.537  1.00  0.00     0.037 A 
BRANCH  50  64
ATOM     64  C   UNL A   1      45.199  34.199  29.738  1.00  0.00     0.058 A 
ATOM     65  C   UNL A   1      45.734  34.590  30.976  1.00  0.00     0.135 A 
ATOM     66  C   UNL A   1      45.042  35.188  28.753  1.00  0.00     0.135 A 
ATOM     67  F   UNL A   1      45.888  33.689  31.961  1.00  0.00    -0.206 F 
ATOM     68  C   UNL A   1      46.065  35.915  31.239  1.00  0.00     0.059 A 
ATOM     69  C   UNL A   1      45.395  36.513  28.983  1.00  0.00     0.059 A 
ATOM     70  F   UNL A   1      44.533  34.870  27.552  1.00  0.00    -0.206 F 
ATOM     71  C   UNL A   1      45.888  36.871  30.237  1.00  0.00     0.060 A 
BRANCH  71  72
ATOM     72  S   UNL A   1      46.312  38.588  30.597  1.00  0.00     0.124 S 
ATOM     73  O   UNL A   1      44.990  39.208  30.645  1.00  0.00    -0.237 OA
ATOM     74  O   UNL A   1      47.005  38.477  31.876  1.00  0.00    -0.237 OA
ATOM     75  O   UNL A   1      47.146  38.978  29.465  1.00  0.00    -0.744 OA
ENDBRANCH  71  72
ENDBRANCH  50  64
BRANCH  51  76
ATOM     76  C   UNL A   1      42.059  24.928  27.679  1.00  0.00     0.058 A 
ATOM     77  C   UNL A   1      41.365  24.620  26.498  1.00  0.00     0.135 A 
ATOM     78  C   UNL A   1      42.317  23.877  28.572  1.00  0.00     0.135 A 
ATOM     79  F   UNL A   1      41.079  25.589  25.616  1.00  0.00    -0.206 F 
ATOM     80  C   UNL A   1      40.936  23.328  26.215  1.00  0.00     0.059 A 
ATOM     81  C   UNL A   1      41.925  22.569  28.297  1.00  0.00     0.059 A 
ATOM     82  F   UNL A   1      42.982  24.111  29.713  1.00  0.00    -0.206 F 
ATOM     83  C   UNL A   1      41.226  22.307  27.121  1.00  0.00     0.060 A 
BRANCH  83  84
ATOM     84  S   UNL A   1      40.719  20.620  26.718  1.00  0.00     0.124 S 
ATOM     85  O   UNL A   1      40.782  19.976  28.024  1.00  0.00    -0.237 OA
ATOM     86  O   UNL A   1      39.382  20.825  26.169  1.00  0.00    -0.237 OA
ATOM     87  O   UNL A   1      41.727  20.192  25.751  1.00  0.00    -0.744 OA
ENDBRANCH  83  84
ENDBRANCH  51  76
BRANCH  63  88
ATOM     88  C   UNL A   1      48.179  28.225  26.988  1.00  0.00     0.058 A 
ATOM     89  C   UNL A   1      49.232  27.846  27.836  1.00  0.00     0.135 A 
ATOM     90  C   UNL A   1      48.384  28.122  25.603  1.00  0.00     0.135 A 
ATOM     91  F   UNL A   1      49.091  27.930  29.168  1.00  0.00    -0.206 F 
ATOM     92  C   UNL A   1      50.447  27.393  27.330  1.00  0.00     0.059 A 
ATOM     93  C   UNL A   1      49.581  27.646  25.075  1.00  0.00     0.059 A 
ATOM     94  F   UNL A   1      47.407  28.462  24.748  1.00  0.00    -0.206 F 
ATOM     95  C   UNL A   1      50.610  27.292  25.947  1.00  0.00     0.060 A 
BRANCH  95  96
ATOM     96  S   UNL A   1      52.174  26.658  25.304  1.00  0.00     0.124 S 
ATOM     97  O   UNL A   1      52.263  25.363  25.971  1.00  0.00    -0.237 OA
ATOM     98  O   UNL A   1      51.925  26.614  23.867  1.00  0.00    -0.237 OA
ATOM     99  O   UNL A   1      53.149  27.655  25.735  1.00  0.00    -0.744 OA
ENDBRANCH  95  96
ENDBRANCH  63  88
ENDBRANCH  37  38
ENDBRANCH  30  32
ENDBRANCH  29  30
ENDBRANCH  28  29
ENDBRANCH  27  28
ENDBRANCH  26  27
ENDBRANCH  25  26
ENDBRANCH   1  25
TORSDOF 25
ENDMDL
MODEL 2
REMARK VINA RESULT:      -8.0      4.701     12.567
REMARK SMILES CC[C@H](C)Oc1ccc(NC(=O)/C=C/C(=O)OCCOCCOCCOC(=O)c2ccc(-c3c4nc(c(-c5c(F)cc(S(=O)(=O)[O-])cc5F)c5ccc([nH]5)c(-c5c(F)cc(S(=O)(=O)[O-])cc5F)c5nc(c(-c6c(F)cc(S(=O)(=O)[O-])cc6F)c6ccc3[nH]6)C=C5)C=C4)cc2)cc1
REMARK SMILES IDX 21 1 20 2 19 3 18 4 17 5 15 6 16 7 14 8 13 9 11 10 10 11
REMARK SMILES IDX 12 13 9 14 6 15 7 16 96 17 8 18 95 19 5 20 3 21 4 22 2 23
REMARK SMILES IDX 1 24 22 25 23 26 24 27 25 28 26 29 27 30 28 31 29 32 30 33
REMARK SMILES IDX 94 34 31 35 93 36 32 37 33 38 34 39 87 40 35 41 92 42 86 43
REMARK SMILES IDX 88 44 36 45 91 46 85 47 84 48 37 50 71 51 50 52 70 53 51 54
REMARK SMILES IDX 54 55 69 56 89 57 52 58 53 59 68 61 90 62 55 63 38 64 39 65
REMARK SMILES IDX 48 66 40 67 41 68 47 69 49 70 42 71 43 72 44 73 45 74 46 75
REMARK SMILES IDX 72 76 73 77 82 78 74 79 75 80 81 81 83 82 76 83 77 84 78 85
REMARK SMILES IDX 79 86 80 87 56 88 57 89 66 90 58 91 59 92 65 93 67 94 60 95
REMARK SMILES IDX 61 96 62 97 63 98 64 99
REMARK H PARENT 10 12 88 49 54 60
REMARK Flexibility Score: inf
ROOT
ATOM      1  C   UNL A   1      46.701  41.376  33.346  1.00  0.00     0.188 C 
ENDROOT
BRANCH   1   2
ATOM      2  O   UNL A   1      45.696  42.102  32.661  1.00  0.00    -0.376 OA
BRANCH   2   3
ATOM      3  C   UNL A   1      45.871  42.365  31.275  1.00  0.00     0.202 C 
BRANCH   3   4
ATOM      4  C   UNL A   1      44.662  42.516  30.334  1.00  0.00     0.261 C 
BRANCH   4   5
ATOM      5  O   UNL A   1      43.398  42.752  30.981  1.00  0.00    -0.460 OA
BRANCH   5   6
ATOM      6  C   UNL A   1      42.633  41.645  31.167  1.00  0.00     0.331 C 
ATOM      7  O   UNL A   1      41.740  41.517  31.992  1.00  0.00    -0.247 OA
BRANCH   6   8
ATOM      8  C   UNL A   1      42.905  40.585  30.175  1.00  0.00     0.099 C 
ATOM      9  C   UNL A   1      42.102  40.259  29.153  1.00  0.00     0.079 C 
BRANCH   9  10
ATOM     10  C   UNL A   1      42.418  39.144  28.233  1.00  0.00     0.248 C 
ATOM     11  N   UNL A   1      42.560  39.321  26.884  1.00  0.00    -0.323 N 
ATOM     12  H   UNL A   1      42.610  38.475  26.382  1.00  0.00     0.170 HD
ATOM     13  O   UNL A   1      42.542  38.017  28.713  1.00  0.00    -0.270 OA
BRANCH  11  14
ATOM     14  C   UNL A   1      42.649  40.462  26.063  1.00  0.00     0.041 A 
ATOM     15  C   UNL A   1      43.035  42.645  24.327  1.00  0.00     0.119 A 
ATOM     16  C   UNL A   1      41.849  41.924  24.303  1.00  0.00     0.048 A 
ATOM     17  C   UNL A   1      43.987  42.347  25.292  1.00  0.00     0.048 A 
ATOM     18  C   UNL A   1      41.655  40.856  25.177  1.00  0.00     0.030 A 
ATOM     19  C   UNL A   1      43.793  41.259  26.159  1.00  0.00     0.030 A 
BRANCH  15  20
ATOM     20  O   UNL A   1      43.108  43.640  23.408  1.00  0.00    -0.491 OA
BRANCH  20  21
ATOM     21  C   UNL A   1      43.450  43.360  22.040  1.00  0.00     0.170 C 
ATOM     22  C   UNL A   1      44.914  42.959  21.912  1.00  0.00     0.053 C 
BRANCH  21  23
ATOM     23  C   UNL A   1      42.389  42.565  21.250  1.00  0.00     0.041 C 
ATOM     24  C   UNL A   1      41.570  43.369  20.255  1.00  0.00     0.008 C 
ENDBRANCH  21  23
ENDBRANCH  20  21
ENDBRANCH  15  20
ENDBRANCH  11  14
ENDBRANCH   9  10
ENDBRANCH   6   8
ENDBRANCH   5   6
ENDBRANCH   4   5
ENDBRANCH   3   4
ENDBRANCH   2   3
ENDBRANCH   1   2
BRANCH   1  25
ATOM     25  C   UNL A   1      47.968  40.929  32.587  1.00  0.00     0.188 C 
BRANCH  25  26
ATOM     26  O   UNL A   1      48.126  39.551  32.361  1.00  0.00    -0.376 OA
BRANCH  26  27
ATOM     27  C   UNL A   1      47.989  39.020  31.054  1.00  0.00     0.202 C 
BRANCH  27  28
ATOM     28  C   UNL A   1      46.848  38.117  30.543  1.00  0.00     0.261 C 
BRANCH  28  29
ATOM     29  O   UNL A   1      46.879  37.658  29.192  1.00  0.00    -0.460 OA
BRANCH  29  30
ATOM     30  C   UNL A   1      47.995  36.981  28.831  1.00  0.00     0.338 C 
ATOM     31  O   UNL A   1      49.139  37.423  28.763  1.00  0.00    -0.246 OA
BRANCH  30  32
ATOM     32  C   UNL A   1      47.661  35.562  28.648  1.00  0.00     0.060 A 
ATOM     33  C   UNL A   1      47.197  35.122  27.403  1.00  0.00     0.016 A 
ATOM     34  C   UNL A   1      47.759  34.680  29.726  1.00  0.00     0.016 A 
ATOM     35  C   UNL A   1      46.829  33.785  27.234  1.00  0.00     0.010 A 
ATOM     36  C   UNL A   1      47.371  33.349  29.558  1.00  0.00     0.010 A 
ATOM     37  C   UNL A   1      46.890  32.898  28.318  1.00  0.00    -0.014 A 
BRANCH  37  38
ATOM     38  C   UNL A   1      46.359  31.520  28.190  1.00  0.00     0.031 A 
ATOM     39  C   UNL A   1      47.284  30.412  27.782  1.00  0.00     0.074 A 
ATOM     40  C   UNL A   1      45.053  31.271  28.393  1.00  0.00     0.049 A 
ATOM     41  N   UNL A   1      47.018  29.152  27.560  1.00  0.00    -0.248 NA
ATOM     42  C   UNL A   1      48.691  30.781  27.566  1.00  0.00     0.031 C 
ATOM     43  C   UNL A   1      44.060  32.275  28.757  1.00  0.00     0.029 A 
ATOM     44  N   UNL A   1      44.340  30.100  28.319  1.00  0.00    -0.354 N 
ATOM     45  C   UNL A   1      48.214  28.582  27.141  1.00  0.00     0.074 A 
ATOM     46  C   UNL A   1      49.207  29.636  27.143  1.00  0.00     0.031 C 
ATOM     47  C   UNL A   1      42.866  31.674  28.898  1.00  0.00     0.029 A 
ATOM     48  C   UNL A   1      43.010  30.244  28.634  1.00  0.00     0.049 A 
ATOM     49  H   UNL A   1      44.743  29.238  28.066  1.00  0.00     0.167 HD
ATOM     50  C   UNL A   1      48.455  27.302  26.771  1.00  0.00     0.037 A 
ATOM     51  C   UNL A   1      42.027  29.323  28.716  1.00  0.00     0.037 A 
ATOM     52  C   UNL A   1      47.457  26.263  26.759  1.00  0.00     0.049 A 
ATOM     53  C   UNL A   1      42.333  27.891  28.355  1.00  0.00     0.074 A 
ATOM     54  C   UNL A   1      47.601  24.936  26.393  1.00  0.00     0.029 A 
ATOM     55  N   UNL A   1      46.128  26.435  27.120  1.00  0.00    -0.354 N 
ATOM     56  N   UNL A   1      43.475  27.359  27.988  1.00  0.00    -0.248 NA
ATOM     57  C   UNL A   1      41.213  26.940  28.389  1.00  0.00     0.031 C 
ATOM     58  C   UNL A   1      46.349  24.317  26.490  1.00  0.00     0.029 A 
ATOM     59  C   UNL A   1      45.437  25.244  26.969  1.00  0.00     0.049 A 
ATOM     60  H   UNL A   1      45.734  27.280  27.438  1.00  0.00     0.167 HD
ATOM     61  C   UNL A   1      43.206  26.018  27.734  1.00  0.00     0.074 A 
ATOM     62  C   UNL A   1      41.806  25.807  28.036  1.00  0.00     0.031 C 
ATOM     63  C   UNL A   1      44.039  25.051  27.269  1.00  0.00     0.037 A 
BRANCH  50  64
ATOM     64  C   UNL A   1      49.843  26.971  26.298  1.00  0.00     0.058 A 
ATOM     65  C   UNL A   1      50.222  27.116  24.954  1.00  0.00     0.135 A 
ATOM     66  C   UNL A   1      50.811  26.507  27.204  1.00  0.00     0.135 A 
ATOM     67  F   UNL A   1      49.331  27.538  24.041  1.00  0.00    -0.206 F 
ATOM     68  C   UNL A   1      51.500  26.781  24.519  1.00  0.00     0.059 A 
ATOM     69  C   UNL A   1      52.103  26.194  26.797  1.00  0.00     0.059 A 
ATOM     70  F   UNL A   1      50.501  26.347  28.500  1.00  0.00    -0.206 F 
ATOM     71  C   UNL A   1      52.433  26.316  25.448  1.00  0.00     0.060 A 
BRANCH  71  72
ATOM     72  S   UNL A   1      54.084  25.873  24.867  1.00  0.00     0.124 S 
ATOM     73  O   UNL A   1      54.265  26.815  23.766  1.00  0.00    -0.237 OA
ATOM     74  O   UNL A   1      54.906  26.114  26.048  1.00  0.00    -0.237 OA
ATOM     75  O   UNL A   1      53.944  24.473  24.478  1.00  0.00    -0.744 OA
ENDBRANCH  71  72
ENDBRANCH  50  64
BRANCH  51  76
ATOM     76  C   UNL A   1      40.665  29.716  29.178  1.00  0.00     0.058 A 
ATOM     77  C   UNL A   1      40.422  29.996  30.532  1.00  0.00     0.135 A 
ATOM     78  C   UNL A   1      39.586  29.830  28.289  1.00  0.00     0.135 A 
ATOM     79  F   UNL A   1      41.414  29.889  31.429  1.00  0.00    -0.206 F 
ATOM     80  C   UNL A   1      39.162  30.368  30.989  1.00  0.00     0.059 A 
ATOM     81  C   UNL A   1      38.323  30.230  28.717  1.00  0.00     0.059 A 
ATOM     82  F   UNL A   1      39.762  29.580  26.982  1.00  0.00    -0.206 F 
ATOM     83  C   UNL A   1      38.118  30.487  30.071  1.00  0.00     0.060 A 
BRANCH  83  84
ATOM     84  S   UNL A   1      36.500  31.028  30.663  1.00  0.00     0.124 S 
ATOM     85  O   UNL A   1      35.736  31.077  29.421  1.00  0.00    -0.237 OA
ATOM     86  O   UNL A   1      36.141  29.962  31.592  1.00  0.00    -0.237 OA
ATOM     87  O   UNL A   1      36.787  32.320  31.281  1.00  0.00    -0.744 OA
ENDBRANCH  83  84
ENDBRANCH  51  76
BRANCH  63  88
ATOM     88  C   UNL A   1      43.460  23.680  27.045  1.00  0.00     0.058 A 
ATOM     89  C   UNL A   1      43.144  23.220  25.756  1.00  0.00     0.135 A 
ATOM     90  C   UNL A   1      43.289  22.790  28.117  1.00  0.00     0.135 A 
ATOM     91  F   UNL A   1      43.284  24.030  24.695  1.00  0.00    -0.206 F 
ATOM     92  C   UNL A   1      42.665  21.930  25.541  1.00  0.00     0.059 A 
ATOM     93  C   UNL A   1      42.837  21.488  27.922  1.00  0.00     0.059 A 
ATOM     94  F   UNL A   1      43.584  23.176  29.369  1.00  0.00    -0.206 F 
ATOM     95  C   UNL A   1      42.520  21.070  26.630  1.00  0.00     0.060 A 
BRANCH  95  96
ATOM     96  S   UNL A   1      41.943  19.385  26.331  1.00  0.00     0.124 S 
ATOM     97  O   UNL A   1      42.316  18.721  27.576  1.00  0.00    -0.237 OA
ATOM     98  O   UNL A   1      40.512  19.578  26.121  1.00  0.00    -0.237 OA
ATOM     99  O   UNL A   1      42.694  18.972  25.149  1.00  0.00    -0.744 OA
ENDBRANCH  95  96
ENDBRANCH  63  88
ENDBRANCH  37  38
ENDBRANCH  30  32
ENDBRANCH  29  30
ENDBRANCH  28  29
ENDBRANCH  27  28
ENDBRANCH  26  27
ENDBRANCH  25  26
ENDBRANCH   1  25
TORSDOF 25
ENDMDL
MODEL 3
REMARK VINA RESULT:      -7.9      5.953     11.361
REMARK SMILES CC[C@H](C)Oc1ccc(NC(=O)/C=C/C(=O)OCCOCCOCCOC(=O)c2ccc(-c3c4nc(c(-c5c(F)cc(S(=O)(=O)[O-])cc5F)c5ccc([nH]5)c(-c5c(F)cc(S(=O)(=O)[O-])cc5F)c5nc(c(-c6c(F)cc(S(=O)(=O)[O-])cc6F)c6ccc3[nH]6)C=C5)C=C4)cc2)cc1
REMARK SMILES IDX 21 1 20 2 19 3 18 4 17 5 15 6 16 7 14 8 13 9 11 10 10 11
REMARK SMILES IDX 12 13 9 14 6 15 7 16 96 17 8 18 95 19 5 20 3 21 4 22 2 23
REMARK SMILES IDX 1 24 22 25 23 26 24 27 25 28 26 29 27 30 28 31 29 32 30 33
REMARK SMILES IDX 94 34 31 35 93 36 32 37 33 38 34 39 87 40 35 41 92 42 86 43
REMARK SMILES IDX 88 44 36 45 91 46 85 47 84 48 37 50 71 51 50 52 70 53 51 54
REMARK SMILES IDX 54 55 69 56 89 57 52 58 53 59 68 61 90 62 55 63 38 64 39 65
REMARK SMILES IDX 48 66 40 67 41 68 47 69 49 70 42 71 43 72 44 73 45 74 46 75
REMARK SMILES IDX 72 76 73 77 82 78 74 79 75 80 81 81 83 82 76 83 77 84 78 85
REMARK SMILES IDX 79 86 80 87 56 88 57 89 66 90 58 91 59 92 65 93 67 94 60 95
REMARK SMILES IDX 61 96 62 97 63 98 64 99
REMARK H PARENT 10 12 88 49 54 60
REMARK Flexibility Score: inf
ROOT
ATOM      1  C   UNL A   1      39.792  23.075  27.057  1.00  0.00     0.188 C 
ENDROOT
BRANCH   1   2
ATOM      2  O   UNL A   1      38.700  23.718  26.425  1.00  0.00    -0.376 OA
BRANCH   2   3
ATOM      3  C   UNL A   1      37.865  22.954  25.565  1.00  0.00     0.202 C 
BRANCH   3   4
ATOM      4  C   UNL A   1      36.331  23.036  25.663  1.00  0.00     0.261 C 
BRANCH   4   5
ATOM      5  O   UNL A   1      35.774  24.361  25.588  1.00  0.00    -0.460 OA
BRANCH   5   6
ATOM      6  C   UNL A   1      34.719  24.494  24.743  1.00  0.00     0.331 C 
ATOM      7  O   UNL A   1      34.781  24.717  23.543  1.00  0.00    -0.247 OA
BRANCH   6   8
ATOM      8  C   UNL A   1      33.422  24.231  25.399  1.00  0.00     0.099 C 
ATOM      9  C   UNL A   1      32.336  23.734  24.791  1.00  0.00     0.079 C 
BRANCH   9  10
ATOM     10  C   UNL A   1      31.053  23.551  25.504  1.00  0.00     0.248 C 
ATOM     11  N   UNL A   1      30.135  24.557  25.638  1.00  0.00    -0.323 N 
ATOM     12  H   UNL A   1      29.408  24.342  26.267  1.00  0.00     0.170 HD
ATOM     13  O   UNL A   1      30.821  22.449  26.003  1.00  0.00    -0.270 OA
BRANCH  11  14
ATOM     14  C   UNL A   1      30.014  25.837  25.063  1.00  0.00     0.041 A 
ATOM     15  C   UNL A   1      30.011  28.375  23.843  1.00  0.00     0.119 A 
ATOM     16  C   UNL A   1      29.086  27.409  23.469  1.00  0.00     0.048 A 
ATOM     17  C   UNL A   1      30.868  28.113  24.903  1.00  0.00     0.048 A 
ATOM     18  C   UNL A   1      29.080  26.161  24.089  1.00  0.00     0.030 A 
ATOM     19  C   UNL A   1      30.869  26.848  25.511  1.00  0.00     0.030 A 
BRANCH  15  20
ATOM     20  O   UNL A   1      29.928  29.534  23.144  1.00  0.00    -0.491 OA
BRANCH  20  21
ATOM     21  C   UNL A   1      29.026  30.578  23.546  1.00  0.00     0.170 C 
ATOM     22  C   UNL A   1      29.779  31.742  24.178  1.00  0.00     0.053 C 
BRANCH  21  23
ATOM     23  C   UNL A   1      27.889  30.881  22.547  1.00  0.00     0.041 C 
ATOM     24  C   UNL A   1      28.156  30.480  21.106  1.00  0.00     0.008 C 
ENDBRANCH  21  23
ENDBRANCH  20  21
ENDBRANCH  15  20
ENDBRANCH  11  14
ENDBRANCH   9  10
ENDBRANCH   6   8
ENDBRANCH   5   6
ENDBRANCH   4   5
ENDBRANCH   3   4
ENDBRANCH   2   3
ENDBRANCH   1   2
BRANCH   1  25
ATOM     25  C   UNL A   1      40.578  23.816  28.158  1.00  0.00     0.188 C 
BRANCH  25  26
ATOM     26  O   UNL A   1      41.828  24.351  27.802  1.00  0.00    -0.376 OA
BRANCH  26  27
ATOM     27  C   UNL A   1      42.275  24.292  26.458  1.00  0.00     0.202 C 
BRANCH  27  28
ATOM     28  C   UNL A   1      41.868  25.242  25.312  1.00  0.00     0.261 C 
BRANCH  28  29
ATOM     29  O   UNL A   1      41.111  26.413  25.619  1.00  0.00    -0.460 OA
BRANCH  29  30
ATOM     30  C   UNL A   1      41.818  27.566  25.679  1.00  0.00     0.338 C 
ATOM     31  O   UNL A   1      42.477  28.077  24.776  1.00  0.00    -0.246 OA
BRANCH  30  32
ATOM     32  C   UNL A   1      41.580  28.212  26.976  1.00  0.00     0.060 A 
ATOM     33  C   UNL A   1      42.236  29.411  27.276  1.00  0.00     0.016 A 
ATOM     34  C   UNL A   1      40.744  27.602  27.914  1.00  0.00     0.016 A 
ATOM     35  C   UNL A   1      42.056  30.006  28.527  1.00  0.00     0.010 A 
ATOM     36  C   UNL A   1      40.583  28.189  29.170  1.00  0.00     0.010 A 
ATOM     37  C   UNL A   1      41.247  29.384  29.489  1.00  0.00    -0.014 A 
BRANCH  37  38
ATOM     38  C   UNL A   1      41.171  29.925  30.867  1.00  0.00     0.031 A 
ATOM     39  C   UNL A   1      39.988  30.759  31.263  1.00  0.00     0.074 A 
ATOM     40  C   UNL A   1      42.171  29.711  31.741  1.00  0.00     0.049 A 
ATOM     41  N   UNL A   1      39.749  31.370  32.393  1.00  0.00    -0.248 NA
ATOM     42  C   UNL A   1      38.953  30.954  30.238  1.00  0.00     0.031 C 
ATOM     43  C   UNL A   1      43.380  28.947  31.453  1.00  0.00     0.029 A 
ATOM     44  N   UNL A   1      42.328  30.116  33.043  1.00  0.00    -0.354 N 
ATOM     45  C   UNL A   1      38.555  32.055  32.205  1.00  0.00     0.074 A 
ATOM     46  C   UNL A   1      38.119  31.780  30.852  1.00  0.00     0.031 C 
ATOM     47  C   UNL A   1      44.148  28.919  32.554  1.00  0.00     0.029 A 
ATOM     48  C   UNL A   1      43.487  29.661  33.626  1.00  0.00     0.049 A 
ATOM     49  H   UNL A   1      41.672  30.678  33.516  1.00  0.00     0.167 HD
ATOM     50  C   UNL A   1      37.894  32.854  33.077  1.00  0.00     0.037 A 
ATOM     51  C   UNL A   1      43.951  29.814  34.884  1.00  0.00     0.037 A 
ATOM     52  C   UNL A   1      38.343  33.134  34.417  1.00  0.00     0.049 A 
ATOM     53  C   UNL A   1      43.168  30.662  35.855  1.00  0.00     0.074 A 
ATOM     54  C   UNL A   1      37.748  33.937  35.374  1.00  0.00     0.029 A 
ATOM     55  N   UNL A   1      39.503  32.627  34.987  1.00  0.00    -0.354 N 
ATOM     56  N   UNL A   1      42.025  31.280  35.674  1.00  0.00    -0.248 NA
ATOM     57  C   UNL A   1      43.750  30.858  37.190  1.00  0.00     0.031 C 
ATOM     58  C   UNL A   1      38.570  33.952  36.506  1.00  0.00     0.029 A 
ATOM     59  C   UNL A   1      39.650  33.113  36.276  1.00  0.00     0.049 A 
ATOM     60  H   UNL A   1      40.129  32.011  34.541  1.00  0.00     0.167 HD
ATOM     61  C   UNL A   1      41.761  31.950  36.865  1.00  0.00     0.074 A 
ATOM     62  C   UNL A   1      42.837  31.621  37.777  1.00  0.00     0.031 C 
ATOM     63  C   UNL A   1      40.732  32.781  37.170  1.00  0.00     0.037 A 
BRANCH  50  64
ATOM     64  C   UNL A   1      36.643  33.525  32.584  1.00  0.00     0.058 A 
ATOM     65  C   UNL A   1      35.375  32.944  32.749  1.00  0.00     0.135 A 
ATOM     66  C   UNL A   1      36.711  34.773  31.941  1.00  0.00     0.135 A 
ATOM     67  F   UNL A   1      35.253  31.744  33.339  1.00  0.00    -0.206 F 
ATOM     68  C   UNL A   1      34.226  33.559  32.264  1.00  0.00     0.059 A 
ATOM     69  C   UNL A   1      35.571  35.419  31.475  1.00  0.00     0.059 A 
ATOM     70  F   UNL A   1      37.898  35.372  31.755  1.00  0.00    -0.206 F 
ATOM     71  C   UNL A   1      34.334  34.795  31.625  1.00  0.00     0.060 A 
BRANCH  71  72
ATOM     72  S   UNL A   1      32.834  35.574  30.990  1.00  0.00     0.124 S 
ATOM     73  O   UNL A   1      32.661  34.876  29.720  1.00  0.00    -0.237 OA
ATOM     74  O   UNL A   1      31.856  35.257  32.025  1.00  0.00    -0.237 OA
ATOM     75  O   UNL A   1      33.200  36.983  30.886  1.00  0.00    -0.744 OA
ENDBRANCH  71  72
ENDBRANCH  50  64
BRANCH  51  76
ATOM     76  C   UNL A   1      45.207  29.135  35.309  1.00  0.00     0.058 A 
ATOM     77  C   UNL A   1      45.168  27.860  35.896  1.00  0.00     0.135 A 
ATOM     78  C   UNL A   1      46.466  29.730  35.134  1.00  0.00     0.135 A 
ATOM     79  F   UNL A   1      43.991  27.251  36.101  1.00  0.00    -0.206 F 
ATOM     80  C   UNL A   1      46.326  27.203  36.299  1.00  0.00     0.059 A 
ATOM     81  C   UNL A   1      47.641  29.079  35.501  1.00  0.00     0.059 A 
ATOM     82  F   UNL A   1      46.564  30.944  34.572  1.00  0.00    -0.206 F 
ATOM     83  C   UNL A   1      47.560  27.821  36.092  1.00  0.00     0.060 A 
BRANCH  83  84
ATOM     84  S   UNL A   1      49.063  26.935  36.563  1.00  0.00     0.124 S 
ATOM     85  O   UNL A   1      49.698  26.729  35.267  1.00  0.00    -0.237 OA
ATOM     86  O   UNL A   1      49.717  27.891  37.451  1.00  0.00    -0.237 OA
ATOM     87  O   UNL A   1      48.550  25.733  37.216  1.00  0.00    -0.744 OA
ENDBRANCH  83  84
ENDBRANCH  51  76
BRANCH  63  88
ATOM     88  C   UNL A   1      40.722  33.406  38.540  1.00  0.00     0.058 A 
ATOM     89  C   UNL A   1      41.591  34.459  38.870  1.00  0.00     0.135 A 
ATOM     90  C   UNL A   1      39.788  33.002  39.506  1.00  0.00     0.135 A 
ATOM     91  F   UNL A   1      42.508  34.882  37.987  1.00  0.00    -0.206 F 
ATOM     92  C   UNL A   1      41.542  35.078  40.116  1.00  0.00     0.059 A 
ATOM     93  C   UNL A   1      39.703  33.624  40.748  1.00  0.00     0.059 A 
ATOM     94  F   UNL A   1      38.927  32.006  39.238  1.00  0.00    -0.206 F 
ATOM     95  C   UNL A   1      40.591  34.657  41.047  1.00  0.00     0.060 A 
BRANCH  95  96
ATOM     96  S   UNL A   1      40.507  35.501  42.641  1.00  0.00     0.124 S 
ATOM     97  O   UNL A   1      39.382  36.407  42.436  1.00  0.00    -0.237 OA
ATOM     98  O   UNL A   1      40.270  34.396  43.566  1.00  0.00    -0.237 OA
ATOM     99  O   UNL A   1      41.815  36.139  42.759  1.00  0.00    -0.744 OA
ENDBRANCH  95  96
ENDBRANCH  63  88
ENDBRANCH  37  38
ENDBRANCH  30  32
ENDBRANCH  29  30
ENDBRANCH  28  29
ENDBRANCH  27  28
ENDBRANCH  26  27
ENDBRANCH  25  26
ENDBRANCH   1  25
TORSDOF 25
ENDMDL
