MODEL 1
REMARK VINA RESULT:      -9.6      0.000      0.000
REMARK SMILES CN(Cc1ccnn1C)C(=O)c1c(C(=O)OCCOCCOCCOC(=O)c2ccc(-c3c4nc(c(-c5c(F)cc(S(=O)(=O)[O-])cc5F)c5ccc([nH]5)c(-c5c(F)cc(S(=O)(=O)[O-])cc5F)c5nc(c(-c6c(F)cc(S(=O)(=O)[O-])cc6F)c6ccc3[nH]6)C=C5)C=C4)cc2)cnn1C
REMARK SMILES IDX 20 1 19 2 18 3 17 4 16 5 14 6 15 7 13 8 12 9 96 10 94 11
REMARK SMILES IDX 95 12 97 13 10 14 11 15 2 16 1 17 3 18 4 19 5 20 8 21 6 22
REMARK SMILES IDX 7 23 9 24 21 25 22 26 23 27 24 28 25 29 26 30 27 31 28 32
REMARK SMILES IDX 29 33 93 34 30 35 92 36 31 37 32 38 33 39 86 40 34 41 91 42
REMARK SMILES IDX 85 43 87 44 35 45 90 46 84 47 83 48 36 50 70 51 49 52 69 53
REMARK SMILES IDX 50 54 53 55 68 56 88 57 51 58 52 59 67 61 89 62 54 63 37 64
REMARK SMILES IDX 38 65 47 66 39 67 40 68 46 69 48 70 41 71 42 72 43 73 44 74
REMARK SMILES IDX 45 75 71 76 72 77 81 78 73 79 74 80 80 81 82 82 75 83 76 84
REMARK SMILES IDX 77 85 78 86 79 87 55 88 56 89 65 90 57 91 58 92 64 93 66 94
REMARK SMILES IDX 59 95 60 96 61 97 62 98 63 99
REMARK H PARENT 87 49 53 60
REMARK Flexibility Score: inf
ROOT
ATOM      1  C   UNL A   1      30.440  27.993  23.534  1.00  0.00     0.188 C 
ENDROOT
BRANCH   1   2
ATOM      2  O   UNL A   1      30.911  27.759  22.215  1.00  0.00    -0.376 OA
BRANCH   2   3
ATOM      3  C   UNL A   1      31.743  26.618  22.046  1.00  0.00     0.202 C 
BRANCH   3   4
ATOM      4  C   UNL A   1      33.205  26.869  22.439  1.00  0.00     0.261 C 
BRANCH   4   5
ATOM      5  O   UNL A   1      33.417  27.056  23.849  1.00  0.00    -0.460 OA
BRANCH   5   6
ATOM      6  C   UNL A   1      33.675  25.929  24.561  1.00  0.00     0.342 C 
ATOM      7  O   UNL A   1      34.797  25.463  24.724  1.00  0.00    -0.246 OA
BRANCH   6   8
ATOM      8  C   UNL A   1      32.511  25.393  25.230  1.00  0.00     0.111 A 
ATOM      9  C   UNL A   1      31.680  24.331  24.873  1.00  0.00     0.140 A 
ATOM     10  N   UNL A   1      30.941  24.106  26.012  1.00  0.00    -0.262 N 
ATOM     11  C   UNL A   1      31.961  25.887  26.433  1.00  0.00     0.151 A 
ATOM     12  N   UNL A   1      30.933  25.154  26.855  1.00  0.00    -0.180 NA
ATOM     13  C   UNL A   1      30.446  22.840  26.504  1.00  0.00     0.174 C 
BRANCH   9  14
ATOM     14  C   UNL A   1      31.732  23.462  23.721  1.00  0.00     0.273 C 
ATOM     15  O   UNL A   1      30.697  23.109  23.158  1.00  0.00    -0.267 OA
BRANCH  14  16
ATOM     16  N   UNL A   1      32.990  23.042  23.260  1.00  0.00    -0.334 N 
ATOM     17  C   UNL A   1      33.275  23.199  21.842  1.00  0.00     0.147 C 
BRANCH  16  18
ATOM     18  C   UNL A   1      33.918  22.198  24.019  1.00  0.00     0.175 C 
BRANCH  18  19
ATOM     19  C   UNL A   1      33.286  20.894  24.384  1.00  0.00     0.057 A 
ATOM     20  C   UNL A   1      32.651  19.933  23.614  1.00  0.00     0.047 A 
ATOM     21  N   UNL A   1      33.217  20.415  25.676  1.00  0.00    -0.271 N 
ATOM     22  C   UNL A   1      32.302  18.907  24.506  1.00  0.00     0.135 A 
ATOM     23  N   UNL A   1      32.650  19.193  25.757  1.00  0.00    -0.181 NA
ATOM     24  C   UNL A   1      33.693  21.018  26.901  1.00  0.00     0.174 C 
ENDBRANCH  18  19
ENDBRANCH  16  18
ENDBRANCH  14  16
ENDBRANCH   9  14
ENDBRANCH   6   8
ENDBRANCH   5   6
ENDBRANCH   4   5
ENDBRANCH   3   4
ENDBRANCH   2   3
ENDBRANCH   1   2
BRANCH   1  25
ATOM     25  C   UNL A   1      30.677  29.422  24.062  1.00  0.00     0.188 C 
BRANCH  25  26
ATOM     26  O   UNL A   1      31.821  29.753  24.842  1.00  0.00    -0.376 OA
BRANCH  26  27
ATOM     27  C   UNL A   1      31.729  29.751  26.258  1.00  0.00     0.202 C 
BRANCH  27  28
ATOM     28  C   UNL A   1      32.676  30.659  27.049  1.00  0.00     0.261 C 
BRANCH  28  29
ATOM     29  O   UNL A   1      33.864  30.013  27.533  1.00  0.00    -0.460 OA
BRANCH  29  30
ATOM     30  C   UNL A   1      34.727  30.824  28.191  1.00  0.00     0.338 C 
ATOM     31  O   UNL A   1      34.471  31.887  28.730  1.00  0.00    -0.246 OA
BRANCH  30  32
ATOM     32  C   UNL A   1      36.037  30.156  28.334  1.00  0.00     0.060 A 
ATOM     33  C   UNL A   1      36.352  29.608  29.584  1.00  0.00     0.016 A 
ATOM     34  C   UNL A   1      36.966  30.121  27.291  1.00  0.00     0.016 A 
ATOM     35  C   UNL A   1      37.608  29.047  29.806  1.00  0.00     0.010 A 
ATOM     36  C   UNL A   1      38.236  29.581  27.524  1.00  0.00     0.010 A 
ATOM     37  C   UNL A   1      38.571  29.069  28.790  1.00  0.00    -0.014 A 
BRANCH  37  38
ATOM     38  C   UNL A   1      39.973  28.712  29.112  1.00  0.00     0.031 A 
ATOM     39  C   UNL A   1      40.824  29.718  29.838  1.00  0.00     0.074 A 
ATOM     40  C   UNL A   1      40.472  27.505  28.794  1.00  0.00     0.049 A 
ATOM     41  N   UNL A   1      42.074  29.632  30.211  1.00  0.00    -0.248 NA
ATOM     42  C   UNL A   1      40.175  30.992  30.192  1.00  0.00     0.031 C 
ATOM     43  C   UNL A   1      39.735  26.433  28.130  1.00  0.00     0.029 A 
ATOM     44  N   UNL A   1      41.727  26.983  28.988  1.00  0.00    -0.354 N 
ATOM     45  C   UNL A   1      42.363  30.835  30.843  1.00  0.00     0.074 A 
ATOM     46  C   UNL A   1      41.165  31.644  30.784  1.00  0.00     0.031 C 
ATOM     47  C   UNL A   1      40.557  25.382  27.957  1.00  0.00     0.029 A 
ATOM     48  C   UNL A   1      41.881  25.717  28.477  1.00  0.00     0.049 A 
ATOM     49  H   UNL A   1      42.448  27.469  29.449  1.00  0.00     0.167 HD
ATOM     50  C   UNL A   1      43.520  31.228  31.426  1.00  0.00     0.037 A 
ATOM     51  C   UNL A   1      42.974  24.929  28.421  1.00  0.00     0.037 A 
ATOM     52  C   UNL A   1      44.714  30.428  31.475  1.00  0.00     0.049 A 
ATOM     53  C   UNL A   1      44.271  25.416  29.011  1.00  0.00     0.074 A 
ATOM     54  C   UNL A   1      45.934  30.733  32.053  1.00  0.00     0.029 A 
ATOM     55  N   UNL A   1      44.843  29.165  30.915  1.00  0.00    -0.354 N 
ATOM     56  N   UNL A   1      44.524  26.547  29.626  1.00  0.00    -0.248 NA
ATOM     57  C   UNL A   1      45.431  24.520  28.900  1.00  0.00     0.031 C 
ATOM     58  C   UNL A   1      46.812  29.672  31.806  1.00  0.00     0.029 A 
ATOM     59  C   UNL A   1      46.127  28.689  31.111  1.00  0.00     0.049 A 
ATOM     60  H   UNL A   1      44.125  28.680  30.447  1.00  0.00     0.167 HD
ATOM     61  C   UNL A   1      45.865  26.488  29.996  1.00  0.00     0.074 A 
ATOM     62  C   UNL A   1      46.367  25.209  29.541  1.00  0.00     0.031 C 
ATOM     63  C   UNL A   1      46.611  27.410  30.654  1.00  0.00     0.037 A 
BRANCH  50  64
ATOM     64  C   UNL A   1      43.552  32.602  32.032  1.00  0.00     0.058 A 
ATOM     65  C   UNL A   1      43.845  33.739  31.263  1.00  0.00     0.135 A 
ATOM     66  C   UNL A   1      43.278  32.784  33.396  1.00  0.00     0.135 A 
ATOM     67  F   UNL A   1      44.135  33.615  29.957  1.00  0.00    -0.206 F 
ATOM     68  C   UNL A   1      43.894  35.007  31.832  1.00  0.00     0.059 A 
ATOM     69  C   UNL A   1      43.299  34.046  33.982  1.00  0.00     0.059 A 
ATOM     70  F   UNL A   1      42.998  31.728  34.176  1.00  0.00    -0.206 F 
ATOM     71  C   UNL A   1      43.624  35.150  33.194  1.00  0.00     0.060 A 
BRANCH  71  72
ATOM     72  S   UNL A   1      43.703  36.799  33.924  1.00  0.00     0.124 S 
ATOM     73  O   UNL A   1      42.296  37.058  34.209  1.00  0.00    -0.237 OA
ATOM     74  O   UNL A   1      44.556  36.585  35.089  1.00  0.00    -0.237 OA
ATOM     75  O   UNL A   1      44.290  37.612  32.864  1.00  0.00    -0.744 OA
ENDBRANCH  71  72
ENDBRANCH  50  64
BRANCH  51  76
ATOM     76  C   UNL A   1      42.893  23.596  27.765  1.00  0.00     0.058 A 
ATOM     77  C   UNL A   1      43.160  23.445  26.397  1.00  0.00     0.135 A 
ATOM     78  C   UNL A   1      42.547  22.449  28.497  1.00  0.00     0.135 A 
ATOM     79  F   UNL A   1      43.482  24.515  25.654  1.00  0.00    -0.206 F 
ATOM     80  C   UNL A   1      43.077  22.204  25.772  1.00  0.00     0.059 A 
ATOM     81  C   UNL A   1      42.478  21.195  27.899  1.00  0.00     0.059 A 
ATOM     82  F   UNL A   1      42.289  22.543  29.811  1.00  0.00    -0.206 F 
ATOM     83  C   UNL A   1      42.736  21.084  26.534  1.00  0.00     0.060 A 
BRANCH  83  84
ATOM     84  S   UNL A   1      42.680  19.469  25.728  1.00  0.00     0.124 S 
ATOM     85  O   UNL A   1      41.246  19.287  25.534  1.00  0.00    -0.237 OA
ATOM     86  O   UNL A   1      43.464  19.700  24.517  1.00  0.00    -0.237 OA
ATOM     87  O   UNL A   1      43.303  18.585  26.708  1.00  0.00    -0.744 OA
ENDBRANCH  83  84
ENDBRANCH  51  76
BRANCH  63  88
ATOM     88  C   UNL A   1      48.043  27.062  30.948  1.00  0.00     0.058 A 
ATOM     89  C   UNL A   1      48.402  26.323  32.086  1.00  0.00     0.135 A 
ATOM     90  C   UNL A   1      49.062  27.420  30.050  1.00  0.00     0.135 A 
ATOM     91  F   UNL A   1      47.466  25.960  32.979  1.00  0.00    -0.206 F 
ATOM     92  C   UNL A   1      49.723  25.966  32.333  1.00  0.00     0.059 A 
ATOM     93  C   UNL A   1      50.387  27.054  30.266  1.00  0.00     0.059 A 
ATOM     94  F   UNL A   1      48.770  28.118  28.941  1.00  0.00    -0.206 F 
ATOM     95  C   UNL A   1      50.710  26.336  31.416  1.00  0.00     0.060 A 
BRANCH  95  96
ATOM     96  S   UNL A   1      52.417  25.835  31.725  1.00  0.00     0.124 S 
ATOM     97  O   UNL A   1      52.794  26.733  32.811  1.00  0.00    -0.237 OA
ATOM     98  O   UNL A   1      52.271  24.427  32.088  1.00  0.00    -0.237 OA
ATOM     99  O   UNL A   1      53.078  26.079  30.447  1.00  0.00    -0.744 OA
ENDBRANCH  95  96
ENDBRANCH  63  88
ENDBRANCH  37  38
ENDBRANCH  30  32
ENDBRANCH  29  30
ENDBRANCH  28  29
ENDBRANCH  27  28
ENDBRANCH  26  27
ENDBRANCH  25  26
ENDBRANCH   1  25
TORSDOF 24
ENDMDL
MODEL 2
REMARK VINA RESULT:      -9.5      4.194     10.412
REMARK SMILES CN(Cc1ccnn1C)C(=O)c1c(C(=O)OCCOCCOCCOC(=O)c2ccc(-c3c4nc(c(-c5c(F)cc(S(=O)(=O)[O-])cc5F)c5ccc([nH]5)c(-c5c(F)cc(S(=O)(=O)[O-])cc5F)c5nc(c(-c6c(F)cc(S(=O)(=O)[O-])cc6F)c6ccc3[nH]6)C=C5)C=C4)cc2)cnn1C
REMARK SMILES IDX 20 1 19 2 18 3 17 4 16 5 14 6 15 7 13 8 12 9 96 10 94 11
REMARK SMILES IDX 95 12 97 13 10 14 11 15 2 16 1 17 3 18 4 19 5 20 8 21 6 22
REMARK SMILES IDX 7 23 9 24 21 25 22 26 23 27 24 28 25 29 26 30 27 31 28 32
REMARK SMILES IDX 29 33 93 34 30 35 92 36 31 37 32 38 33 39 86 40 34 41 91 42
REMARK SMILES IDX 85 43 87 44 35 45 90 46 84 47 83 48 36 50 70 51 49 52 69 53
REMARK SMILES IDX 50 54 53 55 68 56 88 57 51 58 52 59 67 61 89 62 54 63 37 64
REMARK SMILES IDX 38 65 47 66 39 67 40 68 46 69 48 70 41 71 42 72 43 73 44 74
REMARK SMILES IDX 45 75 71 76 72 77 81 78 73 79 74 80 80 81 82 82 75 83 76 84
REMARK SMILES IDX 77 85 78 86 79 87 55 88 56 89 65 90 57 91 58 92 64 93 66 94
REMARK SMILES IDX 59 95 60 96 61 97 62 98 63 99
REMARK H PARENT 87 49 53 60
REMARK Flexibility Score: inf
ROOT
ATOM      1  C   UNL A   1      39.864  21.277  26.535  1.00  0.00     0.188 C 
ENDROOT
BRANCH   1   2
ATOM      2  O   UNL A   1      39.070  22.419  26.247  1.00  0.00    -0.376 OA
BRANCH   2   3
ATOM      3  C   UNL A   1      37.926  22.190  25.433  1.00  0.00     0.202 C 
BRANCH   3   4
ATOM      4  C   UNL A   1      37.055  23.439  25.244  1.00  0.00     0.261 C 
BRANCH   4   5
ATOM      5  O   UNL A   1      35.883  23.477  26.076  1.00  0.00    -0.460 OA
BRANCH   5   6
ATOM      6  C   UNL A   1      34.792  22.833  25.588  1.00  0.00     0.342 C 
ATOM      7  O   UNL A   1      34.282  21.851  26.115  1.00  0.00    -0.246 OA
BRANCH   6   8
ATOM      8  C   UNL A   1      34.196  23.497  24.449  1.00  0.00     0.111 A 
ATOM      9  C   UNL A   1      33.474  24.688  24.381  1.00  0.00     0.140 A 
ATOM     10  N   UNL A   1      33.424  24.957  23.032  1.00  0.00    -0.262 N 
ATOM     11  C   UNL A   1      34.229  23.024  23.119  1.00  0.00     0.151 A 
ATOM     12  N   UNL A   1      33.662  23.876  22.268  1.00  0.00    -0.180 NA
ATOM     13  C   UNL A   1      33.433  26.252  22.393  1.00  0.00     0.174 C 
BRANCH   9  14
ATOM     14  C   UNL A   1      33.097  25.602  25.434  1.00  0.00     0.273 C 
ATOM     15  O   UNL A   1      33.919  26.386  25.903  1.00  0.00    -0.267 OA
BRANCH  14  16
ATOM     16  N   UNL A   1      31.770  25.575  25.895  1.00  0.00    -0.334 N 
ATOM     17  C   UNL A   1      31.095  24.287  25.926  1.00  0.00     0.147 C 
BRANCH  16  18
ATOM     18  C   UNL A   1      30.922  26.758  26.067  1.00  0.00     0.175 C 
BRANCH  18  19
ATOM     19  C   UNL A   1      30.668  27.435  24.758  1.00  0.00     0.057 A 
ATOM     20  C   UNL A   1      29.900  27.065  23.666  1.00  0.00     0.047 A 
ATOM     21  N   UNL A   1      31.236  28.639  24.399  1.00  0.00    -0.271 N 
ATOM     22  C   UNL A   1      30.015  28.121  22.750  1.00  0.00     0.135 A 
ATOM     23  N   UNL A   1      30.820  29.082  23.194  1.00  0.00    -0.181 NA
ATOM     24  C   UNL A   1      32.154  29.474  25.142  1.00  0.00     0.174 C 
ENDBRANCH  18  19
ENDBRANCH  16  18
ENDBRANCH  14  16
ENDBRANCH   9  14
ENDBRANCH   6   8
ENDBRANCH   5   6
ENDBRANCH   4   5
ENDBRANCH   3   4
ENDBRANCH   2   3
ENDBRANCH   1   2
BRANCH   1  25
ATOM     25  C   UNL A   1      40.918  21.484  27.641  1.00  0.00     0.188 C 
BRANCH  25  26
ATOM     26  O   UNL A   1      42.313  21.447  27.363  1.00  0.00    -0.376 OA
BRANCH  26  27
ATOM     27  C   UNL A   1      42.797  21.956  26.129  1.00  0.00     0.202 C 
BRANCH  27  28
ATOM     28  C   UNL A   1      44.100  22.763  26.137  1.00  0.00     0.261 C 
BRANCH  28  29
ATOM     29  O   UNL A   1      43.998  24.061  26.742  1.00  0.00    -0.460 OA
BRANCH  29  30
ATOM     30  C   UNL A   1      43.151  24.916  26.120  1.00  0.00     0.338 C 
ATOM     31  O   UNL A   1      42.793  24.878  24.954  1.00  0.00    -0.246 OA
BRANCH  30  32
ATOM     32  C   UNL A   1      42.552  25.839  27.105  1.00  0.00     0.060 A 
ATOM     33  C   UNL A   1      43.019  27.160  27.123  1.00  0.00     0.016 A 
ATOM     34  C   UNL A   1      41.600  25.411  28.034  1.00  0.00     0.016 A 
ATOM     35  C   UNL A   1      42.559  28.052  28.090  1.00  0.00     0.010 A 
ATOM     36  C   UNL A   1      41.159  26.301  29.020  1.00  0.00     0.010 A 
ATOM     37  C   UNL A   1      41.657  27.615  29.069  1.00  0.00    -0.014 A 
BRANCH  37  38
ATOM     38  C   UNL A   1      41.377  28.485  30.235  1.00  0.00     0.031 A 
ATOM     39  C   UNL A   1      42.233  28.342  31.464  1.00  0.00     0.074 A 
ATOM     40  C   UNL A   1      40.401  29.408  30.194  1.00  0.00     0.049 A 
ATOM     41  N   UNL A   1      42.166  28.983  32.601  1.00  0.00    -0.248 NA
ATOM     42  C   UNL A   1      43.313  27.343  31.397  1.00  0.00     0.031 C 
ATOM     43  C   UNL A   1      39.533  29.670  29.047  1.00  0.00     0.029 A 
ATOM     44  N   UNL A   1      39.974  30.295  31.151  1.00  0.00    -0.354 N 
ATOM     45  C   UNL A   1      43.190  28.468  33.386  1.00  0.00     0.074 A 
ATOM     46  C   UNL A   1      43.851  27.446  32.604  1.00  0.00     0.031 C 
ATOM     47  C   UNL A   1      38.665  30.645  29.373  1.00  0.00     0.029 A 
ATOM     48  C   UNL A   1      38.901  31.057  30.756  1.00  0.00     0.049 A 
ATOM     49  H   UNL A   1      40.396  30.378  32.036  1.00  0.00     0.167 HD
ATOM     50  C   UNL A   1      43.552  28.819  34.643  1.00  0.00     0.037 A 
ATOM     51  C   UNL A   1      38.182  31.968  31.441  1.00  0.00     0.037 A 
ATOM     52  C   UNL A   1      42.888  29.827  35.424  1.00  0.00     0.049 A 
ATOM     53  C   UNL A   1      38.557  32.291  32.863  1.00  0.00     0.074 A 
ATOM     54  C   UNL A   1      43.186  30.262  36.703  1.00  0.00     0.029 A 
ATOM     55  N   UNL A   1      41.782  30.552  35.003  1.00  0.00    -0.354 N 
ATOM     56  N   UNL A   1      39.542  31.813  33.586  1.00  0.00    -0.248 NA
ATOM     57  C   UNL A   1      37.722  33.278  33.565  1.00  0.00     0.031 C 
ATOM     58  C   UNL A   1      42.236  31.221  37.071  1.00  0.00     0.029 A 
ATOM     59  C   UNL A   1      41.371  31.413  36.006  1.00  0.00     0.049 A 
ATOM     60  H   UNL A   1      41.354  30.466  34.121  1.00  0.00     0.167 HD
ATOM     61  C   UNL A   1      39.460  32.456  34.817  1.00  0.00     0.074 A 
ATOM     62  C   UNL A   1      38.333  33.362  34.740  1.00  0.00     0.031 C 
ATOM     63  C   UNL A   1      40.248  32.312  35.912  1.00  0.00     0.037 A 
BRANCH  50  64
ATOM     64  C   UNL A   1      44.706  28.079  35.258  1.00  0.00     0.058 A 
ATOM     65  C   UNL A   1      44.516  26.894  35.985  1.00  0.00     0.135 A 
ATOM     66  C   UNL A   1      46.017  28.557  35.111  1.00  0.00     0.135 A 
ATOM     67  F   UNL A   1      43.278  26.406  36.172  1.00  0.00    -0.206 F 
ATOM     68  C   UNL A   1      45.584  26.222  36.570  1.00  0.00     0.059 A 
ATOM     69  C   UNL A   1      47.103  27.890  35.669  1.00  0.00     0.059 A 
ATOM     70  F   UNL A   1      46.251  29.690  34.430  1.00  0.00    -0.206 F 
ATOM     71  C   UNL A   1      46.874  26.732  36.410  1.00  0.00     0.060 A 
BRANCH  71  72
ATOM     72  S   UNL A   1      48.252  25.860  37.185  1.00  0.00     0.124 S 
ATOM     73  O   UNL A   1      47.550  24.851  37.972  1.00  0.00    -0.237 OA
ATOM     74  O   UNL A   1      48.996  25.361  36.033  1.00  0.00    -0.237 OA
ATOM     75  O   UNL A   1      48.923  26.902  37.956  1.00  0.00    -0.744 OA
ENDBRANCH  71  72
ENDBRANCH  50  64
BRANCH  51  76
ATOM     76  C   UNL A   1      37.020  32.634  30.794  1.00  0.00     0.058 A 
ATOM     77  C   UNL A   1      37.169  33.851  30.113  1.00  0.00     0.135 A 
ATOM     78  C   UNL A   1      35.738  32.064  30.845  1.00  0.00     0.135 A 
ATOM     79  F   UNL A   1      38.373  34.440  30.049  1.00  0.00    -0.206 F 
ATOM     80  C   UNL A   1      36.086  34.487  29.514  1.00  0.00     0.059 A 
ATOM     81  C   UNL A   1      34.644  32.671  30.236  1.00  0.00     0.059 A 
ATOM     82  F   UNL A   1      35.547  30.897  31.480  1.00  0.00    -0.206 F 
ATOM     83  C   UNL A   1      34.827  33.886  29.580  1.00  0.00     0.060 A 
BRANCH  83  84
ATOM     84  S   UNL A   1      33.435  34.692  28.756  1.00  0.00     0.124 S 
ATOM     85  O   UNL A   1      33.012  33.658  27.818  1.00  0.00    -0.237 OA
ATOM     86  O   UNL A   1      32.528  34.955  29.869  1.00  0.00    -0.237 OA
ATOM     87  O   UNL A   1      34.042  35.877  28.158  1.00  0.00    -0.744 OA
ENDBRANCH  83  84
ENDBRANCH  51  76
BRANCH  63  88
ATOM     88  C   UNL A   1      39.939  33.169  37.107  1.00  0.00     0.058 A 
ATOM     89  C   UNL A   1      40.608  34.382  37.334  1.00  0.00     0.135 A 
ATOM     90  C   UNL A   1      38.922  32.802  38.003  1.00  0.00     0.135 A 
ATOM     91  F   UNL A   1      41.593  34.775  36.510  1.00  0.00    -0.206 F 
ATOM     92  C   UNL A   1      40.291  35.193  38.418  1.00  0.00     0.059 A 
ATOM     93  C   UNL A   1      38.573  33.610  39.081  1.00  0.00     0.059 A 
ATOM     94  F   UNL A   1      38.245  31.657  37.824  1.00  0.00    -0.206 F 
ATOM     95  C   UNL A   1      39.271  34.799  39.287  1.00  0.00     0.060 A 
BRANCH  95  96
ATOM     96  S   UNL A   1      38.839  35.878  40.669  1.00  0.00     0.124 S 
ATOM     97  O   UNL A   1      38.543  37.131  39.982  1.00  0.00    -0.237 OA
ATOM     98  O   UNL A   1      37.691  35.192  41.258  1.00  0.00    -0.237 OA
ATOM     99  O   UNL A   1      40.047  35.878  41.488  1.00  0.00    -0.744 OA
ENDBRANCH  95  96
ENDBRANCH  63  88
ENDBRANCH  37  38
ENDBRANCH  30  32
ENDBRANCH  29  30
ENDBRANCH  28  29
ENDBRANCH  27  28
ENDBRANCH  26  27
ENDBRANCH  25  26
ENDBRANCH   1  25
TORSDOF 24
ENDMDL
MODEL 3
REMARK VINA RESULT:      -9.5      2.221      2.988
REMARK SMILES CN(Cc1ccnn1C)C(=O)c1c(C(=O)OCCOCCOCCOC(=O)c2ccc(-c3c4nc(c(-c5c(F)cc(S(=O)(=O)[O-])cc5F)c5ccc([nH]5)c(-c5c(F)cc(S(=O)(=O)[O-])cc5F)c5nc(c(-c6c(F)cc(S(=O)(=O)[O-])cc6F)c6ccc3[nH]6)C=C5)C=C4)cc2)cnn1C
REMARK SMILES IDX 20 1 19 2 18 3 17 4 16 5 14 6 15 7 13 8 12 9 96 10 94 11
REMARK SMILES IDX 95 12 97 13 10 14 11 15 2 16 1 17 3 18 4 19 5 20 8 21 6 22
REMARK SMILES IDX 7 23 9 24 21 25 22 26 23 27 24 28 25 29 26 30 27 31 28 32
REMARK SMILES IDX 29 33 93 34 30 35 92 36 31 37 32 38 33 39 86 40 34 41 91 42
REMARK SMILES IDX 85 43 87 44 35 45 90 46 84 47 83 48 36 50 70 51 49 52 69 53
REMARK SMILES IDX 50 54 53 55 68 56 88 57 51 58 52 59 67 61 89 62 54 63 37 64
REMARK SMILES IDX 38 65 47 66 39 67 40 68 46 69 48 70 41 71 42 72 43 73 44 74
REMARK SMILES IDX 45 75 71 76 72 77 81 78 73 79 74 80 80 81 82 82 75 83 76 84
REMARK SMILES IDX 77 85 78 86 79 87 55 88 56 89 65 90 57 91 58 92 64 93 66 94
REMARK SMILES IDX 59 95 60 96 61 97 62 98 63 99
REMARK H PARENT 87 49 53 60
REMARK Flexibility Score: inf
ROOT
ATOM      1  C   UNL A   1      31.032  27.461  22.653  1.00  0.00     0.188 C 
ENDROOT
BRANCH   1   2
ATOM      2  O   UNL A   1      31.988  26.805  21.832  1.00  0.00    -0.376 OA
BRANCH   2   3
ATOM      3  C   UNL A   1      32.820  25.855  22.485  1.00  0.00     0.202 C 
BRANCH   3   4
ATOM      4  C   UNL A   1      32.102  24.536  22.804  1.00  0.00     0.261 C 
BRANCH   4   5
ATOM      5  O   UNL A   1      32.833  23.357  22.427  1.00  0.00    -0.460 OA
BRANCH   5   6
ATOM      6  C   UNL A   1      34.045  23.200  23.018  1.00  0.00     0.342 C 
ATOM      7  O   UNL A   1      35.111  23.228  22.415  1.00  0.00    -0.246 OA
BRANCH   6   8
ATOM      8  C   UNL A   1      33.974  23.131  24.461  1.00  0.00     0.111 A 
ATOM      9  C   UNL A   1      33.286  22.239  25.284  1.00  0.00     0.140 A 
ATOM     10  N   UNL A   1      33.820  22.475  26.530  1.00  0.00    -0.262 N 
ATOM     11  C   UNL A   1      34.619  24.015  25.354  1.00  0.00     0.151 A 
ATOM     12  N   UNL A   1      34.436  23.667  26.626  1.00  0.00    -0.180 NA
ATOM     13  C   UNL A   1      34.033  21.518  27.591  1.00  0.00     0.174 C 
BRANCH   9  14
ATOM     14  C   UNL A   1      32.428  21.131  24.934  1.00  0.00     0.273 C 
ATOM     15  O   UNL A   1      31.266  21.092  25.333  1.00  0.00    -0.267 OA
BRANCH  14  16
ATOM     16  N   UNL A   1      32.955  20.111  24.125  1.00  0.00    -0.334 N 
ATOM     17  C   UNL A   1      32.201  19.738  22.938  1.00  0.00     0.147 C 
BRANCH  16  18
ATOM     18  C   UNL A   1      34.031  19.200  24.524  1.00  0.00     0.175 C 
BRANCH  18  19
ATOM     19  C   UNL A   1      33.494  17.846  24.861  1.00  0.00     0.057 A 
ATOM     20  C   UNL A   1      32.749  17.395  25.938  1.00  0.00     0.047 A 
ATOM     21  N   UNL A   1      33.700  16.728  24.081  1.00  0.00    -0.271 N 
ATOM     22  C   UNL A   1      32.505  16.037  25.685  1.00  0.00     0.135 A 
ATOM     23  N   UNL A   1      33.076  15.630  24.555  1.00  0.00    -0.181 NA
ATOM     24  C   UNL A   1      34.439  16.601  22.844  1.00  0.00     0.174 C 
ENDBRANCH  18  19
ENDBRANCH  16  18
ENDBRANCH  14  16
ENDBRANCH   9  14
ENDBRANCH   6   8
ENDBRANCH   5   6
ENDBRANCH   4   5
ENDBRANCH   3   4
ENDBRANCH   2   3
ENDBRANCH   1   2
BRANCH   1  25
ATOM     25  C   UNL A   1      31.403  28.902  23.055  1.00  0.00     0.188 C 
BRANCH  25  26
ATOM     26  O   UNL A   1      32.316  29.172  24.114  1.00  0.00    -0.376 OA
BRANCH  26  27
ATOM     27  C   UNL A   1      31.820  29.449  25.415  1.00  0.00     0.202 C 
BRANCH  27  28
ATOM     28  C   UNL A   1      32.562  30.480  26.272  1.00  0.00     0.261 C 
BRANCH  28  29
ATOM     29  O   UNL A   1      33.664  29.952  27.026  1.00  0.00    -0.460 OA
BRANCH  29  30
ATOM     30  C   UNL A   1      34.450  30.885  27.617  1.00  0.00     0.338 C 
ATOM     31  O   UNL A   1      34.143  32.030  27.903  1.00  0.00    -0.246 OA
BRANCH  30  32
ATOM     32  C   UNL A   1      35.723  30.273  28.048  1.00  0.00     0.060 A 
ATOM     33  C   UNL A   1      35.781  29.740  29.342  1.00  0.00     0.016 A 
ATOM     34  C   UNL A   1      36.857  30.274  27.231  1.00  0.00     0.016 A 
ATOM     35  C   UNL A   1      36.980  29.233  29.837  1.00  0.00     0.010 A 
ATOM     36  C   UNL A   1      38.067  29.787  27.739  1.00  0.00     0.010 A 
ATOM     37  C   UNL A   1      38.139  29.292  29.053  1.00  0.00    -0.014 A 
BRANCH  37  38
ATOM     38  C   UNL A   1      39.451  28.995  29.676  1.00  0.00     0.031 A 
ATOM     39  C   UNL A   1      39.897  29.824  30.849  1.00  0.00     0.074 A 
ATOM     40  C   UNL A   1      40.219  27.987  29.227  1.00  0.00     0.049 A 
ATOM     41  N   UNL A   1      41.003  29.754  31.541  1.00  0.00    -0.248 NA
ATOM     42  C   UNL A   1      38.965  30.870  31.304  1.00  0.00     0.031 C 
ATOM     43  C   UNL A   1      39.877  27.088  28.127  1.00  0.00     0.029 A 
ATOM     44  N   UNL A   1      41.453  27.555  29.646  1.00  0.00    -0.354 N 
ATOM     45  C   UNL A   1      40.904  30.743  32.512  1.00  0.00     0.074 A 
ATOM     46  C   UNL A   1      39.639  31.415  32.306  1.00  0.00     0.031 C 
ATOM     47  C   UNL A   1      40.886  26.217  27.947  1.00  0.00     0.029 A 
ATOM     48  C   UNL A   1      41.953  26.513  28.903  1.00  0.00     0.049 A 
ATOM     49  H   UNL A   1      41.934  27.953  30.406  1.00  0.00     0.167 HD
ATOM     50  C   UNL A   1      41.785  31.060  33.490  1.00  0.00     0.037 A 
ATOM     51  C   UNL A   1      43.143  25.885  28.975  1.00  0.00     0.037 A 
ATOM     52  C   UNL A   1      43.047  30.400  33.688  1.00  0.00     0.049 A 
ATOM     53  C   UNL A   1      44.138  26.302  30.026  1.00  0.00     0.074 A 
ATOM     54  C   UNL A   1      44.004  30.641  34.658  1.00  0.00     0.029 A 
ATOM     55  N   UNL A   1      43.535  29.373  32.892  1.00  0.00    -0.354 N 
ATOM     56  N   UNL A   1      44.023  27.225  30.952  1.00  0.00    -0.248 NA
ATOM     57  C   UNL A   1      45.427  25.594  30.042  1.00  0.00     0.031 C 
ATOM     58  C   UNL A   1      45.088  29.788  34.424  1.00  0.00     0.029 A 
ATOM     59  C   UNL A   1      44.789  28.987  33.334  1.00  0.00     0.049 A 
ATOM     60  H   UNL A   1      43.058  28.978  32.127  1.00  0.00     0.167 HD
ATOM     61  C   UNL A   1      45.212  27.191  31.675  1.00  0.00     0.074 A 
ATOM     62  C   UNL A   1      46.031  26.154  31.082  1.00  0.00     0.031 C 
ATOM     63  C   UNL A   1      45.590  27.949  32.734  1.00  0.00     0.037 A 
BRANCH  50  64
ATOM     64  C   UNL A   1      41.418  32.195  34.404  1.00  0.00     0.058 A 
ATOM     65  C   UNL A   1      40.688  31.985  35.583  1.00  0.00     0.135 A 
ATOM     66  C   UNL A   1      41.810  33.508  34.098  1.00  0.00     0.135 A 
ATOM     67  F   UNL A   1      40.272  30.750  35.910  1.00  0.00    -0.206 F 
ATOM     68  C   UNL A   1      40.333  33.041  36.416  1.00  0.00     0.059 A 
ATOM     69  C   UNL A   1      41.484  34.577  34.927  1.00  0.00     0.059 A 
ATOM     70  F   UNL A   1      42.504  33.763  32.978  1.00  0.00    -0.206 F 
ATOM     71  C   UNL A   1      40.732  34.335  36.076  1.00  0.00     0.060 A 
BRANCH  71  72
ATOM     72  S   UNL A   1      40.254  35.700  37.156  1.00  0.00     0.124 S 
ATOM     73  O   UNL A   1      41.540  36.077  37.733  1.00  0.00    -0.237 OA
ATOM     74  O   UNL A   1      39.676  36.656  36.217  1.00  0.00    -0.237 OA
ATOM     75  O   UNL A   1      39.307  35.085  38.081  1.00  0.00    -0.744 OA
ENDBRANCH  71  72
ENDBRANCH  50  64
BRANCH  51  76
ATOM     76  C   UNL A   1      43.469  24.800  28.013  1.00  0.00     0.058 A 
ATOM     77  C   UNL A   1      43.993  25.089  26.745  1.00  0.00     0.135 A 
ATOM     78  C   UNL A   1      43.261  23.451  28.344  1.00  0.00     0.135 A 
ATOM     79  F   UNL A   1      44.197  26.364  26.378  1.00  0.00    -0.206 F 
ATOM     80  C   UNL A   1      44.291  24.081  25.833  1.00  0.00     0.059 A 
ATOM     81  C   UNL A   1      43.571  22.425  27.457  1.00  0.00     0.059 A 
ATOM     82  F   UNL A   1      42.767  23.124  29.548  1.00  0.00    -0.206 F 
ATOM     83  C   UNL A   1      44.077  22.751  26.201  1.00  0.00     0.060 A 
BRANCH  83  84
ATOM     84  S   UNL A   1      44.515  21.445  25.031  1.00  0.00     0.124 S 
ATOM     85  O   UNL A   1      45.801  20.999  25.557  1.00  0.00    -0.237 OA
ATOM     86  O   UNL A   1      43.404  20.509  25.184  1.00  0.00    -0.237 OA
ATOM     87  O   UNL A   1      44.563  22.145  23.752  1.00  0.00    -0.744 OA
ENDBRANCH  83  84
ENDBRANCH  51  76
BRANCH  63  88
ATOM     88  C   UNL A   1      46.936  27.671  33.341  1.00  0.00     0.058 A 
ATOM     89  C   UNL A   1      47.116  26.662  34.300  1.00  0.00     0.135 A 
ATOM     90  C   UNL A   1      48.070  28.382  32.916  1.00  0.00     0.135 A 
ATOM     91  F   UNL A   1      46.063  25.957  34.744  1.00  0.00    -0.206 F 
ATOM     92  C   UNL A   1      48.371  26.379  34.828  1.00  0.00     0.059 A 
ATOM     93  C   UNL A   1      49.338  28.101  33.415  1.00  0.00     0.059 A 
ATOM     94  F   UNL A   1      47.953  29.350  31.993  1.00  0.00    -0.206 F 
ATOM     95  C   UNL A   1      49.478  27.104  34.379  1.00  0.00     0.060 A 
BRANCH  95  96
ATOM     96  S   UNL A   1      51.108  26.703  35.042  1.00  0.00     0.124 S 
ATOM     97  O   UNL A   1      50.776  26.267  36.394  1.00  0.00    -0.237 OA
ATOM     98  O   UNL A   1      51.569  25.655  34.135  1.00  0.00    -0.237 OA
ATOM     99  O   UNL A   1      51.833  27.966  34.947  1.00  0.00    -0.744 OA
ENDBRANCH  95  96
ENDBRANCH  63  88
ENDBRANCH  37  38
ENDBRANCH  30  32
ENDBRANCH  29  30
ENDBRANCH  28  29
ENDBRANCH  27  28
ENDBRANCH  26  27
ENDBRANCH  25  26
ENDBRANCH   1  25
TORSDOF 24
ENDMDL
