MODEL 1
REMARK VINA RESULT:     -10.8      0.000      0.000
REMARK SMILES CCc1nc2sc(C(=O)NCC(=O)OCCOCCOCCOC(=O)c3ccc(-c4c5nc(c(-c6c(F)cc(S(=O)(=O)[O-])cc6F)c6ccc([nH]6)c(-c6c(F)cc(S(=O)(=O)[O-])cc6F)c6nc(c(-c7c(F)cc(S(=O)(=O)[O-])cc7F)c7ccc4[nH]7)C=C6)C=C5)cc3)c(N)c2c(C(F)(F)F)c1C
REMARK SMILES IDX 18 1 17 2 16 3 15 4 14 5 12 6 13 7 11 8 10 9 8 10 9 11 7 13
REMARK SMILES IDX 3 14 4 15 100 16 5 17 95 18 101 19 6 20 94 21 92 22 2 23
REMARK SMILES IDX 1 24 96 25 97 26 98 27 99 28 93 29 19 32 20 33 21 34 22 35
REMARK SMILES IDX 23 36 24 37 25 38 26 39 27 40 91 41 28 42 90 43 29 44 30 45
REMARK SMILES IDX 31 46 84 47 32 48 89 49 83 50 85 51 33 52 88 53 82 54 81 55
REMARK SMILES IDX 34 57 68 58 47 59 67 60 48 61 51 62 66 63 86 64 49 65 50 66
REMARK SMILES IDX 65 68 87 69 52 70 35 71 36 72 45 73 37 74 38 75 44 76 46 77
REMARK SMILES IDX 39 78 40 79 41 80 42 81 43 82 69 83 70 84 79 85 71 86 72 87
REMARK SMILES IDX 78 88 80 89 73 90 74 91 75 92 76 93 77 94 53 95 54 96 63 97
REMARK SMILES IDX 55 98 56 99 62 100 64 101 57 102 58 103 59 104 60 105 61 106
REMARK H PARENT 10 12 93 30 93 31 85 56 51 67
REMARK Flexibility Score: inf
ROOT
ATOM      1  C   UNL A   1      38.966  21.607  25.805  1.00  0.00     0.188 C 
ENDROOT
BRANCH   1   2
ATOM      2  O   UNL A   1      37.628  22.035  25.755  1.00  0.00    -0.376 OA
BRANCH   2   3
ATOM      3  C   UNL A   1      36.818  21.725  24.636  1.00  0.00     0.202 C 
BRANCH   3   4
ATOM      4  C   UNL A   1      35.422  21.076  24.751  1.00  0.00     0.261 C 
BRANCH   4   5
ATOM      5  O   UNL A   1      35.398  19.663  25.023  1.00  0.00    -0.462 OA
BRANCH   5   6
ATOM      6  C   UNL A   1      34.298  18.989  24.582  1.00  0.00     0.325 C 
ATOM      7  O   UNL A   1      34.293  17.777  24.367  1.00  0.00    -0.250 OA
BRANCH   6   8
ATOM      8  C   UNL A   1      33.004  19.834  24.576  1.00  0.00     0.239 C 
BRANCH   8   9
ATOM      9  N   UNL A   1      32.287  19.968  23.329  1.00  0.00    -0.340 N 
ATOM     10  C   UNL A   1      32.050  21.092  22.570  1.00  0.00     0.264 C 
ATOM     11  O   UNL A   1      31.612  20.863  21.437  1.00  0.00    -0.268 OA
ATOM     12  H   UNL A   1      31.912  19.132  22.968  1.00  0.00     0.164 HD
BRANCH  10  13
ATOM     13  C   UNL A   1      32.255  22.456  23.078  1.00  0.00     0.118 A 
ATOM     14  C   UNL A   1      32.994  27.079  23.613  1.00  0.00     0.045 A 
ATOM     15  N   UNL A   1      33.422  26.080  22.807  1.00  0.00    -0.242 NA
ATOM     16  C   UNL A   1      32.093  26.914  24.681  1.00  0.00    -0.017 A 
ATOM     17  C   UNL A   1      32.922  24.866  23.091  1.00  0.00     0.127 A 
ATOM     18  C   UNL A   1      31.717  25.607  25.047  1.00  0.00     0.073 A 
ATOM     19  C   UNL A   1      31.522  28.078  25.443  1.00  0.00     0.047 C 
ATOM     20  S   UNL A   1      33.246  23.513  22.113  1.00  0.00    -0.108 S 
ATOM     21  C   UNL A   1      32.117  24.565  24.167  1.00  0.00     0.048 A 
ATOM     22  C   UNL A   1      31.817  23.174  24.176  1.00  0.00     0.066 A 
BRANCH  14  23
ATOM     23  C   UNL A   1      33.596  28.426  23.293  1.00  0.00     0.053 C 
ATOM     24  C   UNL A   1      34.397  28.406  21.997  1.00  0.00     0.011 C 
ENDBRANCH  14  23
BRANCH  18  25
ATOM     25  C   UNL A   1      30.878  25.298  26.272  1.00  0.00     0.417 C 
ATOM     26  F   UNL A   1      31.486  24.399  27.101  1.00  0.00    -0.166 F 
ATOM     27  F   UNL A   1      30.629  26.406  27.035  1.00  0.00    -0.166 F 
ATOM     28  F   UNL A   1      29.642  24.780  26.032  1.00  0.00    -0.166 F 
ENDBRANCH  18  25
BRANCH  22  29
ATOM     29  N   UNL A   1      31.095  22.718  25.206  1.00  0.00    -0.397 N 
ATOM     30  H   UNL A   1      30.292  22.172  25.042  1.00  0.00     0.156 HD
ATOM     31  H   UNL A   1      31.366  22.928  26.129  1.00  0.00     0.156 HD
ENDBRANCH  22  29
ENDBRANCH  10  13
ENDBRANCH   8   9
ENDBRANCH   6   8
ENDBRANCH   5   6
ENDBRANCH   4   5
ENDBRANCH   3   4
ENDBRANCH   2   3
ENDBRANCH   1   2
BRANCH   1  32
ATOM     32  C   UNL A   1      39.926  22.210  26.833  1.00  0.00     0.188 C 
BRANCH  32  33
ATOM     33  O   UNL A   1      40.627  21.454  27.796  1.00  0.00    -0.376 OA
BRANCH  33  34
ATOM     34  C   UNL A   1      41.728  20.606  27.497  1.00  0.00     0.202 C 
BRANCH  34  35
ATOM     35  C   UNL A   1      42.266  20.340  26.089  1.00  0.00     0.261 C 
BRANCH  35  36
ATOM     36  O   UNL A   1      43.656  20.172  25.983  1.00  0.00    -0.460 OA
BRANCH  36  37
ATOM     37  C   UNL A   1      44.175  20.664  24.830  1.00  0.00     0.338 C 
ATOM     38  O   UNL A   1      44.267  20.108  23.761  1.00  0.00    -0.246 OA
BRANCH  37  39
ATOM     39  C   UNL A   1      44.530  22.064  25.093  1.00  0.00     0.060 A 
ATOM     40  C   UNL A   1      45.475  22.314  26.088  1.00  0.00     0.016 A 
ATOM     41  C   UNL A   1      43.772  23.080  24.497  1.00  0.00     0.016 A 
ATOM     42  C   UNL A   1      45.429  23.535  26.710  1.00  0.00     0.010 A 
ATOM     43  C   UNL A   1      43.706  24.285  25.132  1.00  0.00     0.010 A 
ATOM     44  C   UNL A   1      44.449  24.443  26.297  1.00  0.00    -0.014 A 
BRANCH  44  45
ATOM     45  C   UNL A   1      44.256  25.647  27.067  1.00  0.00     0.031 A 
ATOM     46  C   UNL A   1      45.348  26.600  26.806  1.00  0.00     0.074 A 
ATOM     47  C   UNL A   1      43.137  25.826  27.802  1.00  0.00     0.049 A 
ATOM     48  N   UNL A   1      46.331  26.885  27.591  1.00  0.00    -0.248 NA
ATOM     49  C   UNL A   1      45.534  27.089  25.425  1.00  0.00     0.031 C 
ATOM     50  C   UNL A   1      41.962  24.942  27.840  1.00  0.00     0.029 A 
ATOM     51  N   UNL A   1      42.744  26.879  28.576  1.00  0.00    -0.354 N 
ATOM     52  C   UNL A   1      47.019  27.890  26.920  1.00  0.00     0.074 A 
ATOM     53  C   UNL A   1      46.691  27.748  25.529  1.00  0.00     0.031 C 
ATOM     54  C   UNL A   1      40.916  25.606  28.382  1.00  0.00     0.029 A 
ATOM     55  C   UNL A   1      41.372  26.901  28.849  1.00  0.00     0.049 A 
ATOM     56  H   UNL A   1      43.370  27.560  28.912  1.00  0.00     0.167 HD
ATOM     57  C   UNL A   1      47.378  29.006  27.609  1.00  0.00     0.037 A 
ATOM     58  C   UNL A   1      40.673  27.948  29.361  1.00  0.00     0.037 A 
ATOM     59  C   UNL A   1      47.338  28.760  29.027  1.00  0.00     0.049 A 
ATOM     60  C   UNL A   1      41.661  28.804  30.067  1.00  0.00     0.074 A 
ATOM     61  C   UNL A   1      48.061  28.016  29.934  1.00  0.00     0.029 A 
ATOM     62  N   UNL A   1      46.114  29.015  29.584  1.00  0.00    -0.354 N 
ATOM     63  N   UNL A   1      42.305  28.419  31.137  1.00  0.00    -0.248 NA
ATOM     64  C   UNL A   1      42.238  29.946  29.365  1.00  0.00     0.031 C 
ATOM     65  C   UNL A   1      47.181  27.751  31.024  1.00  0.00     0.029 A 
ATOM     66  C   UNL A   1      45.964  28.390  30.789  1.00  0.00     0.049 A 
ATOM     67  H   UNL A   1      45.424  29.579  29.166  1.00  0.00     0.167 HD
ATOM     68  C   UNL A   1      43.563  28.973  30.994  1.00  0.00     0.074 A 
ATOM     69  C   UNL A   1      43.416  30.020  29.990  1.00  0.00     0.031 C 
ATOM     70  C   UNL A   1      44.669  28.305  31.427  1.00  0.00     0.037 A 
BRANCH  57  71
ATOM     71  C   UNL A   1      47.193  30.408  27.067  1.00  0.00     0.058 A 
ATOM     72  C   UNL A   1      48.266  31.315  27.143  1.00  0.00     0.135 A 
ATOM     73  C   UNL A   1      45.937  30.980  26.753  1.00  0.00     0.135 A 
ATOM     74  F   UNL A   1      49.492  30.891  27.494  1.00  0.00    -0.206 F 
ATOM     75  C   UNL A   1      48.102  32.685  26.926  1.00  0.00     0.059 A 
ATOM     76  C   UNL A   1      45.762  32.328  26.476  1.00  0.00     0.059 A 
ATOM     77  F   UNL A   1      44.795  30.285  26.799  1.00  0.00    -0.206 F 
ATOM     78  C   UNL A   1      46.845  33.178  26.584  1.00  0.00     0.060 A 
BRANCH  78  79
ATOM     79  S   UNL A   1      46.621  34.942  26.306  1.00  0.00     0.124 S 
ATOM     80  O   UNL A   1      47.837  35.281  25.578  1.00  0.00    -0.237 OA
ATOM     81  O   UNL A   1      45.382  34.966  25.536  1.00  0.00    -0.237 OA
ATOM     82  O   UNL A   1      46.519  35.484  27.658  1.00  0.00    -0.744 OA
ENDBRANCH  78  79
ENDBRANCH  57  71
BRANCH  58  83
ATOM     83  C   UNL A   1      39.306  28.436  29.010  1.00  0.00     0.058 A 
ATOM     84  C   UNL A   1      38.278  28.463  29.975  1.00  0.00     0.135 A 
ATOM     85  C   UNL A   1      39.056  29.165  27.831  1.00  0.00     0.135 A 
ATOM     86  F   UNL A   1      38.419  27.794  31.131  1.00  0.00    -0.206 F 
ATOM     87  C   UNL A   1      37.119  29.235  29.821  1.00  0.00     0.059 A 
ATOM     88  C   UNL A   1      37.904  29.933  27.650  1.00  0.00     0.059 A 
ATOM     89  F   UNL A   1      39.966  29.233  26.849  1.00  0.00    -0.206 F 
ATOM     90  C   UNL A   1      36.957  29.995  28.664  1.00  0.00     0.060 A 
BRANCH  90  91
ATOM     91  S   UNL A   1      35.571  31.153  28.545  1.00  0.00     0.124 S 
ATOM     92  O   UNL A   1      34.558  30.347  27.875  1.00  0.00    -0.237 OA
ATOM     93  O   UNL A   1      35.312  31.468  29.945  1.00  0.00    -0.237 OA
ATOM     94  O   UNL A   1      36.116  32.253  27.753  1.00  0.00    -0.744 OA
ENDBRANCH  90  91
ENDBRANCH  58  83
BRANCH  70  95
ATOM     95  C   UNL A   1      44.528  27.348  32.569  1.00  0.00     0.058 A 
ATOM     96  C   UNL A   1      44.417  27.698  33.923  1.00  0.00     0.135 A 
ATOM     97  C   UNL A   1      44.353  25.997  32.227  1.00  0.00     0.135 A 
ATOM     98  F   UNL A   1      44.508  28.979  34.314  1.00  0.00    -0.206 F 
ATOM     99  C   UNL A   1      44.143  26.735  34.898  1.00  0.00     0.059 A 
ATOM    100  C   UNL A   1      44.048  25.031  33.173  1.00  0.00     0.059 A 
ATOM    101  F   UNL A   1      44.411  25.617  30.940  1.00  0.00    -0.206 F 
ATOM    102  C   UNL A   1      43.949  25.406  34.510  1.00  0.00     0.060 A 
BRANCH 102 103
ATOM    103  S   UNL A   1      43.498  24.172  35.749  1.00  0.00     0.124 S 
ATOM    104  O   UNL A   1      42.114  23.876  35.399  1.00  0.00    -0.237 OA
ATOM    105  O   UNL A   1      44.462  23.105  35.492  1.00  0.00    -0.237 OA
ATOM    106  O   UNL A   1      43.684  24.875  37.016  1.00  0.00    -0.744 OA
ENDBRANCH 102 103
ENDBRANCH  70  95
ENDBRANCH  44  45
ENDBRANCH  37  39
ENDBRANCH  36  37
ENDBRANCH  35  36
ENDBRANCH  34  35
ENDBRANCH  33  34
ENDBRANCH  32  33
ENDBRANCH   1  32
TORSDOF 25
ENDMDL
MODEL 2
REMARK VINA RESULT:     -10.2      2.666      9.188
REMARK SMILES CCc1nc2sc(C(=O)NCC(=O)OCCOCCOCCOC(=O)c3ccc(-c4c5nc(c(-c6c(F)cc(S(=O)(=O)[O-])cc6F)c6ccc([nH]6)c(-c6c(F)cc(S(=O)(=O)[O-])cc6F)c6nc(c(-c7c(F)cc(S(=O)(=O)[O-])cc7F)c7ccc4[nH]7)C=C6)C=C5)cc3)c(N)c2c(C(F)(F)F)c1C
REMARK SMILES IDX 18 1 17 2 16 3 15 4 14 5 12 6 13 7 11 8 10 9 8 10 9 11 7 13
REMARK SMILES IDX 3 14 4 15 100 16 5 17 95 18 101 19 6 20 94 21 92 22 2 23
REMARK SMILES IDX 1 24 96 25 97 26 98 27 99 28 93 29 19 32 20 33 21 34 22 35
REMARK SMILES IDX 23 36 24 37 25 38 26 39 27 40 91 41 28 42 90 43 29 44 30 45
REMARK SMILES IDX 31 46 84 47 32 48 89 49 83 50 85 51 33 52 88 53 82 54 81 55
REMARK SMILES IDX 34 57 68 58 47 59 67 60 48 61 51 62 66 63 86 64 49 65 50 66
REMARK SMILES IDX 65 68 87 69 52 70 35 71 36 72 45 73 37 74 38 75 44 76 46 77
REMARK SMILES IDX 39 78 40 79 41 80 42 81 43 82 69 83 70 84 79 85 71 86 72 87
REMARK SMILES IDX 78 88 80 89 73 90 74 91 75 92 76 93 77 94 53 95 54 96 63 97
REMARK SMILES IDX 55 98 56 99 62 100 64 101 57 102 58 103 59 104 60 105 61 106
REMARK H PARENT 10 12 93 30 93 31 85 56 51 67
REMARK Flexibility Score: inf
ROOT
ATOM      1  C   UNL A   1      33.026  29.380  25.351  1.00  0.00     0.188 C 
ENDROOT
BRANCH   1   2
ATOM      2  O   UNL A   1      33.092  28.048  24.906  1.00  0.00    -0.376 OA
BRANCH   2   3
ATOM      3  C   UNL A   1      33.687  27.738  23.658  1.00  0.00     0.202 C 
BRANCH   3   4
ATOM      4  C   UNL A   1      32.874  27.407  22.388  1.00  0.00     0.261 C 
BRANCH   4   5
ATOM      5  O   UNL A   1      31.573  26.829  22.598  1.00  0.00    -0.462 OA
BRANCH   5   6
ATOM      6  C   UNL A   1      31.524  25.467  22.627  1.00  0.00     0.325 C 
ATOM      7  O   UNL A   1      32.404  24.751  22.149  1.00  0.00    -0.250 OA
BRANCH   6   8
ATOM      8  C   UNL A   1      30.378  24.898  23.495  1.00  0.00     0.239 C 
BRANCH   8   9
ATOM      9  N   UNL A   1      30.448  25.098  24.924  1.00  0.00    -0.340 N 
ATOM     10  C   UNL A   1      31.449  24.764  25.809  1.00  0.00     0.264 C 
ATOM     11  O   UNL A   1      31.330  25.268  26.931  1.00  0.00    -0.268 OA
ATOM     12  H   UNL A   1      29.663  25.536  25.325  1.00  0.00     0.164 HD
BRANCH  10  13
ATOM     13  C   UNL A   1      32.544  23.846  25.465  1.00  0.00     0.118 A 
ATOM     14  C   UNL A   1      36.625  21.516  25.117  1.00  0.00     0.045 A 
ATOM     15  N   UNL A   1      36.208  22.794  25.279  1.00  0.00    -0.242 NA
ATOM     16  C   UNL A   1      35.770  20.410  24.959  1.00  0.00    -0.017 A 
ATOM     17  C   UNL A   1      34.876  22.961  25.279  1.00  0.00     0.127 A 
ATOM     18  C   UNL A   1      34.390  20.645  24.804  1.00  0.00     0.073 A 
ATOM     19  C   UNL A   1      36.276  18.994  24.947  1.00  0.00     0.047 C 
ATOM     20  S   UNL A   1      34.163  24.473  25.593  1.00  0.00    -0.108 S 
ATOM     21  C   UNL A   1      33.946  21.976  25.033  1.00  0.00     0.048 A 
ATOM     22  C   UNL A   1      32.634  22.524  25.070  1.00  0.00     0.066 A 
BRANCH  14  23
ATOM     23  C   UNL A   1      38.127  21.360  25.087  1.00  0.00     0.053 C 
ATOM     24  C   UNL A   1      38.814  22.195  26.161  1.00  0.00     0.011 C 
ENDBRANCH  14  23
BRANCH  18  25
ATOM     25  C   UNL A   1      33.395  19.549  24.474  1.00  0.00     0.417 C 
ATOM     26  F   UNL A   1      32.705  19.129  25.576  1.00  0.00    -0.166 F 
ATOM     27  F   UNL A   1      32.450  19.950  23.569  1.00  0.00    -0.166 F 
ATOM     28  F   UNL A   1      33.914  18.416  23.927  1.00  0.00    -0.166 F 
ENDBRANCH  18  25
BRANCH  22  29
ATOM     29  N   UNL A   1      31.624  21.695  24.780  1.00  0.00    -0.397 N 
ATOM     30  H   UNL A   1      31.772  20.721  24.774  1.00  0.00     0.156 HD
ATOM     31  H   UNL A   1      30.732  22.058  24.573  1.00  0.00     0.156 HD
ENDBRANCH  22  29
ENDBRANCH  10  13
ENDBRANCH   8   9
ENDBRANCH   6   8
ENDBRANCH   5   6
ENDBRANCH   4   5
ENDBRANCH   3   4
ENDBRANCH   2   3
ENDBRANCH   1   2
BRANCH   1  32
ATOM     32  C   UNL A   1      33.515  29.743  26.755  1.00  0.00     0.188 C 
BRANCH  32  33
ATOM     33  O   UNL A   1      33.365  31.019  27.337  1.00  0.00    -0.376 OA
BRANCH  33  34
ATOM     34  C   UNL A   1      34.447  31.820  27.793  1.00  0.00     0.202 C 
BRANCH  34  35
ATOM     35  C   UNL A   1      34.356  32.843  28.929  1.00  0.00     0.261 C 
BRANCH  35  36
ATOM     36  O   UNL A   1      35.526  33.031  29.683  1.00  0.00    -0.460 OA
BRANCH  36  37
ATOM     37  C   UNL A   1      35.832  31.977  30.480  1.00  0.00     0.338 C 
ATOM     38  O   UNL A   1      35.253  31.606  31.474  1.00  0.00    -0.246 OA
BRANCH  37  39
ATOM     39  C   UNL A   1      36.967  31.290  29.851  1.00  0.00     0.060 A 
ATOM     40  C   UNL A   1      36.963  29.895  29.863  1.00  0.00     0.016 A 
ATOM     41  C   UNL A   1      38.084  32.041  29.462  1.00  0.00     0.016 A 
ATOM     42  C   UNL A   1      38.176  29.260  29.794  1.00  0.00     0.010 A 
ATOM     43  C   UNL A   1      39.294  31.413  29.421  1.00  0.00     0.010 A 
ATOM     44  C   UNL A   1      39.325  30.052  29.707  1.00  0.00    -0.014 A 
BRANCH  44  45
ATOM     45  C   UNL A   1      40.613  29.415  29.834  1.00  0.00     0.031 A 
ATOM     46  C   UNL A   1      40.996  29.316  31.253  1.00  0.00     0.074 A 
ATOM     47  C   UNL A   1      41.243  28.909  28.753  1.00  0.00     0.049 A 
ATOM     48  N   UNL A   1      41.877  30.030  31.868  1.00  0.00    -0.248 NA
ATOM     49  C   UNL A   1      40.127  28.540  32.160  1.00  0.00     0.031 C 
ATOM     50  C   UNL A   1      40.706  28.819  27.387  1.00  0.00     0.029 A 
ATOM     51  N   UNL A   1      42.437  28.256  28.647  1.00  0.00    -0.354 N 
ATOM     52  C   UNL A   1      41.918  29.488  33.147  1.00  0.00     0.074 A 
ATOM     53  C   UNL A   1      40.658  28.830  33.351  1.00  0.00     0.031 C 
ATOM     54  C   UNL A   1      41.446  27.946  26.667  1.00  0.00     0.029 A 
ATOM     55  C   UNL A   1      42.578  27.518  27.467  1.00  0.00     0.049 A 
ATOM     56  H   UNL A   1      43.135  28.301  29.339  1.00  0.00     0.167 HD
ATOM     57  C   UNL A   1      43.130  29.213  33.701  1.00  0.00     0.037 A 
ATOM     58  C   UNL A   1      43.529  26.580  27.216  1.00  0.00     0.037 A 
ATOM     59  C   UNL A   1      44.173  29.926  33.011  1.00  0.00     0.049 A 
ATOM     60  C   UNL A   1      44.657  26.873  28.137  1.00  0.00     0.074 A 
ATOM     61  C   UNL A   1      44.574  31.238  32.883  1.00  0.00     0.029 A 
ATOM     62  N   UNL A   1      44.690  29.232  31.950  1.00  0.00    -0.354 N 
ATOM     63  N   UNL A   1      45.384  27.956  28.056  1.00  0.00    -0.248 NA
ATOM     64  C   UNL A   1      44.739  26.156  29.406  1.00  0.00     0.031 C 
ATOM     65  C   UNL A   1      45.273  31.324  31.644  1.00  0.00     0.029 A 
ATOM     66  C   UNL A   1      45.340  30.053  31.074  1.00  0.00     0.049 A 
ATOM     67  H   UNL A   1      44.602  28.259  31.831  1.00  0.00     0.167 HD
ATOM     68  C   UNL A   1      45.659  28.280  29.371  1.00  0.00     0.074 A 
ATOM     69  C   UNL A   1      45.385  27.069  30.136  1.00  0.00     0.031 C 
ATOM     70  C   UNL A   1      45.733  29.583  29.764  1.00  0.00     0.037 A 
BRANCH  57  71
ATOM     71  C   UNL A   1      43.434  27.920  34.428  1.00  0.00     0.058 A 
ATOM     72  C   UNL A   1      43.976  27.980  35.725  1.00  0.00     0.135 A 
ATOM     73  C   UNL A   1      43.492  26.652  33.804  1.00  0.00     0.135 A 
ATOM     74  F   UNL A   1      44.029  29.147  36.388  1.00  0.00    -0.206 F 
ATOM     75  C   UNL A   1      44.536  26.863  36.351  1.00  0.00     0.059 A 
ATOM     76  C   UNL A   1      43.989  25.518  34.429  1.00  0.00     0.059 A 
ATOM     77  F   UNL A   1      43.167  26.462  32.520  1.00  0.00    -0.206 F 
ATOM     78  C   UNL A   1      44.528  25.635  35.695  1.00  0.00     0.060 A 
BRANCH  78  79
ATOM     79  S   UNL A   1      45.250  24.191  36.491  1.00  0.00     0.124 S 
ATOM     80  O   UNL A   1      44.767  24.337  37.859  1.00  0.00    -0.237 OA
ATOM     81  O   UNL A   1      44.666  23.102  35.716  1.00  0.00    -0.237 OA
ATOM     82  O   UNL A   1      46.684  24.386  36.301  1.00  0.00    -0.744 OA
ENDBRANCH  78  79
ENDBRANCH  57  71
BRANCH  58  83
ATOM     83  C   UNL A   1      43.406  25.276  26.498  1.00  0.00     0.058 A 
ATOM     84  C   UNL A   1      44.131  25.032  25.314  1.00  0.00     0.135 A 
ATOM     85  C   UNL A   1      42.829  24.144  27.107  1.00  0.00     0.135 A 
ATOM     86  F   UNL A   1      44.714  26.047  24.657  1.00  0.00    -0.206 F 
ATOM     87  C   UNL A   1      44.347  23.740  24.816  1.00  0.00     0.059 A 
ATOM     88  C   UNL A   1      43.021  22.849  26.622  1.00  0.00     0.059 A 
ATOM     89  F   UNL A   1      42.134  24.247  28.248  1.00  0.00    -0.206 F 
ATOM     90  C   UNL A   1      43.813  22.649  25.499  1.00  0.00     0.060 A 
BRANCH  90  91
ATOM     91  S   UNL A   1      44.257  20.971  24.986  1.00  0.00     0.124 S 
ATOM     92  O   UNL A   1      44.501  21.144  23.559  1.00  0.00    -0.237 OA
ATOM     93  O   UNL A   1      45.432  20.700  25.806  1.00  0.00    -0.237 OA
ATOM     94  O   UNL A   1      43.071  20.188  25.325  1.00  0.00    -0.744 OA
ENDBRANCH  90  91
ENDBRANCH  58  83
BRANCH  70  95
ATOM     95  C   UNL A   1      46.149  30.612  28.761  1.00  0.00     0.058 A 
ATOM     96  C   UNL A   1      45.289  31.329  27.916  1.00  0.00     0.135 A 
ATOM     97  C   UNL A   1      47.504  30.982  28.779  1.00  0.00     0.135 A 
ATOM     98  F   UNL A   1      43.972  31.073  27.896  1.00  0.00    -0.206 F 
ATOM     99  C   UNL A   1      45.764  32.373  27.119  1.00  0.00     0.059 A 
ATOM    100  C   UNL A   1      47.991  32.035  28.021  1.00  0.00     0.059 A 
ATOM    101  F   UNL A   1      48.361  30.352  29.600  1.00  0.00    -0.206 F 
ATOM    102  C   UNL A   1      47.116  32.726  27.188  1.00  0.00     0.060 A 
BRANCH 102 103
ATOM    103  S   UNL A   1      47.720  34.136  26.235  1.00  0.00     0.124 S 
ATOM    104  O   UNL A   1      46.558  34.476  25.421  1.00  0.00    -0.237 OA
ATOM    105  O   UNL A   1      48.067  35.094  27.281  1.00  0.00    -0.237 OA
ATOM    106  O   UNL A   1      48.858  33.590  25.499  1.00  0.00    -0.744 OA
ENDBRANCH 102 103
ENDBRANCH  70  95
ENDBRANCH  44  45
ENDBRANCH  37  39
ENDBRANCH  36  37
ENDBRANCH  35  36
ENDBRANCH  34  35
ENDBRANCH  33  34
ENDBRANCH  32  33
ENDBRANCH   1  32
TORSDOF 25
ENDMDL
MODEL 3
REMARK VINA RESULT:     -10.0      2.829      9.481
REMARK SMILES CCc1nc2sc(C(=O)NCC(=O)OCCOCCOCCOC(=O)c3ccc(-c4c5nc(c(-c6c(F)cc(S(=O)(=O)[O-])cc6F)c6ccc([nH]6)c(-c6c(F)cc(S(=O)(=O)[O-])cc6F)c6nc(c(-c7c(F)cc(S(=O)(=O)[O-])cc7F)c7ccc4[nH]7)C=C6)C=C5)cc3)c(N)c2c(C(F)(F)F)c1C
REMARK SMILES IDX 18 1 17 2 16 3 15 4 14 5 12 6 13 7 11 8 10 9 8 10 9 11 7 13
REMARK SMILES IDX 3 14 4 15 100 16 5 17 95 18 101 19 6 20 94 21 92 22 2 23
REMARK SMILES IDX 1 24 96 25 97 26 98 27 99 28 93 29 19 32 20 33 21 34 22 35
REMARK SMILES IDX 23 36 24 37 25 38 26 39 27 40 91 41 28 42 90 43 29 44 30 45
REMARK SMILES IDX 31 46 84 47 32 48 89 49 83 50 85 51 33 52 88 53 82 54 81 55
REMARK SMILES IDX 34 57 68 58 47 59 67 60 48 61 51 62 66 63 86 64 49 65 50 66
REMARK SMILES IDX 65 68 87 69 52 70 35 71 36 72 45 73 37 74 38 75 44 76 46 77
REMARK SMILES IDX 39 78 40 79 41 80 42 81 43 82 69 83 70 84 79 85 71 86 72 87
REMARK SMILES IDX 78 88 80 89 73 90 74 91 75 92 76 93 77 94 53 95 54 96 63 97
REMARK SMILES IDX 55 98 56 99 62 100 64 101 57 102 58 103 59 104 60 105 61 106
REMARK H PARENT 10 12 93 30 93 31 85 56 51 67
REMARK Flexibility Score: inf
ROOT
ATOM      1  C   UNL A   1      32.574  29.655  25.021  1.00  0.00     0.188 C 
ENDROOT
BRANCH   1   2
ATOM      2  O   UNL A   1      32.579  28.393  24.402  1.00  0.00    -0.376 OA
BRANCH   2   3
ATOM      3  C   UNL A   1      33.761  27.895  23.800  1.00  0.00     0.202 C 
BRANCH   3   4
ATOM      4  C   UNL A   1      33.881  27.583  22.293  1.00  0.00     0.261 C 
BRANCH   4   5
ATOM      5  O   UNL A   1      32.815  26.806  21.718  1.00  0.00    -0.462 OA
BRANCH   5   6
ATOM      6  C   UNL A   1      32.733  25.509  22.131  1.00  0.00     0.325 C 
ATOM      7  O   UNL A   1      33.692  24.737  22.118  1.00  0.00    -0.250 OA
BRANCH   6   8
ATOM      8  C   UNL A   1      31.393  25.150  22.812  1.00  0.00     0.239 C 
BRANCH   8   9
ATOM      9  N   UNL A   1      31.196  25.567  24.181  1.00  0.00    -0.340 N 
ATOM     10  C   UNL A   1      31.688  25.018  25.344  1.00  0.00     0.264 C 
ATOM     11  O   UNL A   1      31.542  25.727  26.347  1.00  0.00    -0.268 OA
ATOM     12  H   UNL A   1      30.625  26.360  24.300  1.00  0.00     0.164 HD
BRANCH  10  13
ATOM     13  C   UNL A   1      32.292  23.679  25.402  1.00  0.00     0.118 A 
ATOM     14  C   UNL A   1      33.291  19.089  25.042  1.00  0.00     0.045 A 
ATOM     15  N   UNL A   1      32.204  19.867  25.257  1.00  0.00    -0.242 NA
ATOM     16  C   UNL A   1      34.602  19.573  24.880  1.00  0.00    -0.017 A 
ATOM     17  C   UNL A   1      32.451  21.185  25.313  1.00  0.00     0.127 A 
ATOM     18  C   UNL A   1      34.844  20.943  25.103  1.00  0.00     0.073 A 
ATOM     19  C   UNL A   1      35.748  18.686  24.480  1.00  0.00     0.047 C 
ATOM     20  S   UNL A   1      31.198  22.326  25.452  1.00  0.00    -0.108 S 
ATOM     21  C   UNL A   1      33.699  21.768  25.270  1.00  0.00     0.048 A 
ATOM     22  C   UNL A   1      33.581  23.180  25.400  1.00  0.00     0.066 A 
BRANCH  14  23
ATOM     23  C   UNL A   1      32.991  17.609  25.017  1.00  0.00     0.053 C 
ATOM     24  C   UNL A   1      32.833  17.077  23.598  1.00  0.00     0.011 C 
ENDBRANCH  14  23
BRANCH  18  25
ATOM     25  C   UNL A   1      36.234  21.549  25.109  1.00  0.00     0.417 C 
ATOM     26  F   UNL A   1      37.207  20.612  24.907  1.00  0.00    -0.166 F 
ATOM     27  F   UNL A   1      36.405  22.486  24.126  1.00  0.00    -0.166 F 
ATOM     28  F   UNL A   1      36.597  22.197  26.249  1.00  0.00    -0.166 F 
ENDBRANCH  18  25
BRANCH  22  29
ATOM     29  N   UNL A   1      34.721  23.880  25.444  1.00  0.00    -0.397 N 
ATOM     30  H   UNL A   1      35.076  24.188  26.310  1.00  0.00     0.156 HD
ATOM     31  H   UNL A   1      35.205  24.087  24.612  1.00  0.00     0.156 HD
ENDBRANCH  22  29
ENDBRANCH  10  13
ENDBRANCH   8   9
ENDBRANCH   6   8
ENDBRANCH   5   6
ENDBRANCH   4   5
ENDBRANCH   3   4
ENDBRANCH   2   3
ENDBRANCH   1   2
BRANCH   1  32
ATOM     32  C   UNL A   1      32.333  29.768  26.528  1.00  0.00     0.188 C 
BRANCH  32  33
ATOM     33  O   UNL A   1      32.314  30.989  27.235  1.00  0.00    -0.376 OA
BRANCH  33  34
ATOM     34  C   UNL A   1      33.477  31.727  27.586  1.00  0.00     0.202 C 
BRANCH  34  35
ATOM     35  C   UNL A   1      33.468  33.076  28.309  1.00  0.00     0.261 C 
BRANCH  35  36
ATOM     36  O   UNL A   1      34.642  33.408  29.007  1.00  0.00    -0.460 OA
BRANCH  36  37
ATOM     37  C   UNL A   1      34.978  32.506  29.963  1.00  0.00     0.338 C 
ATOM     38  O   UNL A   1      34.421  32.299  31.016  1.00  0.00    -0.246 OA
BRANCH  37  39
ATOM     39  C   UNL A   1      36.113  31.738  29.436  1.00  0.00     0.060 A 
ATOM     40  C   UNL A   1      36.177  30.382  29.756  1.00  0.00     0.016 A 
ATOM     41  C   UNL A   1      37.171  32.424  28.826  1.00  0.00     0.016 A 
ATOM     42  C   UNL A   1      37.415  29.792  29.758  1.00  0.00     0.010 A 
ATOM     43  C   UNL A   1      38.407  31.846  28.854  1.00  0.00     0.010 A 
ATOM     44  C   UNL A   1      38.518  30.586  29.432  1.00  0.00    -0.014 A 
BRANCH  44  45
ATOM     45  C   UNL A   1      39.841  30.041  29.621  1.00  0.00     0.031 A 
ATOM     46  C   UNL A   1      40.223  30.112  31.041  1.00  0.00     0.074 A 
ATOM     47  C   UNL A   1      40.502  29.463  28.596  1.00  0.00     0.049 A 
ATOM     48  N   UNL A   1      41.059  30.936  31.578  1.00  0.00    -0.248 NA
ATOM     49  C   UNL A   1      39.397  29.385  32.026  1.00  0.00     0.031 C 
ATOM     50  C   UNL A   1      39.976  29.202  27.248  1.00  0.00     0.029 A 
ATOM     51  N   UNL A   1      41.732  28.873  28.556  1.00  0.00    -0.354 N 
ATOM     52  C   UNL A   1      41.127  30.531  32.905  1.00  0.00     0.074 A 
ATOM     53  C   UNL A   1      39.907  29.826  33.179  1.00  0.00     0.031 C 
ATOM     54  C   UNL A   1      40.769  28.304  26.621  1.00  0.00     0.029 A 
ATOM     55  C   UNL A   1      41.921  28.027  27.457  1.00  0.00     0.049 A 
ATOM     56  H   UNL A   1      42.424  29.030  29.238  1.00  0.00     0.167 HD
ATOM     57  C   UNL A   1      42.351  30.386  33.481  1.00  0.00     0.037 A 
ATOM     58  C   UNL A   1      42.925  27.125  27.303  1.00  0.00     0.037 A 
ATOM     59  C   UNL A   1      43.354  31.083  32.719  1.00  0.00     0.049 A 
ATOM     60  C   UNL A   1      44.031  27.575  28.186  1.00  0.00     0.074 A 
ATOM     61  C   UNL A   1      43.678  32.396  32.456  1.00  0.00     0.029 A 
ATOM     62  N   UNL A   1      43.913  30.314  31.734  1.00  0.00    -0.354 N 
ATOM     63  N   UNL A   1      44.694  28.685  27.992  1.00  0.00    -0.248 NA
ATOM     64  C   UNL A   1      44.149  27.000  29.522  1.00  0.00     0.031 C 
ATOM     65  C   UNL A   1      44.376  32.393  31.213  1.00  0.00     0.029 A 
ATOM     66  C   UNL A   1      44.518  31.077  30.777  1.00  0.00     0.049 A 
ATOM     67  H   UNL A   1      43.882  29.330  31.717  1.00  0.00     0.167 HD
ATOM     68  C   UNL A   1      44.945  29.158  29.266  1.00  0.00     0.074 A 
ATOM     69  C   UNL A   1      44.739  28.019  30.152  1.00  0.00     0.031 C 
ATOM     70  C   UNL A   1      44.942  30.496  29.521  1.00  0.00     0.037 A 
BRANCH  57  71
ATOM     71  C   UNL A   1      42.726  29.195  34.338  1.00  0.00     0.058 A 
ATOM     72  C   UNL A   1      42.577  27.900  33.808  1.00  0.00     0.135 A 
ATOM     73  C   UNL A   1      42.942  29.257  35.735  1.00  0.00     0.135 A 
ATOM     74  F   UNL A   1      42.306  27.726  32.503  1.00  0.00    -0.206 F 
ATOM     75  C   UNL A   1      42.633  26.756  34.607  1.00  0.00     0.059 A 
ATOM     76  C   UNL A   1      43.061  28.132  36.538  1.00  0.00     0.059 A 
ATOM     77  F   UNL A   1      42.946  30.409  36.415  1.00  0.00    -0.206 F 
ATOM     78  C   UNL A   1      42.886  26.885  35.971  1.00  0.00     0.060 A 
BRANCH  78  79
ATOM     79  S   UNL A   1      42.958  25.418  37.010  1.00  0.00     0.124 S 
ATOM     80  O   UNL A   1      42.122  24.487  36.263  1.00  0.00    -0.237 OA
ATOM     81  O   UNL A   1      44.389  25.132  37.020  1.00  0.00    -0.237 OA
ATOM     82  O   UNL A   1      42.411  25.882  38.282  1.00  0.00    -0.744 OA
ENDBRANCH  78  79
ENDBRANCH  57  71
BRANCH  58  83
ATOM     83  C   UNL A   1      42.880  25.748  26.724  1.00  0.00     0.058 A 
ATOM     84  C   UNL A   1      43.502  25.462  25.492  1.00  0.00     0.135 A 
ATOM     85  C   UNL A   1      42.503  24.630  27.494  1.00  0.00     0.135 A 
ATOM     86  F   UNL A   1      43.893  26.460  24.685  1.00  0.00    -0.206 F 
ATOM     87  C   UNL A   1      43.813  24.156  25.090  1.00  0.00     0.059 A 
ATOM     88  C   UNL A   1      42.793  23.319  27.109  1.00  0.00     0.059 A 
ATOM     89  F   UNL A   1      41.923  24.775  28.693  1.00  0.00    -0.206 F 
ATOM     90  C   UNL A   1      43.482  23.090  25.925  1.00  0.00     0.060 A 
BRANCH  90  91
ATOM     91  S   UNL A   1      44.062  21.424  25.518  1.00  0.00     0.124 S 
ATOM     92  O   UNL A   1      45.405  21.422  26.088  1.00  0.00    -0.237 OA
ATOM     93  O   UNL A   1      43.081  20.584  26.195  1.00  0.00    -0.237 OA
ATOM     94  O   UNL A   1      44.004  21.392  24.059  1.00  0.00    -0.744 OA
ENDBRANCH  90  91
ENDBRANCH  58  83
BRANCH  70  95
ATOM     95  C   UNL A   1      45.302  31.439  28.417  1.00  0.00     0.058 A 
ATOM     96  C   UNL A   1      44.411  31.981  27.478  1.00  0.00     0.135 A 
ATOM     97  C   UNL A   1      46.621  31.923  28.420  1.00  0.00     0.135 A 
ATOM     98  F   UNL A   1      43.121  31.613  27.461  1.00  0.00    -0.206 F 
ATOM     99  C   UNL A   1      44.822  32.966  26.577  1.00  0.00     0.059 A 
ATOM    100  C   UNL A   1      47.041  32.922  27.557  1.00  0.00     0.059 A 
ATOM    101  F   UNL A   1      47.502  31.464  29.324  1.00  0.00    -0.206 F 
ATOM    102  C   UNL A   1      46.138  33.438  26.633  1.00  0.00     0.060 A 
BRANCH 102 103
ATOM    103  S   UNL A   1      46.652  34.779  25.538  1.00  0.00     0.124 S 
ATOM    104  O   UNL A   1      48.071  34.499  25.355  1.00  0.00    -0.237 OA
ATOM    105  O   UNL A   1      45.805  34.569  24.367  1.00  0.00    -0.237 OA
ATOM    106  O   UNL A   1      46.348  35.984  26.306  1.00  0.00    -0.744 OA
ENDBRANCH 102 103
ENDBRANCH  70  95
ENDBRANCH  44  45
ENDBRANCH  37  39
ENDBRANCH  36  37
ENDBRANCH  35  36
ENDBRANCH  34  35
ENDBRANCH  33  34
ENDBRANCH  32  33
ENDBRANCH   1  32
TORSDOF 25
ENDMDL
