MODEL 1
REMARK VINA RESULT:     -11.1      0.000      0.000
REMARK SMILES COc1cc2c(cc1OC)[C@H](C(=O)OCCOCCOCCOC(=O)c1ccc(-c3c4nc(c(-c5c(F)cc(S(=O)(=O)[O-])cc5F)c5ccc([nH]5)c(-c5c(F)cc(S(=O)(=O)[O-])cc5F)c5nc(c(-c6c(F)cc(S(=O)(=O)[O-])cc6F)c6ccc3[nH]6)C=C5)C=C4)cc1)[C@H](c1cccc(Cl)c1)N(C)C2=O
REMARK SMILES IDX 19 1 18 2 17 3 16 4 15 5 14 6 12 7 13 8 11 9 3 10 4 11 8 12
REMARK SMILES IDX 5 13 7 14 6 15 102 16 100 17 103 18 92 19 101 20 2 21 1 22
REMARK SMILES IDX 9 23 10 24 93 25 94 26 99 27 95 28 97 29 96 30 98 31 20 32
REMARK SMILES IDX 21 33 22 34 23 35 24 36 25 37 26 38 27 39 91 40 28 41 90 42
REMARK SMILES IDX 29 43 30 44 31 45 84 46 32 47 89 48 83 49 85 50 33 51 88 52
REMARK SMILES IDX 82 53 81 54 34 56 68 57 47 58 67 59 48 60 51 61 66 62 86 63
REMARK SMILES IDX 49 64 50 65 65 67 87 68 52 69 35 70 36 71 45 72 37 73 38 74
REMARK SMILES IDX 44 75 46 76 39 77 40 78 41 79 42 80 43 81 69 82 70 83 79 84
REMARK SMILES IDX 71 85 72 86 78 87 80 88 73 89 74 90 75 91 76 92 77 93 53 94
REMARK SMILES IDX 54 95 63 96 55 97 56 98 62 99 64 100 57 101 58 102 59 103
REMARK SMILES IDX 60 104 61 105
REMARK H PARENT 85 55 51 66
REMARK Flexibility Score: inf
ROOT
ATOM      1  C   UNL A   1      41.334  21.503  26.112  1.00  0.00     0.188 C 
ENDROOT
BRANCH   1   2
ATOM      2  C   UNL A   1      39.834  21.711  26.420  1.00  0.00     0.188 C 
BRANCH   2   3
ATOM      3  O   UNL A   1      38.962  20.844  25.718  1.00  0.00    -0.376 OA
BRANCH   3   4
ATOM      4  C   UNL A   1      37.759  21.416  25.221  1.00  0.00     0.202 C 
BRANCH   4   5
ATOM      5  C   UNL A   1      37.551  22.899  25.549  1.00  0.00     0.261 C 
BRANCH   5   6
ATOM      6  O   UNL A   1      37.077  23.682  24.441  1.00  0.00    -0.463 OA
BRANCH   6   7
ATOM      7  C   UNL A   1      35.799  23.454  24.029  1.00  0.00     0.316 C 
ATOM      8  O   UNL A   1      35.516  23.110  22.893  1.00  0.00    -0.251 OA
BRANCH   7   9
ATOM      9  C   UNL A   1      34.822  23.771  25.163  1.00  0.00     0.157 C 
ATOM     10  C   UNL A   1      31.620  26.127  23.562  1.00  0.00     0.161 A 
ATOM     11  C   UNL A   1      31.432  25.393  24.746  1.00  0.00     0.064 A 
ATOM     12  C   UNL A   1      32.904  26.255  23.017  1.00  0.00     0.161 A 
ATOM     13  C   UNL A   1      32.502  24.711  25.331  1.00  0.00     0.048 A 
ATOM     14  C   UNL A   1      33.956  25.570  23.614  1.00  0.00     0.056 A 
ATOM     15  C   UNL A   1      33.740  24.707  24.693  1.00  0.00    -0.015 A 
ATOM     16  C   UNL A   1      32.342  24.006  26.637  1.00  0.00     0.254 C 
ATOM     17  N   UNL A   1      33.290  23.024  26.940  1.00  0.00    -0.333 N 
ATOM     18  O   UNL A   1      31.418  24.315  27.381  1.00  0.00    -0.269 OA
ATOM     19  C   UNL A   1      34.208  22.525  25.887  1.00  0.00     0.134 C 
ATOM     20  C   UNL A   1      33.163  22.290  28.192  1.00  0.00     0.147 C 
BRANCH  10  21
ATOM     21  O   UNL A   1      30.557  26.654  22.881  1.00  0.00    -0.493 OA
ATOM     22  C   UNL A   1      29.320  26.565  23.572  1.00  0.00     0.278 C 
ENDBRANCH  10  21
BRANCH  12  23
ATOM     23  O   UNL A   1      33.327  26.985  21.944  1.00  0.00    -0.493 OA
ATOM     24  C   UNL A   1      34.016  28.197  22.189  1.00  0.00     0.278 C 
ENDBRANCH  12  23
BRANCH  19  25
ATOM     25  C   UNL A   1      33.547  21.444  25.017  1.00  0.00    -0.023 A 
ATOM     26  C   UNL A   1      33.510  20.105  25.443  1.00  0.00     0.006 A 
ATOM     27  C   UNL A   1      32.939  21.727  23.779  1.00  0.00     0.026 A 
ATOM     28  C   UNL A   1      33.015  19.083  24.626  1.00  0.00     0.002 A 
ATOM     29  C   UNL A   1      32.417  20.710  22.974  1.00  0.00     0.041 A 
ATOM     30  C   UNL A   1      32.481  19.384  23.380  1.00  0.00     0.020 A 
ATOM     31  Cl  UNL A   1      31.695  21.109  21.466  1.00  0.00    -0.084 Cl
ENDBRANCH  19  25
ENDBRANCH   7   9
ENDBRANCH   6   7
ENDBRANCH   5   6
ENDBRANCH   4   5
ENDBRANCH   3   4
ENDBRANCH   2   3
ENDBRANCH   1   2
BRANCH   1  32
ATOM     32  O   UNL A   1      42.039  20.444  26.739  1.00  0.00    -0.376 OA
BRANCH  32  33
ATOM     33  C   UNL A   1      42.022  19.167  26.118  1.00  0.00     0.202 C 
BRANCH  33  34
ATOM     34  C   UNL A   1      43.346  18.548  25.630  1.00  0.00     0.261 C 
BRANCH  34  35
ATOM     35  O   UNL A   1      43.824  18.973  24.336  1.00  0.00    -0.460 OA
BRANCH  35  36
ATOM     36  C   UNL A   1      45.031  19.591  24.310  1.00  0.00     0.338 C 
ATOM     37  O   UNL A   1      46.064  19.152  23.813  1.00  0.00    -0.246 OA
BRANCH  36  38
ATOM     38  C   UNL A   1      44.923  20.987  24.799  1.00  0.00     0.060 A 
ATOM     39  C   UNL A   1      44.518  21.994  23.906  1.00  0.00     0.016 A 
ATOM     40  C   UNL A   1      45.289  21.325  26.101  1.00  0.00     0.016 A 
ATOM     41  C   UNL A   1      44.494  23.334  24.305  1.00  0.00     0.010 A 
ATOM     42  C   UNL A   1      45.294  22.674  26.490  1.00  0.00     0.010 A 
ATOM     43  C   UNL A   1      44.921  23.691  25.589  1.00  0.00    -0.014 A 
BRANCH  43  44
ATOM     44  C   UNL A   1      45.139  25.121  25.945  1.00  0.00     0.031 A 
ATOM     45  C   UNL A   1      46.532  25.687  25.854  1.00  0.00     0.074 A 
ATOM     46  C   UNL A   1      44.127  25.911  26.350  1.00  0.00     0.049 A 
ATOM     47  N   UNL A   1      46.978  26.859  26.226  1.00  0.00    -0.248 NA
ATOM     48  C   UNL A   1      47.558  24.813  25.265  1.00  0.00     0.031 C 
ATOM     49  C   UNL A   1      42.725  25.512  26.429  1.00  0.00     0.029 A 
ATOM     50  N   UNL A   1      44.131  27.213  26.795  1.00  0.00    -0.354 N 
ATOM     51  C   UNL A   1      48.337  26.858  25.934  1.00  0.00     0.074 A 
ATOM     52  C   UNL A   1      48.645  25.562  25.369  1.00  0.00     0.031 C 
ATOM     53  C   UNL A   1      42.009  26.538  26.924  1.00  0.00     0.029 A 
ATOM     54  C   UNL A   1      42.902  27.651  27.232  1.00  0.00     0.049 A 
ATOM     55  H   UNL A   1      44.937  27.778  26.800  1.00  0.00     0.167 HD
ATOM     56  C   UNL A   1      49.247  27.845  26.121  1.00  0.00     0.037 A 
ATOM     57  C   UNL A   1      42.542  28.798  27.845  1.00  0.00     0.037 A 
ATOM     58  C   UNL A   1      48.938  29.136  26.683  1.00  0.00     0.049 A 
ATOM     59  C   UNL A   1      43.587  29.853  28.121  1.00  0.00     0.074 A 
ATOM     60  C   UNL A   1      49.790  30.206  26.892  1.00  0.00     0.029 A 
ATOM     61  N   UNL A   1      47.688  29.529  27.135  1.00  0.00    -0.354 N 
ATOM     62  N   UNL A   1      44.866  29.843  27.829  1.00  0.00    -0.248 NA
ATOM     63  C   UNL A   1      43.143  31.071  28.816  1.00  0.00     0.031 C 
ATOM     64  C   UNL A   1      49.071  31.223  27.528  1.00  0.00     0.029 A 
ATOM     65  C   UNL A   1      47.754  30.812  27.654  1.00  0.00     0.049 A 
ATOM     66  H   UNL A   1      46.873  28.977  27.094  1.00  0.00     0.167 HD
ATOM     67  C   UNL A   1      45.369  31.062  28.276  1.00  0.00     0.074 A 
ATOM     68  C   UNL A   1      44.257  31.789  28.849  1.00  0.00     0.031 C 
ATOM     69  C   UNL A   1      46.639  31.535  28.215  1.00  0.00     0.037 A 
BRANCH  56  70
ATOM     70  C   UNL A   1      50.676  27.563  25.746  1.00  0.00     0.058 A 
ATOM     71  C   UNL A   1      51.623  27.138  26.691  1.00  0.00     0.135 A 
ATOM     72  C   UNL A   1      51.090  27.668  24.408  1.00  0.00     0.135 A 
ATOM     73  F   UNL A   1      51.287  27.037  27.988  1.00  0.00    -0.206 F 
ATOM     74  C   UNL A   1      52.935  26.850  26.328  1.00  0.00     0.059 A 
ATOM     75  C   UNL A   1      52.389  27.357  24.016  1.00  0.00     0.059 A 
ATOM     76  F   UNL A   1      50.226  28.072  23.463  1.00  0.00    -0.206 F 
ATOM     77  C   UNL A   1      53.307  26.959  24.985  1.00  0.00     0.060 A 
BRANCH  77  78
ATOM     78  S   UNL A   1      55.008  26.566  24.529  1.00  0.00     0.124 S 
ATOM     79  O   UNL A   1      54.985  26.797  23.088  1.00  0.00    -0.237 OA
ATOM     80  O   UNL A   1      55.772  27.530  25.315  1.00  0.00    -0.237 OA
ATOM     81  O   UNL A   1      55.157  25.172  24.936  1.00  0.00    -0.744 OA
ENDBRANCH  77  78
ENDBRANCH  56  70
BRANCH  57  82
ATOM     82  C   UNL A   1      41.131  29.004  28.284  1.00  0.00     0.058 A 
ATOM     83  C   UNL A   1      40.114  29.292  27.362  1.00  0.00     0.135 A 
ATOM     84  C   UNL A   1      40.780  28.942  29.642  1.00  0.00     0.135 A 
ATOM     85  F   UNL A   1      40.400  29.385  26.055  1.00  0.00    -0.206 F 
ATOM     86  C   UNL A   1      38.804  29.528  27.771  1.00  0.00     0.059 A 
ATOM     87  C   UNL A   1      39.472  29.144  30.072  1.00  0.00     0.059 A 
ATOM     88  F   UNL A   1      41.711  28.664  30.567  1.00  0.00    -0.206 F 
ATOM     89  C   UNL A   1      38.492  29.450  29.129  1.00  0.00     0.060 A 
BRANCH  89  90
ATOM     90  S   UNL A   1      36.785  29.725  29.649  1.00  0.00     0.124 S 
ATOM     91  O   UNL A   1      36.721  28.947  30.880  1.00  0.00    -0.237 OA
ATOM     92  O   UNL A   1      36.743  31.175  29.806  1.00  0.00    -0.237 OA
ATOM     93  O   UNL A   1      36.006  29.201  28.530  1.00  0.00    -0.744 OA
ENDBRANCH  89  90
ENDBRANCH  57  82
BRANCH  69  94
ATOM     94  C   UNL A   1      46.902  32.922  28.745  1.00  0.00     0.058 A 
ATOM     95  C   UNL A   1      46.765  34.062  27.937  1.00  0.00     0.135 A 
ATOM     96  C   UNL A   1      47.221  33.116  30.099  1.00  0.00     0.135 A 
ATOM     97  F   UNL A   1      46.468  33.935  26.634  1.00  0.00    -0.206 F 
ATOM     98  C   UNL A   1      46.953  35.343  28.449  1.00  0.00     0.059 A 
ATOM     99  C   UNL A   1      47.382  34.389  30.639  1.00  0.00     0.059 A 
ATOM    100  F   UNL A   1      47.353  32.063  30.921  1.00  0.00    -0.206 F 
ATOM    101  C   UNL A   1      47.255  35.497  29.803  1.00  0.00     0.060 A 
BRANCH 101 102
ATOM    102  S   UNL A   1      47.446  37.166  30.463  1.00  0.00     0.124 S 
ATOM    103  O   UNL A   1      48.895  37.335  30.428  1.00  0.00    -0.237 OA
ATOM    104  O   UNL A   1      46.691  37.968  29.504  1.00  0.00    -0.237 OA
ATOM    105  O   UNL A   1      46.857  37.077  31.796  1.00  0.00    -0.744 OA
ENDBRANCH 101 102
ENDBRANCH  69  94
ENDBRANCH  43  44
ENDBRANCH  36  38
ENDBRANCH  35  36
ENDBRANCH  34  35
ENDBRANCH  33  34
ENDBRANCH  32  33
ENDBRANCH   1  32
TORSDOF 23
ENDMDL
MODEL 2
REMARK VINA RESULT:     -10.6      0.823      7.812
REMARK SMILES COc1cc2c(cc1OC)[C@H](C(=O)OCCOCCOCCOC(=O)c1ccc(-c3c4nc(c(-c5c(F)cc(S(=O)(=O)[O-])cc5F)c5ccc([nH]5)c(-c5c(F)cc(S(=O)(=O)[O-])cc5F)c5nc(c(-c6c(F)cc(S(=O)(=O)[O-])cc6F)c6ccc3[nH]6)C=C5)C=C4)cc1)[C@H](c1cccc(Cl)c1)N(C)C2=O
REMARK SMILES IDX 19 1 18 2 17 3 16 4 15 5 14 6 12 7 13 8 11 9 3 10 4 11 8 12
REMARK SMILES IDX 5 13 7 14 6 15 102 16 100 17 103 18 92 19 101 20 2 21 1 22
REMARK SMILES IDX 9 23 10 24 93 25 94 26 99 27 95 28 97 29 96 30 98 31 20 32
REMARK SMILES IDX 21 33 22 34 23 35 24 36 25 37 26 38 27 39 91 40 28 41 90 42
REMARK SMILES IDX 29 43 30 44 31 45 84 46 32 47 89 48 83 49 85 50 33 51 88 52
REMARK SMILES IDX 82 53 81 54 34 56 68 57 47 58 67 59 48 60 51 61 66 62 86 63
REMARK SMILES IDX 49 64 50 65 65 67 87 68 52 69 35 70 36 71 45 72 37 73 38 74
REMARK SMILES IDX 44 75 46 76 39 77 40 78 41 79 42 80 43 81 69 82 70 83 79 84
REMARK SMILES IDX 71 85 72 86 78 87 80 88 73 89 74 90 75 91 76 92 77 93 53 94
REMARK SMILES IDX 54 95 63 96 55 97 56 98 62 99 64 100 57 101 58 102 59 103
REMARK SMILES IDX 60 104 61 105
REMARK H PARENT 85 55 51 66
REMARK Flexibility Score: inf
ROOT
ATOM      1  C   UNL A   1      41.553  21.243  27.051  1.00  0.00     0.188 C 
ENDROOT
BRANCH   1   2
ATOM      2  C   UNL A   1      40.362  21.066  26.082  1.00  0.00     0.188 C 
BRANCH   2   3
ATOM      3  O   UNL A   1      39.422  22.125  26.103  1.00  0.00    -0.376 OA
BRANCH   3   4
ATOM      4  C   UNL A   1      38.057  21.769  25.926  1.00  0.00     0.202 C 
BRANCH   4   5
ATOM      5  C   UNL A   1      37.445  22.158  24.575  1.00  0.00     0.261 C 
BRANCH   5   6
ATOM      6  O   UNL A   1      36.954  23.508  24.523  1.00  0.00    -0.463 OA
BRANCH   6   7
ATOM      7  C   UNL A   1      35.707  23.689  24.005  1.00  0.00     0.316 C 
ATOM      8  O   UNL A   1      35.482  23.727  22.806  1.00  0.00    -0.251 OA
BRANCH   7   9
ATOM      9  C   UNL A   1      34.700  23.907  25.136  1.00  0.00     0.157 C 
ATOM     10  C   UNL A   1      31.502  26.336  23.638  1.00  0.00     0.161 A 
ATOM     11  C   UNL A   1      31.297  25.512  24.760  1.00  0.00     0.064 A 
ATOM     12  C   UNL A   1      32.796  26.520  23.136  1.00  0.00     0.161 A 
ATOM     13  C   UNL A   1      32.363  24.802  25.317  1.00  0.00     0.048 A 
ATOM     14  C   UNL A   1      33.844  25.806  23.705  1.00  0.00     0.056 A 
ATOM     15  C   UNL A   1      33.616  24.861  24.710  1.00  0.00    -0.015 A 
ATOM     16  C   UNL A   1      32.183  23.999  26.562  1.00  0.00     0.254 C 
ATOM     17  N   UNL A   1      33.138  23.009  26.815  1.00  0.00    -0.333 N 
ATOM     18  O   UNL A   1      31.238  24.240  27.305  1.00  0.00    -0.269 OA
ATOM     19  C   UNL A   1      34.088  22.602  25.749  1.00  0.00     0.134 C 
ATOM     20  C   UNL A   1      32.993  22.182  28.005  1.00  0.00     0.147 C 
BRANCH  10  21
ATOM     21  O   UNL A   1      30.448  26.899  22.974  1.00  0.00    -0.493 OA
ATOM     22  C   UNL A   1      29.231  26.904  23.706  1.00  0.00     0.278 C 
ENDBRANCH  10  21
BRANCH  12  23
ATOM     23  O   UNL A   1      33.233  27.334  22.130  1.00  0.00    -0.493 OA
ATOM     24  C   UNL A   1      33.938  28.511  22.481  1.00  0.00     0.278 C 
ENDBRANCH  12  23
BRANCH  19  25
ATOM     25  C   UNL A   1      33.462  21.581  24.785  1.00  0.00    -0.023 A 
ATOM     26  C   UNL A   1      32.810  22.008  23.615  1.00  0.00     0.006 A 
ATOM     27  C   UNL A   1      33.517  20.193  25.004  1.00  0.00     0.026 A 
ATOM     28  C   UNL A   1      32.136  21.113  22.777  1.00  0.00     0.002 A 
ATOM     29  C   UNL A   1      32.870  19.294  24.150  1.00  0.00     0.041 A 
ATOM     30  C   UNL A   1      32.152  19.753  23.054  1.00  0.00     0.020 A 
ATOM     31  Cl  UNL A   1      32.960  17.607  24.469  1.00  0.00    -0.084 Cl
ENDBRANCH  19  25
ENDBRANCH   7   9
ENDBRANCH   6   7
ENDBRANCH   5   6
ENDBRANCH   4   5
ENDBRANCH   3   4
ENDBRANCH   2   3
ENDBRANCH   1   2
BRANCH   1  32
ATOM     32  O   UNL A   1      42.348  20.121  27.397  1.00  0.00    -0.376 OA
BRANCH  32  33
ATOM     33  C   UNL A   1      42.224  18.943  26.613  1.00  0.00     0.202 C 
BRANCH  33  34
ATOM     34  C   UNL A   1      43.356  18.565  25.639  1.00  0.00     0.261 C 
BRANCH  34  35
ATOM     35  O   UNL A   1      43.537  19.420  24.489  1.00  0.00    -0.460 OA
BRANCH  35  36
ATOM     36  C   UNL A   1      44.765  19.974  24.334  1.00  0.00     0.338 C 
ATOM     37  O   UNL A   1      45.691  19.521  23.666  1.00  0.00    -0.246 OA
BRANCH  36  38
ATOM     38  C   UNL A   1      44.814  21.331  24.930  1.00  0.00     0.060 A 
ATOM     39  C   UNL A   1      44.570  22.446  24.110  1.00  0.00     0.016 A 
ATOM     40  C   UNL A   1      45.172  21.520  26.265  1.00  0.00     0.016 A 
ATOM     41  C   UNL A   1      44.698  23.745  24.614  1.00  0.00     0.010 A 
ATOM     42  C   UNL A   1      45.330  22.824  26.760  1.00  0.00     0.010 A 
ATOM     43  C   UNL A   1      45.119  23.946  25.933  1.00  0.00    -0.014 A 
BRANCH  43  44
ATOM     44  C   UNL A   1      45.500  25.306  26.407  1.00  0.00     0.031 A 
ATOM     45  C   UNL A   1      44.422  26.222  26.924  1.00  0.00     0.074 A 
ATOM     46  C   UNL A   1      46.776  25.734  26.377  1.00  0.00     0.049 A 
ATOM     47  N   UNL A   1      44.497  27.481  27.271  1.00  0.00    -0.248 NA
ATOM     48  C   UNL A   1      43.079  25.639  27.066  1.00  0.00     0.031 C 
ATOM     49  C   UNL A   1      47.924  24.935  25.958  1.00  0.00     0.029 A 
ATOM     50  N   UNL A   1      47.316  26.961  26.686  1.00  0.00    -0.354 N 
ATOM     51  C   UNL A   1      43.213  27.847  27.655  1.00  0.00     0.074 A 
ATOM     52  C   UNL A   1      42.374  26.681  27.483  1.00  0.00     0.031 C 
ATOM     53  C   UNL A   1      49.028  25.702  26.007  1.00  0.00     0.029 A 
ATOM     54  C   UNL A   1      48.663  27.054  26.423  1.00  0.00     0.049 A 
ATOM     55  H   UNL A   1      46.788  27.703  27.061  1.00  0.00     0.167 HD
ATOM     56  C   UNL A   1      42.771  29.045  28.109  1.00  0.00     0.037 A 
ATOM     57  C   UNL A   1      49.500  28.111  26.472  1.00  0.00     0.037 A 
ATOM     58  C   UNL A   1      43.608  30.205  28.282  1.00  0.00     0.049 A 
ATOM     59  C   UNL A   1      48.970  29.459  26.899  1.00  0.00     0.074 A 
ATOM     60  C   UNL A   1      43.253  31.457  28.755  1.00  0.00     0.029 A 
ATOM     61  N   UNL A   1      44.960  30.264  27.979  1.00  0.00    -0.354 N 
ATOM     62  N   UNL A   1      47.756  29.787  27.271  1.00  0.00    -0.248 NA
ATOM     63  C   UNL A   1      49.921  30.581  26.907  1.00  0.00     0.031 C 
ATOM     64  C   UNL A   1      44.374  32.289  28.679  1.00  0.00     0.029 A 
ATOM     65  C   UNL A   1      45.445  31.539  28.222  1.00  0.00     0.049 A 
ATOM     66  H   UNL A   1      45.496  29.510  27.641  1.00  0.00     0.167 HD
ATOM     67  C   UNL A   1      47.806  31.143  27.586  1.00  0.00     0.074 A 
ATOM     68  C   UNL A   1      49.171  31.572  27.370  1.00  0.00     0.031 C 
ATOM     69  C   UNL A   1      46.810  31.957  28.015  1.00  0.00     0.037 A 
BRANCH  56  70
ATOM     70  C   UNL A   1      41.306  29.180  28.423  1.00  0.00     0.058 A 
ATOM     71  C   UNL A   1      40.830  29.252  29.741  1.00  0.00     0.135 A 
ATOM     72  C   UNL A   1      40.368  29.292  27.383  1.00  0.00     0.135 A 
ATOM     73  F   UNL A   1      41.680  29.133  30.774  1.00  0.00    -0.206 F 
ATOM     74  C   UNL A   1      39.475  29.408  30.018  1.00  0.00     0.059 A 
ATOM     75  C   UNL A   1      39.012  29.478  27.635  1.00  0.00     0.059 A 
ATOM     76  F   UNL A   1      40.767  29.227  26.102  1.00  0.00    -0.206 F 
ATOM     77  C   UNL A   1      38.574  29.524  28.957  1.00  0.00     0.060 A 
BRANCH  77  78
ATOM     78  S   UNL A   1      36.823  29.742  29.335  1.00  0.00     0.124 S 
ATOM     79  O   UNL A   1      36.697  28.989  30.579  1.00  0.00    -0.237 OA
ATOM     80  O   UNL A   1      36.709  31.191  29.457  1.00  0.00    -0.237 OA
ATOM     81  O   UNL A   1      36.150  29.157  28.179  1.00  0.00    -0.744 OA
ENDBRANCH  77  78
ENDBRANCH  56  70
BRANCH  57  82
ATOM     82  C   UNL A   1      50.927  27.958  26.065  1.00  0.00     0.058 A 
ATOM     83  C   UNL A   1      51.318  28.050  24.721  1.00  0.00     0.135 A 
ATOM     84  C   UNL A   1      51.926  27.691  27.016  1.00  0.00     0.135 A 
ATOM     85  F   UNL A   1      50.400  28.281  23.771  1.00  0.00    -0.206 F 
ATOM     86  C   UNL A   1      52.642  27.866  24.331  1.00  0.00     0.059 A 
ATOM     87  C   UNL A   1      53.260  27.533  26.654  1.00  0.00     0.059 A 
ATOM     88  F   UNL A   1      51.611  27.599  28.317  1.00  0.00    -0.206 F 
ATOM     89  C   UNL A   1      53.607  27.610  25.306  1.00  0.00     0.060 A 
BRANCH  89  90
ATOM     90  S   UNL A   1      55.327  27.404  24.796  1.00  0.00     0.124 S 
ATOM     91  O   UNL A   1      55.900  26.731  25.955  1.00  0.00    -0.237 OA
ATOM     92  O   UNL A   1      55.193  26.595  23.589  1.00  0.00    -0.237 OA
ATOM     93  O   UNL A   1      55.777  28.776  24.575  1.00  0.00    -0.744 OA
ENDBRANCH  89  90
ENDBRANCH  57  82
BRANCH  69  94
ATOM     94  C   UNL A   1      47.155  33.392  28.324  1.00  0.00     0.058 A 
ATOM     95  C   UNL A   1      47.632  33.785  29.584  1.00  0.00     0.135 A 
ATOM     96  C   UNL A   1      47.076  34.373  27.320  1.00  0.00     0.135 A 
ATOM     97  F   UNL A   1      47.722  32.891  30.581  1.00  0.00    -0.206 F 
ATOM     98  C   UNL A   1      48.003  35.101  29.843  1.00  0.00     0.059 A 
ATOM     99  C   UNL A   1      47.471  35.688  27.549  1.00  0.00     0.059 A 
ATOM    100  F   UNL A   1      46.637  34.052  26.093  1.00  0.00    -0.206 F 
ATOM    101  C   UNL A   1      47.926  36.045  28.817  1.00  0.00     0.060 A 
BRANCH 101 102
ATOM    102  S   UNL A   1      48.458  37.737  29.154  1.00  0.00     0.124 S 
ATOM    103  O   UNL A   1      48.870  37.645  30.552  1.00  0.00    -0.237 OA
ATOM    104  O   UNL A   1      49.536  37.923  28.187  1.00  0.00    -0.237 OA
ATOM    105  O   UNL A   1      47.257  38.529  28.905  1.00  0.00    -0.744 OA
ENDBRANCH 101 102
ENDBRANCH  69  94
ENDBRANCH  43  44
ENDBRANCH  36  38
ENDBRANCH  35  36
ENDBRANCH  34  35
ENDBRANCH  33  34
ENDBRANCH  32  33
ENDBRANCH   1  32
TORSDOF 23
ENDMDL
MODEL 3
REMARK VINA RESULT:     -10.3      2.639      8.858
REMARK SMILES COc1cc2c(cc1OC)[C@H](C(=O)OCCOCCOCCOC(=O)c1ccc(-c3c4nc(c(-c5c(F)cc(S(=O)(=O)[O-])cc5F)c5ccc([nH]5)c(-c5c(F)cc(S(=O)(=O)[O-])cc5F)c5nc(c(-c6c(F)cc(S(=O)(=O)[O-])cc6F)c6ccc3[nH]6)C=C5)C=C4)cc1)[C@H](c1cccc(Cl)c1)N(C)C2=O
REMARK SMILES IDX 19 1 18 2 17 3 16 4 15 5 14 6 12 7 13 8 11 9 3 10 4 11 8 12
REMARK SMILES IDX 5 13 7 14 6 15 102 16 100 17 103 18 92 19 101 20 2 21 1 22
REMARK SMILES IDX 9 23 10 24 93 25 94 26 99 27 95 28 97 29 96 30 98 31 20 32
REMARK SMILES IDX 21 33 22 34 23 35 24 36 25 37 26 38 27 39 91 40 28 41 90 42
REMARK SMILES IDX 29 43 30 44 31 45 84 46 32 47 89 48 83 49 85 50 33 51 88 52
REMARK SMILES IDX 82 53 81 54 34 56 68 57 47 58 67 59 48 60 51 61 66 62 86 63
REMARK SMILES IDX 49 64 50 65 65 67 87 68 52 69 35 70 36 71 45 72 37 73 38 74
REMARK SMILES IDX 44 75 46 76 39 77 40 78 41 79 42 80 43 81 69 82 70 83 79 84
REMARK SMILES IDX 71 85 72 86 78 87 80 88 73 89 74 90 75 91 76 92 77 93 53 94
REMARK SMILES IDX 54 95 63 96 55 97 56 98 62 99 64 100 57 101 58 102 59 103
REMARK SMILES IDX 60 104 61 105
REMARK H PARENT 85 55 51 66
REMARK Flexibility Score: inf
ROOT
ATOM      1  C   UNL A   1      33.837  32.130  27.665  1.00  0.00     0.188 C 
ENDROOT
BRANCH   1   2
ATOM      2  C   UNL A   1      32.676  31.493  26.868  1.00  0.00     0.188 C 
BRANCH   2   3
ATOM      3  O   UNL A   1      32.903  30.156  26.462  1.00  0.00    -0.376 OA
BRANCH   3   4
ATOM      4  C   UNL A   1      31.757  29.395  26.104  1.00  0.00     0.202 C 
BRANCH   4   5
ATOM      5  C   UNL A   1      31.570  28.084  26.876  1.00  0.00     0.261 C 
BRANCH   5   6
ATOM      6  O   UNL A   1      32.799  27.401  27.176  1.00  0.00    -0.463 OA
BRANCH   6   7
ATOM      7  C   UNL A   1      33.339  26.643  26.181  1.00  0.00     0.316 C 
ATOM      8  O   UNL A   1      34.506  26.730  25.835  1.00  0.00    -0.251 OA
BRANCH   7   9
ATOM      9  C   UNL A   1      32.256  25.764  25.551  1.00  0.00     0.157 C 
ATOM     10  C   UNL A   1      32.837  25.753  21.305  1.00  0.00     0.161 A 
ATOM     11  C   UNL A   1      32.131  24.705  21.923  1.00  0.00     0.064 A 
ATOM     12  C   UNL A   1      33.173  26.897  22.039  1.00  0.00     0.161 A 
ATOM     13  C   UNL A   1      31.845  24.758  23.289  1.00  0.00     0.048 A 
ATOM     14  C   UNL A   1      32.879  26.931  23.397  1.00  0.00     0.056 A 
ATOM     15  C   UNL A   1      32.327  25.823  24.048  1.00  0.00    -0.015 A 
ATOM     16  C   UNL A   1      31.016  23.702  23.942  1.00  0.00     0.254 C 
ATOM     17  N   UNL A   1      31.125  23.588  25.331  1.00  0.00    -0.333 N 
ATOM     18  O   UNL A   1      30.280  23.002  23.255  1.00  0.00    -0.269 OA
ATOM     19  C   UNL A   1      32.222  24.280  26.052  1.00  0.00     0.134 C 
ATOM     20  C   UNL A   1      30.354  22.557  26.012  1.00  0.00     0.147 C 
BRANCH  10  21
ATOM     21  O   UNL A   1      33.278  25.643  20.014  1.00  0.00    -0.493 OA
ATOM     22  C   UNL A   1      32.241  25.563  19.048  1.00  0.00     0.278 C 
ENDBRANCH  10  21
BRANCH  12  23
ATOM     23  O   UNL A   1      33.766  28.056  21.627  1.00  0.00    -0.493 OA
ATOM     24  C   UNL A   1      34.245  28.950  22.614  1.00  0.00     0.278 C 
ENDBRANCH  12  23
BRANCH  19  25
ATOM     25  C   UNL A   1      33.532  23.477  26.005  1.00  0.00    -0.023 A 
ATOM     26  C   UNL A   1      33.917  22.671  27.092  1.00  0.00     0.006 A 
ATOM     27  C   UNL A   1      34.395  23.487  24.894  1.00  0.00     0.026 A 
ATOM     28  C   UNL A   1      35.153  22.018  27.125  1.00  0.00     0.002 A 
ATOM     29  C   UNL A   1      35.618  22.810  24.914  1.00  0.00     0.041 A 
ATOM     30  C   UNL A   1      36.014  22.101  26.039  1.00  0.00     0.020 A 
ATOM     31  Cl  UNL A   1      36.639  22.864  23.531  1.00  0.00    -0.084 Cl
ENDBRANCH  19  25
ENDBRANCH   7   9
ENDBRANCH   6   7
ENDBRANCH   5   6
ENDBRANCH   4   5
ENDBRANCH   3   4
ENDBRANCH   2   3
ENDBRANCH   1   2
BRANCH   1  32
ATOM     32  O   UNL A   1      33.655  33.395  28.280  1.00  0.00    -0.376 OA
BRANCH  32  33
ATOM     33  C   UNL A   1      34.429  33.699  29.430  1.00  0.00     0.202 C 
BRANCH  33  34
ATOM     34  C   UNL A   1      34.779  32.573  30.422  1.00  0.00     0.261 C 
BRANCH  34  35
ATOM     35  O   UNL A   1      35.729  31.584  29.973  1.00  0.00    -0.460 OA
BRANCH  35  36
ATOM     36  C   UNL A   1      36.364  30.872  30.938  1.00  0.00     0.338 C 
ATOM     37  O   UNL A   1      35.950  30.652  32.073  1.00  0.00    -0.246 OA
BRANCH  36  38
ATOM     38  C   UNL A   1      37.575  30.208  30.397  1.00  0.00     0.060 A 
ATOM     39  C   UNL A   1      38.451  29.560  31.285  1.00  0.00     0.016 A 
ATOM     40  C   UNL A   1      37.893  30.281  29.042  1.00  0.00     0.016 A 
ATOM     41  C   UNL A   1      39.649  29.002  30.825  1.00  0.00     0.010 A 
ATOM     42  C   UNL A   1      39.110  29.749  28.587  1.00  0.00     0.010 A 
ATOM     43  C   UNL A   1      40.008  29.128  29.478  1.00  0.00    -0.014 A 
BRANCH  43  44
ATOM     44  C   UNL A   1      41.380  28.766  29.024  1.00  0.00     0.031 A 
ATOM     45  C   UNL A   1      42.421  29.851  28.922  1.00  0.00     0.074 A 
ATOM     46  C   UNL A   1      41.707  27.501  28.698  1.00  0.00     0.049 A 
ATOM     47  N   UNL A   1      43.635  29.794  28.438  1.00  0.00    -0.248 NA
ATOM     48  C   UNL A   1      42.038  31.176  29.432  1.00  0.00     0.031 C 
ATOM     49  C   UNL A   1      40.819  26.346  28.804  1.00  0.00     0.029 A 
ATOM     50  N   UNL A   1      42.873  26.981  28.186  1.00  0.00    -0.354 N 
ATOM     51  C   UNL A   1      44.156  31.076  28.569  1.00  0.00     0.074 A 
ATOM     52  C   UNL A   1      43.119  31.893  29.163  1.00  0.00     0.031 C 
ATOM     53  C   UNL A   1      41.463  25.260  28.343  1.00  0.00     0.029 A 
ATOM     54  C   UNL A   1      42.792  25.644  27.874  1.00  0.00     0.049 A 
ATOM     55  H   UNL A   1      43.690  27.515  28.057  1.00  0.00     0.167 HD
ATOM     56  C   UNL A   1      45.385  31.532  28.225  1.00  0.00     0.037 A 
ATOM     57  C   UNL A   1      43.666  24.830  27.247  1.00  0.00     0.037 A 
ATOM     58  C   UNL A   1      46.417  30.718  27.636  1.00  0.00     0.049 A 
ATOM     59  C   UNL A   1      44.999  25.379  26.795  1.00  0.00     0.074 A 
ATOM     60  C   UNL A   1      47.699  31.088  27.272  1.00  0.00     0.029 A 
ATOM     61  N   UNL A   1      46.283  29.376  27.311  1.00  0.00    -0.354 N 
ATOM     62  N   UNL A   1      45.482  26.590  26.936  1.00  0.00    -0.248 NA
ATOM     63  C   UNL A   1      45.902  24.454  26.092  1.00  0.00     0.031 C 
ATOM     64  C   UNL A   1      48.320  29.989  26.671  1.00  0.00     0.029 A 
ATOM     65  C   UNL A   1      47.449  28.914  26.721  1.00  0.00     0.049 A 
ATOM     66  H   UNL A   1      45.479  28.832  27.477  1.00  0.00     0.167 HD
ATOM     67  C   UNL A   1      46.754  26.562  26.369  1.00  0.00     0.074 A 
ATOM     68  C   UNL A   1      46.970  25.213  25.891  1.00  0.00     0.031 C 
ATOM     69  C   UNL A   1      47.661  27.565  26.256  1.00  0.00     0.037 A 
BRANCH  56  70
ATOM     70  C   UNL A   1      45.678  32.992  28.445  1.00  0.00     0.058 A 
ATOM     71  C   UNL A   1      46.307  33.457  29.610  1.00  0.00     0.135 A 
ATOM     72  C   UNL A   1      45.371  33.933  27.448  1.00  0.00     0.135 A 
ATOM     73  F   UNL A   1      46.607  32.604  30.604  1.00  0.00    -0.206 F 
ATOM     74  C   UNL A   1      46.601  34.805  29.789  1.00  0.00     0.059 A 
ATOM     75  C   UNL A   1      45.682  35.281  27.592  1.00  0.00     0.059 A 
ATOM     76  F   UNL A   1      44.766  33.543  26.314  1.00  0.00    -0.206 F 
ATOM     77  C   UNL A   1      46.288  35.709  28.771  1.00  0.00     0.060 A 
BRANCH  77  78
ATOM     78  S   UNL A   1      46.691  37.452  29.014  1.00  0.00     0.124 S 
ATOM     79  O   UNL A   1      47.753  37.369  30.012  1.00  0.00    -0.237 OA
ATOM     80  O   UNL A   1      47.108  37.864  27.677  1.00  0.00    -0.237 OA
ATOM     81  O   UNL A   1      45.436  38.030  29.482  1.00  0.00    -0.744 OA
ENDBRANCH  77  78
ENDBRANCH  56  70
BRANCH  57  82
ATOM     82  C   UNL A   1      43.303  23.411  26.964  1.00  0.00     0.058 A 
ATOM     83  C   UNL A   1      42.997  22.980  25.665  1.00  0.00     0.135 A 
ATOM     84  C   UNL A   1      43.230  22.463  27.998  1.00  0.00     0.135 A 
ATOM     85  F   UNL A   1      43.030  23.850  24.645  1.00  0.00    -0.206 F 
ATOM     86  C   UNL A   1      42.615  21.667  25.402  1.00  0.00     0.059 A 
ATOM     87  C   UNL A   1      42.880  21.138  27.756  1.00  0.00     0.059 A 
ATOM     88  F   UNL A   1      43.518  22.818  29.260  1.00  0.00    -0.206 F 
ATOM     89  C   UNL A   1      42.562  20.752  26.455  1.00  0.00     0.060 A 
BRANCH  89  90
ATOM     90  S   UNL A   1      42.097  19.043  26.102  1.00  0.00     0.124 S 
ATOM     91  O   UNL A   1      42.381  18.391  27.373  1.00  0.00    -0.237 OA
ATOM     92  O   UNL A   1      40.686  19.176  25.752  1.00  0.00    -0.237 OA
ATOM     93  O   UNL A   1      42.977  18.679  24.994  1.00  0.00    -0.744 OA
ENDBRANCH  89  90
ENDBRANCH  57  82
BRANCH  69  94
ATOM     94  C   UNL A   1      48.992  27.245  25.626  1.00  0.00     0.058 A 
ATOM     95  C   UNL A   1      49.203  27.350  24.242  1.00  0.00     0.135 A 
ATOM     96  C   UNL A   1      50.092  26.899  26.430  1.00  0.00     0.135 A 
ATOM     97  F   UNL A   1      48.186  27.671  23.426  1.00  0.00    -0.206 F 
ATOM     98  C   UNL A   1      50.452  27.109  23.676  1.00  0.00     0.059 A 
ATOM     99  C   UNL A   1      51.357  26.683  25.888  1.00  0.00     0.059 A 
ATOM    100  F   UNL A   1      49.952  26.795  27.761  1.00  0.00    -0.206 F 
ATOM    101  C   UNL A   1      51.524  26.782  24.508  1.00  0.00     0.060 A 
BRANCH 101 102
ATOM    102  S   UNL A   1      53.148  26.521  23.763  1.00  0.00     0.124 S 
ATOM    103  O   UNL A   1      52.837  26.596  22.339  1.00  0.00    -0.237 OA
ATOM    104  O   UNL A   1      53.921  27.636  24.303  1.00  0.00    -0.237 OA
ATOM    105  O   UNL A   1      53.539  25.201  24.251  1.00  0.00    -0.744 OA
ENDBRANCH 101 102
ENDBRANCH  69  94
ENDBRANCH  43  44
ENDBRANCH  36  38
ENDBRANCH  35  36
ENDBRANCH  34  35
ENDBRANCH  33  34
ENDBRANCH  32  33
ENDBRANCH   1  32
TORSDOF 23
ENDMDL
