MODEL 1
REMARK VINA RESULT:     -12.1      0.000      0.000
REMARK SMILES Cc1ccc(C(=O)NC2(CC(=O)OCCOCCOCCOC(=O)c3ccc(-c4c5nc(c(-c6c(F)cc(S(=O)(=O)[O-])cc6F)c6ccc([nH]6)c(-c6c(F)cc(S(=O)(=O)[O-])cc6F)c6nc(c(-c7c(F)cc(S(=O)(=O)[O-])cc7F)c7ccc4[nH]7)C=C6)C=C5)cc3)CCC2)cc1
REMARK SMILES IDX 17 1 16 2 15 3 14 4 13 5 11 6 12 7 10 8 9 9 91 10 93 11
REMARK SMILES IDX 92 12 8 13 6 14 7 15 5 17 1 18 2 19 3 20 95 21 4 22 94 23
REMARK SMILES IDX 18 24 19 25 20 26 21 27 22 28 23 29 24 30 25 31 26 32 90 33
REMARK SMILES IDX 27 34 89 35 28 36 29 37 30 38 83 39 31 40 88 41 82 42 84 43
REMARK SMILES IDX 32 44 87 45 81 46 80 47 33 49 67 50 46 51 66 52 47 53 50 54
REMARK SMILES IDX 65 55 85 56 48 57 49 58 64 60 86 61 51 62 34 63 35 64 44 65
REMARK SMILES IDX 36 66 37 67 43 68 45 69 38 70 39 71 40 72 41 73 42 74 68 75
REMARK SMILES IDX 69 76 78 77 70 78 71 79 77 80 79 81 72 82 73 83 74 84 75 85
REMARK SMILES IDX 76 86 52 87 53 88 62 89 54 90 55 91 61 92 63 93 56 94 57 95
REMARK SMILES IDX 58 96 59 97 60 98
REMARK H PARENT 8 16 84 48 50 59
REMARK Flexibility Score: inf
ROOT
ATOM      1  C   UNL A   1      39.190  21.813  26.141  1.00  0.00     0.188 C 
ENDROOT
BRANCH   1   2
ATOM      2  O   UNL A   1      38.207  21.830  25.133  1.00  0.00    -0.376 OA
BRANCH   2   3
ATOM      3  C   UNL A   1      36.865  22.135  25.514  1.00  0.00     0.202 C 
BRANCH   3   4
ATOM      4  C   UNL A   1      36.181  23.691  25.765  1.00  0.00     0.261 C 
BRANCH   4   5
ATOM      5  O   UNL A   1      34.948  24.713  25.025  1.00  0.00    -0.463 OA
BRANCH   5   6
ATOM      6  C   UNL A   1      33.948  25.740  25.093  1.00  0.00     0.308 C 
ATOM      7  O   UNL A   1      33.570  26.475  26.021  1.00  0.00    -0.252 OA
BRANCH   6   8
ATOM      8  C   UNL A   1      33.639  26.331  23.807  1.00  0.00     0.151 C 
BRANCH   8   9
ATOM      9  C   UNL A   1      32.622  25.290  23.435  1.00  0.00     0.051 C 
ATOM     10  C   UNL A   1      33.065  24.461  22.130  1.00  0.00     0.029 C 
ATOM     11  C   UNL A   1      31.614  25.945  22.261  1.00  0.00     0.029 C 
ATOM     12  C   UNL A   1      32.750  25.728  21.262  1.00  0.00     0.005 C 
BRANCH   9  13
ATOM     13  N   UNL A   1      32.111  24.430  25.024  1.00  0.00    -0.346 N 
ATOM     14  C   UNL A   1      31.745  22.752  25.510  1.00  0.00     0.251 C 
ATOM     15  O   UNL A   1      31.037  22.781  26.495  1.00  0.00    -0.269 OA
ATOM     16  H   UNL A   1      32.025  25.061  25.775  1.00  0.00     0.164 HD
BRANCH  14  17
ATOM     17  C   UNL A   1      32.243  20.977  25.022  1.00  0.00     0.039 A 
ATOM     18  C   UNL A   1      33.637  16.910  23.110  1.00  0.00     0.044 C 
ATOM     19  C   UNL A   1      33.358  18.201  23.838  1.00  0.00    -0.051 A 
ATOM     20  C   UNL A   1      33.590  18.680  25.142  1.00  0.00     0.004 A 
ATOM     21  C   UNL A   1      32.721  19.127  23.098  1.00  0.00     0.004 A 
ATOM     22  C   UNL A   1      33.105  20.059  25.687  1.00  0.00     0.014 A 
ATOM     23  C   UNL A   1      32.168  20.310  23.724  1.00  0.00     0.014 A 
ENDBRANCH  14  17
ENDBRANCH   9  13
ENDBRANCH   8   9
ENDBRANCH   6   8
ENDBRANCH   5   6
ENDBRANCH   4   5
ENDBRANCH   3   4
ENDBRANCH   2   3
ENDBRANCH   1   2
BRANCH   1  24
ATOM     24  C   UNL A   1      40.007  20.532  26.112  1.00  0.00     0.188 C 
BRANCH  24  25
ATOM     25  O   UNL A   1      40.674  20.251  27.342  1.00  0.00    -0.376 OA
BRANCH  25  26
ATOM     26  C   UNL A   1      41.768  19.353  27.365  1.00  0.00     0.202 C 
BRANCH  26  27
ATOM     27  C   UNL A   1      42.119  19.230  25.911  1.00  0.00     0.261 C 
BRANCH  27  28
ATOM     28  O   UNL A   1      43.544  19.623  25.843  1.00  0.00    -0.460 OA
BRANCH  28  29
ATOM     29  C   UNL A   1      43.847  20.681  25.027  1.00  0.00     0.338 C 
ATOM     30  O   UNL A   1      44.523  20.546  24.011  1.00  0.00    -0.246 OA
BRANCH  29  31
ATOM     31  C   UNL A   1      43.402  22.079  25.562  1.00  0.00     0.060 A 
ATOM     32  C   UNL A   1      43.553  23.123  24.686  1.00  0.00     0.016 A 
ATOM     33  C   UNL A   1      43.088  22.564  26.850  1.00  0.00     0.016 A 
ATOM     34  C   UNL A   1      43.567  24.523  25.151  1.00  0.00     0.010 A 
ATOM     35  C   UNL A   1      43.148  24.058  27.266  1.00  0.00     0.010 A 
ATOM     36  C   UNL A   1      43.547  25.119  26.415  1.00  0.00    -0.014 A 
BRANCH  36  37
ATOM     37  C   UNL A   1      44.211  26.718  26.789  1.00  0.00     0.031 A 
ATOM     38  C   UNL A   1      43.279  27.820  26.418  1.00  0.00     0.074 A 
ATOM     39  C   UNL A   1      45.418  27.544  26.964  1.00  0.00     0.049 A 
ATOM     40  N   UNL A   1      43.538  29.086  26.579  1.00  0.00    -0.248 NA
ATOM     41  C   UNL A   1      41.901  27.594  26.003  1.00  0.00     0.031 C 
ATOM     42  C   UNL A   1      45.787  28.059  28.316  1.00  0.00     0.029 A 
ATOM     43  N   UNL A   1      46.725  27.724  26.436  1.00  0.00    -0.354 N 
ATOM     44  C   UNL A   1      42.373  29.496  27.153  1.00  0.00     0.074 A 
ATOM     45  C   UNL A   1      41.378  28.763  26.400  1.00  0.00     0.031 C 
ATOM     46  C   UNL A   1      47.125  28.298  28.471  1.00  0.00     0.029 A 
ATOM     47  C   UNL A   1      47.861  27.925  27.258  1.00  0.00     0.049 A 
ATOM     48  H   UNL A   1      46.846  27.710  25.459  1.00  0.00     0.167 HD
ATOM     49  C   UNL A   1      42.429  29.922  28.457  1.00  0.00     0.037 A 
ATOM     50  C   UNL A   1      49.159  28.286  26.882  1.00  0.00     0.037 A 
ATOM     51  C   UNL A   1      43.778  30.360  28.937  1.00  0.00     0.049 A 
ATOM     52  C   UNL A   1      49.052  29.778  26.868  1.00  0.00     0.074 A 
ATOM     53  C   UNL A   1      44.453  30.318  30.155  1.00  0.00     0.029 A 
ATOM     54  N   UNL A   1      44.749  30.844  28.037  1.00  0.00    -0.354 N 
ATOM     55  N   UNL A   1      47.865  30.296  27.007  1.00  0.00    -0.248 NA
ATOM     56  C   UNL A   1      50.079  30.810  26.793  1.00  0.00     0.031 C 
ATOM     57  C   UNL A   1      45.756  30.887  29.994  1.00  0.00     0.029 A 
ATOM     58  C   UNL A   1      45.898  31.285  28.675  1.00  0.00     0.049 A 
ATOM     59  H   UNL A   1      44.624  30.868  27.061  1.00  0.00     0.167 HD
ATOM     60  C   UNL A   1      47.963  31.575  27.378  1.00  0.00     0.074 A 
ATOM     61  C   UNL A   1      49.328  31.919  26.995  1.00  0.00     0.031 C 
ATOM     62  C   UNL A   1      46.890  32.139  27.995  1.00  0.00     0.037 A 
BRANCH  49  63
ATOM     63  C   UNL A   1      41.213  29.777  29.374  1.00  0.00     0.058 A 
ATOM     64  C   UNL A   1      40.655  30.906  30.003  1.00  0.00     0.135 A 
ATOM     65  C   UNL A   1      40.555  28.560  29.694  1.00  0.00     0.135 A 
ATOM     66  F   UNL A   1      41.209  32.120  29.882  1.00  0.00    -0.206 F 
ATOM     67  C   UNL A   1      39.496  30.849  30.781  1.00  0.00     0.059 A 
ATOM     68  C   UNL A   1      39.344  28.491  30.380  1.00  0.00     0.059 A 
ATOM     69  F   UNL A   1      41.079  27.358  29.420  1.00  0.00    -0.206 F 
ATOM     70  C   UNL A   1      38.813  29.648  30.914  1.00  0.00     0.060 A 
BRANCH  70  71
ATOM     71  S   UNL A   1      37.220  29.625  31.746  1.00  0.00     0.124 S 
ATOM     72  O   UNL A   1      37.417  28.573  32.737  1.00  0.00    -0.237 OA
ATOM     73  O   UNL A   1      37.127  30.985  32.265  1.00  0.00    -0.237 OA
ATOM     74  O   UNL A   1      36.283  29.306  30.672  1.00  0.00    -0.744 OA
ENDBRANCH  70  71
ENDBRANCH  49  63
BRANCH  50  75
ATOM     75  C   UNL A   1      50.171  27.442  26.034  1.00  0.00     0.058 A 
ATOM     76  C   UNL A   1      50.089  27.363  24.614  1.00  0.00     0.135 A 
ATOM     77  C   UNL A   1      51.370  26.899  26.526  1.00  0.00     0.135 A 
ATOM     78  F   UNL A   1      48.920  27.638  24.005  1.00  0.00    -0.206 F 
ATOM     79  C   UNL A   1      51.195  27.073  23.752  1.00  0.00     0.059 A 
ATOM     80  C   UNL A   1      52.496  26.600  25.696  1.00  0.00     0.059 A 
ATOM     81  F   UNL A   1      51.521  26.738  27.849  1.00  0.00    -0.206 F 
ATOM     82  C   UNL A   1      52.431  26.756  24.308  1.00  0.00     0.060 A 
BRANCH  82  83
ATOM     83  S   UNL A   1      54.000  26.853  23.305  1.00  0.00     0.124 S 
ATOM     84  O   UNL A   1      54.899  25.985  24.062  1.00  0.00    -0.237 OA
ATOM     85  O   UNL A   1      53.659  26.327  21.981  1.00  0.00    -0.237 OA
ATOM     86  O   UNL A   1      54.350  28.277  23.351  1.00  0.00    -0.744 OA
ENDBRANCH  82  83
ENDBRANCH  50  75
BRANCH  62  87
ATOM     87  C   UNL A   1      46.633  33.591  27.988  1.00  0.00     0.058 A 
ATOM     88  C   UNL A   1      47.209  34.509  28.860  1.00  0.00     0.135 A 
ATOM     89  C   UNL A   1      45.803  34.106  26.963  1.00  0.00     0.135 A 
ATOM     90  F   UNL A   1      47.854  34.116  29.967  1.00  0.00    -0.206 F 
ATOM     91  C   UNL A   1      47.112  35.870  28.622  1.00  0.00     0.059 A 
ATOM     92  C   UNL A   1      45.632  35.449  26.755  1.00  0.00     0.059 A 
ATOM     93  F   UNL A   1      45.159  33.331  26.084  1.00  0.00    -0.206 F 
ATOM     94  C   UNL A   1      46.338  36.323  27.552  1.00  0.00     0.060 A 
BRANCH  94  95
ATOM     95  S   UNL A   1      46.238  38.071  27.210  1.00  0.00     0.124 S 
ATOM     96  O   UNL A   1      44.804  38.256  27.009  1.00  0.00    -0.237 OA
ATOM     97  O   UNL A   1      46.790  38.636  28.437  1.00  0.00    -0.237 OA
ATOM     98  O   UNL A   1      47.061  38.232  26.015  1.00  0.00    -0.744 OA
ENDBRANCH  94  95
ENDBRANCH  62  87
ENDBRANCH  36  37
ENDBRANCH  29  31
ENDBRANCH  28  29
ENDBRANCH  27  28
ENDBRANCH  26  27
ENDBRANCH  25  26
ENDBRANCH  24  25
ENDBRANCH   1  24
TORSDOF 23
ENDMDL
MODEL 2
REMARK VINA RESULT:     -11.7      4.906     13.455
REMARK SMILES Cc1ccc(C(=O)NC2(CC(=O)OCCOCCOCCOC(=O)c3ccc(-c4c5nc(c(-c6c(F)cc(S(=O)(=O)[O-])cc6F)c6ccc([nH]6)c(-c6c(F)cc(S(=O)(=O)[O-])cc6F)c6nc(c(-c7c(F)cc(S(=O)(=O)[O-])cc7F)c7ccc4[nH]7)C=C6)C=C5)cc3)CCC2)cc1
REMARK SMILES IDX 17 1 16 2 15 3 14 4 13 5 11 6 12 7 10 8 9 9 91 10 93 11
REMARK SMILES IDX 92 12 8 13 6 14 7 15 5 17 1 18 2 19 3 20 95 21 4 22 94 23
REMARK SMILES IDX 18 24 19 25 20 26 21 27 22 28 23 29 24 30 25 31 26 32 90 33
REMARK SMILES IDX 27 34 89 35 28 36 29 37 30 38 83 39 31 40 88 41 82 42 84 43
REMARK SMILES IDX 32 44 87 45 81 46 80 47 33 49 67 50 46 51 66 52 47 53 50 54
REMARK SMILES IDX 65 55 85 56 48 57 49 58 64 60 86 61 51 62 34 63 35 64 44 65
REMARK SMILES IDX 36 66 37 67 43 68 45 69 38 70 39 71 40 72 41 73 42 74 68 75
REMARK SMILES IDX 69 76 78 77 70 78 71 79 77 80 79 81 72 82 73 83 74 84 75 85
REMARK SMILES IDX 76 86 52 87 53 88 62 89 54 90 55 91 61 92 63 93 56 94 57 95
REMARK SMILES IDX 58 96 59 97 60 98
REMARK H PARENT 8 16 84 48 50 59
REMARK Flexibility Score: inf
ROOT
ATOM      1  C   UNL A   1      45.856  34.900  36.854  1.00  0.00     0.188 C 
ENDROOT
BRANCH   1   2
ATOM      2  O   UNL A   1      45.305  33.676  37.280  1.00  0.00    -0.376 OA
BRANCH   2   3
ATOM      3  C   UNL A   1      45.172  32.632  36.315  1.00  0.00     0.202 C 
BRANCH   3   4
ATOM      4  C   UNL A   1      43.831  32.330  35.286  1.00  0.00     0.261 C 
BRANCH   4   5
ATOM      5  O   UNL A   1      43.494  31.430  33.806  1.00  0.00    -0.463 OA
BRANCH   5   6
ATOM      6  C   UNL A   1      43.823  31.020  32.471  1.00  0.00     0.308 C 
ATOM      7  O   UNL A   1      44.907  30.931  31.870  1.00  0.00    -0.252 OA
BRANCH   6   8
ATOM      8  C   UNL A   1      42.826  30.158  31.869  1.00  0.00     0.151 C 
BRANCH   8   9
ATOM      9  C   UNL A   1      41.658  30.990  32.317  1.00  0.00     0.051 C 
ATOM     10  C   UNL A   1      40.531  31.102  31.174  1.00  0.00     0.029 C 
ATOM     11  C   UNL A   1      41.895  32.558  31.762  1.00  0.00     0.029 C 
ATOM     12  C   UNL A   1      41.485  32.058  30.377  1.00  0.00     0.005 C 
BRANCH   9  13
ATOM     13  N   UNL A   1      41.241  30.451  34.066  1.00  0.00    -0.346 N 
ATOM     14  C   UNL A   1      41.245  28.908  34.965  1.00  0.00     0.251 C 
ATOM     15  O   UNL A   1      40.474  29.004  35.897  1.00  0.00    -0.269 OA
ATOM     16  H   UNL A   1      40.949  31.206  34.626  1.00  0.00     0.164 HD
BRANCH  14  17
ATOM     17  C   UNL A   1      42.185  27.250  34.961  1.00  0.00     0.039 A 
ATOM     18  C   UNL A   1      43.801  22.833  35.104  1.00  0.00     0.044 C 
ATOM     19  C   UNL A   1      43.324  24.243  34.858  1.00  0.00    -0.051 A 
ATOM     20  C   UNL A   1      43.697  25.283  33.985  1.00  0.00     0.004 A 
ATOM     21  C   UNL A   1      42.317  24.634  35.661  1.00  0.00     0.004 A 
ATOM     22  C   UNL A   1      43.089  26.720  33.996  1.00  0.00     0.014 A 
ATOM     23  C   UNL A   1      41.923  26.027  35.715  1.00  0.00     0.014 A 
ENDBRANCH  14  17
ENDBRANCH   9  13
ENDBRANCH   8   9
ENDBRANCH   6   8
ENDBRANCH   5   6
ENDBRANCH   4   5
ENDBRANCH   3   4
ENDBRANCH   2   3
ENDBRANCH   1   2
BRANCH   1  24
ATOM     24  C   UNL A   1      44.868  35.707  36.026  1.00  0.00     0.188 C 
BRANCH  24  25
ATOM     25  O   UNL A   1      45.337  36.010  34.713  1.00  0.00    -0.376 OA
BRANCH  25  26
ATOM     26  C   UNL A   1      44.817  35.310  33.598  1.00  0.00     0.202 C 
BRANCH  26  27
ATOM     27  C   UNL A   1      44.752  36.376  32.544  1.00  0.00     0.261 C 
BRANCH  27  28
ATOM     28  O   UNL A   1      43.680  35.923  31.630  1.00  0.00    -0.460 OA
BRANCH  28  29
ATOM     29  C   UNL A   1      43.901  36.109  30.290  1.00  0.00     0.338 C 
ATOM     30  O   UNL A   1      43.539  37.126  29.706  1.00  0.00    -0.246 OA
BRANCH  29  31
ATOM     31  C   UNL A   1      44.504  34.878  29.542  1.00  0.00     0.060 A 
ATOM     32  C   UNL A   1      43.731  34.362  28.534  1.00  0.00     0.016 A 
ATOM     33  C   UNL A   1      45.582  34.010  29.824  1.00  0.00     0.016 A 
ATOM     34  C   UNL A   1      43.952  33.000  28.013  1.00  0.00     0.010 A 
ATOM     35  C   UNL A   1      45.729  32.576  29.249  1.00  0.00     0.010 A 
ATOM     36  C   UNL A   1      44.792  31.948  28.391  1.00  0.00    -0.014 A 
BRANCH  36  37
ATOM     37  C   UNL A   1      44.465  30.234  28.088  1.00  0.00     0.031 A 
ATOM     38  C   UNL A   1      45.217  29.712  26.912  1.00  0.00     0.074 A 
ATOM     39  C   UNL A   1      43.511  29.119  28.210  1.00  0.00     0.049 A 
ATOM     40  N   UNL A   1      45.139  28.488  26.475  1.00  0.00    -0.248 NA
ATOM     41  C   UNL A   1      46.262  30.468  26.234  1.00  0.00     0.031 C 
ATOM     42  C   UNL A   1      43.798  27.981  29.134  1.00  0.00     0.029 A 
ATOM     43  N   UNL A   1      42.119  28.837  28.145  1.00  0.00    -0.354 N 
ATOM     44  C   UNL A   1      46.463  28.206  26.319  1.00  0.00     0.074 A 
ATOM     45  C   UNL A   1      46.982  29.438  25.767  1.00  0.00     0.031 C 
ATOM     46  C   UNL A   1      42.678  27.340  29.587  1.00  0.00     0.029 A 
ATOM     47  C   UNL A   1      41.467  27.990  29.075  1.00  0.00     0.049 A 
ATOM     48  H   UNL A   1      41.587  29.245  27.424  1.00  0.00     0.167 HD
ATOM     49  C   UNL A   1      47.004  27.253  27.146  1.00  0.00     0.037 A 
ATOM     50  C   UNL A   1      40.161  27.489  29.034  1.00  0.00     0.037 A 
ATOM     51  C   UNL A   1      46.028  26.296  27.756  1.00  0.00     0.049 A 
ATOM     52  C   UNL A   1      40.352  26.249  28.219  1.00  0.00     0.074 A 
ATOM     53  C   UNL A   1      45.944  25.610  28.967  1.00  0.00     0.029 A 
ATOM     54  N   UNL A   1      44.799  26.010  27.128  1.00  0.00    -0.354 N 
ATOM     55  N   UNL A   1      41.514  26.073  27.658  1.00  0.00    -0.248 NA
ATOM     56  C   UNL A   1      39.465  25.118  27.977  1.00  0.00     0.031 C 
ATOM     57  C   UNL A   1      44.741  24.835  28.989  1.00  0.00     0.029 A 
ATOM     58  C   UNL A   1      44.070  25.035  27.794  1.00  0.00     0.049 A 
ATOM     59  H   UNL A   1      44.491  26.454  26.305  1.00  0.00     0.167 HD
ATOM     60  C   UNL A   1      41.673  24.789  27.325  1.00  0.00     0.074 A 
ATOM     61  C   UNL A   1      40.304  24.288  27.310  1.00  0.00     0.031 C 
ATOM     62  C   UNL A   1      42.942  24.332  27.156  1.00  0.00     0.037 A 
BRANCH  49  63
ATOM     63  C   UNL A   1      48.485  27.308  27.530  1.00  0.00     0.058 A 
ATOM     64  C   UNL A   1      48.872  27.709  28.822  1.00  0.00     0.135 A 
ATOM     65  C   UNL A   1      49.575  26.997  26.675  1.00  0.00     0.135 A 
ATOM     66  F   UNL A   1      47.974  28.124  29.724  1.00  0.00    -0.206 F 
ATOM     67  C   UNL A   1      50.200  27.697  29.256  1.00  0.00     0.059 A 
ATOM     68  C   UNL A   1      50.893  26.879  27.113  1.00  0.00     0.059 A 
ATOM     69  F   UNL A   1      49.441  26.854  25.350  1.00  0.00    -0.206 F 
ATOM     70  C   UNL A   1      51.196  27.222  28.415  1.00  0.00     0.060 A 
BRANCH  70  71
ATOM     71  S   UNL A   1      52.866  27.020  29.049  1.00  0.00     0.124 S 
ATOM     72  O   UNL A   1      53.418  26.032  28.128  1.00  0.00    -0.237 OA
ATOM     73  O   UNL A   1      53.402  28.372  28.935  1.00  0.00    -0.237 OA
ATOM     74  O   UNL A   1      52.654  26.551  30.416  1.00  0.00    -0.744 OA
ENDBRANCH  70  71
ENDBRANCH  49  63
BRANCH  50  75
ATOM     75  C   UNL A   1      38.827  28.305  29.144  1.00  0.00     0.058 A 
ATOM     76  C   UNL A   1      38.029  28.297  30.324  1.00  0.00     0.135 A 
ATOM     77  C   UNL A   1      38.415  29.293  28.233  1.00  0.00     0.135 A 
ATOM     78  F   UNL A   1      38.153  27.279  31.196  1.00  0.00    -0.206 F 
ATOM     79  C   UNL A   1      37.131  29.346  30.703  1.00  0.00     0.059 A 
ATOM     80  C   UNL A   1      37.522  30.355  28.577  1.00  0.00     0.059 A 
ATOM     81  F   UNL A   1      38.950  29.311  27.003  1.00  0.00    -0.206 F 
ATOM     82  C   UNL A   1      36.933  30.422  29.843  1.00  0.00     0.060 A 
BRANCH  82  83
ATOM     83  S   UNL A   1      36.197  32.025  30.447  1.00  0.00     0.124 S 
ATOM     84  O   UNL A   1      36.393  31.925  31.892  1.00  0.00    -0.237 OA
ATOM     85  O   UNL A   1      36.990  33.087  29.824  1.00  0.00    -0.237 OA
ATOM     86  O   UNL A   1      34.797  31.944  30.017  1.00  0.00    -0.744 OA
ENDBRANCH  82  83
ENDBRANCH  50  75
BRANCH  62  87
ATOM     87  C   UNL A   1      43.269  23.165  26.315  1.00  0.00     0.058 A 
ATOM     88  C   UNL A   1      43.913  23.223  25.084  1.00  0.00     0.135 A 
ATOM     89  C   UNL A   1      42.981  21.880  26.834  1.00  0.00     0.135 A 
ATOM     90  F   UNL A   1      44.062  24.380  24.423  1.00  0.00    -0.206 F 
ATOM     91  C   UNL A   1      44.405  22.074  24.487  1.00  0.00     0.059 A 
ATOM     92  C   UNL A   1      43.392  20.726  26.222  1.00  0.00     0.059 A 
ATOM     93  F   UNL A   1      42.332  21.684  27.987  1.00  0.00    -0.206 F 
ATOM     94  C   UNL A   1      44.155  20.836  25.080  1.00  0.00     0.060 A 
BRANCH  94  95
ATOM     95  S   UNL A   1      44.817  19.351  24.342  1.00  0.00     0.124 S 
ATOM     96  O   UNL A   1      44.035  18.313  25.005  1.00  0.00    -0.237 OA
ATOM     97  O   UNL A   1      44.519  19.575  22.931  1.00  0.00    -0.237 OA
ATOM     98  O   UNL A   1      46.231  19.394  24.702  1.00  0.00    -0.744 OA
ENDBRANCH  94  95
ENDBRANCH  62  87
ENDBRANCH  36  37
ENDBRANCH  29  31
ENDBRANCH  28  29
ENDBRANCH  27  28
ENDBRANCH  26  27
ENDBRANCH  25  26
ENDBRANCH  24  25
ENDBRANCH   1  24
TORSDOF 23
ENDMDL
MODEL 3
REMARK VINA RESULT:     -11.5      7.072      9.216
REMARK SMILES Cc1ccc(C(=O)NC2(CC(=O)OCCOCCOCCOC(=O)c3ccc(-c4c5nc(c(-c6c(F)cc(S(=O)(=O)[O-])cc6F)c6ccc([nH]6)c(-c6c(F)cc(S(=O)(=O)[O-])cc6F)c6nc(c(-c7c(F)cc(S(=O)(=O)[O-])cc7F)c7ccc4[nH]7)C=C6)C=C5)cc3)CCC2)cc1
REMARK SMILES IDX 17 1 16 2 15 3 14 4 13 5 11 6 12 7 10 8 9 9 91 10 93 11
REMARK SMILES IDX 92 12 8 13 6 14 7 15 5 17 1 18 2 19 3 20 95 21 4 22 94 23
REMARK SMILES IDX 18 24 19 25 20 26 21 27 22 28 23 29 24 30 25 31 26 32 90 33
REMARK SMILES IDX 27 34 89 35 28 36 29 37 30 38 83 39 31 40 88 41 82 42 84 43
REMARK SMILES IDX 32 44 87 45 81 46 80 47 33 49 67 50 46 51 66 52 47 53 50 54
REMARK SMILES IDX 65 55 85 56 48 57 49 58 64 60 86 61 51 62 34 63 35 64 44 65
REMARK SMILES IDX 36 66 37 67 43 68 45 69 38 70 39 71 40 72 41 73 42 74 68 75
REMARK SMILES IDX 69 76 78 77 70 78 71 79 77 80 79 81 72 82 73 83 74 84 75 85
REMARK SMILES IDX 76 86 52 87 53 88 62 89 54 90 55 91 61 92 63 93 56 94 57 95
REMARK SMILES IDX 58 96 59 97 60 98
REMARK H PARENT 8 16 84 48 50 59
REMARK Flexibility Score: inf
ROOT
ATOM      1  C   UNL A   1      40.183  25.675  28.014  1.00  0.00     0.188 C 
ENDROOT
BRANCH   1   2
ATOM      2  O   UNL A   1      39.038  25.541  27.206  1.00  0.00    -0.376 OA
BRANCH   2   3
ATOM      3  C   UNL A   1      38.593  24.221  26.891  1.00  0.00     0.202 C 
BRANCH   3   4
ATOM      4  C   UNL A   1      37.280  23.778  25.877  1.00  0.00     0.261 C 
BRANCH   4   5
ATOM      5  O   UNL A   1      35.772  22.873  26.010  1.00  0.00    -0.463 OA
BRANCH   5   6
ATOM      6  C   UNL A   1      34.355  22.799  26.225  1.00  0.00     0.308 C 
ATOM      7  O   UNL A   1      33.636  23.157  27.173  1.00  0.00    -0.252 OA
BRANCH   6   8
ATOM      8  C   UNL A   1      33.588  22.714  24.998  1.00  0.00     0.151 C 
BRANCH   8   9
ATOM      9  C   UNL A   1      32.845  21.473  25.403  1.00  0.00     0.051 C 
ATOM     10  C   UNL A   1      33.817  20.395  26.097  1.00  0.00     0.029 C 
ATOM     11  C   UNL A   1      33.022  20.339  24.176  1.00  0.00     0.029 C 
ATOM     12  C   UNL A   1      34.444  20.106  24.689  1.00  0.00     0.005 C 
BRANCH   9  13
ATOM     13  N   UNL A   1      31.248  22.030  26.217  1.00  0.00    -0.346 N 
ATOM     14  C   UNL A   1      30.465  23.598  26.556  1.00  0.00     0.251 C 
ATOM     15  O   UNL A   1      29.696  23.452  27.483  1.00  0.00    -0.269 OA
ATOM     16  H   UNL A   1      30.709  21.270  26.533  1.00  0.00     0.164 HD
BRANCH  14  17
ATOM     17  C   UNL A   1      30.390  25.353  25.816  1.00  0.00     0.039 A 
ATOM     18  C   UNL A   1      30.965  29.737  24.205  1.00  0.00     0.044 C 
ATOM     19  C   UNL A   1      30.765  28.277  24.525  1.00  0.00    -0.051 A 
ATOM     20  C   UNL A   1      30.037  27.220  23.946  1.00  0.00     0.004 A 
ATOM     21  C   UNL A   1      31.407  27.861  25.632  1.00  0.00     0.004 A 
ATOM     22  C   UNL A   1      29.917  25.784  24.542  1.00  0.00     0.014 A 
ATOM     23  C   UNL A   1      31.114  26.562  26.203  1.00  0.00     0.014 A 
ENDBRANCH  14  17
ENDBRANCH   9  13
ENDBRANCH   8   9
ENDBRANCH   6   8
ENDBRANCH   5   6
ENDBRANCH   4   5
ENDBRANCH   3   4
ENDBRANCH   2   3
ENDBRANCH   1   2
BRANCH   1  24
ATOM     24  C   UNL A   1      40.714  27.100  28.011  1.00  0.00     0.188 C 
BRANCH  24  25
ATOM     25  O   UNL A   1      40.118  27.929  27.014  1.00  0.00    -0.376 OA
BRANCH  25  26
ATOM     26  C   UNL A   1      40.937  28.676  26.134  1.00  0.00     0.202 C 
BRANCH  26  27
ATOM     27  C   UNL A   1      42.293  28.553  26.766  1.00  0.00     0.261 C 
BRANCH  27  28
ATOM     28  O   UNL A   1      43.167  28.082  25.669  1.00  0.00    -0.460 OA
BRANCH  28  29
ATOM     29  C   UNL A   1      43.530  26.762  25.702  1.00  0.00     0.338 C 
ATOM     30  O   UNL A   1      43.102  25.949  24.888  1.00  0.00    -0.246 OA
BRANCH  29  31
ATOM     31  C   UNL A   1      44.399  26.344  26.931  1.00  0.00     0.060 A 
ATOM     32  C   UNL A   1      43.813  25.456  27.795  1.00  0.00     0.016 A 
ATOM     33  C   UNL A   1      45.587  26.861  27.493  1.00  0.00     0.016 A 
ATOM     34  C   UNL A   1      44.312  25.277  29.172  1.00  0.00     0.010 A 
ATOM     35  C   UNL A   1      46.031  26.643  28.964  1.00  0.00     0.010 A 
ATOM     36  C   UNL A   1      45.291  25.921  29.933  1.00  0.00    -0.014 A 
BRANCH  36  37
ATOM     37  C   UNL A   1      45.297  26.014  31.702  1.00  0.00     0.031 A 
ATOM     38  C   UNL A   1      45.179  27.415  32.197  1.00  0.00     0.074 A 
ATOM     39  C   UNL A   1      45.733  25.403  32.970  1.00  0.00     0.049 A 
ATOM     40  N   UNL A   1      45.173  27.751  33.455  1.00  0.00    -0.248 NA
ATOM     41  C   UNL A   1      44.874  28.545  31.329  1.00  0.00     0.031 C 
ATOM     42  C   UNL A   1      44.732  24.795  33.895  1.00  0.00     0.029 A 
ATOM     43  N   UNL A   1      46.828  24.705  33.545  1.00  0.00    -0.354 N 
ATOM     44  C   UNL A   1      44.110  28.604  33.468  1.00  0.00     0.074 A 
ATOM     45  C   UNL A   1      44.283  29.338  32.234  1.00  0.00     0.031 C 
ATOM     46  C   UNL A   1      45.245  23.812  34.696  1.00  0.00     0.029 A 
ATOM     47  C   UNL A   1      46.660  23.578  34.387  1.00  0.00     0.049 A 
ATOM     48  H   UNL A   1      47.742  25.017  33.352  1.00  0.00     0.167 HD
ATOM     49  C   UNL A   1      42.999  28.213  34.174  1.00  0.00     0.037 A 
ATOM     50  C   UNL A   1      47.619  22.908  35.153  1.00  0.00     0.037 A 
ATOM     51  C   UNL A   1      43.235  27.179  35.231  1.00  0.00     0.049 A 
ATOM     52  C   UNL A   1      47.590  23.708  36.417  1.00  0.00     0.074 A 
ATOM     53  C   UNL A   1      42.494  26.124  35.762  1.00  0.00     0.029 A 
ATOM     54  N   UNL A   1      44.495  27.041  35.847  1.00  0.00    -0.354 N 
ATOM     55  N   UNL A   1      46.899  24.812  36.413  1.00  0.00    -0.248 NA
ATOM     56  C   UNL A   1      48.161  23.440  37.731  1.00  0.00     0.031 C 
ATOM     57  C   UNL A   1      43.269  25.459  36.764  1.00  0.00     0.029 A 
ATOM     58  C   UNL A   1      44.495  26.096  36.862  1.00  0.00     0.049 A 
ATOM     59  H   UNL A   1      45.289  27.561  35.585  1.00  0.00     0.167 HD
ATOM     60  C   UNL A   1      46.631  25.189  37.666  1.00  0.00     0.074 A 
ATOM     61  C   UNL A   1      47.628  24.463  38.443  1.00  0.00     0.031 C 
ATOM     62  C   UNL A   1      45.576  26.025  37.862  1.00  0.00     0.037 A 
BRANCH  49  63
ATOM     63  C   UNL A   1      41.607  28.695  33.760  1.00  0.00     0.058 A 
ATOM     64  C   UNL A   1      40.795  29.397  34.669  1.00  0.00     0.135 A 
ATOM     65  C   UNL A   1      41.001  28.487  32.492  1.00  0.00     0.135 A 
ATOM     66  F   UNL A   1      41.177  29.598  35.937  1.00  0.00    -0.206 F 
ATOM     67  C   UNL A   1      39.553  29.934  34.323  1.00  0.00     0.059 A 
ATOM     68  C   UNL A   1      39.814  29.099  32.092  1.00  0.00     0.059 A 
ATOM     69  F   UNL A   1      41.486  27.628  31.587  1.00  0.00    -0.206 F 
ATOM     70  C   UNL A   1      39.099  29.834  33.016  1.00  0.00     0.060 A 
BRANCH  70  71
ATOM     71  S   UNL A   1      37.599  30.700  32.532  1.00  0.00     0.124 S 
ATOM     72  O   UNL A   1      37.368  31.562  33.687  1.00  0.00    -0.237 OA
ATOM     73  O   UNL A   1      38.016  31.371  31.305  1.00  0.00    -0.237 OA
ATOM     74  O   UNL A   1      36.630  29.623  32.352  1.00  0.00    -0.744 OA
ENDBRANCH  70  71
ENDBRANCH  49  63
BRANCH  50  75
ATOM     75  C   UNL A   1      48.845  22.083  34.630  1.00  0.00     0.058 A 
ATOM     76  C   UNL A   1      50.143  22.654  34.498  1.00  0.00     0.135 A 
ATOM     77  C   UNL A   1      48.864  20.685  34.481  1.00  0.00     0.135 A 
ATOM     78  F   UNL A   1      50.267  23.991  34.399  1.00  0.00    -0.206 F 
ATOM     79  C   UNL A   1      51.365  21.908  34.532  1.00  0.00     0.059 A 
ATOM     80  C   UNL A   1      50.064  19.908  34.512  1.00  0.00     0.059 A 
ATOM     81  F   UNL A   1      47.702  20.020  34.401  1.00  0.00    -0.206 F 
ATOM     82  C   UNL A   1      51.317  20.520  34.610  1.00  0.00     0.060 A 
BRANCH  82  83
ATOM     83  S   UNL A   1      52.801  19.527  35.149  1.00  0.00     0.124 S 
ATOM     84  O   UNL A   1      53.177  18.846  33.912  1.00  0.00    -0.237 OA
ATOM     85  O   UNL A   1      53.793  20.506  35.599  1.00  0.00    -0.237 OA
ATOM     86  O   UNL A   1      52.264  18.643  36.189  1.00  0.00    -0.744 OA
ENDBRANCH  82  83
ENDBRANCH  50  75
BRANCH  62  87
ATOM     87  C   UNL A   1      45.469  26.920  39.030  1.00  0.00     0.058 A 
ATOM     88  C   UNL A   1      45.053  26.530  40.299  1.00  0.00     0.135 A 
ATOM     89  C   UNL A   1      45.902  28.258  38.874  1.00  0.00     0.135 A 
ATOM     90  F   UNL A   1      44.454  25.350  40.510  1.00  0.00    -0.206 F 
ATOM     91  C   UNL A   1      45.225  27.367  41.389  1.00  0.00     0.059 A 
ATOM     92  C   UNL A   1      46.009  29.128  39.926  1.00  0.00     0.059 A 
ATOM     93  F   UNL A   1      46.291  28.770  37.701  1.00  0.00    -0.206 F 
ATOM     94  C   UNL A   1      45.726  28.655  41.189  1.00  0.00     0.060 A 
BRANCH  94  95
ATOM     95  S   UNL A   1      45.990  29.729  42.590  1.00  0.00     0.124 S 
ATOM     96  O   UNL A   1      46.692  28.847  43.516  1.00  0.00    -0.237 OA
ATOM     97  O   UNL A   1      46.788  30.792  41.989  1.00  0.00    -0.237 OA
ATOM     98  O   UNL A   1      44.637  30.105  42.990  1.00  0.00    -0.744 OA
ENDBRANCH  94  95
ENDBRANCH  62  87
ENDBRANCH  36  37
ENDBRANCH  29  31
ENDBRANCH  28  29
ENDBRANCH  27  28
ENDBRANCH  26  27
ENDBRANCH  25  26
ENDBRANCH  24  25
ENDBRANCH   1  24
TORSDOF 23
ENDMDL
