MODEL 1
REMARK VINA RESULT:     -10.1      0.000      0.000
REMARK SMILES C[C@@H](Sc1nc2ccccc2c(=O)n1N)C(=O)OCCOCCOCCOC(=O)c1ccc(-c2c3nc(c(-c4c(F)cc(S(=O)(=O)[O-])cc4F)c4ccc([nH]4)c(-c4c(F)cc(S(=O)(=O)[O-])cc4F)c4nc(c(-c5c(F)cc(S(=O)(=O)[O-])cc5F)c5ccc2[nH]5)C=C4)C=C3)cc1
REMARK SMILES IDX 22 1 21 2 20 3 19 4 18 5 16 6 17 7 2 8 1 9 3 10 4 11 5 12
REMARK SMILES IDX 14 13 6 14 12 15 7 16 11 17 13 18 8 19 10 20 9 21 15 22
REMARK SMILES IDX 23 25 24 26 25 27 26 28 27 29 28 30 29 31 30 32 31 33 95 34
REMARK SMILES IDX 32 35 94 36 33 37 34 38 35 39 88 40 36 41 93 42 87 43 89 44
REMARK SMILES IDX 37 45 92 46 86 47 85 48 38 50 72 51 51 52 71 53 52 54 55 55
REMARK SMILES IDX 70 56 90 57 53 58 54 59 69 61 91 62 56 63 39 64 40 65 49 66
REMARK SMILES IDX 41 67 42 68 48 69 50 70 43 71 44 72 45 73 46 74 47 75 73 76
REMARK SMILES IDX 74 77 83 78 75 79 76 80 82 81 84 82 77 83 78 84 79 85 80 86
REMARK SMILES IDX 81 87 57 88 58 89 67 90 59 91 60 92 66 93 68 94 61 95 62 96
REMARK SMILES IDX 63 97 64 98 65 99
REMARK H PARENT 15 23 15 24 89 49 55 60
REMARK Flexibility Score: inf
ROOT
ATOM      1  C   UNL A   1      36.209  22.936  23.926  1.00  0.00     0.188 C 
ENDROOT
BRANCH   1   2
ATOM      2  O   UNL A   1      35.431  22.982  22.737  1.00  0.00    -0.376 OA
BRANCH   2   3
ATOM      3  C   UNL A   1      34.012  22.939  22.823  1.00  0.00     0.202 C 
BRANCH   3   4
ATOM      4  C   UNL A   1      33.212  24.249  22.934  1.00  0.00     0.261 C 
BRANCH   4   5
ATOM      5  O   UNL A   1      33.989  25.451  23.114  1.00  0.00    -0.462 OA
BRANCH   5   6
ATOM      6  C   UNL A   1      34.003  25.972  24.370  1.00  0.00     0.319 C 
ATOM      7  O   UNL A   1      34.365  25.338  25.359  1.00  0.00    -0.251 OA
BRANCH   6   8
ATOM      8  C   UNL A   1      33.579  27.450  24.451  1.00  0.00     0.161 C 
ATOM      9  C   UNL A   1      33.393  28.232  23.147  1.00  0.00     0.032 C 
BRANCH   8  10
ATOM     10  S   UNL A   1      32.055  27.473  25.462  1.00  0.00    -0.071 SA
BRANCH  10  11
ATOM     11  C   UNL A   1      31.247  28.886  24.837  1.00  0.00     0.191 A 
ATOM     12  N   UNL A   1      30.450  28.685  23.839  1.00  0.00    -0.222 NA
ATOM     13  N   UNL A   1      31.419  30.116  25.463  1.00  0.00    -0.202 N 
ATOM     14  C   UNL A   1      29.675  29.757  23.388  1.00  0.00     0.079 A 
ATOM     15  C   UNL A   1      30.640  31.221  25.111  1.00  0.00     0.280 A 
ATOM     16  C   UNL A   1      28.807  29.541  22.317  1.00  0.00     0.029 A 
ATOM     17  C   UNL A   1      29.683  31.006  24.010  1.00  0.00     0.068 A 
ATOM     18  O   UNL A   1      30.712  32.312  25.673  1.00  0.00    -0.267 OA
ATOM     19  C   UNL A   1      27.930  30.544  21.901  1.00  0.00     0.002 A 
ATOM     20  C   UNL A   1      28.805  32.016  23.606  1.00  0.00     0.016 A 
ATOM     21  C   UNL A   1      27.919  31.777  22.555  1.00  0.00     0.001 A 
BRANCH  13  22
ATOM     22  N   UNL A   1      32.400  30.319  26.487  1.00  0.00    -0.334 N 
ATOM     23  H   UNL A   1      33.314  30.592  26.246  1.00  0.00     0.178 HD
ATOM     24  H   UNL A   1      32.159  30.186  27.433  1.00  0.00     0.178 HD
ENDBRANCH  13  22
ENDBRANCH  10  11
ENDBRANCH   8  10
ENDBRANCH   6   8
ENDBRANCH   5   6
ENDBRANCH   4   5
ENDBRANCH   3   4
ENDBRANCH   2   3
ENDBRANCH   1   2
BRANCH   1  25
ATOM     25  C   UNL A   1      37.094  21.711  24.207  1.00  0.00     0.188 C 
BRANCH  25  26
ATOM     26  O   UNL A   1      38.167  21.943  25.093  1.00  0.00    -0.376 OA
BRANCH  26  27
ATOM     27  C   UNL A   1      37.972  22.885  26.135  1.00  0.00     0.202 C 
BRANCH  27  28
ATOM     28  C   UNL A   1      38.719  24.230  26.060  1.00  0.00     0.261 C 
BRANCH  28  29
ATOM     29  O   UNL A   1      40.122  24.205  26.374  1.00  0.00    -0.460 OA
BRANCH  29  30
ATOM     30  C   UNL A   1      40.815  25.343  26.142  1.00  0.00     0.338 C 
ATOM     31  O   UNL A   1      41.123  25.795  25.047  1.00  0.00    -0.246 OA
BRANCH  30  32
ATOM     32  C   UNL A   1      40.918  26.092  27.416  1.00  0.00     0.060 A 
ATOM     33  C   UNL A   1      39.997  25.814  28.436  1.00  0.00     0.016 A 
ATOM     34  C   UNL A   1      41.903  27.064  27.605  1.00  0.00     0.016 A 
ATOM     35  C   UNL A   1      40.018  26.549  29.623  1.00  0.00     0.010 A 
ATOM     36  C   UNL A   1      41.910  27.815  28.786  1.00  0.00     0.010 A 
ATOM     37  C   UNL A   1      40.935  27.596  29.778  1.00  0.00    -0.014 A 
BRANCH  37  38
ATOM     38  C   UNL A   1      40.701  28.608  30.842  1.00  0.00     0.031 A 
ATOM     39  C   UNL A   1      41.579  28.558  32.067  1.00  0.00     0.074 A 
ATOM     40  C   UNL A   1      39.781  29.581  30.713  1.00  0.00     0.049 A 
ATOM     41  N   UNL A   1      41.578  29.324  33.127  1.00  0.00    -0.248 NA
ATOM     42  C   UNL A   1      42.597  27.494  32.098  1.00  0.00     0.031 C 
ATOM     43  C   UNL A   1      38.902  29.772  29.562  1.00  0.00     0.029 A 
ATOM     44  N   UNL A   1      39.438  30.599  31.569  1.00  0.00    -0.354 N 
ATOM     45  C   UNL A   1      42.579  28.827  33.954  1.00  0.00     0.074 A 
ATOM     46  C   UNL A   1      43.143  27.674  33.290  1.00  0.00     0.031 C 
ATOM     47  C   UNL A   1      38.116  30.841  29.785  1.00  0.00     0.029 A 
ATOM     48  C   UNL A   1      38.418  31.395  31.104  1.00  0.00     0.049 A 
ATOM     49  H   UNL A   1      39.882  30.746  32.436  1.00  0.00     0.167 HD
ATOM     50  C   UNL A   1      42.999  29.293  35.154  1.00  0.00     0.037 A 
ATOM     51  C   UNL A   1      37.792  32.441  31.685  1.00  0.00     0.037 A 
ATOM     52  C   UNL A   1      42.440  30.446  35.810  1.00  0.00     0.049 A 
ATOM     53  C   UNL A   1      38.238  32.907  33.050  1.00  0.00     0.074 A 
ATOM     54  C   UNL A   1      42.814  31.013  37.016  1.00  0.00     0.029 A 
ATOM     55  N   UNL A   1      41.387  31.204  35.322  1.00  0.00    -0.354 N 
ATOM     56  N   UNL A   1      39.202  32.443  33.810  1.00  0.00    -0.248 NA
ATOM     57  C   UNL A   1      37.514  34.047  33.632  1.00  0.00     0.031 C 
ATOM     58  C   UNL A   1      41.945  32.075  37.287  1.00  0.00     0.029 A 
ATOM     59  C   UNL A   1      41.077  32.216  36.215  1.00  0.00     0.049 A 
ATOM     60  H   UNL A   1      40.926  31.046  34.466  1.00  0.00     0.167 HD
ATOM     61  C   UNL A   1      39.228  33.262  34.937  1.00  0.00     0.074 A 
ATOM     62  C   UNL A   1      38.188  34.251  34.756  1.00  0.00     0.031 C 
ATOM     63  C   UNL A   1      40.046  33.206  36.020  1.00  0.00     0.037 A 
BRANCH  50  64
ATOM     64  C   UNL A   1      44.092  28.530  35.854  1.00  0.00     0.058 A 
ATOM     65  C   UNL A   1      43.821  27.446  36.704  1.00  0.00     0.135 A 
ATOM     66  C   UNL A   1      45.438  28.877  35.648  1.00  0.00     0.135 A 
ATOM     67  F   UNL A   1      42.553  27.083  36.955  1.00  0.00    -0.206 F 
ATOM     68  C   UNL A   1      44.842  26.754  37.350  1.00  0.00     0.059 A 
ATOM     69  C   UNL A   1      46.476  28.178  36.256  1.00  0.00     0.059 A 
ATOM     70  F   UNL A   1      45.756  29.908  34.848  1.00  0.00    -0.206 F 
ATOM     71  C   UNL A   1      46.167  27.128  37.117  1.00  0.00     0.060 A 
BRANCH  71  72
ATOM     72  S   UNL A   1      47.479  26.217  37.957  1.00  0.00     0.124 S 
ATOM     73  O   UNL A   1      48.557  26.286  36.974  1.00  0.00    -0.237 OA
ATOM     74  O   UNL A   1      47.677  27.005  39.170  1.00  0.00    -0.237 OA
ATOM     75  O   UNL A   1      46.899  24.894  38.160  1.00  0.00    -0.744 OA
ENDBRANCH  71  72
ENDBRANCH  50  64
BRANCH  51  76
ATOM     76  C   UNL A   1      36.678  33.133  30.979  1.00  0.00     0.058 A 
ATOM     77  C   UNL A   1      36.924  33.991  29.896  1.00  0.00     0.135 A 
ATOM     78  C   UNL A   1      35.344  32.967  31.386  1.00  0.00     0.135 A 
ATOM     79  F   UNL A   1      38.183  34.197  29.478  1.00  0.00    -0.206 F 
ATOM     80  C   UNL A   1      35.895  34.672  29.254  1.00  0.00     0.059 A 
ATOM     81  C   UNL A   1      34.294  33.614  30.741  1.00  0.00     0.059 A 
ATOM     82  F   UNL A   1      35.051  32.155  32.414  1.00  0.00    -0.206 F 
ATOM     83  C   UNL A   1      34.581  34.473  29.681  1.00  0.00     0.060 A 
BRANCH  83  84
ATOM     84  S   UNL A   1      33.249  35.326  28.809  1.00  0.00     0.124 S 
ATOM     85  O   UNL A   1      33.996  36.175  27.888  1.00  0.00    -0.237 OA
ATOM     86  O   UNL A   1      32.520  34.215  28.205  1.00  0.00    -0.237 OA
ATOM     87  O   UNL A   1      32.541  36.024  29.877  1.00  0.00    -0.744 OA
ENDBRANCH  83  84
ENDBRANCH  51  76
BRANCH  63  88
ATOM     88  C   UNL A   1      39.896  34.279  37.067  1.00  0.00     0.058 A 
ATOM     89  C   UNL A   1      40.469  35.553  36.922  1.00  0.00     0.135 A 
ATOM     90  C   UNL A   1      39.135  34.036  38.223  1.00  0.00     0.135 A 
ATOM     91  F   UNL A   1      41.206  35.843  35.838  1.00  0.00    -0.206 F 
ATOM     92  C   UNL A   1      40.328  36.531  37.903  1.00  0.00     0.059 A 
ATOM     93  C   UNL A   1      38.951  35.010  39.199  1.00  0.00     0.059 A 
ATOM     94  F   UNL A   1      38.549  32.842  38.409  1.00  0.00    -0.206 F 
ATOM     95  C   UNL A   1      39.569  36.249  39.040  1.00  0.00     0.060 A 
BRANCH  95  96
ATOM     96  S   UNL A   1      39.389  37.526  40.303  1.00  0.00     0.124 S 
ATOM     97  O   UNL A   1      38.696  36.800  41.360  1.00  0.00    -0.237 OA
ATOM     98  O   UNL A   1      40.777  37.884  40.584  1.00  0.00    -0.237 OA
ATOM     99  O   UNL A   1      38.606  38.560  39.634  1.00  0.00    -0.744 OA
ENDBRANCH  95  96
ENDBRANCH  63  88
ENDBRANCH  37  38
ENDBRANCH  30  32
ENDBRANCH  29  30
ENDBRANCH  28  29
ENDBRANCH  27  28
ENDBRANCH  26  27
ENDBRANCH  25  26
ENDBRANCH   1  25
TORSDOF 23
ENDMDL
MODEL 2
REMARK VINA RESULT:     -10.0      1.438      2.738
REMARK SMILES C[C@@H](Sc1nc2ccccc2c(=O)n1N)C(=O)OCCOCCOCCOC(=O)c1ccc(-c2c3nc(c(-c4c(F)cc(S(=O)(=O)[O-])cc4F)c4ccc([nH]4)c(-c4c(F)cc(S(=O)(=O)[O-])cc4F)c4nc(c(-c5c(F)cc(S(=O)(=O)[O-])cc5F)c5ccc2[nH]5)C=C4)C=C3)cc1
REMARK SMILES IDX 22 1 21 2 20 3 19 4 18 5 16 6 17 7 2 8 1 9 3 10 4 11 5 12
REMARK SMILES IDX 14 13 6 14 12 15 7 16 11 17 13 18 8 19 10 20 9 21 15 22
REMARK SMILES IDX 23 25 24 26 25 27 26 28 27 29 28 30 29 31 30 32 31 33 95 34
REMARK SMILES IDX 32 35 94 36 33 37 34 38 35 39 88 40 36 41 93 42 87 43 89 44
REMARK SMILES IDX 37 45 92 46 86 47 85 48 38 50 72 51 51 52 71 53 52 54 55 55
REMARK SMILES IDX 70 56 90 57 53 58 54 59 69 61 91 62 56 63 39 64 40 65 49 66
REMARK SMILES IDX 41 67 42 68 48 69 50 70 43 71 44 72 45 73 46 74 47 75 73 76
REMARK SMILES IDX 74 77 83 78 75 79 76 80 82 81 84 82 77 83 78 84 79 85 80 86
REMARK SMILES IDX 81 87 57 88 58 89 67 90 59 91 60 92 66 93 68 94 61 95 62 96
REMARK SMILES IDX 63 97 64 98 65 99
REMARK H PARENT 15 23 15 24 89 49 55 60
REMARK Flexibility Score: inf
ROOT
ATOM      1  C   UNL A   1      36.346  21.869  25.974  1.00  0.00     0.188 C 
ENDROOT
BRANCH   1   2
ATOM      2  O   UNL A   1      35.010  21.810  25.493  1.00  0.00    -0.376 OA
BRANCH   2   3
ATOM      3  C   UNL A   1      34.515  20.597  24.940  1.00  0.00     0.202 C 
BRANCH   3   4
ATOM      4  C   UNL A   1      33.210  20.604  24.125  1.00  0.00     0.261 C 
BRANCH   4   5
ATOM      5  O   UNL A   1      32.329  21.723  24.351  1.00  0.00    -0.462 OA
BRANCH   5   6
ATOM      6  C   UNL A   1      32.427  22.750  23.466  1.00  0.00     0.319 C 
ATOM      7  O   UNL A   1      32.833  22.611  22.314  1.00  0.00    -0.251 OA
BRANCH   6   8
ATOM      8  C   UNL A   1      31.930  24.105  24.004  1.00  0.00     0.161 C 
ATOM      9  C   UNL A   1      31.897  24.324  25.520  1.00  0.00     0.032 C 
BRANCH   8  10
ATOM     10  S   UNL A   1      32.954  25.372  23.172  1.00  0.00    -0.071 SA
BRANCH  10  11
ATOM     11  C   UNL A   1      32.577  26.792  24.114  1.00  0.00     0.191 A 
ATOM     12  N   UNL A   1      33.393  27.060  25.080  1.00  0.00    -0.222 NA
ATOM     13  N   UNL A   1      31.504  27.598  23.752  1.00  0.00    -0.202 N 
ATOM     14  C   UNL A   1      33.217  28.257  25.779  1.00  0.00     0.079 A 
ATOM     15  C   UNL A   1      31.294  28.838  24.360  1.00  0.00     0.280 A 
ATOM     16  C   UNL A   1      34.100  28.554  26.817  1.00  0.00     0.029 A 
ATOM     17  C   UNL A   1      32.242  29.194  25.432  1.00  0.00     0.068 A 
ATOM     18  O   UNL A   1      30.397  29.613  24.037  1.00  0.00    -0.267 OA
ATOM     19  C   UNL A   1      34.039  29.785  27.471  1.00  0.00     0.002 A 
ATOM     20  C   UNL A   1      32.176  30.434  26.076  1.00  0.00     0.016 A 
ATOM     21  C   UNL A   1      33.086  30.731  27.090  1.00  0.00     0.001 A 
BRANCH  13  22
ATOM     22  N   UNL A   1      30.557  27.203  22.752  1.00  0.00    -0.334 N 
ATOM     23  H   UNL A   1      29.904  27.853  22.408  1.00  0.00     0.178 HD
ATOM     24  H   UNL A   1      30.561  26.280  22.408  1.00  0.00     0.178 HD
ENDBRANCH  13  22
ENDBRANCH  10  11
ENDBRANCH   8  10
ENDBRANCH   6   8
ENDBRANCH   5   6
ENDBRANCH   4   5
ENDBRANCH   3   4
ENDBRANCH   2   3
ENDBRANCH   1   2
BRANCH   1  25
ATOM     25  C   UNL A   1      37.357  22.808  25.296  1.00  0.00     0.188 C 
BRANCH  25  26
ATOM     26  O   UNL A   1      38.318  23.372  26.161  1.00  0.00    -0.376 OA
BRANCH  26  27
ATOM     27  C   UNL A   1      39.506  22.634  26.400  1.00  0.00     0.202 C 
BRANCH  27  28
ATOM     28  C   UNL A   1      40.631  23.296  27.218  1.00  0.00     0.261 C 
BRANCH  28  29
ATOM     29  O   UNL A   1      41.575  24.095  26.484  1.00  0.00    -0.460 OA
BRANCH  29  30
ATOM     30  C   UNL A   1      41.238  25.387  26.269  1.00  0.00     0.338 C 
ATOM     31  O   UNL A   1      40.821  25.864  25.222  1.00  0.00    -0.246 OA
BRANCH  30  32
ATOM     32  C   UNL A   1      41.207  26.083  27.576  1.00  0.00     0.060 A 
ATOM     33  C   UNL A   1      40.039  26.008  28.350  1.00  0.00     0.016 A 
ATOM     34  C   UNL A   1      42.308  26.809  28.036  1.00  0.00     0.016 A 
ATOM     35  C   UNL A   1      39.947  26.709  29.554  1.00  0.00     0.010 A 
ATOM     36  C   UNL A   1      42.207  27.528  29.232  1.00  0.00     0.010 A 
ATOM     37  C   UNL A   1      41.007  27.523  29.970  1.00  0.00    -0.014 A 
BRANCH  37  38
ATOM     38  C   UNL A   1      40.760  28.552  31.014  1.00  0.00     0.031 A 
ATOM     39  C   UNL A   1      41.622  28.521  32.251  1.00  0.00     0.074 A 
ATOM     40  C   UNL A   1      39.843  29.524  30.857  1.00  0.00     0.049 A 
ATOM     41  N   UNL A   1      41.608  29.304  33.299  1.00  0.00    -0.248 NA
ATOM     42  C   UNL A   1      42.639  27.457  32.313  1.00  0.00     0.031 C 
ATOM     43  C   UNL A   1      38.979  29.696  29.692  1.00  0.00     0.029 A 
ATOM     44  N   UNL A   1      39.490  30.556  31.693  1.00  0.00    -0.354 N 
ATOM     45  C   UNL A   1      42.598  28.820  34.146  1.00  0.00     0.074 A 
ATOM     46  C   UNL A   1      43.170  27.656  33.508  1.00  0.00     0.031 C 
ATOM     47  C   UNL A   1      38.191  30.770  29.888  1.00  0.00     0.029 A 
ATOM     48  C   UNL A   1      38.476  31.344  31.202  1.00  0.00     0.049 A 
ATOM     49  H   UNL A   1      39.922  30.716  32.563  1.00  0.00     0.167 HD
ATOM     50  C   UNL A   1      43.003  29.305  35.344  1.00  0.00     0.037 A 
ATOM     51  C   UNL A   1      37.844  32.400  31.757  1.00  0.00     0.037 A 
ATOM     52  C   UNL A   1      42.436  30.469  35.974  1.00  0.00     0.049 A 
ATOM     53  C   UNL A   1      38.272  32.887  33.121  1.00  0.00     0.074 A 
ATOM     54  C   UNL A   1      42.794  31.055  37.175  1.00  0.00     0.029 A 
ATOM     55  N   UNL A   1      41.389  31.219  35.460  1.00  0.00    -0.354 N 
ATOM     56  N   UNL A   1      39.226  32.435  33.901  1.00  0.00    -0.248 NA
ATOM     57  C   UNL A   1      37.541  34.036  33.675  1.00  0.00     0.031 C 
ATOM     58  C   UNL A   1      41.923  32.121  37.418  1.00  0.00     0.029 A 
ATOM     59  C   UNL A   1      41.069  32.246  36.333  1.00  0.00     0.049 A 
ATOM     60  H   UNL A   1      40.940  31.048  34.601  1.00  0.00     0.167 HD
ATOM     61  C   UNL A   1      39.238  33.272  35.015  1.00  0.00     0.074 A 
ATOM     62  C   UNL A   1      38.201  34.258  34.804  1.00  0.00     0.031 C 
ATOM     63  C   UNL A   1      40.041  33.232  36.109  1.00  0.00     0.037 A 
BRANCH  50  64
ATOM     64  C   UNL A   1      44.086  28.553  36.070  1.00  0.00     0.058 A 
ATOM     65  C   UNL A   1      45.442  28.900  35.957  1.00  0.00     0.135 A 
ATOM     66  C   UNL A   1      43.755  27.480  36.914  1.00  0.00     0.135 A 
ATOM     67  F   UNL A   1      45.819  29.904  35.149  1.00  0.00    -0.206 F 
ATOM     68  C   UNL A   1      46.433  28.191  36.629  1.00  0.00     0.059 A 
ATOM     69  C   UNL A   1      44.726  26.778  37.622  1.00  0.00     0.059 A 
ATOM     70  F   UNL A   1      42.475  27.101  37.057  1.00  0.00    -0.206 F 
ATOM     71  C   UNL A   1      46.064  27.132  37.461  1.00  0.00     0.060 A 
BRANCH  71  72
ATOM     72  S   UNL A   1      47.361  26.226  38.330  1.00  0.00     0.124 S 
ATOM     73  O   UNL A   1      47.273  26.804  39.668  1.00  0.00    -0.237 OA
ATOM     74  O   UNL A   1      46.910  24.843  38.207  1.00  0.00    -0.237 OA
ATOM     75  O   UNL A   1      48.568  26.558  37.582  1.00  0.00    -0.744 OA
ENDBRANCH  71  72
ENDBRANCH  50  64
BRANCH  51  76
ATOM     76  C   UNL A   1      36.739  33.081  31.027  1.00  0.00     0.058 A 
ATOM     77  C   UNL A   1      35.396  32.851  31.361  1.00  0.00     0.135 A 
ATOM     78  C   UNL A   1      37.003  33.962  29.965  1.00  0.00     0.135 A 
ATOM     79  F   UNL A   1      35.089  32.005  32.358  1.00  0.00    -0.206 F 
ATOM     80  C   UNL A   1      34.354  33.452  30.661  1.00  0.00     0.059 A 
ATOM     81  C   UNL A   1      35.980  34.598  29.269  1.00  0.00     0.059 A 
ATOM     82  F   UNL A   1      38.270  34.222  29.606  1.00  0.00    -0.206 F 
ATOM     83  C   UNL A   1      34.657  34.329  29.618  1.00  0.00     0.060 A 
BRANCH  83  84
ATOM     84  S   UNL A   1      33.298  35.140  28.748  1.00  0.00     0.124 S 
ATOM     85  O   UNL A   1      32.507  35.661  29.857  1.00  0.00    -0.237 OA
ATOM     86  O   UNL A   1      34.001  36.133  27.943  1.00  0.00    -0.237 OA
ATOM     87  O   UNL A   1      32.685  34.052  27.993  1.00  0.00    -0.744 OA
ENDBRANCH  83  84
ENDBRANCH  51  76
BRANCH  63  88
ATOM     88  C   UNL A   1      39.879  34.323  37.137  1.00  0.00     0.058 A 
ATOM     89  C   UNL A   1      39.104  34.152  38.295  1.00  0.00     0.135 A 
ATOM     90  C   UNL A   1      40.542  35.550  36.974  1.00  0.00     0.135 A 
ATOM     91  F   UNL A   1      38.447  32.999  38.505  1.00  0.00    -0.206 F 
ATOM     92  C   UNL A   1      38.958  35.172  39.231  1.00  0.00     0.059 A 
ATOM     93  C   UNL A   1      40.440  36.571  37.914  1.00  0.00     0.059 A 
ATOM     94  F   UNL A   1      41.312  35.766  35.895  1.00  0.00    -0.206 F 
ATOM     95  C   UNL A   1      39.629  36.380  39.030  1.00  0.00     0.060 A 
BRANCH  95  96
ATOM     96  S   UNL A   1      39.435  37.694  40.253  1.00  0.00     0.124 S 
ATOM     97  O   UNL A   1      38.494  38.583  39.582  1.00  0.00    -0.237 OA
ATOM     98  O   UNL A   1      38.911  36.970  41.408  1.00  0.00    -0.237 OA
ATOM     99  O   UNL A   1      40.789  38.215  40.410  1.00  0.00    -0.744 OA
ENDBRANCH  95  96
ENDBRANCH  63  88
ENDBRANCH  37  38
ENDBRANCH  30  32
ENDBRANCH  29  30
ENDBRANCH  28  29
ENDBRANCH  27  28
ENDBRANCH  26  27
ENDBRANCH  25  26
ENDBRANCH   1  25
TORSDOF 23
ENDMDL
MODEL 3
REMARK VINA RESULT:     -10.0      1.261      8.321
REMARK SMILES C[C@@H](Sc1nc2ccccc2c(=O)n1N)C(=O)OCCOCCOCCOC(=O)c1ccc(-c2c3nc(c(-c4c(F)cc(S(=O)(=O)[O-])cc4F)c4ccc([nH]4)c(-c4c(F)cc(S(=O)(=O)[O-])cc4F)c4nc(c(-c5c(F)cc(S(=O)(=O)[O-])cc5F)c5ccc2[nH]5)C=C4)C=C3)cc1
REMARK SMILES IDX 22 1 21 2 20 3 19 4 18 5 16 6 17 7 2 8 1 9 3 10 4 11 5 12
REMARK SMILES IDX 14 13 6 14 12 15 7 16 11 17 13 18 8 19 10 20 9 21 15 22
REMARK SMILES IDX 23 25 24 26 25 27 26 28 27 29 28 30 29 31 30 32 31 33 95 34
REMARK SMILES IDX 32 35 94 36 33 37 34 38 35 39 88 40 36 41 93 42 87 43 89 44
REMARK SMILES IDX 37 45 92 46 86 47 85 48 38 50 72 51 51 52 71 53 52 54 55 55
REMARK SMILES IDX 70 56 90 57 53 58 54 59 69 61 91 62 56 63 39 64 40 65 49 66
REMARK SMILES IDX 41 67 42 68 48 69 50 70 43 71 44 72 45 73 46 74 47 75 73 76
REMARK SMILES IDX 74 77 83 78 75 79 76 80 82 81 84 82 77 83 78 84 79 85 80 86
REMARK SMILES IDX 81 87 57 88 58 89 67 90 59 91 60 92 66 93 68 94 61 95 62 96
REMARK SMILES IDX 63 97 64 98 65 99
REMARK H PARENT 15 23 15 24 89 49 55 60
REMARK Flexibility Score: inf
ROOT
ATOM      1  C   UNL A   1      38.906  20.713  25.738  1.00  0.00     0.188 C 
ENDROOT
BRANCH   1   2
ATOM      2  O   UNL A   1      38.221  21.958  25.746  1.00  0.00    -0.376 OA
BRANCH   2   3
ATOM      3  C   UNL A   1      37.011  22.100  25.012  1.00  0.00     0.202 C 
BRANCH   3   4
ATOM      4  C   UNL A   1      35.801  22.798  25.659  1.00  0.00     0.261 C 
BRANCH   4   5
ATOM      5  O   UNL A   1      34.539  22.636  24.979  1.00  0.00    -0.462 OA
BRANCH   5   6
ATOM      6  C   UNL A   1      34.153  23.667  24.182  1.00  0.00     0.319 C 
ATOM      7  O   UNL A   1      34.563  23.822  23.034  1.00  0.00    -0.251 OA
BRANCH   6   8
ATOM      8  C   UNL A   1      33.105  24.602  24.814  1.00  0.00     0.161 C 
ATOM      9  C   UNL A   1      32.133  24.023  25.846  1.00  0.00     0.032 C 
BRANCH   8  10
ATOM     10  S   UNL A   1      34.052  26.005  25.508  1.00  0.00    -0.071 SA
BRANCH  10  11
ATOM     11  C   UNL A   1      33.052  27.358  25.047  1.00  0.00     0.191 A 
ATOM     12  N   UNL A   1      32.251  27.154  24.052  1.00  0.00    -0.222 NA
ATOM     13  N   UNL A   1      33.092  28.533  25.789  1.00  0.00    -0.202 N 
ATOM     14  C   UNL A   1      31.333  28.157  23.730  1.00  0.00     0.079 A 
ATOM     15  C   UNL A   1      32.169  29.558  25.568  1.00  0.00     0.280 A 
ATOM     16  C   UNL A   1      30.461  27.937  22.662  1.00  0.00     0.029 A 
ATOM     17  C   UNL A   1      31.208  29.331  24.474  1.00  0.00     0.068 A 
ATOM     18  O   UNL A   1      32.124  30.590  26.235  1.00  0.00    -0.267 OA
ATOM     19  C   UNL A   1      29.452  28.855  22.369  1.00  0.00     0.002 A 
ATOM     20  C   UNL A   1      30.196  30.255  24.193  1.00  0.00     0.016 A 
ATOM     21  C   UNL A   1      29.311  30.007  23.144  1.00  0.00     0.001 A 
BRANCH  13  22
ATOM     22  N   UNL A   1      34.075  28.760  26.806  1.00  0.00    -0.334 N 
ATOM     23  H   UNL A   1      34.333  28.030  27.413  1.00  0.00     0.178 HD
ATOM     24  H   UNL A   1      34.494  29.646  26.896  1.00  0.00     0.178 HD
ENDBRANCH  13  22
ENDBRANCH  10  11
ENDBRANCH   8  10
ENDBRANCH   6   8
ENDBRANCH   5   6
ENDBRANCH   4   5
ENDBRANCH   3   4
ENDBRANCH   2   3
ENDBRANCH   1   2
BRANCH   1  25
ATOM     25  C   UNL A   1      40.357  20.641  26.239  1.00  0.00     0.188 C 
BRANCH  25  26
ATOM     26  O   UNL A   1      40.556  21.102  27.557  1.00  0.00    -0.376 OA
BRANCH  26  27
ATOM     27  C   UNL A   1      41.651  21.971  27.795  1.00  0.00     0.202 C 
BRANCH  27  28
ATOM     28  C   UNL A   1      41.998  23.026  26.728  1.00  0.00     0.261 C 
BRANCH  28  29
ATOM     29  O   UNL A   1      41.029  24.067  26.513  1.00  0.00    -0.460 OA
BRANCH  29  30
ATOM     30  C   UNL A   1      41.511  25.281  26.166  1.00  0.00     0.338 C 
ATOM     31  O   UNL A   1      42.017  25.582  25.092  1.00  0.00    -0.246 OA
BRANCH  30  32
ATOM     32  C   UNL A   1      41.096  26.260  27.198  1.00  0.00     0.060 A 
ATOM     33  C   UNL A   1      41.693  27.529  27.199  1.00  0.00     0.016 A 
ATOM     34  C   UNL A   1      40.139  25.933  28.160  1.00  0.00     0.016 A 
ATOM     35  C   UNL A   1      41.380  28.453  28.197  1.00  0.00     0.010 A 
ATOM     36  C   UNL A   1      39.841  26.852  29.173  1.00  0.00     0.010 A 
ATOM     37  C   UNL A   1      40.499  28.096  29.226  1.00  0.00    -0.014 A 
BRANCH  37  38
ATOM     38  C   UNL A   1      40.477  28.908  30.471  1.00  0.00     0.031 A 
ATOM     39  C   UNL A   1      39.444  30.002  30.579  1.00  0.00     0.074 A 
ATOM     40  C   UNL A   1      41.302  28.658  31.503  1.00  0.00     0.049 A 
ATOM     41  N   UNL A   1      39.217  30.843  31.555  1.00  0.00    -0.248 NA
ATOM     42  C   UNL A   1      38.545  30.169  29.424  1.00  0.00     0.031 C 
ATOM     43  C   UNL A   1      42.311  27.603  31.547  1.00  0.00     0.029 A 
ATOM     44  N   UNL A   1      41.415  29.282  32.722  1.00  0.00    -0.354 N 
ATOM     45  C   UNL A   1      38.165  31.645  31.126  1.00  0.00     0.074 A 
ATOM     46  C   UNL A   1      37.820  31.214  29.790  1.00  0.00     0.031 C 
ATOM     47  C   UNL A   1      42.944  27.654  32.733  1.00  0.00     0.029 A 
ATOM     48  C   UNL A   1      42.405  28.761  33.522  1.00  0.00     0.049 A 
ATOM     49  H   UNL A   1      40.841  30.032  32.998  1.00  0.00     0.167 HD
ATOM     50  C   UNL A   1      37.534  32.644  31.788  1.00  0.00     0.037 A 
ATOM     51  C   UNL A   1      42.832  29.144  34.744  1.00  0.00     0.037 A 
ATOM     52  C   UNL A   1      37.875  33.067  33.121  1.00  0.00     0.049 A 
ATOM     53  C   UNL A   1      42.153  30.300  35.438  1.00  0.00     0.074 A 
ATOM     54  C   UNL A   1      37.279  34.053  33.888  1.00  0.00     0.029 A 
ATOM     55  N   UNL A   1      38.904  32.536  33.883  1.00  0.00    -0.354 N 
ATOM     56  N   UNL A   1      41.143  31.034  35.032  1.00  0.00    -0.248 NA
ATOM     57  C   UNL A   1      42.668  30.674  36.764  1.00  0.00     0.031 C 
ATOM     58  C   UNL A   1      37.988  34.162  35.087  1.00  0.00     0.029 A 
ATOM     59  C   UNL A   1      38.980  33.193  35.100  1.00  0.00     0.049 A 
ATOM     60  H   UNL A   1      39.495  31.801  33.601  1.00  0.00     0.167 HD
ATOM     61  C   UNL A   1      40.875  31.924  36.070  1.00  0.00     0.074 A 
ATOM     62  C   UNL A   1      41.825  31.633  37.122  1.00  0.00     0.031 C 
ATOM     63  C   UNL A   1      39.923  32.888  36.149  1.00  0.00     0.037 A 
BRANCH  50  64
ATOM     64  C   UNL A   1      36.437  33.375  31.063  1.00  0.00     0.058 A 
ATOM     65  C   UNL A   1      36.694  34.214  29.966  1.00  0.00     0.135 A 
ATOM     66  C   UNL A   1      35.098  33.213  31.459  1.00  0.00     0.135 A 
ATOM     67  F   UNL A   1      37.955  34.423  29.555  1.00  0.00    -0.206 F 
ATOM     68  C   UNL A   1      35.669  34.889  29.309  1.00  0.00     0.059 A 
ATOM     69  C   UNL A   1      34.055  33.851  30.796  1.00  0.00     0.059 A 
ATOM     70  F   UNL A   1      34.793  32.427  32.504  1.00  0.00    -0.206 F 
ATOM     71  C   UNL A   1      34.352  34.699  29.731  1.00  0.00     0.060 A 
BRANCH  71  72
ATOM     72  S   UNL A   1      33.034  35.577  28.866  1.00  0.00     0.124 S 
ATOM     73  O   UNL A   1      33.789  36.601  28.149  1.00  0.00    -0.237 OA
ATOM     74  O   UNL A   1      32.451  34.526  28.039  1.00  0.00    -0.237 OA
ATOM     75  O   UNL A   1      32.185  36.067  29.946  1.00  0.00    -0.744 OA
ENDBRANCH  71  72
ENDBRANCH  50  64
BRANCH  51  76
ATOM     76  C   UNL A   1      43.960  28.427  35.402  1.00  0.00     0.058 A 
ATOM     77  C   UNL A   1      45.293  28.792  35.163  1.00  0.00     0.135 A 
ATOM     78  C   UNL A   1      43.727  27.347  36.270  1.00  0.00     0.135 A 
ATOM     79  F   UNL A   1      45.570  29.808  34.329  1.00  0.00    -0.206 F 
ATOM     80  C   UNL A   1      46.355  28.105  35.743  1.00  0.00     0.059 A 
ATOM     81  C   UNL A   1      44.771  26.663  36.885  1.00  0.00     0.059 A 
ATOM     82  F   UNL A   1      42.471  26.957  36.537  1.00  0.00    -0.206 F 
ATOM     83  C   UNL A   1      46.083  27.044  36.607  1.00  0.00     0.060 A 
BRANCH  83  84
ATOM     84  S   UNL A   1      47.469  26.190  37.390  1.00  0.00     0.124 S 
ATOM     85  O   UNL A   1      48.373  27.298  37.679  1.00  0.00    -0.237 OA
ATOM     86  O   UNL A   1      46.830  25.570  38.547  1.00  0.00    -0.237 OA
ATOM     87  O   UNL A   1      47.918  25.261  36.359  1.00  0.00    -0.744 OA
ENDBRANCH  83  84
ENDBRANCH  51  76
BRANCH  63  88
ATOM     88  C   UNL A   1      39.813  33.661  37.438  1.00  0.00     0.058 A 
ATOM     89  C   UNL A   1      38.981  33.247  38.491  1.00  0.00     0.135 A 
ATOM     90  C   UNL A   1      40.583  34.820  37.634  1.00  0.00     0.135 A 
ATOM     91  F   UNL A   1      38.223  32.147  38.361  1.00  0.00    -0.206 F 
ATOM     92  C   UNL A   1      38.885  33.977  39.673  1.00  0.00     0.059 A 
ATOM     93  C   UNL A   1      40.530  35.545  38.820  1.00  0.00     0.059 A 
ATOM     94  F   UNL A   1      41.409  35.254  36.669  1.00  0.00    -0.206 F 
ATOM     95  C   UNL A   1      39.662  35.127  39.827  1.00  0.00     0.060 A 
BRANCH  95  96
ATOM     96  S   UNL A   1      39.532  36.063  41.365  1.00  0.00     0.124 S 
ATOM     97  O   UNL A   1      38.629  35.223  42.144  1.00  0.00    -0.237 OA
ATOM     98  O   UNL A   1      40.918  36.101  41.825  1.00  0.00    -0.237 OA
ATOM     99  O   UNL A   1      38.984  37.346  40.938  1.00  0.00    -0.744 OA
ENDBRANCH  95  96
ENDBRANCH  63  88
ENDBRANCH  37  38
ENDBRANCH  30  32
ENDBRANCH  29  30
ENDBRANCH  28  29
ENDBRANCH  27  28
ENDBRANCH  26  27
ENDBRANCH  25  26
ENDBRANCH   1  25
TORSDOF 23
ENDMDL
