MODEL 1
REMARK VINA RESULT:     -10.3      0.000      0.000
REMARK SMILES CCC[C@H]([NH2+]Cc1c(O)ccc2c(-c3ccccc3)cc(=O)oc12)C(=O)OCCOCCOCCOC(=O)c1ccc(-c2c3nc(c(-c4c(F)cc(S(=O)(=O)[O-])cc4F)c4ccc([nH]4)c(-c4c(F)cc(S(=O)(=O)[O-])cc4F)c4nc(c(-c5c(F)cc(S(=O)(=O)[O-])cc5F)c5ccc2[nH]5)C=C4)C=C3)cc1
REMARK SMILES IDX 31 1 30 2 29 3 28 4 27 5 25 6 26 7 4 8 3 9 2 10 1 11 5 12
REMARK SMILES IDX 6 15 7 16 8 17 24 18 10 19 12 20 23 21 11 22 13 23 21 24
REMARK SMILES IDX 20 25 22 26 9 27 14 29 15 30 19 31 16 32 18 33 17 34 32 35
REMARK SMILES IDX 33 36 34 37 35 38 36 39 37 40 38 41 39 42 40 43 104 44 41 45
REMARK SMILES IDX 103 46 42 47 43 48 44 49 97 50 45 51 102 52 96 53 98 54
REMARK SMILES IDX 46 55 101 56 95 57 94 58 47 60 81 61 60 62 80 63 61 64 64 65
REMARK SMILES IDX 79 66 99 67 62 68 63 69 78 71 100 72 65 73 48 74 49 75 58 76
REMARK SMILES IDX 50 77 51 78 57 79 59 80 52 81 53 82 54 83 55 84 56 85 82 86
REMARK SMILES IDX 83 87 92 88 84 89 85 90 91 91 93 92 86 93 87 94 88 95 89 96
REMARK SMILES IDX 90 97 66 98 67 99 76 100 68 101 69 102 75 103 77 104 70 105
REMARK SMILES IDX 71 106 72 107 73 108 74 109
REMARK H PARENT 5 13 5 14 9 28 98 59 64 70
REMARK Flexibility Score: inf
ROOT
ATOM      1  C   UNL A   1      34.369  25.509  25.535  1.00  0.00     0.188 C 
ENDROOT
BRANCH   1   2
ATOM      2  O   UNL A   1      34.803  24.216  25.122  1.00  0.00    -0.376 OA
BRANCH   2   3
ATOM      3  C   UNL A   1      36.196  23.965  25.063  1.00  0.00     0.202 C 
BRANCH   3   4
ATOM      4  C   UNL A   1      36.662  22.605  25.593  1.00  0.00     0.261 C 
BRANCH   4   5
ATOM      5  O   UNL A   1      35.664  21.833  26.293  1.00  0.00    -0.459 OA
BRANCH   5   6
ATOM      6  C   UNL A   1      35.056  20.854  25.567  1.00  0.00     0.364 C 
ATOM      7  O   UNL A   1      35.649  20.123  24.778  1.00  0.00    -0.245 OA
BRANCH   6   8
ATOM      8  C   UNL A   1      33.518  20.840  25.672  1.00  0.00     0.293 C 
BRANCH   8   9
ATOM      9  C   UNL A   1      32.989  19.904  24.554  1.00  0.00     0.077 C 
BRANCH   9  10
ATOM     10  C   UNL A   1      32.984  18.387  24.797  1.00  0.00     0.003 C 
ATOM     11  C   UNL A   1      33.410  17.522  23.619  1.00  0.00     0.004 C 
ENDBRANCH   9  10
ENDBRANCH   8   9
BRANCH   8  12
ATOM     12  N   UNL A   1      32.841  22.155  25.684  1.00  0.00    -0.331 N 
ATOM     13  H   UNL A   1      33.561  22.878  25.709  1.00  0.00     0.347 HD
ATOM     14  H   UNL A   1      32.235  22.150  26.504  1.00  0.00     0.347 HD
BRANCH  12  15
ATOM     15  C   UNL A   1      31.968  22.426  24.540  1.00  0.00     0.306 C 
BRANCH  15  16
ATOM     16  C   UNL A   1      31.109  23.668  24.772  1.00  0.00     0.091 A 
ATOM     17  C   UNL A   1      30.326  23.814  25.926  1.00  0.00     0.128 A 
ATOM     18  C   UNL A   1      31.059  24.730  23.843  1.00  0.00     0.151 A 
ATOM     19  C   UNL A   1      29.505  24.926  26.125  1.00  0.00     0.047 A 
ATOM     20  C   UNL A   1      30.281  25.884  24.043  1.00  0.00     0.026 A 
ATOM     21  O   UNL A   1      31.827  24.611  22.664  1.00  0.00    -0.422 OA
ATOM     22  C   UNL A   1      29.478  25.951  25.184  1.00  0.00     0.016 A 
ATOM     23  C   UNL A   1      30.328  26.996  23.072  1.00  0.00    -0.000 A 
ATOM     24  C   UNL A   1      31.841  25.598  21.694  1.00  0.00     0.336 A 
ATOM     25  C   UNL A   1      31.071  26.819  21.969  1.00  0.00     0.103 A 
ATOM     26  O   UNL A   1      32.501  25.496  20.667  1.00  0.00    -0.246 OA
BRANCH  17  27
ATOM     27  O   UNL A   1      30.369  22.859  26.898  1.00  0.00    -0.507 OA
ATOM     28  H   UNL A   1      31.050  22.874  27.541  1.00  0.00     0.293 HD
ENDBRANCH  17  27
BRANCH  23  29
ATOM     29  C   UNL A   1      29.703  28.333  23.242  1.00  0.00    -0.017 A 
ATOM     30  C   UNL A   1      28.376  28.575  22.861  1.00  0.00     0.009 A 
ATOM     31  C   UNL A   1      30.446  29.388  23.796  1.00  0.00     0.009 A 
ATOM     32  C   UNL A   1      27.807  29.840  23.032  1.00  0.00     0.001 A 
ATOM     33  C   UNL A   1      29.873  30.650  23.976  1.00  0.00     0.001 A 
ATOM     34  C   UNL A   1      28.553  30.875  23.592  1.00  0.00     0.000 A 
ENDBRANCH  23  29
ENDBRANCH  15  16
ENDBRANCH  12  15
ENDBRANCH   8  12
ENDBRANCH   6   8
ENDBRANCH   5   6
ENDBRANCH   4   5
ENDBRANCH   3   4
ENDBRANCH   2   3
ENDBRANCH   1   2
BRANCH   1  35
ATOM     35  C   UNL A   1      34.033  26.548  24.461  1.00  0.00     0.188 C 
BRANCH  35  36
ATOM     36  O   UNL A   1      33.279  27.635  24.999  1.00  0.00    -0.376 OA
BRANCH  36  37
ATOM     37  C   UNL A   1      32.562  27.286  26.176  1.00  0.00     0.202 C 
BRANCH  37  38
ATOM     38  C   UNL A   1      32.640  28.421  27.197  1.00  0.00     0.261 C 
BRANCH  38  39
ATOM     39  O   UNL A   1      33.932  28.584  27.813  1.00  0.00    -0.460 OA
BRANCH  39  40
ATOM     40  C   UNL A   1      34.444  29.833  27.856  1.00  0.00     0.338 C 
ATOM     41  O   UNL A   1      33.817  30.880  27.743  1.00  0.00    -0.246 OA
BRANCH  40  42
ATOM     42  C   UNL A   1      35.884  29.746  28.189  1.00  0.00     0.060 A 
ATOM     43  C   UNL A   1      36.838  30.056  27.213  1.00  0.00     0.016 A 
ATOM     44  C   UNL A   1      36.297  29.323  29.455  1.00  0.00     0.016 A 
ATOM     45  C   UNL A   1      38.203  29.931  27.492  1.00  0.00     0.010 A 
ATOM     46  C   UNL A   1      37.662  29.175  29.728  1.00  0.00     0.010 A 
ATOM     47  C   UNL A   1      38.625  29.452  28.740  1.00  0.00    -0.014 A 
BRANCH  47  48
ATOM     48  C   UNL A   1      40.043  29.062  28.964  1.00  0.00     0.031 A 
ATOM     49  C   UNL A   1      40.996  30.100  29.502  1.00  0.00     0.074 A 
ATOM     50  C   UNL A   1      40.489  27.819  28.701  1.00  0.00     0.049 A 
ATOM     51  N   UNL A   1      42.290  30.033  29.673  1.00  0.00    -0.248 NA
ATOM     52  C   UNL A   1      40.402  31.387  29.896  1.00  0.00     0.031 C 
ATOM     53  C   UNL A   1      39.666  26.707  28.231  1.00  0.00     0.029 A 
ATOM     54  N   UNL A   1      41.754  27.289  28.783  1.00  0.00    -0.354 N 
ATOM     55  C   UNL A   1      42.670  31.272  30.178  1.00  0.00     0.074 A 
ATOM     56  C   UNL A   1      41.471  32.077  30.266  1.00  0.00     0.031 C 
ATOM     57  C   UNL A   1      40.451  25.629  28.053  1.00  0.00     0.029 A 
ATOM     58  C   UNL A   1      41.837  25.985  28.356  1.00  0.00     0.049 A 
ATOM     59  H   UNL A   1      42.529  27.796  29.116  1.00  0.00     0.167 HD
ATOM     60  C   UNL A   1      43.903  31.699  30.543  1.00  0.00     0.037 A 
ATOM     61  C   UNL A   1      42.909  25.181  28.198  1.00  0.00     0.037 A 
ATOM     62  C   UNL A   1      45.093  30.894  30.462  1.00  0.00     0.049 A 
ATOM     63  C   UNL A   1      44.286  25.703  28.538  1.00  0.00     0.074 A 
ATOM     64  C   UNL A   1      46.388  31.237  30.811  1.00  0.00     0.029 A 
ATOM     65  N   UNL A   1      45.139  29.588  29.999  1.00  0.00    -0.354 N 
ATOM     66  N   UNL A   1      44.632  26.877  29.010  1.00  0.00    -0.248 NA
ATOM     67  C   UNL A   1      45.418  24.790  28.319  1.00  0.00     0.031 C 
ATOM     68  C   UNL A   1      47.224  30.155  30.513  1.00  0.00     0.029 A 
ATOM     69  C   UNL A   1      46.441  29.118  30.031  1.00  0.00     0.049 A 
ATOM     70  H   UNL A   1      44.359  29.070  29.691  1.00  0.00     0.167 HD
ATOM     71  C   UNL A   1      46.014  26.833  29.173  1.00  0.00     0.074 A 
ATOM     72  C   UNL A   1      46.440  25.513  28.756  1.00  0.00     0.031 C 
ATOM     73  C   UNL A   1      46.854  27.796  29.626  1.00  0.00     0.037 A 
BRANCH  60  74
ATOM     74  C   UNL A   1      44.032  33.116  31.031  1.00  0.00     0.058 A 
ATOM     75  C   UNL A   1      44.173  34.196  30.146  1.00  0.00     0.135 A 
ATOM     76  C   UNL A   1      43.984  33.399  32.406  1.00  0.00     0.135 A 
ATOM     77  F   UNL A   1      44.244  33.982  28.823  1.00  0.00    -0.206 F 
ATOM     78  C   UNL A   1      44.289  35.504  30.607  1.00  0.00     0.059 A 
ATOM     79  C   UNL A   1      44.070  34.702  32.889  1.00  0.00     0.059 A 
ATOM     80  F   UNL A   1      43.852  32.404  33.297  1.00  0.00    -0.206 F 
ATOM     81  C   UNL A   1      44.237  35.747  31.981  1.00  0.00     0.060 A 
BRANCH  81  82
ATOM     82  S   UNL A   1      44.391  37.448  32.562  1.00  0.00     0.124 S 
ATOM     83  O   UNL A   1      43.228  37.564  33.437  1.00  0.00    -0.237 OA
ATOM     84  O   UNL A   1      45.688  37.435  33.232  1.00  0.00    -0.237 OA
ATOM     85  O   UNL A   1      44.332  38.235  31.334  1.00  0.00    -0.744 OA
ENDBRANCH  81  82
ENDBRANCH  60  74
BRANCH  61  86
ATOM     86  C   UNL A   1      42.739  23.799  27.666  1.00  0.00     0.058 A 
ATOM     87  C   UNL A   1      42.833  23.530  26.292  1.00  0.00     0.135 A 
ATOM     88  C   UNL A   1      42.456  22.722  28.521  1.00  0.00     0.135 A 
ATOM     89  F   UNL A   1      43.082  24.528  25.430  1.00  0.00    -0.206 F 
ATOM     90  C   UNL A   1      42.638  22.250  25.783  1.00  0.00     0.059 A 
ATOM     91  C   UNL A   1      42.285  21.427  28.038  1.00  0.00     0.059 A 
ATOM     92  F   UNL A   1      42.355  22.922  29.844  1.00  0.00    -0.206 F 
ATOM     93  C   UNL A   1      42.367  21.203  26.665  1.00  0.00     0.060 A 
BRANCH  93  94
ATOM     94  S   UNL A   1      42.152  19.538  25.997  1.00  0.00     0.124 S 
ATOM     95  O   UNL A   1      42.626  18.714  27.104  1.00  0.00    -0.237 OA
ATOM     96  O   UNL A   1      40.717  19.494  25.738  1.00  0.00    -0.237 OA
ATOM     97  O   UNL A   1      42.997  19.541  24.807  1.00  0.00    -0.744 OA
ENDBRANCH  93  94
ENDBRANCH  61  86
BRANCH  73  98
ATOM     98  C   UNL A   1      48.316  27.456  29.742  1.00  0.00     0.058 A 
ATOM     99  C   UNL A   1      49.229  27.748  28.716  1.00  0.00     0.135 A 
ATOM    100  C   UNL A   1      48.821  26.886  30.923  1.00  0.00     0.135 A 
ATOM    101  F   UNL A   1      48.802  28.289  27.565  1.00  0.00    -0.206 F 
ATOM    102  C   UNL A   1      50.586  27.466  28.849  1.00  0.00     0.059 A 
ATOM    103  C   UNL A   1      50.178  26.623  31.088  1.00  0.00     0.059 A 
ATOM    104  F   UNL A   1      47.995  26.599  31.942  1.00  0.00    -0.206 F 
ATOM    105  C   UNL A   1      51.052  26.906  30.040  1.00  0.00     0.060 A 
BRANCH 105 106
ATOM    106  S   UNL A   1      52.820  26.582  30.214  1.00  0.00     0.124 S 
ATOM    107  O   UNL A   1      53.326  27.903  30.575  1.00  0.00    -0.237 OA
ATOM    108  O   UNL A   1      52.853  25.581  31.274  1.00  0.00    -0.237 OA
ATOM    109  O   UNL A   1      53.210  26.100  28.893  1.00  0.00    -0.744 OA
ENDBRANCH 105 106
ENDBRANCH  73  98
ENDBRANCH  47  48
ENDBRANCH  40  42
ENDBRANCH  39  40
ENDBRANCH  38  39
ENDBRANCH  37  38
ENDBRANCH  36  37
ENDBRANCH  35  36
ENDBRANCH   1  35
TORSDOF 27
ENDMDL
MODEL 2
REMARK VINA RESULT:     -10.1      2.967      3.516
REMARK SMILES CCC[C@H]([NH2+]Cc1c(O)ccc2c(-c3ccccc3)cc(=O)oc12)C(=O)OCCOCCOCCOC(=O)c1ccc(-c2c3nc(c(-c4c(F)cc(S(=O)(=O)[O-])cc4F)c4ccc([nH]4)c(-c4c(F)cc(S(=O)(=O)[O-])cc4F)c4nc(c(-c5c(F)cc(S(=O)(=O)[O-])cc5F)c5ccc2[nH]5)C=C4)C=C3)cc1
REMARK SMILES IDX 31 1 30 2 29 3 28 4 27 5 25 6 26 7 4 8 3 9 2 10 1 11 5 12
REMARK SMILES IDX 6 15 7 16 8 17 24 18 10 19 12 20 23 21 11 22 13 23 21 24
REMARK SMILES IDX 20 25 22 26 9 27 14 29 15 30 19 31 16 32 18 33 17 34 32 35
REMARK SMILES IDX 33 36 34 37 35 38 36 39 37 40 38 41 39 42 40 43 104 44 41 45
REMARK SMILES IDX 103 46 42 47 43 48 44 49 97 50 45 51 102 52 96 53 98 54
REMARK SMILES IDX 46 55 101 56 95 57 94 58 47 60 81 61 60 62 80 63 61 64 64 65
REMARK SMILES IDX 79 66 99 67 62 68 63 69 78 71 100 72 65 73 48 74 49 75 58 76
REMARK SMILES IDX 50 77 51 78 57 79 59 80 52 81 53 82 54 83 55 84 56 85 82 86
REMARK SMILES IDX 83 87 92 88 84 89 85 90 91 91 93 92 86 93 87 94 88 95 89 96
REMARK SMILES IDX 90 97 66 98 67 99 76 100 68 101 69 102 75 103 77 104 70 105
REMARK SMILES IDX 71 106 72 107 73 108 74 109
REMARK H PARENT 5 13 5 14 9 28 98 59 64 70
REMARK Flexibility Score: inf
ROOT
ATOM      1  C   UNL A   1      33.564  26.768  26.029  1.00  0.00     0.188 C 
ENDROOT
BRANCH   1   2
ATOM      2  O   UNL A   1      34.025  25.424  25.923  1.00  0.00    -0.376 OA
BRANCH   2   3
ATOM      3  C   UNL A   1      34.918  25.104  24.870  1.00  0.00     0.202 C 
BRANCH   3   4
ATOM      4  C   UNL A   1      35.930  23.990  25.156  1.00  0.00     0.261 C 
BRANCH   4   5
ATOM      5  O   UNL A   1      35.635  23.156  26.296  1.00  0.00    -0.459 OA
BRANCH   5   6
ATOM      6  C   UNL A   1      35.406  21.841  26.024  1.00  0.00     0.364 C 
ATOM      7  O   UNL A   1      36.269  21.069  25.616  1.00  0.00    -0.245 OA
BRANCH   6   8
ATOM      8  C   UNL A   1      33.924  21.421  26.098  1.00  0.00     0.293 C 
BRANCH   8   9
ATOM      9  C   UNL A   1      33.664  20.445  24.921  1.00  0.00     0.077 C 
BRANCH   9  10
ATOM     10  C   UNL A   1      33.100  19.049  25.226  1.00  0.00     0.003 C 
ATOM     11  C   UNL A   1      33.802  17.883  24.543  1.00  0.00     0.004 C 
ENDBRANCH   9  10
ENDBRANCH   8   9
BRANCH   8  12
ATOM     12  N   UNL A   1      32.927  22.512  26.168  1.00  0.00    -0.331 N 
ATOM     13  H   UNL A   1      33.426  23.381  26.362  1.00  0.00     0.347 HD
ATOM     14  H   UNL A   1      32.269  22.243  26.899  1.00  0.00     0.347 HD
BRANCH  12  15
ATOM     15  C   UNL A   1      32.126  22.712  24.959  1.00  0.00     0.306 C 
BRANCH  15  16
ATOM     16  C   UNL A   1      31.190  23.911  25.100  1.00  0.00     0.091 A 
ATOM     17  C   UNL A   1      30.388  24.088  26.236  1.00  0.00     0.128 A 
ATOM     18  C   UNL A   1      31.084  24.901  24.099  1.00  0.00     0.151 A 
ATOM     19  C   UNL A   1      29.499  25.158  26.352  1.00  0.00     0.047 A 
ATOM     20  C   UNL A   1      30.236  26.017  24.213  1.00  0.00     0.026 A 
ATOM     21  O   UNL A   1      31.870  24.749  22.935  1.00  0.00    -0.422 OA
ATOM     22  C   UNL A   1      29.418  26.113  25.342  1.00  0.00     0.016 A 
ATOM     23  C   UNL A   1      30.224  27.059  23.167  1.00  0.00    -0.000 A 
ATOM     24  C   UNL A   1      31.833  25.666  21.898  1.00  0.00     0.336 A 
ATOM     25  C   UNL A   1      30.987  26.853  22.084  1.00  0.00     0.103 A 
ATOM     26  O   UNL A   1      32.508  25.534  20.885  1.00  0.00    -0.246 OA
BRANCH  17  27
ATOM     27  O   UNL A   1      30.480  23.207  27.272  1.00  0.00    -0.507 OA
ATOM     28  H   UNL A   1      31.171  23.289  27.898  1.00  0.00     0.293 HD
ENDBRANCH  17  27
BRANCH  23  29
ATOM     29  C   UNL A   1      29.516  28.364  23.240  1.00  0.00    -0.017 A 
ATOM     30  C   UNL A   1      30.191  29.544  23.584  1.00  0.00     0.009 A 
ATOM     31  C   UNL A   1      28.143  28.432  22.958  1.00  0.00     0.009 A 
ATOM     32  C   UNL A   1      29.506  30.762  23.643  1.00  0.00     0.001 A 
ATOM     33  C   UNL A   1      27.462  29.652  23.008  1.00  0.00     0.001 A 
ATOM     34  C   UNL A   1      28.144  30.816  23.352  1.00  0.00     0.000 A 
ENDBRANCH  23  29
ENDBRANCH  15  16
ENDBRANCH  12  15
ENDBRANCH   8  12
ENDBRANCH   6   8
ENDBRANCH   5   6
ENDBRANCH   4   5
ENDBRANCH   3   4
ENDBRANCH   2   3
ENDBRANCH   1   2
BRANCH   1  35
ATOM     35  C   UNL A   1      33.551  27.640  24.770  1.00  0.00     0.188 C 
BRANCH  35  36
ATOM     36  O   UNL A   1      33.417  29.025  25.091  1.00  0.00    -0.376 OA
BRANCH  36  37
ATOM     37  C   UNL A   1      32.351  29.287  25.994  1.00  0.00     0.202 C 
BRANCH  37  38
ATOM     38  C   UNL A   1      32.607  30.590  26.750  1.00  0.00     0.261 C 
BRANCH  38  39
ATOM     39  O   UNL A   1      33.647  30.512  27.743  1.00  0.00    -0.460 OA
BRANCH  39  40
ATOM     40  C   UNL A   1      34.597  31.472  27.723  1.00  0.00     0.338 C 
ATOM     41  O   UNL A   1      34.423  32.661  27.479  1.00  0.00    -0.246 OA
BRANCH  40  42
ATOM     42  C   UNL A   1      35.880  30.883  28.168  1.00  0.00     0.060 A 
ATOM     43  C   UNL A   1      35.909  29.563  28.632  1.00  0.00     0.016 A 
ATOM     44  C   UNL A   1      37.052  31.644  28.162  1.00  0.00     0.016 A 
ATOM     45  C   UNL A   1      37.102  29.005  29.105  1.00  0.00     0.010 A 
ATOM     46  C   UNL A   1      38.240  31.094  28.657  1.00  0.00     0.010 A 
ATOM     47  C   UNL A   1      38.269  29.779  29.157  1.00  0.00    -0.014 A 
BRANCH  47  48
ATOM     48  C   UNL A   1      39.468  29.297  29.894  1.00  0.00     0.031 A 
ATOM     49  C   UNL A   1      39.846  29.988  31.180  1.00  0.00     0.074 A 
ATOM     50  C   UNL A   1      40.213  28.270  29.444  1.00  0.00     0.049 A 
ATOM     51  N   UNL A   1      40.901  29.824  31.934  1.00  0.00    -0.248 NA
ATOM     52  C   UNL A   1      38.904  31.004  31.674  1.00  0.00     0.031 C 
ATOM     53  C   UNL A   1      39.930  27.479  28.248  1.00  0.00     0.029 A 
ATOM     54  N   UNL A   1      41.372  27.723  29.941  1.00  0.00    -0.354 N 
ATOM     55  C   UNL A   1      40.759  30.726  32.984  1.00  0.00     0.074 A 
ATOM     56  C   UNL A   1      39.527  31.448  32.756  1.00  0.00     0.031 C 
ATOM     57  C   UNL A   1      40.897  26.557  28.096  1.00  0.00     0.029 A 
ATOM     58  C   UNL A   1      41.890  26.718  29.159  1.00  0.00     0.049 A 
ATOM     59  H   UNL A   1      41.792  28.024  30.779  1.00  0.00     0.167 HD
ATOM     60  C   UNL A   1      41.577  30.929  34.045  1.00  0.00     0.037 A 
ATOM     61  C   UNL A   1      43.045  26.030  29.269  1.00  0.00     0.037 A 
ATOM     62  C   UNL A   1      42.799  30.203  34.274  1.00  0.00     0.049 A 
ATOM     63  C   UNL A   1      43.980  26.326  30.418  1.00  0.00     0.074 A 
ATOM     64  C   UNL A   1      43.693  30.335  35.322  1.00  0.00     0.029 A 
ATOM     65  N   UNL A   1      43.302  29.213  33.444  1.00  0.00    -0.354 N 
ATOM     66  N   UNL A   1      43.838  27.183  31.401  1.00  0.00    -0.248 NA
ATOM     67  C   UNL A   1      45.237  25.562  30.469  1.00  0.00     0.031 C 
ATOM     68  C   UNL A   1      44.761  29.460  35.101  1.00  0.00     0.029 A 
ATOM     69  C   UNL A   1      44.504  28.741  33.944  1.00  0.00     0.049 A 
ATOM     70  H   UNL A   1      42.868  28.892  32.620  1.00  0.00     0.167 HD
ATOM     71  C   UNL A   1      44.968  27.040  32.202  1.00  0.00     0.074 A 
ATOM     72  C   UNL A   1      45.782  26.009  31.593  1.00  0.00     0.031 C 
ATOM     73  C   UNL A   1      45.301  27.703  33.337  1.00  0.00     0.037 A 
BRANCH  60  74
ATOM     74  C   UNL A   1      41.192  32.005  35.023  1.00  0.00     0.058 A 
ATOM     75  C   UNL A   1      41.712  33.306  34.938  1.00  0.00     0.135 A 
ATOM     76  C   UNL A   1      40.265  31.736  36.044  1.00  0.00     0.135 A 
ATOM     77  F   UNL A   1      42.616  33.612  33.994  1.00  0.00    -0.206 F 
ATOM     78  C   UNL A   1      41.349  34.296  35.846  1.00  0.00     0.059 A 
ATOM     79  C   UNL A   1      39.865  32.718  36.947  1.00  0.00     0.059 A 
ATOM     80  F   UNL A   1      39.738  30.509  36.173  1.00  0.00    -0.206 F 
ATOM     81  C   UNL A   1      40.425  33.991  36.848  1.00  0.00     0.060 A 
BRANCH  81  82
ATOM     82  S   UNL A   1      39.965  35.286  38.018  1.00  0.00     0.124 S 
ATOM     83  O   UNL A   1      38.779  34.707  38.642  1.00  0.00    -0.237 OA
ATOM     84  O   UNL A   1      41.148  35.374  38.869  1.00  0.00    -0.237 OA
ATOM     85  O   UNL A   1      39.722  36.446  37.166  1.00  0.00    -0.744 OA
ENDBRANCH  81  82
ENDBRANCH  60  74
BRANCH  61  86
ATOM     86  C   UNL A   1      43.408  25.005  28.249  1.00  0.00     0.058 A 
ATOM     87  C   UNL A   1      44.078  25.357  27.068  1.00  0.00     0.135 A 
ATOM     88  C   UNL A   1      43.070  23.654  28.426  1.00  0.00     0.135 A 
ATOM     89  F   UNL A   1      44.406  26.638  26.840  1.00  0.00    -0.206 F 
ATOM     90  C   UNL A   1      44.387  24.412  26.094  1.00  0.00     0.059 A 
ATOM     91  C   UNL A   1      43.393  22.686  27.479  1.00  0.00     0.059 A 
ATOM     92  F   UNL A   1      42.428  23.261  29.537  1.00  0.00    -0.206 F 
ATOM     93  C   UNL A   1      44.043  23.077  26.310  1.00  0.00     0.060 A 
BRANCH  93  94
ATOM     94  S   UNL A   1      44.481  21.853  25.055  1.00  0.00     0.124 S 
ATOM     95  O   UNL A   1      45.900  21.650  25.325  1.00  0.00    -0.237 OA
ATOM     96  O   UNL A   1      43.601  20.739  25.393  1.00  0.00    -0.237 OA
ATOM     97  O   UNL A   1      44.168  22.531  23.800  1.00  0.00    -0.744 OA
ENDBRANCH  93  94
ENDBRANCH  61  86
BRANCH  73  98
ATOM     98  C   UNL A   1      46.579  27.310  34.030  1.00  0.00     0.058 A 
ATOM     99  C   UNL A   1      47.798  27.953  33.760  1.00  0.00     0.135 A 
ATOM    100  C   UNL A   1      46.571  26.316  35.024  1.00  0.00     0.135 A 
ATOM    101  F   UNL A   1      47.865  28.907  32.819  1.00  0.00    -0.206 F 
ATOM    102  C   UNL A   1      48.966  27.610  34.436  1.00  0.00     0.059 A 
ATOM    103  C   UNL A   1      47.721  25.977  35.731  1.00  0.00     0.059 A 
ATOM    104  F   UNL A   1      45.431  25.678  35.332  1.00  0.00    -0.206 F 
ATOM    105  C   UNL A   1      48.917  26.622  35.421  1.00  0.00     0.060 A 
BRANCH 105 106
ATOM    106  S   UNL A   1      50.431  26.215  36.317  1.00  0.00     0.124 S 
ATOM    107  O   UNL A   1      51.127  27.498  36.318  1.00  0.00    -0.237 OA
ATOM    108  O   UNL A   1      49.921  25.770  37.609  1.00  0.00    -0.237 OA
ATOM    109  O   UNL A   1      51.042  25.171  35.499  1.00  0.00    -0.744 OA
ENDBRANCH 105 106
ENDBRANCH  73  98
ENDBRANCH  47  48
ENDBRANCH  40  42
ENDBRANCH  39  40
ENDBRANCH  38  39
ENDBRANCH  37  38
ENDBRANCH  36  37
ENDBRANCH  35  36
ENDBRANCH   1  35
TORSDOF 27
ENDMDL
MODEL 3
REMARK VINA RESULT:      -9.9      0.875      7.948
REMARK SMILES CCC[C@H]([NH2+]Cc1c(O)ccc2c(-c3ccccc3)cc(=O)oc12)C(=O)OCCOCCOCCOC(=O)c1ccc(-c2c3nc(c(-c4c(F)cc(S(=O)(=O)[O-])cc4F)c4ccc([nH]4)c(-c4c(F)cc(S(=O)(=O)[O-])cc4F)c4nc(c(-c5c(F)cc(S(=O)(=O)[O-])cc5F)c5ccc2[nH]5)C=C4)C=C3)cc1
REMARK SMILES IDX 31 1 30 2 29 3 28 4 27 5 25 6 26 7 4 8 3 9 2 10 1 11 5 12
REMARK SMILES IDX 6 15 7 16 8 17 24 18 10 19 12 20 23 21 11 22 13 23 21 24
REMARK SMILES IDX 20 25 22 26 9 27 14 29 15 30 19 31 16 32 18 33 17 34 32 35
REMARK SMILES IDX 33 36 34 37 35 38 36 39 37 40 38 41 39 42 40 43 104 44 41 45
REMARK SMILES IDX 103 46 42 47 43 48 44 49 97 50 45 51 102 52 96 53 98 54
REMARK SMILES IDX 46 55 101 56 95 57 94 58 47 60 81 61 60 62 80 63 61 64 64 65
REMARK SMILES IDX 79 66 99 67 62 68 63 69 78 71 100 72 65 73 48 74 49 75 58 76
REMARK SMILES IDX 50 77 51 78 57 79 59 80 52 81 53 82 54 83 55 84 56 85 82 86
REMARK SMILES IDX 83 87 92 88 84 89 85 90 91 91 93 92 86 93 87 94 88 95 89 96
REMARK SMILES IDX 90 97 66 98 67 99 76 100 68 101 69 102 75 103 77 104 70 105
REMARK SMILES IDX 71 106 72 107 73 108 74 109
REMARK H PARENT 5 13 5 14 9 28 98 59 64 70
REMARK Flexibility Score: inf
ROOT
ATOM      1  C   UNL A   1      34.011  25.886  25.690  1.00  0.00     0.188 C 
ENDROOT
BRANCH   1   2
ATOM      2  O   UNL A   1      34.508  24.595  25.344  1.00  0.00    -0.376 OA
BRANCH   2   3
ATOM      3  C   UNL A   1      35.820  24.252  25.753  1.00  0.00     0.202 C 
BRANCH   3   4
ATOM      4  C   UNL A   1      36.249  22.802  25.504  1.00  0.00     0.261 C 
BRANCH   4   5
ATOM      5  O   UNL A   1      35.451  21.794  26.161  1.00  0.00    -0.459 OA
BRANCH   5   6
ATOM      6  C   UNL A   1      34.934  20.829  25.350  1.00  0.00     0.364 C 
ATOM      7  O   UNL A   1      35.620  20.023  24.727  1.00  0.00    -0.245 OA
BRANCH   6   8
ATOM      8  C   UNL A   1      33.412  20.927  25.128  1.00  0.00     0.293 C 
BRANCH   8   9
ATOM      9  C   UNL A   1      32.997  19.723  24.242  1.00  0.00     0.077 C 
BRANCH   9  10
ATOM     10  C   UNL A   1      32.507  18.436  24.922  1.00  0.00     0.003 C 
ATOM     11  C   UNL A   1      33.486  17.270  24.924  1.00  0.00     0.004 C 
ENDBRANCH   9  10
ENDBRANCH   8   9
BRANCH   8  12
ATOM     12  N   UNL A   1      32.898  22.217  24.617  1.00  0.00    -0.331 N 
ATOM     13  H   UNL A   1      33.522  22.955  24.943  1.00  0.00     0.347 HD
ATOM     14  H   UNL A   1      31.944  22.298  24.971  1.00  0.00     0.347 HD
BRANCH  12  15
ATOM     15  C   UNL A   1      32.796  22.323  23.160  1.00  0.00     0.306 C 
BRANCH  15  16
ATOM     16  C   UNL A   1      32.339  23.716  22.730  1.00  0.00     0.091 A 
ATOM     17  C   UNL A   1      32.716  24.264  21.496  1.00  0.00     0.128 A 
ATOM     18  C   UNL A   1      31.518  24.522  23.548  1.00  0.00     0.151 A 
ATOM     19  C   UNL A   1      32.338  25.553  21.115  1.00  0.00     0.047 A 
ATOM     20  C   UNL A   1      31.080  25.802  23.167  1.00  0.00     0.026 A 
ATOM     21  O   UNL A   1      31.128  24.005  24.804  1.00  0.00    -0.422 OA
ATOM     22  C   UNL A   1      31.531  26.320  21.950  1.00  0.00     0.016 A 
ATOM     23  C   UNL A   1      30.159  26.567  24.031  1.00  0.00    -0.000 A 
ATOM     24  C   UNL A   1      30.325  24.721  25.676  1.00  0.00     0.336 A 
ATOM     25  C   UNL A   1      29.832  26.025  25.214  1.00  0.00     0.103 A 
ATOM     26  O   UNL A   1      29.991  24.278  26.767  1.00  0.00    -0.246 OA
BRANCH  17  27
ATOM     27  O   UNL A   1      33.459  23.523  20.626  1.00  0.00    -0.507 OA
ATOM     28  H   UNL A   1      34.260  23.130  20.910  1.00  0.00     0.293 HD
ENDBRANCH  17  27
BRANCH  23  29
ATOM     29  C   UNL A   1      29.482  27.842  23.677  1.00  0.00    -0.017 A 
ATOM     30  C   UNL A   1      28.138  27.873  23.281  1.00  0.00     0.009 A 
ATOM     31  C   UNL A   1      30.193  29.052  23.739  1.00  0.00     0.009 A 
ATOM     32  C   UNL A   1      27.521  29.084  22.956  1.00  0.00     0.001 A 
ATOM     33  C   UNL A   1      29.572  30.263  23.424  1.00  0.00     0.001 A 
ATOM     34  C   UNL A   1      28.236  30.278  23.031  1.00  0.00     0.000 A 
ENDBRANCH  23  29
ENDBRANCH  15  16
ENDBRANCH  12  15
ENDBRANCH   8  12
ENDBRANCH   6   8
ENDBRANCH   5   6
ENDBRANCH   4   5
ENDBRANCH   3   4
ENDBRANCH   2   3
ENDBRANCH   1   2
BRANCH   1  35
ATOM     35  C   UNL A   1      33.975  26.971  24.610  1.00  0.00     0.188 C 
BRANCH  35  36
ATOM     36  O   UNL A   1      33.559  28.229  25.144  1.00  0.00    -0.376 OA
BRANCH  36  37
ATOM     37  C   UNL A   1      32.804  28.104  26.342  1.00  0.00     0.202 C 
BRANCH  37  38
ATOM     38  C   UNL A   1      33.014  29.331  27.228  1.00  0.00     0.261 C 
BRANCH  38  39
ATOM     39  O   UNL A   1      34.266  30.012  27.022  1.00  0.00    -0.460 OA
BRANCH  39  40
ATOM     40  C   UNL A   1      34.821  30.627  28.089  1.00  0.00     0.338 C 
ATOM     41  O   UNL A   1      34.260  31.407  28.851  1.00  0.00    -0.246 OA
BRANCH  40  42
ATOM     42  C   UNL A   1      36.197  30.113  28.274  1.00  0.00     0.060 A 
ATOM     43  C   UNL A   1      36.619  29.715  29.547  1.00  0.00     0.016 A 
ATOM     44  C   UNL A   1      37.085  30.057  27.197  1.00  0.00     0.016 A 
ATOM     45  C   UNL A   1      37.932  29.275  29.752  1.00  0.00     0.010 A 
ATOM     46  C   UNL A   1      38.405  29.639  27.406  1.00  0.00     0.010 A 
ATOM     47  C   UNL A   1      38.846  29.271  28.690  1.00  0.00    -0.014 A 
BRANCH  47  48
ATOM     48  C   UNL A   1      40.298  29.063  28.939  1.00  0.00     0.031 A 
ATOM     49  C   UNL A   1      40.898  27.720  28.610  1.00  0.00     0.074 A 
ATOM     50  C   UNL A   1      41.078  30.037  29.445  1.00  0.00     0.049 A 
ATOM     51  N   UNL A   1      42.102  27.266  28.841  1.00  0.00    -0.248 NA
ATOM     52  C   UNL A   1      40.013  26.760  27.931  1.00  0.00     0.031 C 
ATOM     53  C   UNL A   1      40.641  31.396  29.757  1.00  0.00     0.029 A 
ATOM     54  N   UNL A   1      42.407  30.023  29.798  1.00  0.00    -0.354 N 
ATOM     55  C   UNL A   1      42.117  25.964  28.352  1.00  0.00     0.074 A 
ATOM     56  C   UNL A   1      40.794  25.695  27.831  1.00  0.00     0.031 C 
ATOM     57  C   UNL A   1      41.680  32.082  30.266  1.00  0.00     0.029 A 
ATOM     58  C   UNL A   1      42.843  31.201  30.357  1.00  0.00     0.049 A 
ATOM     59  H   UNL A   1      42.991  29.243  29.662  1.00  0.00     0.167 HD
ATOM     60  C   UNL A   1      43.140  25.076  28.331  1.00  0.00     0.037 A 
ATOM     61  C   UNL A   1      44.034  31.521  30.907  1.00  0.00     0.037 A 
ATOM     62  C   UNL A   1      44.457  25.349  28.842  1.00  0.00     0.049 A 
ATOM     63  C   UNL A   1      45.137  30.490  30.943  1.00  0.00     0.074 A 
ATOM     64  C   UNL A   1      45.561  24.514  28.864  1.00  0.00     0.029 A 
ATOM     65  N   UNL A   1      44.851  26.544  29.426  1.00  0.00    -0.354 N 
ATOM     66  N   UNL A   1      45.137  29.262  30.482  1.00  0.00    -0.248 NA
ATOM     67  C   UNL A   1      46.402  30.888  31.580  1.00  0.00     0.031 C 
ATOM     68  C   UNL A   1      46.608  25.187  29.503  1.00  0.00     0.029 A 
ATOM     69  C   UNL A   1      46.173  26.461  29.830  1.00  0.00     0.049 A 
ATOM     70  H   UNL A   1      44.275  27.335  29.536  1.00  0.00     0.167 HD
ATOM     71  C   UNL A   1      46.407  28.753  30.744  1.00  0.00     0.074 A 
ATOM     72  C   UNL A   1      47.151  29.809  31.398  1.00  0.00     0.031 C 
ATOM     73  C   UNL A   1      46.910  27.524  30.469  1.00  0.00     0.037 A 
BRANCH  60  74
ATOM     74  C   UNL A   1      42.863  23.710  27.765  1.00  0.00     0.058 A 
ATOM     75  C   UNL A   1      42.518  22.623  28.584  1.00  0.00     0.135 A 
ATOM     76  C   UNL A   1      42.915  23.493  26.378  1.00  0.00     0.135 A 
ATOM     77  F   UNL A   1      42.473  22.769  29.918  1.00  0.00    -0.206 F 
ATOM     78  C   UNL A   1      42.262  21.364  28.052  1.00  0.00     0.059 A 
ATOM     79  C   UNL A   1      42.635  22.249  25.821  1.00  0.00     0.059 A 
ATOM     80  F   UNL A   1      43.241  24.496  25.549  1.00  0.00    -0.206 F 
ATOM     81  C   UNL A   1      42.324  21.186  26.668  1.00  0.00     0.060 A 
BRANCH  81  82
ATOM     82  S   UNL A   1      41.990  19.546  25.994  1.00  0.00     0.124 S 
ATOM     83  O   UNL A   1      40.567  19.643  25.681  1.00  0.00    -0.237 OA
ATOM     84  O   UNL A   1      42.888  19.490  24.845  1.00  0.00    -0.237 OA
ATOM     85  O   UNL A   1      42.329  18.649  27.094  1.00  0.00    -0.744 OA
ENDBRANCH  81  82
ENDBRANCH  60  74
BRANCH  61  86
ATOM     86  C   UNL A   1      44.248  32.872  31.498  1.00  0.00     0.058 A 
ATOM     87  C   UNL A   1      44.840  33.906  30.759  1.00  0.00     0.135 A 
ATOM     88  C   UNL A   1      43.884  33.149  32.826  1.00  0.00     0.135 A 
ATOM     89  F   UNL A   1      45.225  33.688  29.492  1.00  0.00    -0.206 F 
ATOM     90  C   UNL A   1      45.078  35.160  31.315  1.00  0.00     0.059 A 
ATOM     91  C   UNL A   1      44.085  34.404  33.396  1.00  0.00     0.059 A 
ATOM     92  F   UNL A   1      43.313  32.197  33.580  1.00  0.00    -0.206 F 
ATOM     93  C   UNL A   1      44.694  35.400  32.635  1.00  0.00     0.060 A 
BRANCH  93  94
ATOM     94  S   UNL A   1      44.974  37.042  33.336  1.00  0.00     0.124 S 
ATOM     95  O   UNL A   1      44.864  36.774  34.765  1.00  0.00    -0.237 OA
ATOM     96  O   UNL A   1      46.312  37.360  32.847  1.00  0.00    -0.237 OA
ATOM     97  O   UNL A   1      43.898  37.841  32.759  1.00  0.00    -0.744 OA
ENDBRANCH  93  94
ENDBRANCH  61  86
BRANCH  73  98
ATOM     98  C   UNL A   1      48.348  27.258  30.829  1.00  0.00     0.058 A 
ATOM     99  C   UNL A   1      48.714  26.730  32.077  1.00  0.00     0.135 A 
ATOM    100  C   UNL A   1      49.368  27.475  29.887  1.00  0.00     0.135 A 
ATOM    101  F   UNL A   1      47.782  26.506  33.017  1.00  0.00    -0.206 F 
ATOM    102  C   UNL A   1      50.042  26.449  32.386  1.00  0.00     0.059 A 
ATOM    103  C   UNL A   1      50.698  27.174  30.164  1.00  0.00     0.059 A 
ATOM    104  F   UNL A   1      49.073  27.965  28.672  1.00  0.00    -0.206 F 
ATOM    105  C   UNL A   1      51.027  26.672  31.422  1.00  0.00     0.060 A 
BRANCH 105 106
ATOM    106  S   UNL A   1      52.741  26.265  31.822  1.00  0.00     0.124 S 
ATOM    107  O   UNL A   1      53.362  26.277  30.501  1.00  0.00    -0.237 OA
ATOM    108  O   UNL A   1      53.123  27.357  32.711  1.00  0.00    -0.237 OA
ATOM    109  O   UNL A   1      52.641  24.954  32.457  1.00  0.00    -0.744 OA
ENDBRANCH 105 106
ENDBRANCH  73  98
ENDBRANCH  47  48
ENDBRANCH  40  42
ENDBRANCH  39  40
ENDBRANCH  38  39
ENDBRANCH  37  38
ENDBRANCH  36  37
ENDBRANCH  35  36
ENDBRANCH   1  35
TORSDOF 27
ENDMDL
