MODEL 1
REMARK VINA RESULT:      -7.7      0.000      0.000
REMARK SMILES NC(=O)CC[C@H](NC(=O)CC1CC1)C(=O)OCCOCCOCCOC(=O)c1ccc(-c2c3nc(c(-c4c(F)cc(S(=O)(=O)[O-])cc4F)c4ccc([nH]4)c(-c4c(F)cc(S(=O)(=O)[O-])cc4F)c4nc(c(-c5c(F)cc(S(=O)(=O)[O-])cc5F)c5ccc2[nH]5)C=C4)C=C3)cc1
REMARK SMILES IDX 20 1 19 2 18 3 17 4 16 5 14 6 15 7 6 8 5 9 4 10 2 11 1 12
REMARK SMILES IDX 3 15 7 16 8 17 9 19 10 20 11 21 12 22 13 23 21 24 22 25
REMARK SMILES IDX 23 26 24 27 25 28 26 29 27 30 28 31 29 32 93 33 30 34 92 35
REMARK SMILES IDX 31 36 32 37 33 38 86 39 34 40 91 41 85 42 87 43 35 44 90 45
REMARK SMILES IDX 84 46 83 47 36 49 70 50 49 51 69 52 50 53 53 54 68 55 88 56
REMARK SMILES IDX 51 57 52 58 67 60 89 61 54 62 37 63 38 64 47 65 39 66 40 67
REMARK SMILES IDX 46 68 48 69 41 70 42 71 43 72 44 73 45 74 71 75 72 76 81 77
REMARK SMILES IDX 73 78 74 79 80 80 82 81 75 82 76 83 77 84 78 85 79 86 55 87
REMARK SMILES IDX 56 88 65 89 57 90 58 91 64 92 66 93 59 94 60 95 61 96 62 97
REMARK SMILES IDX 63 98
REMARK H PARENT 1 13 1 14 7 18 87 48 53 59
REMARK Flexibility Score: inf
ROOT
ATOM      1  C   UNL A   1      34.710  33.895  29.630  1.00  0.00     0.188 C 
ENDROOT
BRANCH   1   2
ATOM      2  O   UNL A   1      33.647  33.341  28.870  1.00  0.00    -0.376 OA
BRANCH   2   3
ATOM      3  C   UNL A   1      33.992  32.215  28.082  1.00  0.00     0.202 C 
BRANCH   3   4
ATOM      4  C   UNL A   1      32.859  31.593  27.258  1.00  0.00     0.261 C 
BRANCH   4   5
ATOM      5  O   UNL A   1      33.109  30.342  26.590  1.00  0.00    -0.462 OA
BRANCH   5   6
ATOM      6  C   UNL A   1      32.207  29.332  26.702  1.00  0.00     0.328 C 
ATOM      7  O   UNL A   1      31.573  29.080  27.720  1.00  0.00    -0.250 OA
BRANCH   6   8
ATOM      8  C   UNL A   1      32.274  28.385  25.501  1.00  0.00     0.192 C 
BRANCH   8   9
ATOM      9  C   UNL A   1      32.078  26.934  26.002  1.00  0.00     0.047 C 
BRANCH   9  10
ATOM     10  C   UNL A   1      31.263  25.972  25.122  1.00  0.00     0.102 C 
BRANCH  10  11
ATOM     11  C   UNL A   1      29.843  25.642  25.568  1.00  0.00     0.217 C 
ATOM     12  N   UNL A   1      28.803  25.894  24.737  1.00  0.00    -0.370 N 
ATOM     13  H   UNL A   1      27.884  25.683  25.020  1.00  0.00     0.159 HD
ATOM     14  H   UNL A   1      28.966  26.289  23.850  1.00  0.00     0.159 HD
ATOM     15  O   UNL A   1      29.607  25.226  26.701  1.00  0.00    -0.275 OA
ENDBRANCH  10  11
ENDBRANCH   9  10
ENDBRANCH   8   9
BRANCH   8  16
ATOM     16  N   UNL A   1      33.521  28.547  24.733  1.00  0.00    -0.343 N 
ATOM     17  C   UNL A   1      33.730  28.396  23.387  1.00  0.00     0.220 C 
ATOM     18  H   UNL A   1      34.313  28.800  25.259  1.00  0.00     0.164 HD
ATOM     19  O   UNL A   1      34.783  28.821  22.906  1.00  0.00    -0.275 OA
BRANCH  17  20
ATOM     20  C   UNL A   1      32.672  27.751  22.501  1.00  0.00     0.103 C 
BRANCH  20  21
ATOM     21  C   UNL A   1      33.160  26.537  21.761  1.00  0.00    -0.002 C 
ATOM     22  C   UNL A   1      33.636  25.346  22.555  1.00  0.00     0.004 C 
ATOM     23  C   UNL A   1      32.387  25.242  21.731  1.00  0.00     0.004 C 
ENDBRANCH  20  21
ENDBRANCH  17  20
ENDBRANCH   8  16
ENDBRANCH   6   8
ENDBRANCH   5   6
ENDBRANCH   4   5
ENDBRANCH   3   4
ENDBRANCH   2   3
ENDBRANCH   1   2
BRANCH   1  24
ATOM     24  C   UNL A   1      34.975  33.155  30.956  1.00  0.00     0.188 C 
BRANCH  24  25
ATOM     25  O   UNL A   1      36.300  33.028  31.440  1.00  0.00    -0.376 OA
BRANCH  25  26
ATOM     26  C   UNL A   1      37.148  32.068  30.824  1.00  0.00     0.202 C 
BRANCH  26  27
ATOM     27  C   UNL A   1      37.675  32.262  29.383  1.00  0.00     0.261 C 
BRANCH  27  28
ATOM     28  O   UNL A   1      37.380  31.228  28.425  1.00  0.00    -0.460 OA
BRANCH  28  29
ATOM     29  C   UNL A   1      37.531  29.950  28.858  1.00  0.00     0.338 C 
ATOM     30  O   UNL A   1      36.650  29.225  29.303  1.00  0.00    -0.246 OA
BRANCH  29  31
ATOM     31  C   UNL A   1      38.879  29.445  28.485  1.00  0.00     0.060 A 
ATOM     32  C   UNL A   1      39.758  29.051  29.510  1.00  0.00     0.016 A 
ATOM     33  C   UNL A   1      39.290  29.378  27.154  1.00  0.00     0.016 A 
ATOM     34  C   UNL A   1      41.053  28.629  29.216  1.00  0.00     0.010 A 
ATOM     35  C   UNL A   1      40.608  29.002  26.861  1.00  0.00     0.010 A 
ATOM     36  C   UNL A   1      41.509  28.674  27.895  1.00  0.00    -0.014 A 
BRANCH  36  37
ATOM     37  C   UNL A   1      42.974  28.685  27.645  1.00  0.00     0.031 A 
ATOM     38  C   UNL A   1      43.604  27.405  27.154  1.00  0.00     0.074 A 
ATOM     39  C   UNL A   1      43.723  29.793  27.791  1.00  0.00     0.049 A 
ATOM     40  N   UNL A   1      44.860  27.131  26.914  1.00  0.00    -0.248 NA
ATOM     41  C   UNL A   1      42.685  26.280  26.904  1.00  0.00     0.031 C 
ATOM     42  C   UNL A   1      43.228  31.108  28.192  1.00  0.00     0.029 A 
ATOM     43  N   UNL A   1      45.074  29.980  27.620  1.00  0.00    -0.354 N 
ATOM     44  C   UNL A   1      44.882  25.804  26.498  1.00  0.00     0.074 A 
ATOM     45  C   UNL A   1      43.522  25.317  26.553  1.00  0.00     0.031 C 
ATOM     46  C   UNL A   1      44.264  31.964  28.254  1.00  0.00     0.029 A 
ATOM     47  C   UNL A   1      45.500  31.252  27.927  1.00  0.00     0.049 A 
ATOM     48  H   UNL A   1      45.679  29.270  27.306  1.00  0.00     0.167 HD
ATOM     49  C   UNL A   1      45.937  25.057  26.096  1.00  0.00     0.037 A 
ATOM     50  C   UNL A   1      46.747  31.768  27.962  1.00  0.00     0.037 A 
ATOM     51  C   UNL A   1      47.290  25.545  26.043  1.00  0.00     0.049 A 
ATOM     52  C   UNL A   1      47.920  30.895  27.587  1.00  0.00     0.074 A 
ATOM     53  C   UNL A   1      48.433  24.869  25.654  1.00  0.00     0.029 A 
ATOM     54  N   UNL A   1      47.684  26.828  26.391  1.00  0.00    -0.354 N 
ATOM     55  N   UNL A   1      47.930  29.640  27.198  1.00  0.00    -0.248 NA
ATOM     56  C   UNL A   1      49.254  31.510  27.648  1.00  0.00     0.031 C 
ATOM     57  C   UNL A   1      49.525  25.726  25.819  1.00  0.00     0.029 A 
ATOM     58  C   UNL A   1      49.054  26.958  26.244  1.00  0.00     0.049 A 
ATOM     59  H   UNL A   1      47.078  27.542  26.698  1.00  0.00     0.167 HD
ATOM     60  C   UNL A   1      49.261  29.333  26.928  1.00  0.00     0.074 A 
ATOM     61  C   UNL A   1      50.026  30.534  27.191  1.00  0.00     0.031 C 
ATOM     62  C   UNL A   1      49.802  28.166  26.494  1.00  0.00     0.037 A 
BRANCH  49  63
ATOM     63  C   UNL A   1      45.672  23.627  25.712  1.00  0.00     0.058 A 
ATOM     64  C   UNL A   1      45.772  23.183  24.383  1.00  0.00     0.135 A 
ATOM     65  C   UNL A   1      45.337  22.680  26.693  1.00  0.00     0.135 A 
ATOM     66  F   UNL A   1      46.065  24.050  23.401  1.00  0.00    -0.206 F 
ATOM     67  C   UNL A   1      45.523  21.858  24.039  1.00  0.00     0.059 A 
ATOM     68  C   UNL A   1      45.117  21.344  26.375  1.00  0.00     0.059 A 
ATOM     69  F   UNL A   1      45.221  23.049  27.979  1.00  0.00    -0.206 F 
ATOM     70  C   UNL A   1      45.199  20.945  25.043  1.00  0.00     0.060 A 
BRANCH  70  71
ATOM     71  S   UNL A   1      44.894  19.227  24.581  1.00  0.00     0.124 S 
ATOM     72  O   UNL A   1      46.149  18.592  24.972  1.00  0.00    -0.237 OA
ATOM     73  O   UNL A   1      43.731  18.888  25.397  1.00  0.00    -0.237 OA
ATOM     74  O   UNL A   1      44.648  19.298  23.144  1.00  0.00    -0.744 OA
ENDBRANCH  70  71
ENDBRANCH  49  63
BRANCH  50  75
ATOM     75  C   UNL A   1      46.961  33.183  28.374  1.00  0.00     0.058 A 
ATOM     76  C   UNL A   1      47.157  33.527  29.721  1.00  0.00     0.135 A 
ATOM     77  C   UNL A   1      46.950  34.225  27.433  1.00  0.00     0.135 A 
ATOM     78  F   UNL A   1      47.162  32.572  30.662  1.00  0.00    -0.206 F 
ATOM     79  C   UNL A   1      47.313  34.850  30.122  1.00  0.00     0.059 A 
ATOM     80  C   UNL A   1      47.134  35.553  27.805  1.00  0.00     0.059 A 
ATOM     81  F   UNL A   1      46.771  33.953  26.130  1.00  0.00    -0.206 F 
ATOM     82  C   UNL A   1      47.304  35.857  29.156  1.00  0.00     0.060 A 
BRANCH  82  83
ATOM     83  S   UNL A   1      47.556  37.566  29.683  1.00  0.00     0.124 S 
ATOM     84  O   UNL A   1      46.660  38.286  28.786  1.00  0.00    -0.237 OA
ATOM     85  O   UNL A   1      47.152  37.513  31.085  1.00  0.00    -0.237 OA
ATOM     86  O   UNL A   1      48.982  37.780  29.457  1.00  0.00    -0.744 OA
ENDBRANCH  82  83
ENDBRANCH  50  75
BRANCH  62  87
ATOM     87  C   UNL A   1      51.282  28.143  26.208  1.00  0.00     0.058 A 
ATOM     88  C   UNL A   1      51.804  28.440  24.939  1.00  0.00     0.135 A 
ATOM     89  C   UNL A   1      52.194  27.862  27.240  1.00  0.00     0.135 A 
ATOM     90  F   UNL A   1      50.979  28.715  23.916  1.00  0.00    -0.206 F 
ATOM     91  C   UNL A   1      53.173  28.419  24.693  1.00  0.00     0.059 A 
ATOM     92  C   UNL A   1      53.569  27.870  27.025  1.00  0.00     0.059 A 
ATOM     93  F   UNL A   1      51.752  27.588  28.477  1.00  0.00    -0.206 F 
ATOM     94  C   UNL A   1      54.048  28.133  25.743  1.00  0.00     0.060 A 
BRANCH  94  95
ATOM     95  S   UNL A   1      55.823  28.120  25.414  1.00  0.00     0.124 S 
ATOM     96  O   UNL A   1      55.898  27.262  24.236  1.00  0.00    -0.237 OA
ATOM     97  O   UNL A   1      56.108  29.534  25.189  1.00  0.00    -0.237 OA
ATOM     98  O   UNL A   1      56.393  27.560  26.636  1.00  0.00    -0.744 OA
ENDBRANCH  94  95
ENDBRANCH  62  87
ENDBRANCH  36  37
ENDBRANCH  29  31
ENDBRANCH  28  29
ENDBRANCH  27  28
ENDBRANCH  26  27
ENDBRANCH  25  26
ENDBRANCH  24  25
ENDBRANCH   1  24
TORSDOF 26
ENDMDL
MODEL 2
REMARK VINA RESULT:      -7.6      4.975     12.387
REMARK SMILES NC(=O)CC[C@H](NC(=O)CC1CC1)C(=O)OCCOCCOCCOC(=O)c1ccc(-c2c3nc(c(-c4c(F)cc(S(=O)(=O)[O-])cc4F)c4ccc([nH]4)c(-c4c(F)cc(S(=O)(=O)[O-])cc4F)c4nc(c(-c5c(F)cc(S(=O)(=O)[O-])cc5F)c5ccc2[nH]5)C=C4)C=C3)cc1
REMARK SMILES IDX 20 1 19 2 18 3 17 4 16 5 14 6 15 7 6 8 5 9 4 10 2 11 1 12
REMARK SMILES IDX 3 15 7 16 8 17 9 19 10 20 11 21 12 22 13 23 21 24 22 25
REMARK SMILES IDX 23 26 24 27 25 28 26 29 27 30 28 31 29 32 93 33 30 34 92 35
REMARK SMILES IDX 31 36 32 37 33 38 86 39 34 40 91 41 85 42 87 43 35 44 90 45
REMARK SMILES IDX 84 46 83 47 36 49 70 50 49 51 69 52 50 53 53 54 68 55 88 56
REMARK SMILES IDX 51 57 52 58 67 60 89 61 54 62 37 63 38 64 47 65 39 66 40 67
REMARK SMILES IDX 46 68 48 69 41 70 42 71 43 72 44 73 45 74 71 75 72 76 81 77
REMARK SMILES IDX 73 78 74 79 80 80 82 81 75 82 76 83 77 84 78 85 79 86 55 87
REMARK SMILES IDX 56 88 65 89 57 90 58 91 64 92 66 93 59 94 60 95 61 96 62 97
REMARK SMILES IDX 63 98
REMARK H PARENT 1 13 1 14 7 18 87 48 53 59
REMARK Flexibility Score: inf
ROOT
ATOM      1  C   UNL A   1      45.224  37.651  28.870  1.00  0.00     0.188 C 
ENDROOT
BRANCH   1   2
ATOM      2  O   UNL A   1      44.127  38.346  28.294  1.00  0.00    -0.376 OA
BRANCH   2   3
ATOM      3  C   UNL A   1      44.471  39.497  27.543  1.00  0.00     0.202 C 
BRANCH   3   4
ATOM      4  C   UNL A   1      43.362  40.088  26.666  1.00  0.00     0.261 C 
BRANCH   4   5
ATOM      5  O   UNL A   1      43.740  40.767  25.453  1.00  0.00    -0.462 OA
BRANCH   5   6
ATOM      6  C   UNL A   1      44.069  42.084  25.497  1.00  0.00     0.328 C 
ATOM      7  O   UNL A   1      44.226  42.724  26.531  1.00  0.00    -0.250 OA
BRANCH   6   8
ATOM      8  C   UNL A   1      43.958  42.736  24.117  1.00  0.00     0.192 C 
BRANCH   8   9
ATOM      9  C   UNL A   1      44.762  44.059  24.128  1.00  0.00     0.047 C 
BRANCH   9  10
ATOM     10  C   UNL A   1      46.281  43.978  24.349  1.00  0.00     0.102 C 
BRANCH  10  11
ATOM     11  C   UNL A   1      46.883  44.859  25.438  1.00  0.00     0.217 C 
ATOM     12  N   UNL A   1      48.223  45.058  25.476  1.00  0.00    -0.370 N 
ATOM     13  H   UNL A   1      48.617  45.626  26.177  1.00  0.00     0.159 HD
ATOM     14  H   UNL A   1      48.803  44.633  24.803  1.00  0.00     0.159 HD
ATOM     15  O   UNL A   1      46.189  45.331  26.337  1.00  0.00    -0.275 OA
ENDBRANCH  10  11
ENDBRANCH   9  10
ENDBRANCH   8   9
BRANCH   8  16
ATOM     16  N   UNL A   1      42.558  42.937  23.707  1.00  0.00    -0.343 N 
ATOM     17  C   UNL A   1      41.985  42.750  22.476  1.00  0.00     0.220 C 
ATOM     18  H   UNL A   1      41.949  43.247  24.415  1.00  0.00     0.164 HD
ATOM     19  O   UNL A   1      40.755  42.730  22.399  1.00  0.00    -0.275 OA
BRANCH  17  20
ATOM     20  C   UNL A   1      42.847  42.537  21.238  1.00  0.00     0.103 C 
BRANCH  20  21
ATOM     21  C   UNL A   1      42.998  43.766  20.386  1.00  0.00    -0.002 C 
ATOM     22  C   UNL A   1      44.118  43.818  19.378  1.00  0.00     0.004 C 
ATOM     23  C   UNL A   1      42.694  43.772  18.910  1.00  0.00     0.004 C 
ENDBRANCH  20  21
ENDBRANCH  17  20
ENDBRANCH   8  16
ENDBRANCH   6   8
ENDBRANCH   5   6
ENDBRANCH   4   5
ENDBRANCH   3   4
ENDBRANCH   2   3
ENDBRANCH   1   2
BRANCH   1  24
ATOM     24  C   UNL A   1      46.516  38.487  28.942  1.00  0.00     0.188 C 
BRANCH  24  25
ATOM     25  O   UNL A   1      46.955  39.002  30.186  1.00  0.00    -0.376 OA
BRANCH  25  26
ATOM     26  C   UNL A   1      48.236  38.610  30.660  1.00  0.00     0.202 C 
BRANCH  26  27
ATOM     27  C   UNL A   1      49.386  38.263  29.686  1.00  0.00     0.261 C 
BRANCH  27  28
ATOM     28  O   UNL A   1      49.669  36.869  29.464  1.00  0.00    -0.460 OA
BRANCH  28  29
ATOM     29  C   UNL A   1      49.440  36.404  28.209  1.00  0.00     0.338 C 
ATOM     30  O   UNL A   1      50.080  36.681  27.203  1.00  0.00    -0.246 OA
BRANCH  29  31
ATOM     31  C   UNL A   1      48.447  35.298  28.254  1.00  0.00     0.060 A 
ATOM     32  C   UNL A   1      48.463  34.422  29.355  1.00  0.00     0.016 A 
ATOM     33  C   UNL A   1      47.526  35.103  27.225  1.00  0.00     0.016 A 
ATOM     34  C   UNL A   1      47.594  33.334  29.414  1.00  0.00     0.010 A 
ATOM     35  C   UNL A   1      46.685  33.981  27.260  1.00  0.00     0.010 A 
ATOM     36  C   UNL A   1      46.751  33.067  28.330  1.00  0.00    -0.014 A 
BRANCH  36  37
ATOM     37  C   UNL A   1      46.192  31.698  28.182  1.00  0.00     0.031 A 
ATOM     38  C   UNL A   1      47.099  30.637  27.610  1.00  0.00     0.074 A 
ATOM     39  C   UNL A   1      44.948  31.377  28.583  1.00  0.00     0.049 A 
ATOM     40  N   UNL A   1      46.846  29.385  27.327  1.00  0.00    -0.248 NA
ATOM     41  C   UNL A   1      48.483  31.050  27.317  1.00  0.00     0.031 C 
ATOM     42  C   UNL A   1      43.995  32.290  29.211  1.00  0.00     0.029 A 
ATOM     43  N   UNL A   1      44.272  30.183  28.510  1.00  0.00    -0.354 N 
ATOM     44  C   UNL A   1      48.032  28.869  26.812  1.00  0.00     0.074 A 
ATOM     45  C   UNL A   1      48.992  29.949  26.788  1.00  0.00     0.031 C 
ATOM     46  C   UNL A   1      42.850  31.626  29.452  1.00  0.00     0.029 A 
ATOM     47  C   UNL A   1      42.977  30.251  28.967  1.00  0.00     0.049 A 
ATOM     48  H   UNL A   1      44.679  29.355  28.164  1.00  0.00     0.167 HD
ATOM     49  C   UNL A   1      48.302  27.607  26.405  1.00  0.00     0.037 A 
ATOM     50  C   UNL A   1      42.003  29.316  28.968  1.00  0.00     0.037 A 
ATOM     51  C   UNL A   1      47.343  26.534  26.429  1.00  0.00     0.049 A 
ATOM     52  C   UNL A   1      42.301  27.936  28.433  1.00  0.00     0.074 A 
ATOM     53  C   UNL A   1      47.514  25.219  26.034  1.00  0.00     0.029 A 
ATOM     54  N   UNL A   1      46.033  26.652  26.870  1.00  0.00    -0.354 N 
ATOM     55  N   UNL A   1      43.424  27.460  27.947  1.00  0.00    -0.248 NA
ATOM     56  C   UNL A   1      41.200  26.961  28.456  1.00  0.00     0.031 C 
ATOM     57  C   UNL A   1      46.293  24.556  26.185  1.00  0.00     0.029 A 
ATOM     58  C   UNL A   1      45.380  25.439  26.739  1.00  0.00     0.049 A 
ATOM     59  H   UNL A   1      45.628  27.477  27.223  1.00  0.00     0.167 HD
ATOM     60  C   UNL A   1      43.176  26.123  27.648  1.00  0.00     0.074 A 
ATOM     61  C   UNL A   1      41.799  25.864  28.014  1.00  0.00     0.031 C 
ATOM     62  C   UNL A   1      44.012  25.190  27.124  1.00  0.00     0.037 A 
BRANCH  49  63
ATOM     63  C   UNL A   1      49.680  27.328  25.869  1.00  0.00     0.058 A 
ATOM     64  C   UNL A   1      49.973  27.399  24.497  1.00  0.00     0.135 A 
ATOM     65  C   UNL A   1      50.730  27.010  26.745  1.00  0.00     0.135 A 
ATOM     66  F   UNL A   1      49.002  27.674  23.612  1.00  0.00    -0.206 F 
ATOM     67  C   UNL A   1      51.250  27.138  24.012  1.00  0.00     0.059 A 
ATOM     68  C   UNL A   1      52.022  26.778  26.285  1.00  0.00     0.059 A 
ATOM     69  F   UNL A   1      50.507  26.923  28.066  1.00  0.00    -0.206 F 
ATOM     70  C   UNL A   1      52.269  26.831  24.915  1.00  0.00     0.060 A 
BRANCH  70  71
ATOM     71  S   UNL A   1      53.925  26.510  24.270  1.00  0.00     0.124 S 
ATOM     72  O   UNL A   1      54.747  26.725  25.456  1.00  0.00    -0.237 OA
ATOM     73  O   UNL A   1      53.817  25.126  23.816  1.00  0.00    -0.237 OA
ATOM     74  O   UNL A   1      54.078  27.502  23.212  1.00  0.00    -0.744 OA
ENDBRANCH  70  71
ENDBRANCH  49  63
BRANCH  50  75
ATOM     75  C   UNL A   1      40.645  29.648  29.484  1.00  0.00     0.058 A 
ATOM     76  C   UNL A   1      39.559  29.826  28.613  1.00  0.00     0.135 A 
ATOM     77  C   UNL A   1      40.411  29.818  30.858  1.00  0.00     0.135 A 
ATOM     78  F   UNL A   1      39.732  29.690  27.290  1.00  0.00    -0.206 F 
ATOM     79  C   UNL A   1      38.298  30.180  29.081  1.00  0.00     0.059 A 
ATOM     80  C   UNL A   1      39.152  30.142  31.353  1.00  0.00     0.059 A 
ATOM     81  F   UNL A   1      41.412  29.655  31.737  1.00  0.00    -0.206 F 
ATOM     82  C   UNL A   1      38.103  30.332  30.455  1.00  0.00     0.060 A 
BRANCH  82  83
ATOM     83  S   UNL A   1      36.450  30.745  31.054  1.00  0.00     0.124 S 
ATOM     84  O   UNL A   1      35.988  31.675  30.030  1.00  0.00    -0.237 OA
ATOM     85  O   UNL A   1      35.799  29.438  31.072  1.00  0.00    -0.237 OA
ATOM     86  O   UNL A   1      36.704  31.327  32.368  1.00  0.00    -0.744 OA
ENDBRANCH  82  83
ENDBRANCH  50  75
BRANCH  62  87
ATOM     87  C   UNL A   1      43.490  23.784  26.978  1.00  0.00     0.058 A 
ATOM     88  C   UNL A   1      43.329  22.927  28.077  1.00  0.00     0.135 A 
ATOM     89  C   UNL A   1      43.101  23.305  25.714  1.00  0.00     0.135 A 
ATOM     90  F   UNL A   1      43.684  23.331  29.308  1.00  0.00    -0.206 F 
ATOM     91  C   UNL A   1      42.841  21.632  27.926  1.00  0.00     0.059 A 
ATOM     92  C   UNL A   1      42.578  22.027  25.545  1.00  0.00     0.059 A 
ATOM     93  F   UNL A   1      43.216  24.087  24.630  1.00  0.00    -0.206 F 
ATOM     94  C   UNL A   1      42.467  21.191  26.654  1.00  0.00     0.060 A 
BRANCH  94  95
ATOM     95  S   UNL A   1      41.825  19.515  26.471  1.00  0.00     0.124 S 
ATOM     96  O   UNL A   1      42.524  19.060  25.274  1.00  0.00    -0.237 OA
ATOM     97  O   UNL A   1      42.236  18.885  27.723  1.00  0.00    -0.237 OA
ATOM     98  O   UNL A   1      40.387  19.714  26.321  1.00  0.00    -0.744 OA
ENDBRANCH  94  95
ENDBRANCH  62  87
ENDBRANCH  36  37
ENDBRANCH  29  31
ENDBRANCH  28  29
ENDBRANCH  27  28
ENDBRANCH  26  27
ENDBRANCH  25  26
ENDBRANCH  24  25
ENDBRANCH   1  24
TORSDOF 26
ENDMDL
MODEL 3
REMARK VINA RESULT:      -7.5      3.868      7.239
REMARK SMILES NC(=O)CC[C@H](NC(=O)CC1CC1)C(=O)OCCOCCOCCOC(=O)c1ccc(-c2c3nc(c(-c4c(F)cc(S(=O)(=O)[O-])cc4F)c4ccc([nH]4)c(-c4c(F)cc(S(=O)(=O)[O-])cc4F)c4nc(c(-c5c(F)cc(S(=O)(=O)[O-])cc5F)c5ccc2[nH]5)C=C4)C=C3)cc1
REMARK SMILES IDX 20 1 19 2 18 3 17 4 16 5 14 6 15 7 6 8 5 9 4 10 2 11 1 12
REMARK SMILES IDX 3 15 7 16 8 17 9 19 10 20 11 21 12 22 13 23 21 24 22 25
REMARK SMILES IDX 23 26 24 27 25 28 26 29 27 30 28 31 29 32 93 33 30 34 92 35
REMARK SMILES IDX 31 36 32 37 33 38 86 39 34 40 91 41 85 42 87 43 35 44 90 45
REMARK SMILES IDX 84 46 83 47 36 49 70 50 49 51 69 52 50 53 53 54 68 55 88 56
REMARK SMILES IDX 51 57 52 58 67 60 89 61 54 62 37 63 38 64 47 65 39 66 40 67
REMARK SMILES IDX 46 68 48 69 41 70 42 71 43 72 44 73 45 74 71 75 72 76 81 77
REMARK SMILES IDX 73 78 74 79 80 80 82 81 75 82 76 83 77 84 78 85 79 86 55 87
REMARK SMILES IDX 56 88 65 89 57 90 58 91 64 92 66 93 59 94 60 95 61 96 62 97
REMARK SMILES IDX 63 98
REMARK H PARENT 1 13 1 14 7 18 87 48 53 59
REMARK Flexibility Score: inf
ROOT
ATOM      1  C   UNL A   1      35.099  34.877  33.845  1.00  0.00     0.188 C 
ENDROOT
BRANCH   1   2
ATOM      2  O   UNL A   1      35.633  33.744  34.514  1.00  0.00    -0.376 OA
BRANCH   2   3
ATOM      3  C   UNL A   1      36.946  33.378  34.124  1.00  0.00     0.202 C 
BRANCH   3   4
ATOM      4  C   UNL A   1      37.221  31.875  34.005  1.00  0.00     0.261 C 
BRANCH   4   5
ATOM      5  O   UNL A   1      38.577  31.415  34.163  1.00  0.00    -0.462 OA
BRANCH   5   6
ATOM      6  C   UNL A   1      38.938  30.775  35.305  1.00  0.00     0.328 C 
ATOM      7  O   UNL A   1      38.155  30.205  36.056  1.00  0.00    -0.250 OA
BRANCH   6   8
ATOM      8  C   UNL A   1      40.391  31.076  35.682  1.00  0.00     0.192 C 
BRANCH   8   9
ATOM      9  C   UNL A   1      41.158  29.739  35.807  1.00  0.00     0.047 C 
BRANCH   9  10
ATOM     10  C   UNL A   1      42.582  29.667  35.228  1.00  0.00     0.102 C 
BRANCH  10  11
ATOM     11  C   UNL A   1      43.079  30.868  34.432  1.00  0.00     0.217 C 
ATOM     12  N   UNL A   1      42.888  30.910  33.091  1.00  0.00    -0.370 N 
ATOM     13  H   UNL A   1      43.208  31.683  32.572  1.00  0.00     0.159 HD
ATOM     14  H   UNL A   1      42.430  30.166  32.635  1.00  0.00     0.159 HD
ATOM     15  O   UNL A   1      43.726  31.768  34.966  1.00  0.00    -0.275 OA
ENDBRANCH  10  11
ENDBRANCH   9  10
ENDBRANCH   8   9
BRANCH   8  16
ATOM     16  N   UNL A   1      40.491  31.894  36.903  1.00  0.00    -0.343 N 
ATOM     17  C   UNL A   1      40.689  33.245  37.022  1.00  0.00     0.220 C 
ATOM     18  H   UNL A   1      40.402  31.402  37.751  1.00  0.00     0.164 HD
ATOM     19  O   UNL A   1      40.491  33.772  38.119  1.00  0.00    -0.275 OA
BRANCH  17  20
ATOM     20  C   UNL A   1      41.110  34.081  35.820  1.00  0.00     0.103 C 
BRANCH  20  21
ATOM     21  C   UNL A   1      42.056  35.198  36.160  1.00  0.00    -0.002 C 
ATOM     22  C   UNL A   1      43.254  35.430  35.273  1.00  0.00     0.004 C 
ATOM     23  C   UNL A   1      42.159  36.454  35.331  1.00  0.00     0.004 C 
ENDBRANCH  20  21
ENDBRANCH  17  20
ENDBRANCH   8  16
ENDBRANCH   6   8
ENDBRANCH   5   6
ENDBRANCH   4   5
ENDBRANCH   3   4
ENDBRANCH   2   3
ENDBRANCH   1   2
BRANCH   1  24
ATOM     24  C   UNL A   1      33.973  34.535  32.851  1.00  0.00     0.188 C 
BRANCH  24  25
ATOM     25  O   UNL A   1      34.017  35.048  31.531  1.00  0.00    -0.376 OA
BRANCH  25  26
ATOM     26  C   UNL A   1      34.311  34.147  30.473  1.00  0.00     0.202 C 
BRANCH  26  27
ATOM     27  C   UNL A   1      35.679  33.431  30.377  1.00  0.00     0.261 C 
BRANCH  27  28
ATOM     28  O   UNL A   1      35.713  32.024  30.685  1.00  0.00    -0.460 OA
BRANCH  28  29
ATOM     29  C   UNL A   1      35.660  31.178  29.624  1.00  0.00     0.338 C 
ATOM     30  O   UNL A   1      34.765  31.112  28.792  1.00  0.00    -0.246 OA
BRANCH  29  31
ATOM     31  C   UNL A   1      36.971  30.497  29.455  1.00  0.00     0.060 A 
ATOM     32  C   UNL A   1      37.742  30.226  30.600  1.00  0.00     0.016 A 
ATOM     33  C   UNL A   1      37.454  30.149  28.194  1.00  0.00     0.016 A 
ATOM     34  C   UNL A   1      39.004  29.646  30.489  1.00  0.00     0.010 A 
ATOM     35  C   UNL A   1      38.744  29.611  28.078  1.00  0.00     0.010 A 
ATOM     36  C   UNL A   1      39.542  29.403  29.221  1.00  0.00    -0.014 A 
BRANCH  36  37
ATOM     37  C   UNL A   1      41.013  29.241  29.089  1.00  0.00     0.031 A 
ATOM     38  C   UNL A   1      41.525  27.887  28.663  1.00  0.00     0.074 A 
ATOM     39  C   UNL A   1      41.873  30.258  29.282  1.00  0.00     0.049 A 
ATOM     40  N   UNL A   1      42.756  27.465  28.526  1.00  0.00    -0.248 NA
ATOM     41  C   UNL A   1      40.505  26.871  28.352  1.00  0.00     0.031 C 
ATOM     42  C   UNL A   1      41.505  31.629  29.630  1.00  0.00     0.029 A 
ATOM     43  N   UNL A   1      43.246  30.284  29.218  1.00  0.00    -0.354 N 
ATOM     44  C   UNL A   1      42.655  26.136  28.127  1.00  0.00     0.074 A 
ATOM     45  C   UNL A   1      41.248  25.811  28.079  1.00  0.00     0.031 C 
ATOM     46  C   UNL A   1      42.626  32.359  29.765  1.00  0.00     0.029 A 
ATOM     47  C   UNL A   1      43.792  31.503  29.545  1.00  0.00     0.049 A 
ATOM     48  H   UNL A   1      43.787  29.503  28.960  1.00  0.00     0.167 HD
ATOM     49  C   UNL A   1      43.645  25.265  27.818  1.00  0.00     0.037 A 
ATOM     50  C   UNL A   1      45.084  31.872  29.673  1.00  0.00     0.037 A 
ATOM     51  C   UNL A   1      45.045  25.592  27.868  1.00  0.00     0.049 A 
ATOM     52  C   UNL A   1      46.173  30.862  29.403  1.00  0.00     0.074 A 
ATOM     53  C   UNL A   1      46.127  24.781  27.579  1.00  0.00     0.029 A 
ATOM     54  N   UNL A   1      45.558  26.827  28.234  1.00  0.00    -0.354 N 
ATOM     55  N   UNL A   1      46.067  29.607  29.029  1.00  0.00    -0.248 NA
ATOM     56  C   UNL A   1      47.561  31.320  29.564  1.00  0.00     0.031 C 
ATOM     57  C   UNL A   1      47.296  25.509  27.822  1.00  0.00     0.029 A 
ATOM     58  C   UNL A   1      46.941  26.796  28.195  1.00  0.00     0.049 A 
ATOM     59  H   UNL A   1      45.017  27.612  28.484  1.00  0.00     0.167 HD
ATOM     60  C   UNL A   1      47.369  29.143  28.869  1.00  0.00     0.074 A 
ATOM     61  C   UNL A   1      48.247  30.252  29.180  1.00  0.00     0.031 C 
ATOM     62  C   UNL A   1      47.803  27.913  28.492  1.00  0.00     0.037 A 
BRANCH  49  63
ATOM     63  C   UNL A   1      43.245  23.867  27.430  1.00  0.00     0.058 A 
ATOM     64  C   UNL A   1      42.933  22.890  28.388  1.00  0.00     0.135 A 
ATOM     65  C   UNL A   1      43.150  23.508  26.075  1.00  0.00     0.135 A 
ATOM     66  F   UNL A   1      43.031  23.171  29.698  1.00  0.00    -0.206 F 
ATOM     67  C   UNL A   1      42.566  21.600  28.019  1.00  0.00     0.059 A 
ATOM     68  C   UNL A   1      42.752  22.234  25.683  1.00  0.00     0.059 A 
ATOM     69  F   UNL A   1      43.442  24.400  25.116  1.00  0.00    -0.206 F 
ATOM     70  C   UNL A   1      42.475  21.282  26.663  1.00  0.00     0.060 A 
BRANCH  70  71
ATOM     71  S   UNL A   1      41.984  19.608  26.200  1.00  0.00     0.124 S 
ATOM     72  O   UNL A   1      40.547  19.770  26.001  1.00  0.00    -0.237 OA
ATOM     73  O   UNL A   1      42.769  19.378  24.990  1.00  0.00    -0.237 OA
ATOM     74  O   UNL A   1      42.370  18.807  27.356  1.00  0.00    -0.744 OA
ENDBRANCH  70  71
ENDBRANCH  49  63
BRANCH  50  75
ATOM     75  C   UNL A   1      45.430  33.261  30.087  1.00  0.00     0.058 A 
ATOM     76  C   UNL A   1      45.682  34.262  29.135  1.00  0.00     0.135 A 
ATOM     77  C   UNL A   1      45.540  33.611  31.442  1.00  0.00     0.135 A 
ATOM     78  F   UNL A   1      45.605  33.977  27.827  1.00  0.00    -0.206 F 
ATOM     79  C   UNL A   1      46.050  35.550  29.509  1.00  0.00     0.059 A 
ATOM     80  C   UNL A   1      45.876  34.900  31.842  1.00  0.00     0.059 A 
ATOM     81  F   UNL A   1      45.305  32.695  32.395  1.00  0.00    -0.206 F 
ATOM     82  C   UNL A   1      46.141  35.861  30.867  1.00  0.00     0.060 A 
BRANCH  82  83
ATOM     83  S   UNL A   1      46.572  37.550  31.342  1.00  0.00     0.124 S 
ATOM     84  O   UNL A   1      45.267  38.200  31.340  1.00  0.00    -0.237 OA
ATOM     85  O   UNL A   1      47.185  37.349  32.652  1.00  0.00    -0.237 OA
ATOM     86  O   UNL A   1      47.489  37.971  30.288  1.00  0.00    -0.744 OA
ENDBRANCH  82  83
ENDBRANCH  50  75
BRANCH  62  87
ATOM     87  C   UNL A   1      49.287  27.714  28.325  1.00  0.00     0.058 A 
ATOM     88  C   UNL A   1      49.954  28.018  27.127  1.00  0.00     0.135 A 
ATOM     89  C   UNL A   1      50.062  27.252  29.403  1.00  0.00     0.135 A 
ATOM     90  F   UNL A   1      49.265  28.462  26.064  1.00  0.00    -0.206 F 
ATOM     91  C   UNL A   1      51.326  27.832  26.991  1.00  0.00     0.059 A 
ATOM     92  C   UNL A   1      51.440  27.092  29.301  1.00  0.00     0.059 A 
ATOM     93  F   UNL A   1      49.480  26.962  30.578  1.00  0.00    -0.206 F 
ATOM     94  C   UNL A   1      52.061  27.369  28.085  1.00  0.00     0.060 A 
BRANCH  94  95
ATOM     95  S   UNL A   1      53.843  27.143  27.900  1.00  0.00     0.124 S 
ATOM     96  O   UNL A   1      54.077  27.719  26.580  1.00  0.00    -0.237 OA
ATOM     97  O   UNL A   1      54.372  27.906  29.027  1.00  0.00    -0.237 OA
ATOM     98  O   UNL A   1      54.015  25.697  27.995  1.00  0.00    -0.744 OA
ENDBRANCH  94  95
ENDBRANCH  62  87
ENDBRANCH  36  37
ENDBRANCH  29  31
ENDBRANCH  28  29
ENDBRANCH  27  28
ENDBRANCH  26  27
ENDBRANCH  25  26
ENDBRANCH  24  25
ENDBRANCH   1  24
TORSDOF 26
ENDMDL
