MODEL 1
REMARK VINA RESULT:      -9.1      0.000      0.000
REMARK SMILES CN(C)c1cc(C(F)(F)F)cc(-c2cccc(/C=C/C(=O)OCCOCCOCCOC(=O)c3ccc(-c4c5nc(c(-c6c(F)cc(S(=O)(=O)[O-])cc6F)c6ccc([nH]6)c(-c6c(F)cc(S(=O)(=O)[O-])cc6F)c6nc(c(-c7c(F)cc(S(=O)(=O)[O-])cc7F)c7ccc4[nH]7)C=C6)C=C5)cc3)c2)n1
REMARK SMILES IDX 26 1 25 2 24 3 23 4 22 5 20 6 21 7 19 8 18 9 17 10 13 11
REMARK SMILES IDX 14 12 100 13 15 14 16 15 12 16 4 17 5 18 101 19 6 20 11 21
REMARK SMILES IDX 2 22 1 23 3 24 7 25 8 26 9 27 10 28 27 29 28 30 29 31 30 32
REMARK SMILES IDX 31 33 32 34 33 35 34 36 35 37 99 38 36 39 98 40 37 41 38 42
REMARK SMILES IDX 39 43 92 44 40 45 97 46 91 47 93 48 41 49 96 50 90 51 89 52
REMARK SMILES IDX 42 54 76 55 55 56 75 57 56 58 59 59 74 60 94 61 57 62 58 63
REMARK SMILES IDX 73 65 95 66 60 67 43 68 44 69 53 70 45 71 46 72 52 73 54 74
REMARK SMILES IDX 47 75 48 76 49 77 50 78 51 79 77 80 78 81 87 82 79 83 80 84
REMARK SMILES IDX 86 85 88 86 81 87 82 88 83 89 84 90 85 91 61 92 62 93 71 94
REMARK SMILES IDX 63 95 64 96 70 97 72 98 65 99 66 100 67 101 68 102 69 103
REMARK H PARENT 93 53 59 64
REMARK Flexibility Score: inf
ROOT
ATOM      1  C   UNL A   1      31.461  28.234  26.295  1.00  0.00     0.188 C 
ENDROOT
BRANCH   1   2
ATOM      2  O   UNL A   1      31.979  27.044  25.710  1.00  0.00    -0.376 OA
BRANCH   2   3
ATOM      3  C   UNL A   1      31.181  26.303  24.796  1.00  0.00     0.202 C 
BRANCH   3   4
ATOM      4  C   UNL A   1      31.389  26.478  23.285  1.00  0.00     0.261 C 
BRANCH   4   5
ATOM      5  O   UNL A   1      31.867  25.307  22.600  1.00  0.00    -0.460 OA
BRANCH   5   6
ATOM      6  C   UNL A   1      33.121  25.402  22.092  1.00  0.00     0.330 C 
ATOM      7  O   UNL A   1      33.515  26.232  21.287  1.00  0.00    -0.247 OA
BRANCH   6   8
ATOM      8  C   UNL A   1      34.053  24.426  22.698  1.00  0.00     0.094 C 
ATOM      9  C   UNL A   1      34.452  24.418  23.979  1.00  0.00     0.015 C 
BRANCH   9  10
ATOM     10  C   UNL A   1      35.392  23.429  24.534  1.00  0.00    -0.025 A 
ATOM     11  C   UNL A   1      37.478  22.989  25.759  1.00  0.00     0.001 A 
ATOM     12  C   UNL A   1      37.268  21.615  25.577  1.00  0.00     0.010 A 
ATOM     13  C   UNL A   1      36.533  23.883  25.214  1.00  0.00     0.018 A 
ATOM     14  C   UNL A   1      36.148  21.147  24.889  1.00  0.00     0.001 A 
ATOM     15  C   UNL A   1      35.218  22.049  24.368  1.00  0.00     0.008 A 
BRANCH  11  16
ATOM     16  C   UNL A   1      38.636  23.479  26.522  1.00  0.00     0.073 A 
ATOM     17  C   UNL A   1      40.695  22.939  27.506  1.00  0.00     0.129 A 
ATOM     18  C   UNL A   1      40.829  24.250  27.957  1.00  0.00     0.060 A 
ATOM     19  N   UNL A   1      39.606  22.571  26.795  1.00  0.00    -0.231 NA
ATOM     20  C   UNL A   1      39.844  25.201  27.668  1.00  0.00     0.061 A 
ATOM     21  C   UNL A   1      38.724  24.798  26.941  1.00  0.00     0.042 A 
BRANCH  17  22
ATOM     22  N   UNL A   1      41.698  22.003  27.741  1.00  0.00    -0.363 N 
ATOM     23  C   UNL A   1      41.649  20.735  27.034  1.00  0.00     0.144 C 
ATOM     24  C   UNL A   1      43.002  22.541  28.099  1.00  0.00     0.144 C 
ENDBRANCH  17  22
BRANCH  20  25
ATOM     25  C   UNL A   1      39.990  26.633  28.095  1.00  0.00     0.416 C 
ATOM     26  F   UNL A   1      38.836  27.339  27.944  1.00  0.00    -0.166 F 
ATOM     27  F   UNL A   1      40.334  26.756  29.406  1.00  0.00    -0.166 F 
ATOM     28  F   UNL A   1      40.939  27.320  27.397  1.00  0.00    -0.166 F 
ENDBRANCH  20  25
ENDBRANCH  11  16
ENDBRANCH   9  10
ENDBRANCH   6   8
ENDBRANCH   5   6
ENDBRANCH   4   5
ENDBRANCH   3   4
ENDBRANCH   2   3
ENDBRANCH   1   2
BRANCH   1  29
ATOM     29  C   UNL A   1      31.858  29.606  25.711  1.00  0.00     0.188 C 
BRANCH  29  30
ATOM     30  O   UNL A   1      33.242  29.870  25.759  1.00  0.00    -0.376 OA
BRANCH  30  31
ATOM     31  C   UNL A   1      33.815  30.352  26.962  1.00  0.00     0.202 C 
BRANCH  31  32
ATOM     32  C   UNL A   1      33.290  31.583  27.728  1.00  0.00     0.261 C 
BRANCH  32  33
ATOM     33  O   UNL A   1      34.102  32.761  27.750  1.00  0.00    -0.460 OA
BRANCH  33  34
ATOM     34  C   UNL A   1      34.222  33.397  28.934  1.00  0.00     0.338 C 
ATOM     35  O   UNL A   1      33.355  34.038  29.517  1.00  0.00    -0.246 OA
BRANCH  34  36
ATOM     36  C   UNL A   1      35.539  33.066  29.503  1.00  0.00     0.060 A 
ATOM     37  C   UNL A   1      35.630  32.038  30.450  1.00  0.00     0.016 A 
ATOM     38  C   UNL A   1      36.678  33.779  29.116  1.00  0.00     0.016 A 
ATOM     39  C   UNL A   1      36.863  31.736  31.032  1.00  0.00     0.010 A 
ATOM     40  C   UNL A   1      37.907  33.485  29.714  1.00  0.00     0.010 A 
ATOM     41  C   UNL A   1      38.001  32.482  30.694  1.00  0.00    -0.014 A 
BRANCH  41  42
ATOM     42  C   UNL A   1      39.251  32.325  31.477  1.00  0.00     0.031 A 
ATOM     43  C   UNL A   1      40.306  31.381  30.966  1.00  0.00     0.074 A 
ATOM     44  C   UNL A   1      39.449  33.009  32.618  1.00  0.00     0.049 A 
ATOM     45  N   UNL A   1      41.448  31.044  31.504  1.00  0.00    -0.248 NA
ATOM     46  C   UNL A   1      40.032  30.730  29.674  1.00  0.00     0.031 C 
ATOM     47  C   UNL A   1      38.517  33.974  33.198  1.00  0.00     0.029 A 
ATOM     48  N   UNL A   1      40.501  32.984  33.499  1.00  0.00    -0.354 N 
ATOM     49  C   UNL A   1      42.028  30.139  30.621  1.00  0.00     0.074 A 
ATOM     50  C   UNL A   1      41.098  29.959  29.528  1.00  0.00     0.031 C 
ATOM     51  C   UNL A   1      39.033  34.440  34.350  1.00  0.00     0.029 A 
ATOM     52  C   UNL A   1      40.315  33.784  34.602  1.00  0.00     0.049 A 
ATOM     53  H   UNL A   1      41.313  32.446  33.356  1.00  0.00     0.167 HD
ATOM     54  C   UNL A   1      43.228  29.519  30.713  1.00  0.00     0.037 A 
ATOM     55  C   UNL A   1      41.082  33.946  35.700  1.00  0.00     0.037 A 
ATOM     56  C   UNL A   1      44.148  29.696  31.806  1.00  0.00     0.049 A 
ATOM     57  C   UNL A   1      42.385  33.196  35.810  1.00  0.00     0.074 A 
ATOM     58  C   UNL A   1      45.394  29.122  31.983  1.00  0.00     0.029 A 
ATOM     59  N   UNL A   1      43.915  30.498  32.913  1.00  0.00    -0.354 N 
ATOM     60  N   UNL A   1      42.934  32.363  34.958  1.00  0.00    -0.248 NA
ATOM     61  C   UNL A   1      43.176  33.409  37.032  1.00  0.00     0.031 C 
ATOM     62  C   UNL A   1      45.897  29.542  33.219  1.00  0.00     0.029 A 
ATOM     63  C   UNL A   1      44.985  30.418  33.788  1.00  0.00     0.049 A 
ATOM     64  H   UNL A   1      43.108  31.043  33.057  1.00  0.00     0.167 HD
ATOM     65  C   UNL A   1      44.145  31.977  35.525  1.00  0.00     0.074 A 
ATOM     66  C   UNL A   1      44.253  32.673  36.790  1.00  0.00     0.031 C 
ATOM     67  C   UNL A   1      45.084  31.127  35.040  1.00  0.00     0.037 A 
BRANCH  54  68
ATOM     68  C   UNL A   1      43.604  28.571  29.608  1.00  0.00     0.058 A 
ATOM     69  C   UNL A   1      43.470  27.180  29.749  1.00  0.00     0.135 A 
ATOM     70  C   UNL A   1      44.077  29.062  28.381  1.00  0.00     0.135 A 
ATOM     71  F   UNL A   1      43.040  26.657  30.909  1.00  0.00    -0.206 F 
ATOM     72  C   UNL A   1      43.816  26.308  28.722  1.00  0.00     0.059 A 
ATOM     73  C   UNL A   1      44.405  28.209  27.330  1.00  0.00     0.059 A 
ATOM     74  F   UNL A   1      44.228  30.382  28.193  1.00  0.00    -0.206 F 
ATOM     75  C   UNL A   1      44.284  26.832  27.516  1.00  0.00     0.060 A 
BRANCH  75  76
ATOM     76  S   UNL A   1      44.724  25.688  26.191  1.00  0.00     0.124 S 
ATOM     77  O   UNL A   1      45.378  26.583  25.241  1.00  0.00    -0.237 OA
ATOM     78  O   UNL A   1      45.599  24.741  26.874  1.00  0.00    -0.237 OA
ATOM     79  O   UNL A   1      43.436  25.151  25.763  1.00  0.00    -0.744 OA
ENDBRANCH  75  76
ENDBRANCH  54  68
BRANCH  55  80
ATOM     80  C   UNL A   1      40.635  34.851  36.793  1.00  0.00     0.058 A 
ATOM     81  C   UNL A   1      39.632  34.463  37.692  1.00  0.00     0.135 A 
ATOM     82  C   UNL A   1      41.197  36.128  36.953  1.00  0.00     0.135 A 
ATOM     83  F   UNL A   1      39.054  33.258  37.573  1.00  0.00    -0.206 F 
ATOM     84  C   UNL A   1      39.190  35.312  38.704  1.00  0.00     0.059 A 
ATOM     85  C   UNL A   1      40.790  36.985  37.972  1.00  0.00     0.059 A 
ATOM     86  F   UNL A   1      42.166  36.546  36.123  1.00  0.00    -0.206 F 
ATOM     87  C   UNL A   1      39.778  36.571  38.835  1.00  0.00     0.060 A 
BRANCH  87  88
ATOM     88  S   UNL A   1      39.227  37.648  40.177  1.00  0.00     0.124 S 
ATOM     89  O   UNL A   1      38.841  36.675  41.194  1.00  0.00    -0.237 OA
ATOM     90  O   UNL A   1      40.430  38.425  40.461  1.00  0.00    -0.237 OA
ATOM     91  O   UNL A   1      38.130  38.401  39.575  1.00  0.00    -0.744 OA
ENDBRANCH  87  88
ENDBRANCH  55  80
BRANCH  67  92
ATOM     92  C   UNL A   1      46.334  30.928  35.856  1.00  0.00     0.058 A 
ATOM     93  C   UNL A   1      47.454  31.762  35.711  1.00  0.00     0.135 A 
ATOM     94  C   UNL A   1      46.388  29.924  36.837  1.00  0.00     0.135 A 
ATOM     95  F   UNL A   1      47.456  32.734  34.785  1.00  0.00    -0.206 F 
ATOM     96  C   UNL A   1      48.590  31.594  36.495  1.00  0.00     0.059 A 
ATOM     97  C   UNL A   1      47.504  29.757  37.651  1.00  0.00     0.059 A 
ATOM     98  F   UNL A   1      45.340  29.106  37.026  1.00  0.00    -0.206 F 
ATOM     99  C   UNL A   1      48.605  30.590  37.465  1.00  0.00     0.060 A 
BRANCH  99 100
ATOM    100  S   UNL A   1      50.073  30.404  38.501  1.00  0.00     0.124 S 
ATOM    101  O   UNL A   1      50.912  29.546  37.670  1.00  0.00    -0.237 OA
ATOM    102  O   UNL A   1      50.527  31.783  38.650  1.00  0.00    -0.237 OA
ATOM    103  O   UNL A   1      49.555  29.786  39.717  1.00  0.00    -0.744 OA
ENDBRANCH  99 100
ENDBRANCH  67  92
ENDBRANCH  41  42
ENDBRANCH  34  36
ENDBRANCH  33  34
ENDBRANCH  32  33
ENDBRANCH  31  32
ENDBRANCH  30  31
ENDBRANCH  29  30
ENDBRANCH   1  29
TORSDOF 24
ENDMDL
MODEL 2
REMARK VINA RESULT:      -8.8      4.116      8.257
REMARK SMILES CN(C)c1cc(C(F)(F)F)cc(-c2cccc(/C=C/C(=O)OCCOCCOCCOC(=O)c3ccc(-c4c5nc(c(-c6c(F)cc(S(=O)(=O)[O-])cc6F)c6ccc([nH]6)c(-c6c(F)cc(S(=O)(=O)[O-])cc6F)c6nc(c(-c7c(F)cc(S(=O)(=O)[O-])cc7F)c7ccc4[nH]7)C=C6)C=C5)cc3)c2)n1
REMARK SMILES IDX 26 1 25 2 24 3 23 4 22 5 20 6 21 7 19 8 18 9 17 10 13 11
REMARK SMILES IDX 14 12 100 13 15 14 16 15 12 16 4 17 5 18 101 19 6 20 11 21
REMARK SMILES IDX 2 22 1 23 3 24 7 25 8 26 9 27 10 28 27 29 28 30 29 31 30 32
REMARK SMILES IDX 31 33 32 34 33 35 34 36 35 37 99 38 36 39 98 40 37 41 38 42
REMARK SMILES IDX 39 43 92 44 40 45 97 46 91 47 93 48 41 49 96 50 90 51 89 52
REMARK SMILES IDX 42 54 76 55 55 56 75 57 56 58 59 59 74 60 94 61 57 62 58 63
REMARK SMILES IDX 73 65 95 66 60 67 43 68 44 69 53 70 45 71 46 72 52 73 54 74
REMARK SMILES IDX 47 75 48 76 49 77 50 78 51 79 77 80 78 81 87 82 79 83 80 84
REMARK SMILES IDX 86 85 88 86 81 87 82 88 83 89 84 90 85 91 61 92 62 93 71 94
REMARK SMILES IDX 63 95 64 96 70 97 72 98 65 99 66 100 67 101 68 102 69 103
REMARK H PARENT 93 53 59 64
REMARK Flexibility Score: inf
ROOT
ATOM      1  C   UNL A   1      33.980  35.462  30.822  1.00  0.00     0.188 C 
ENDROOT
BRANCH   1   2
ATOM      2  O   UNL A   1      33.982  34.229  31.535  1.00  0.00    -0.376 OA
BRANCH   2   3
ATOM      3  C   UNL A   1      35.218  33.642  31.922  1.00  0.00     0.202 C 
BRANCH   3   4
ATOM      4  C   UNL A   1      36.272  34.490  32.648  1.00  0.00     0.261 C 
BRANCH   4   5
ATOM      5  O   UNL A   1      37.506  33.809  32.930  1.00  0.00    -0.460 OA
BRANCH   5   6
ATOM      6  C   UNL A   1      38.517  34.596  33.375  1.00  0.00     0.330 C 
ATOM      7  O   UNL A   1      38.520  35.259  34.401  1.00  0.00    -0.247 OA
BRANCH   6   8
ATOM      8  C   UNL A   1      39.723  34.506  32.524  1.00  0.00     0.094 C 
ATOM      9  C   UNL A   1      39.734  34.515  31.182  1.00  0.00     0.015 C 
BRANCH   9  10
ATOM     10  C   UNL A   1      40.963  34.412  30.376  1.00  0.00    -0.025 A 
ATOM     11  C   UNL A   1      42.554  35.496  28.847  1.00  0.00     0.001 A 
ATOM     12  C   UNL A   1      43.266  34.291  28.768  1.00  0.00     0.010 A 
ATOM     13  C   UNL A   1      41.394  35.531  29.647  1.00  0.00     0.018 A 
ATOM     14  C   UNL A   1      42.843  33.163  29.474  1.00  0.00     0.001 A 
ATOM     15  C   UNL A   1      41.697  33.223  30.269  1.00  0.00     0.008 A 
BRANCH  11  16
ATOM     16  C   UNL A   1      43.026  36.695  28.138  1.00  0.00     0.073 A 
ATOM     17  C   UNL A   1      44.851  37.789  27.154  1.00  0.00     0.129 A 
ATOM     18  C   UNL A   1      44.038  38.876  26.841  1.00  0.00     0.060 A 
ATOM     19  N   UNL A   1      44.338  36.716  27.793  1.00  0.00    -0.231 NA
ATOM     20  C   UNL A   1      42.679  38.861  27.175  1.00  0.00     0.061 A 
ATOM     21  C   UNL A   1      42.172  37.748  27.843  1.00  0.00     0.042 A 
BRANCH  17  22
ATOM     22  N   UNL A   1      46.190  37.774  26.773  1.00  0.00    -0.363 N 
ATOM     23  C   UNL A   1      46.982  36.589  27.053  1.00  0.00     0.144 C 
ATOM     24  C   UNL A   1      46.529  38.566  25.599  1.00  0.00     0.144 C 
ENDBRANCH  17  22
BRANCH  20  25
ATOM     25  C   UNL A   1      41.770  39.995  26.801  1.00  0.00     0.416 C 
ATOM     26  F   UNL A   1      41.024  40.431  27.855  1.00  0.00    -0.166 F 
ATOM     27  F   UNL A   1      42.449  41.085  26.349  1.00  0.00    -0.166 F 
ATOM     28  F   UNL A   1      40.877  39.682  25.820  1.00  0.00    -0.166 F 
ENDBRANCH  20  25
ENDBRANCH  11  16
ENDBRANCH   9  10
ENDBRANCH   6   8
ENDBRANCH   5   6
ENDBRANCH   4   5
ENDBRANCH   3   4
ENDBRANCH   2   3
ENDBRANCH   1   2
BRANCH   1  29
ATOM     29  C   UNL A   1      32.914  35.710  29.733  1.00  0.00     0.188 C 
BRANCH  29  30
ATOM     30  O   UNL A   1      32.586  34.564  28.981  1.00  0.00    -0.376 OA
BRANCH  30  31
ATOM     31  C   UNL A   1      33.605  33.888  28.266  1.00  0.00     0.202 C 
BRANCH  31  32
ATOM     32  C   UNL A   1      33.536  32.397  27.879  1.00  0.00     0.261 C 
BRANCH  32  33
ATOM     33  O   UNL A   1      34.720  31.777  27.366  1.00  0.00    -0.460 OA
BRANCH  33  34
ATOM     34  C   UNL A   1      34.735  30.428  27.330  1.00  0.00     0.338 C 
ATOM     35  O   UNL A   1      33.922  29.697  26.776  1.00  0.00    -0.246 OA
BRANCH  34  36
ATOM     36  C   UNL A   1      35.991  29.966  27.944  1.00  0.00     0.060 A 
ATOM     37  C   UNL A   1      35.956  29.427  29.236  1.00  0.00     0.016 A 
ATOM     38  C   UNL A   1      37.201  30.078  27.254  1.00  0.00     0.016 A 
ATOM     39  C   UNL A   1      37.142  29.021  29.853  1.00  0.00     0.010 A 
ATOM     40  C   UNL A   1      38.388  29.687  27.880  1.00  0.00     0.010 A 
ATOM     41  C   UNL A   1      38.368  29.182  29.191  1.00  0.00    -0.014 A 
BRANCH  41  42
ATOM     42  C   UNL A   1      39.640  28.976  29.927  1.00  0.00     0.031 A 
ATOM     43  C   UNL A   1      40.586  27.912  29.441  1.00  0.00     0.074 A 
ATOM     44  C   UNL A   1      39.952  29.722  31.001  1.00  0.00     0.049 A 
ATOM     45  N   UNL A   1      41.724  27.518  29.950  1.00  0.00    -0.248 NA
ATOM     46  C   UNL A   1      40.193  27.194  28.217  1.00  0.00     0.031 C 
ATOM     47  C   UNL A   1      39.134  30.803  31.548  1.00  0.00     0.029 A 
ATOM     48  N   UNL A   1      41.043  29.672  31.833  1.00  0.00    -0.354 N 
ATOM     49  C   UNL A   1      42.181  26.505  29.114  1.00  0.00     0.074 A 
ATOM     50  C   UNL A   1      41.185  26.326  28.082  1.00  0.00     0.031 C 
ATOM     51  C   UNL A   1      39.745  31.305  32.635  1.00  0.00     0.029 A 
ATOM     52  C   UNL A   1      40.981  30.562  32.879  1.00  0.00     0.049 A 
ATOM     53  H   UNL A   1      41.800  29.058  31.694  1.00  0.00     0.167 HD
ATOM     54  C   UNL A   1      43.330  25.794  29.198  1.00  0.00     0.037 A 
ATOM     55  C   UNL A   1      41.815  30.738  33.924  1.00  0.00     0.037 A 
ATOM     56  C   UNL A   1      44.316  25.970  30.231  1.00  0.00     0.049 A 
ATOM     57  C   UNL A   1      43.056  29.890  34.032  1.00  0.00     0.074 A 
ATOM     58  C   UNL A   1      45.520  25.307  30.394  1.00  0.00     0.029 A 
ATOM     59  N   UNL A   1      44.208  26.868  31.283  1.00  0.00    -0.354 N 
ATOM     60  N   UNL A   1      43.490  28.953  33.222  1.00  0.00    -0.248 NA
ATOM     61  C   UNL A   1      43.924  30.122  35.196  1.00  0.00     0.031 C 
ATOM     62  C   UNL A   1      46.118  25.772  31.571  1.00  0.00     0.029 A 
ATOM     63  C   UNL A   1      45.312  26.761  32.112  1.00  0.00     0.049 A 
ATOM     64  H   UNL A   1      43.457  27.489  31.421  1.00  0.00     0.167 HD
ATOM     65  C   UNL A   1      44.693  28.508  33.760  1.00  0.00     0.074 A 
ATOM     66  C   UNL A   1      44.924  29.282  34.962  1.00  0.00     0.031 C 
ATOM     67  C   UNL A   1      45.534  27.547  33.300  1.00  0.00     0.037 A 
BRANCH  54  68
ATOM     68  C   UNL A   1      43.570  24.740  28.153  1.00  0.00     0.058 A 
ATOM     69  C   UNL A   1      44.214  25.034  26.940  1.00  0.00     0.135 A 
ATOM     70  C   UNL A   1      43.175  23.412  28.379  1.00  0.00     0.135 A 
ATOM     71  F   UNL A   1      44.594  26.292  26.665  1.00  0.00    -0.206 F 
ATOM     72  C   UNL A   1      44.435  24.054  25.978  1.00  0.00     0.059 A 
ATOM     73  C   UNL A   1      43.410  22.409  27.442  1.00  0.00     0.059 A 
ATOM     74  F   UNL A   1      42.552  23.076  29.520  1.00  0.00    -0.206 F 
ATOM     75  C   UNL A   1      44.029  22.744  26.238  1.00  0.00     0.060 A 
BRANCH  75  76
ATOM     76  S   UNL A   1      44.328  21.483  24.982  1.00  0.00     0.124 S 
ATOM     77  O   UNL A   1      45.652  21.000  25.364  1.00  0.00    -0.237 OA
ATOM     78  O   UNL A   1      43.226  20.552  25.206  1.00  0.00    -0.237 OA
ATOM     79  O   UNL A   1      44.270  22.229  23.729  1.00  0.00    -0.744 OA
ENDBRANCH  75  76
ENDBRANCH  54  68
BRANCH  55  80
ATOM     80  C   UNL A   1      41.501  31.755  34.964  1.00  0.00     0.058 A 
ATOM     81  C   UNL A   1      40.614  31.471  36.013  1.00  0.00     0.135 A 
ATOM     82  C   UNL A   1      42.075  33.036  34.923  1.00  0.00     0.135 A 
ATOM     83  F   UNL A   1      40.029  30.266  36.088  1.00  0.00    -0.206 F 
ATOM     84  C   UNL A   1      40.295  32.423  36.977  1.00  0.00     0.059 A 
ATOM     85  C   UNL A   1      41.791  33.996  35.890  1.00  0.00     0.059 A 
ATOM     86  F   UNL A   1      42.935  33.357  33.944  1.00  0.00    -0.206 F 
ATOM     87  C   UNL A   1      40.891  33.684  36.907  1.00  0.00     0.060 A 
BRANCH  87  88
ATOM     88  S   UNL A   1      40.503  34.897  38.187  1.00  0.00     0.124 S 
ATOM     89  O   UNL A   1      40.992  36.130  37.579  1.00  0.00    -0.237 OA
ATOM     90  O   UNL A   1      39.054  34.772  38.300  1.00  0.00    -0.237 OA
ATOM     91  O   UNL A   1      41.259  34.421  39.342  1.00  0.00    -0.744 OA
ENDBRANCH  87  88
ENDBRANCH  55  80
BRANCH  67  92
ATOM     92  C   UNL A   1      46.804  27.303  34.070  1.00  0.00     0.058 A 
ATOM     93  C   UNL A   1      47.990  27.995  33.783  1.00  0.00     0.135 A 
ATOM     94  C   UNL A   1      46.816  26.404  35.150  1.00  0.00     0.135 A 
ATOM     95  F   UNL A   1      48.034  28.863  32.758  1.00  0.00    -0.206 F 
ATOM     96  C   UNL A   1      49.149  27.790  34.524  1.00  0.00     0.059 A 
ATOM     97  C   UNL A   1      47.956  26.204  35.922  1.00  0.00     0.059 A 
ATOM     98  F   UNL A   1      45.705  25.724  35.476  1.00  0.00    -0.206 F 
ATOM     99  C   UNL A   1      49.122  26.894  35.594  1.00  0.00     0.060 A 
BRANCH  99 100
ATOM    100  S   UNL A   1      50.623  26.661  36.571  1.00  0.00     0.124 S 
ATOM    101  O   UNL A   1      50.191  25.659  37.540  1.00  0.00    -0.237 OA
ATOM    102  O   UNL A   1      51.580  26.203  35.569  1.00  0.00    -0.237 OA
ATOM    103  O   UNL A   1      50.884  27.989  37.116  1.00  0.00    -0.744 OA
ENDBRANCH  99 100
ENDBRANCH  67  92
ENDBRANCH  41  42
ENDBRANCH  34  36
ENDBRANCH  33  34
ENDBRANCH  32  33
ENDBRANCH  31  32
ENDBRANCH  30  31
ENDBRANCH  29  30
ENDBRANCH   1  29
TORSDOF 24
ENDMDL
MODEL 3
REMARK VINA RESULT:      -8.7      1.400      2.385
REMARK SMILES CN(C)c1cc(C(F)(F)F)cc(-c2cccc(/C=C/C(=O)OCCOCCOCCOC(=O)c3ccc(-c4c5nc(c(-c6c(F)cc(S(=O)(=O)[O-])cc6F)c6ccc([nH]6)c(-c6c(F)cc(S(=O)(=O)[O-])cc6F)c6nc(c(-c7c(F)cc(S(=O)(=O)[O-])cc7F)c7ccc4[nH]7)C=C6)C=C5)cc3)c2)n1
REMARK SMILES IDX 26 1 25 2 24 3 23 4 22 5 20 6 21 7 19 8 18 9 17 10 13 11
REMARK SMILES IDX 14 12 100 13 15 14 16 15 12 16 4 17 5 18 101 19 6 20 11 21
REMARK SMILES IDX 2 22 1 23 3 24 7 25 8 26 9 27 10 28 27 29 28 30 29 31 30 32
REMARK SMILES IDX 31 33 32 34 33 35 34 36 35 37 99 38 36 39 98 40 37 41 38 42
REMARK SMILES IDX 39 43 92 44 40 45 97 46 91 47 93 48 41 49 96 50 90 51 89 52
REMARK SMILES IDX 42 54 76 55 55 56 75 57 56 58 59 59 74 60 94 61 57 62 58 63
REMARK SMILES IDX 73 65 95 66 60 67 43 68 44 69 53 70 45 71 46 72 52 73 54 74
REMARK SMILES IDX 47 75 48 76 49 77 50 78 51 79 77 80 78 81 87 82 79 83 80 84
REMARK SMILES IDX 86 85 88 86 81 87 82 88 83 89 84 90 85 91 61 92 62 93 71 94
REMARK SMILES IDX 63 95 64 96 70 97 72 98 65 99 66 100 67 101 68 102 69 103
REMARK H PARENT 93 53 59 64
REMARK Flexibility Score: inf
ROOT
ATOM      1  C   UNL A   1      31.410  28.221  26.227  1.00  0.00     0.188 C 
ENDROOT
BRANCH   1   2
ATOM      2  O   UNL A   1      31.823  27.037  25.553  1.00  0.00    -0.376 OA
BRANCH   2   3
ATOM      3  C   UNL A   1      31.003  26.485  24.532  1.00  0.00     0.202 C 
BRANCH   3   4
ATOM      4  C   UNL A   1      31.269  26.844  23.062  1.00  0.00     0.261 C 
BRANCH   4   5
ATOM      5  O   UNL A   1      31.666  25.739  22.232  1.00  0.00    -0.460 OA
BRANCH   5   6
ATOM      6  C   UNL A   1      32.979  25.709  21.893  1.00  0.00     0.330 C 
ATOM      7  O   UNL A   1      33.579  26.554  21.247  1.00  0.00    -0.247 OA
BRANCH   6   8
ATOM      8  C   UNL A   1      33.691  24.555  22.484  1.00  0.00     0.094 C 
ATOM      9  C   UNL A   1      33.976  24.397  23.786  1.00  0.00     0.015 C 
BRANCH   9  10
ATOM     10  C   UNL A   1      34.698  23.231  24.326  1.00  0.00    -0.025 A 
ATOM     11  C   UNL A   1      36.760  22.327  25.313  1.00  0.00     0.001 A 
ATOM     12  C   UNL A   1      36.171  21.054  25.322  1.00  0.00     0.010 A 
ATOM     13  C   UNL A   1      36.010  23.402  24.795  1.00  0.00     0.018 A 
ATOM     14  C   UNL A   1      34.874  20.863  24.844  1.00  0.00     0.001 A 
ATOM     15  C   UNL A   1      34.144  21.945  24.346  1.00  0.00     0.008 A 
BRANCH  11  16
ATOM     16  C   UNL A   1      38.110  22.533  25.857  1.00  0.00     0.073 A 
ATOM     17  C   UNL A   1      39.655  24.075  26.714  1.00  0.00     0.129 A 
ATOM     18  C   UNL A   1      40.599  23.060  26.855  1.00  0.00     0.060 A 
ATOM     19  N   UNL A   1      38.427  23.801  26.221  1.00  0.00    -0.231 NA
ATOM     20  C   UNL A   1      40.280  21.745  26.499  1.00  0.00     0.061 A 
ATOM     21  C   UNL A   1      39.011  21.485  25.984  1.00  0.00     0.042 A 
BRANCH  17  22
ATOM     22  N   UNL A   1      39.947  25.374  27.120  1.00  0.00    -0.363 N 
ATOM     23  C   UNL A   1      39.784  25.721  28.521  1.00  0.00     0.144 C 
ATOM     24  C   UNL A   1      40.975  26.066  26.356  1.00  0.00     0.144 C 
ENDBRANCH  17  22
BRANCH  20  25
ATOM     25  C   UNL A   1      41.259  20.623  26.692  1.00  0.00     0.416 C 
ATOM     26  F   UNL A   1      42.487  20.914  26.181  1.00  0.00    -0.166 F 
ATOM     27  F   UNL A   1      41.462  20.325  28.005  1.00  0.00    -0.166 F 
ATOM     28  F   UNL A   1      40.878  19.455  26.101  1.00  0.00    -0.166 F 
ENDBRANCH  20  25
ENDBRANCH  11  16
ENDBRANCH   9  10
ENDBRANCH   6   8
ENDBRANCH   5   6
ENDBRANCH   4   5
ENDBRANCH   3   4
ENDBRANCH   2   3
ENDBRANCH   1   2
BRANCH   1  29
ATOM     29  C   UNL A   1      31.846  29.598  25.683  1.00  0.00     0.188 C 
BRANCH  29  30
ATOM     30  O   UNL A   1      33.243  29.752  25.567  1.00  0.00    -0.376 OA
BRANCH  30  31
ATOM     31  C   UNL A   1      33.995  30.139  26.704  1.00  0.00     0.202 C 
BRANCH  31  32
ATOM     32  C   UNL A   1      33.549  31.233  27.695  1.00  0.00     0.261 C 
BRANCH  32  33
ATOM     33  O   UNL A   1      34.209  32.502  27.643  1.00  0.00    -0.460 OA
BRANCH  33  34
ATOM     34  C   UNL A   1      34.329  33.175  28.806  1.00  0.00     0.338 C 
ATOM     35  O   UNL A   1      33.473  33.864  29.349  1.00  0.00    -0.246 OA
BRANCH  34  36
ATOM     36  C   UNL A   1      35.625  32.822  29.411  1.00  0.00     0.060 A 
ATOM     37  C   UNL A   1      35.655  31.880  30.446  1.00  0.00     0.016 A 
ATOM     38  C   UNL A   1      36.802  33.431  28.969  1.00  0.00     0.016 A 
ATOM     39  C   UNL A   1      36.868  31.562  31.061  1.00  0.00     0.010 A 
ATOM     40  C   UNL A   1      38.012  33.123  29.598  1.00  0.00     0.010 A 
ATOM     41  C   UNL A   1      38.047  32.208  30.665  1.00  0.00    -0.014 A 
BRANCH  41  42
ATOM     42  C   UNL A   1      39.285  32.052  31.467  1.00  0.00     0.031 A 
ATOM     43  C   UNL A   1      40.358  31.128  30.959  1.00  0.00     0.074 A 
ATOM     44  C   UNL A   1      39.456  32.719  32.622  1.00  0.00     0.049 A 
ATOM     45  N   UNL A   1      41.495  30.793  31.511  1.00  0.00    -0.248 NA
ATOM     46  C   UNL A   1      40.114  30.494  29.653  1.00  0.00     0.031 C 
ATOM     47  C   UNL A   1      38.504  33.665  33.201  1.00  0.00     0.029 A 
ATOM     48  N   UNL A   1      40.493  32.691  33.521  1.00  0.00    -0.354 N 
ATOM     49  C   UNL A   1      42.100  29.909  30.624  1.00  0.00     0.074 A 
ATOM     50  C   UNL A   1      41.191  29.737  29.512  1.00  0.00     0.031 C 
ATOM     51  C   UNL A   1      38.995  34.117  34.369  1.00  0.00     0.029 A 
ATOM     52  C   UNL A   1      40.279  33.471  34.634  1.00  0.00     0.049 A 
ATOM     53  H   UNL A   1      41.313  32.164  33.383  1.00  0.00     0.167 HD
ATOM     54  C   UNL A   1      43.305  29.300  30.727  1.00  0.00     0.037 A 
ATOM     55  C   UNL A   1      41.026  33.623  35.746  1.00  0.00     0.037 A 
ATOM     56  C   UNL A   1      44.203  29.469  31.839  1.00  0.00     0.049 A 
ATOM     57  C   UNL A   1      42.335  32.885  35.868  1.00  0.00     0.074 A 
ATOM     58  C   UNL A   1      45.453  28.906  32.028  1.00  0.00     0.029 A 
ATOM     59  N   UNL A   1      43.943  30.251  32.955  1.00  0.00    -0.354 N 
ATOM     60  N   UNL A   1      42.907  32.072  35.012  1.00  0.00    -0.248 NA
ATOM     61  C   UNL A   1      43.102  33.086  37.106  1.00  0.00     0.031 C 
ATOM     62  C   UNL A   1      45.929  29.311  33.280  1.00  0.00     0.029 A 
ATOM     63  C   UNL A   1      44.999  30.168  33.846  1.00  0.00     0.049 A 
ATOM     64  H   UNL A   1      43.128  30.785  33.093  1.00  0.00     0.167 HD
ATOM     65  C   UNL A   1      44.112  31.689  35.593  1.00  0.00     0.074 A 
ATOM     66  C   UNL A   1      44.191  32.366  36.871  1.00  0.00     0.031 C 
ATOM     67  C   UNL A   1      45.068  30.857  35.112  1.00  0.00     0.037 A 
BRANCH  54  68
ATOM     68  C   UNL A   1      43.710  28.375  29.614  1.00  0.00     0.058 A 
ATOM     69  C   UNL A   1      44.296  28.854  28.431  1.00  0.00     0.135 A 
ATOM     70  C   UNL A   1      43.536  26.988  29.744  1.00  0.00     0.135 A 
ATOM     71  F   UNL A   1      44.467  30.173  28.247  1.00  0.00    -0.206 F 
ATOM     72  C   UNL A   1      44.671  27.992  27.405  1.00  0.00     0.059 A 
ATOM     73  C   UNL A   1      43.929  26.105  28.742  1.00  0.00     0.059 A 
ATOM     74  F   UNL A   1      42.978  26.477  30.852  1.00  0.00    -0.206 F 
ATOM     75  C   UNL A   1      44.483  26.619  27.570  1.00  0.00     0.060 A 
BRANCH  75  76
ATOM     76  S   UNL A   1      44.981  25.513  26.232  1.00  0.00     0.124 S 
ATOM     77  O   UNL A   1      44.123  24.358  26.476  1.00  0.00    -0.237 OA
ATOM     78  O   UNL A   1      44.662  26.298  25.044  1.00  0.00    -0.237 OA
ATOM     79  O   UNL A   1      46.404  25.301  26.477  1.00  0.00    -0.744 OA
ENDBRANCH  75  76
ENDBRANCH  54  68
BRANCH  55  80
ATOM     80  C   UNL A   1      40.550  34.506  36.846  1.00  0.00     0.058 A 
ATOM     81  C   UNL A   1      40.919  35.858  36.903  1.00  0.00     0.135 A 
ATOM     82  C   UNL A   1      39.725  34.011  37.869  1.00  0.00     0.135 A 
ATOM     83  F   UNL A   1      41.716  36.375  35.956  1.00  0.00    -0.206 F 
ATOM     84  C   UNL A   1      40.499  36.686  37.940  1.00  0.00     0.059 A 
ATOM     85  C   UNL A   1      39.272  34.825  38.903  1.00  0.00     0.059 A 
ATOM     86  F   UNL A   1      39.339  32.725  37.859  1.00  0.00    -0.206 F 
ATOM     87  C   UNL A   1      39.674  36.159  38.936  1.00  0.00     0.060 A 
BRANCH  87  88
ATOM     88  S   UNL A   1      39.101  37.252  40.254  1.00  0.00     0.124 S 
ATOM     89  O   UNL A   1      38.382  38.272  39.498  1.00  0.00    -0.237 OA
ATOM     90  O   UNL A   1      38.277  36.356  41.060  1.00  0.00    -0.237 OA
ATOM     91  O   UNL A   1      40.340  37.693  40.888  1.00  0.00    -0.744 OA
ENDBRANCH  87  88
ENDBRANCH  55  80
BRANCH  67  92
ATOM     92  C   UNL A   1      46.306  30.659  35.945  1.00  0.00     0.058 A 
ATOM     93  C   UNL A   1      46.411  29.618  36.881  1.00  0.00     0.135 A 
ATOM     94  C   UNL A   1      47.424  31.489  35.762  1.00  0.00     0.135 A 
ATOM     95  F   UNL A   1      45.370  28.798  37.098  1.00  0.00    -0.206 F 
ATOM     96  C   UNL A   1      47.573  29.420  37.620  1.00  0.00     0.059 A 
ATOM     97  C   UNL A   1      48.606  31.292  36.471  1.00  0.00     0.059 A 
ATOM     98  F   UNL A   1      47.382  32.493  34.871  1.00  0.00    -0.206 F 
ATOM     99  C   UNL A   1      48.666  30.261  37.406  1.00  0.00     0.060 A 
BRANCH  99 100
ATOM    100  S   UNL A   1      50.181  29.973  38.346  1.00  0.00     0.124 S 
ATOM    101  O   UNL A   1      50.548  28.631  37.908  1.00  0.00    -0.237 OA
ATOM    102  O   UNL A   1      51.048  31.051  37.880  1.00  0.00    -0.237 OA
ATOM    103  O   UNL A   1      49.747  30.084  39.735  1.00  0.00    -0.744 OA
ENDBRANCH  99 100
ENDBRANCH  67  92
ENDBRANCH  41  42
ENDBRANCH  34  36
ENDBRANCH  33  34
ENDBRANCH  32  33
ENDBRANCH  31  32
ENDBRANCH  30  31
ENDBRANCH  29  30
ENDBRANCH   1  29
TORSDOF 24
ENDMDL
