MODEL 1
REMARK VINA RESULT:     -10.8      0.000      0.000
REMARK SMILES O=C(Cn1nnnc1[C@H]1Cc2ccccc2S1)OCCOCCOCCOC(=O)c1ccc(-c2c3nc(c(-c4c(F)cc(S(=O)(=O)[O-])cc4F)c4ccc([nH]4)c(-c4c(F)cc(S(=O)(=O)[O-])cc4F)c4nc(c(-c5c(F)cc(S(=O)(=O)[O-])cc5F)c5ccc2[nH]5)C=C4)C=C3)cc1
REMARK SMILES IDX 23 1 22 2 21 3 20 4 19 5 18 6 2 7 1 8 3 9 4 10 5 11 8 12
REMARK SMILES IDX 6 13 7 14 9 15 10 16 17 17 11 18 16 19 12 20 15 21 13 22
REMARK SMILES IDX 14 23 24 24 25 25 26 26 27 27 28 28 29 29 30 30 31 31 95 32
REMARK SMILES IDX 32 33 94 34 33 35 34 36 35 37 88 38 36 39 93 40 87 41 89 42
REMARK SMILES IDX 37 43 92 44 86 45 85 46 38 48 72 49 51 50 71 51 52 52 55 53
REMARK SMILES IDX 70 54 90 55 53 56 54 57 69 59 91 60 56 61 39 62 40 63 49 64
REMARK SMILES IDX 41 65 42 66 48 67 50 68 43 69 44 70 45 71 46 72 47 73 73 74
REMARK SMILES IDX 74 75 83 76 75 77 76 78 82 79 84 80 77 81 78 82 79 83 80 84
REMARK SMILES IDX 81 85 57 86 58 87 67 88 59 89 60 90 66 91 68 92 61 93 62 94
REMARK SMILES IDX 63 95 64 96 65 97
REMARK H PARENT 89 47 55 58
REMARK Flexibility Score: inf
ROOT
ATOM      1  C   UNL A   1      30.433  29.272  23.904  1.00  0.00     0.188 C 
ENDROOT
BRANCH   1   2
ATOM      2  C   UNL A   1      31.166  28.979  22.585  1.00  0.00     0.188 C 
BRANCH   2   3
ATOM      3  O   UNL A   1      32.590  28.959  22.655  1.00  0.00    -0.376 OA
BRANCH   3   4
ATOM      4  C   UNL A   1      33.215  27.719  22.317  1.00  0.00     0.202 C 
BRANCH   4   5
ATOM      5  C   UNL A   1      33.315  26.725  23.471  1.00  0.00     0.261 C 
BRANCH   5   6
ATOM      6  O   UNL A   1      32.362  25.660  23.304  1.00  0.00    -0.462 OA
BRANCH   6   7
ATOM      7  C   UNL A   1      31.297  25.537  24.119  1.00  0.00     0.327 C 
ATOM      8  O   UNL A   1      30.211  25.189  23.669  1.00  0.00    -0.250 OA
BRANCH   7   9
ATOM      9  C   UNL A   1      31.525  25.687  25.576  1.00  0.00     0.270 C 
BRANCH   9  10
ATOM     10  N   UNL A   1      32.001  24.483  26.197  1.00  0.00    -0.217 N 
ATOM     11  N   UNL A   1      31.229  24.004  27.195  1.00  0.00    -0.044 NA
ATOM     12  C   UNL A   1      33.178  23.769  26.126  1.00  0.00     0.165 A 
ATOM     13  N   UNL A   1      31.878  22.965  27.677  1.00  0.00    -0.024 NA
ATOM     14  N   UNL A   1      33.074  22.814  27.044  1.00  0.00    -0.113 NA
BRANCH  12  15
ATOM     15  C   UNL A   1      34.454  23.942  25.330  1.00  0.00     0.126 C 
ATOM     16  C   UNL A   1      35.748  24.579  25.887  1.00  0.00     0.059 C 
ATOM     17  S   UNL A   1      34.922  22.277  24.647  1.00  0.00    -0.114 SA
ATOM     18  C   UNL A   1      36.873  23.560  25.851  1.00  0.00    -0.033 A 
ATOM     19  C   UNL A   1      36.555  22.333  25.290  1.00  0.00     0.011 A 
ATOM     20  C   UNL A   1      38.182  23.758  26.286  1.00  0.00     0.005 A 
ATOM     21  C   UNL A   1      37.479  21.290  25.246  1.00  0.00     0.015 A 
ATOM     22  C   UNL A   1      39.115  22.719  26.283  1.00  0.00     0.000 A 
ATOM     23  C   UNL A   1      38.760  21.478  25.769  1.00  0.00     0.001 A 
ENDBRANCH  12  15
ENDBRANCH   9  10
ENDBRANCH   7   9
ENDBRANCH   6   7
ENDBRANCH   5   6
ENDBRANCH   4   5
ENDBRANCH   3   4
ENDBRANCH   2   3
ENDBRANCH   1   2
BRANCH   1  24
ATOM     24  O   UNL A   1      31.177  29.266  25.113  1.00  0.00    -0.376 OA
BRANCH  24  25
ATOM     25  C   UNL A   1      31.479  30.539  25.686  1.00  0.00     0.202 C 
BRANCH  25  26
ATOM     26  C   UNL A   1      32.247  30.567  27.021  1.00  0.00     0.261 C 
BRANCH  26  27
ATOM     27  O   UNL A   1      33.673  30.706  26.868  1.00  0.00    -0.460 OA
BRANCH  27  28
ATOM     28  C   UNL A   1      34.252  31.621  27.688  1.00  0.00     0.338 C 
ATOM     29  O   UNL A   1      33.728  32.612  28.170  1.00  0.00    -0.246 OA
BRANCH  28  30
ATOM     30  C   UNL A   1      35.575  31.126  28.116  1.00  0.00     0.060 A 
ATOM     31  C   UNL A   1      35.870  29.764  28.153  1.00  0.00     0.016 A 
ATOM     32  C   UNL A   1      36.538  32.076  28.486  1.00  0.00     0.016 A 
ATOM     33  C   UNL A   1      37.146  29.361  28.559  1.00  0.00     0.010 A 
ATOM     34  C   UNL A   1      37.794  31.667  28.931  1.00  0.00     0.010 A 
ATOM     35  C   UNL A   1      38.106  30.304  28.974  1.00  0.00    -0.014 A 
BRANCH  35  36
ATOM     36  C   UNL A   1      39.462  29.831  29.316  1.00  0.00     0.031 A 
ATOM     37  C   UNL A   1      39.774  29.831  30.753  1.00  0.00     0.074 A 
ATOM     38  C   UNL A   1      40.378  29.290  28.482  1.00  0.00     0.049 A 
ATOM     39  N   UNL A   1      40.690  30.523  31.344  1.00  0.00    -0.248 NA
ATOM     40  C   UNL A   1      38.942  29.013  31.643  1.00  0.00     0.031 C 
ATOM     41  C   UNL A   1      40.136  29.014  27.081  1.00  0.00     0.029 A 
ATOM     42  N   UNL A   1      41.654  28.800  28.679  1.00  0.00    -0.354 N 
ATOM     43  C   UNL A   1      40.733  30.020  32.632  1.00  0.00     0.074 A 
ATOM     44  C   UNL A   1      39.543  29.223  32.815  1.00  0.00     0.031 C 
ATOM     45  C   UNL A   1      41.132  28.258  26.580  1.00  0.00     0.029 A 
ATOM     46  C   UNL A   1      42.144  28.064  27.599  1.00  0.00     0.049 A 
ATOM     47  H   UNL A   1      42.169  28.956  29.503  1.00  0.00     0.167 HD
ATOM     48  C   UNL A   1      41.885  30.036  33.347  1.00  0.00     0.037 A 
ATOM     49  C   UNL A   1      43.286  27.339  27.472  1.00  0.00     0.037 A 
ATOM     50  C   UNL A   1      42.866  30.943  32.818  1.00  0.00     0.049 A 
ATOM     51  C   UNL A   1      44.282  27.903  28.407  1.00  0.00     0.074 A 
ATOM     52  C   UNL A   1      42.919  32.304  32.595  1.00  0.00     0.029 A 
ATOM     53  N   UNL A   1      43.915  30.385  32.135  1.00  0.00    -0.354 N 
ATOM     54  N   UNL A   1      44.819  29.086  28.270  1.00  0.00    -0.248 NA
ATOM     55  C   UNL A   1      44.512  27.259  29.694  1.00  0.00     0.031 C 
ATOM     56  C   UNL A   1      43.855  32.499  31.542  1.00  0.00     0.029 A 
ATOM     57  C   UNL A   1      44.339  31.250  31.155  1.00  0.00     0.049 A 
ATOM     58  H   UNL A   1      44.304  29.500  32.316  1.00  0.00     0.167 HD
ATOM     59  C   UNL A   1      45.066  29.498  29.564  1.00  0.00     0.074 A 
ATOM     60  C   UNL A   1      45.024  28.289  30.370  1.00  0.00     0.031 C 
ATOM     61  C   UNL A   1      44.938  30.807  29.911  1.00  0.00     0.037 A 
BRANCH  48  62
ATOM     62  C   UNL A   1      42.242  28.922  34.282  1.00  0.00     0.058 A 
ATOM     63  C   UNL A   1      42.468  27.629  33.788  1.00  0.00     0.135 A 
ATOM     64  C   UNL A   1      42.120  29.050  35.685  1.00  0.00     0.135 A 
ATOM     65  F   UNL A   1      42.532  27.409  32.465  1.00  0.00    -0.206 F 
ATOM     66  C   UNL A   1      42.571  26.527  34.636  1.00  0.00     0.059 A 
ATOM     67  C   UNL A   1      42.275  27.978  36.551  1.00  0.00     0.059 A 
ATOM     68  F   UNL A   1      41.755  30.209  36.254  1.00  0.00    -0.206 F 
ATOM     69  C   UNL A   1      42.472  26.715  36.015  1.00  0.00     0.060 A 
BRANCH  69  70
ATOM     70  S   UNL A   1      42.549  25.287  37.109  1.00  0.00     0.124 S 
ATOM     71  O   UNL A   1      42.884  25.919  38.380  1.00  0.00    -0.237 OA
ATOM     72  O   UNL A   1      41.199  24.744  37.000  1.00  0.00    -0.237 OA
ATOM     73  O   UNL A   1      43.597  24.467  36.511  1.00  0.00    -0.744 OA
ENDBRANCH  69  70
ENDBRANCH  48  62
BRANCH  49  74
ATOM     74  C   UNL A   1      43.552  26.138  26.621  1.00  0.00     0.058 A 
ATOM     75  C   UNL A   1      44.606  26.101  25.685  1.00  0.00     0.135 A 
ATOM     76  C   UNL A   1      42.926  24.900  26.877  1.00  0.00     0.135 A 
ATOM     77  F   UNL A   1      45.285  27.219  25.383  1.00  0.00    -0.206 F 
ATOM     78  C   UNL A   1      45.039  24.909  25.085  1.00  0.00     0.059 A 
ATOM     79  C   UNL A   1      43.324  23.705  26.276  1.00  0.00     0.059 A 
ATOM     80  F   UNL A   1      41.953  24.791  27.793  1.00  0.00    -0.206 F 
ATOM     81  C   UNL A   1      44.403  23.710  25.404  1.00  0.00     0.060 A 
BRANCH  81  82
ATOM     82  S   UNL A   1      45.076  22.147  24.790  1.00  0.00     0.124 S 
ATOM     83  O   UNL A   1      44.472  21.178  25.696  1.00  0.00    -0.237 OA
ATOM     84  O   UNL A   1      44.591  22.126  23.414  1.00  0.00    -0.237 OA
ATOM     85  O   UNL A   1      46.520  22.320  24.934  1.00  0.00    -0.744 OA
ENDBRANCH  81  82
ENDBRANCH  49  74
BRANCH  61  86
ATOM     86  C   UNL A   1      45.223  31.847  28.867  1.00  0.00     0.058 A 
ATOM     87  C   UNL A   1      46.497  32.322  28.517  1.00  0.00     0.135 A 
ATOM     88  C   UNL A   1      44.131  32.284  28.097  1.00  0.00     0.135 A 
ATOM     89  F   UNL A   1      47.601  31.892  29.149  1.00  0.00    -0.206 F 
ATOM     90  C   UNL A   1      46.671  33.207  27.451  1.00  0.00     0.059 A 
ATOM     91  C   UNL A   1      44.286  33.140  27.013  1.00  0.00     0.059 A 
ATOM     92  F   UNL A   1      42.895  31.831  28.364  1.00  0.00    -0.206 F 
ATOM     93  C   UNL A   1      45.560  33.596  26.697  1.00  0.00     0.060 A 
BRANCH  93  94
ATOM     94  S   UNL A   1      45.814  34.636  25.245  1.00  0.00     0.124 S 
ATOM     95  O   UNL A   1      45.395  35.945  25.736  1.00  0.00    -0.237 OA
ATOM     96  O   UNL A   1      47.242  34.461  25.007  1.00  0.00    -0.237 OA
ATOM     97  O   UNL A   1      44.942  34.037  24.238  1.00  0.00    -0.744 OA
ENDBRANCH  93  94
ENDBRANCH  61  86
ENDBRANCH  35  36
ENDBRANCH  28  30
ENDBRANCH  27  28
ENDBRANCH  26  27
ENDBRANCH  25  26
ENDBRANCH  24  25
ENDBRANCH   1  24
TORSDOF 22
ENDMDL
MODEL 2
REMARK VINA RESULT:     -10.8      1.630      2.375
REMARK SMILES O=C(Cn1nnnc1[C@H]1Cc2ccccc2S1)OCCOCCOCCOC(=O)c1ccc(-c2c3nc(c(-c4c(F)cc(S(=O)(=O)[O-])cc4F)c4ccc([nH]4)c(-c4c(F)cc(S(=O)(=O)[O-])cc4F)c4nc(c(-c5c(F)cc(S(=O)(=O)[O-])cc5F)c5ccc2[nH]5)C=C4)C=C3)cc1
REMARK SMILES IDX 23 1 22 2 21 3 20 4 19 5 18 6 2 7 1 8 3 9 4 10 5 11 8 12
REMARK SMILES IDX 6 13 7 14 9 15 10 16 17 17 11 18 16 19 12 20 15 21 13 22
REMARK SMILES IDX 14 23 24 24 25 25 26 26 27 27 28 28 29 29 30 30 31 31 95 32
REMARK SMILES IDX 32 33 94 34 33 35 34 36 35 37 88 38 36 39 93 40 87 41 89 42
REMARK SMILES IDX 37 43 92 44 86 45 85 46 38 48 72 49 51 50 71 51 52 52 55 53
REMARK SMILES IDX 70 54 90 55 53 56 54 57 69 59 91 60 56 61 39 62 40 63 49 64
REMARK SMILES IDX 41 65 42 66 48 67 50 68 43 69 44 70 45 71 46 72 47 73 73 74
REMARK SMILES IDX 74 75 83 76 75 77 76 78 82 79 84 80 77 81 78 82 79 83 80 84
REMARK SMILES IDX 81 85 57 86 58 87 67 88 59 89 60 90 66 91 68 92 61 93 62 94
REMARK SMILES IDX 63 95 64 96 65 97
REMARK H PARENT 89 47 55 58
REMARK Flexibility Score: inf
ROOT
ATOM      1  C   UNL A   1      30.458  29.338  23.850  1.00  0.00     0.188 C 
ENDROOT
BRANCH   1   2
ATOM      2  C   UNL A   1      31.235  29.062  22.552  1.00  0.00     0.188 C 
BRANCH   2   3
ATOM      3  O   UNL A   1      32.654  29.177  22.640  1.00  0.00    -0.376 OA
BRANCH   3   4
ATOM      4  C   UNL A   1      33.385  27.952  22.551  1.00  0.00     0.202 C 
BRANCH   4   5
ATOM      5  C   UNL A   1      33.512  27.193  23.869  1.00  0.00     0.261 C 
BRANCH   5   6
ATOM      6  O   UNL A   1      32.698  26.007  23.849  1.00  0.00    -0.462 OA
BRANCH   6   7
ATOM      7  C   UNL A   1      31.664  25.853  24.697  1.00  0.00     0.327 C 
ATOM      8  O   UNL A   1      30.517  26.076  24.320  1.00  0.00    -0.250 OA
BRANCH   7   9
ATOM      9  C   UNL A   1      31.946  25.268  26.029  1.00  0.00     0.270 C 
BRANCH   9  10
ATOM     10  N   UNL A   1      31.214  24.056  26.277  1.00  0.00    -0.217 N 
ATOM     11  N   UNL A   1      30.114  24.194  27.046  1.00  0.00    -0.044 NA
ATOM     12  C   UNL A   1      31.465  22.721  26.046  1.00  0.00     0.165 A 
ATOM     13  N   UNL A   1      29.649  22.975  27.218  1.00  0.00    -0.024 NA
ATOM     14  N   UNL A   1      30.467  22.063  26.625  1.00  0.00    -0.113 NA
BRANCH  12  15
ATOM     15  C   UNL A   1      32.612  21.975  25.398  1.00  0.00     0.126 C 
ATOM     16  C   UNL A   1      33.071  20.557  25.811  1.00  0.00     0.059 C 
ATOM     17  S   UNL A   1      32.290  21.926  23.567  1.00  0.00    -0.114 SA
ATOM     18  C   UNL A   1      32.913  19.608  24.636  1.00  0.00    -0.033 A 
ATOM     19  C   UNL A   1      32.471  20.182  23.455  1.00  0.00     0.011 A 
ATOM     20  C   UNL A   1      33.205  18.246  24.629  1.00  0.00     0.005 A 
ATOM     21  C   UNL A   1      32.230  19.415  22.316  1.00  0.00     0.015 A 
ATOM     22  C   UNL A   1      32.940  17.451  23.511  1.00  0.00     0.000 A 
ATOM     23  C   UNL A   1      32.442  18.036  22.354  1.00  0.00     0.001 A 
ENDBRANCH  12  15
ENDBRANCH   9  10
ENDBRANCH   7   9
ENDBRANCH   6   7
ENDBRANCH   5   6
ENDBRANCH   4   5
ENDBRANCH   3   4
ENDBRANCH   2   3
ENDBRANCH   1   2
BRANCH   1  24
ATOM     24  O   UNL A   1      31.172  29.367  25.078  1.00  0.00    -0.376 OA
BRANCH  24  25
ATOM     25  C   UNL A   1      31.467  30.657  25.617  1.00  0.00     0.202 C 
BRANCH  25  26
ATOM     26  C   UNL A   1      32.059  30.728  27.037  1.00  0.00     0.261 C 
BRANCH  26  27
ATOM     27  O   UNL A   1      33.480  30.494  27.086  1.00  0.00    -0.460 OA
BRANCH  27  28
ATOM     28  C   UNL A   1      34.208  31.498  27.642  1.00  0.00     0.338 C 
ATOM     29  O   UNL A   1      33.814  32.615  27.936  1.00  0.00    -0.246 OA
BRANCH  28  30
ATOM     30  C   UNL A   1      35.521  30.973  28.063  1.00  0.00     0.060 A 
ATOM     31  C   UNL A   1      35.793  29.606  28.078  1.00  0.00     0.016 A 
ATOM     32  C   UNL A   1      36.499  31.901  28.451  1.00  0.00     0.016 A 
ATOM     33  C   UNL A   1      37.061  29.174  28.479  1.00  0.00     0.010 A 
ATOM     34  C   UNL A   1      37.748  31.463  28.891  1.00  0.00     0.010 A 
ATOM     35  C   UNL A   1      38.036  30.095  28.912  1.00  0.00    -0.014 A 
BRANCH  35  36
ATOM     36  C   UNL A   1      39.383  29.593  29.247  1.00  0.00     0.031 A 
ATOM     37  C   UNL A   1      39.736  29.672  30.673  1.00  0.00     0.074 A 
ATOM     38  C   UNL A   1      40.256  28.965  28.426  1.00  0.00     0.049 A 
ATOM     39  N   UNL A   1      40.693  30.364  31.194  1.00  0.00    -0.248 NA
ATOM     40  C   UNL A   1      38.900  28.944  31.635  1.00  0.00     0.031 C 
ATOM     41  C   UNL A   1      39.964  28.611  27.053  1.00  0.00     0.029 A 
ATOM     42  N   UNL A   1      41.517  28.441  28.621  1.00  0.00    -0.354 N 
ATOM     43  C   UNL A   1      40.754  29.942  32.510  1.00  0.00     0.074 A 
ATOM     44  C   UNL A   1      39.542  29.204  32.774  1.00  0.00     0.031 C 
ATOM     45  C   UNL A   1      40.917  27.787  26.576  1.00  0.00     0.029 A 
ATOM     46  C   UNL A   1      41.950  27.620  27.578  1.00  0.00     0.049 A 
ATOM     47  H   UNL A   1      42.061  28.629  29.420  1.00  0.00     0.167 HD
ATOM     48  C   UNL A   1      41.926  29.960  33.192  1.00  0.00     0.037 A 
ATOM     49  C   UNL A   1      43.061  26.846  27.468  1.00  0.00     0.037 A 
ATOM     50  C   UNL A   1      42.924  30.794  32.581  1.00  0.00     0.049 A 
ATOM     51  C   UNL A   1      44.103  27.430  28.338  1.00  0.00     0.074 A 
ATOM     52  C   UNL A   1      43.020  32.135  32.269  1.00  0.00     0.029 A 
ATOM     53  N   UNL A   1      43.932  30.154  31.908  1.00  0.00    -0.354 N 
ATOM     54  N   UNL A   1      44.678  28.580  28.111  1.00  0.00    -0.248 NA
ATOM     55  C   UNL A   1      44.346  26.860  29.657  1.00  0.00     0.031 C 
ATOM     56  C   UNL A   1      43.932  32.227  31.182  1.00  0.00     0.029 A 
ATOM     57  C   UNL A   1      44.359  30.938  30.864  1.00  0.00     0.049 A 
ATOM     58  H   UNL A   1      44.294  29.268  32.135  1.00  0.00     0.167 HD
ATOM     59  C   UNL A   1      44.977  29.063  29.370  1.00  0.00     0.074 A 
ATOM     60  C   UNL A   1      44.913  27.910  30.253  1.00  0.00     0.031 C 
ATOM     61  C   UNL A   1      44.906  30.396  29.635  1.00  0.00     0.037 A 
BRANCH  48  62
ATOM     62  C   UNL A   1      42.269  28.894  34.188  1.00  0.00     0.058 A 
ATOM     63  C   UNL A   1      42.402  29.212  35.547  1.00  0.00     0.135 A 
ATOM     64  C   UNL A   1      42.716  27.613  33.792  1.00  0.00     0.135 A 
ATOM     65  F   UNL A   1      42.062  30.431  35.996  1.00  0.00    -0.206 F 
ATOM     66  C   UNL A   1      42.943  28.309  36.461  1.00  0.00     0.059 A 
ATOM     67  C   UNL A   1      43.204  26.678  34.692  1.00  0.00     0.059 A 
ATOM     68  F   UNL A   1      42.775  27.259  32.499  1.00  0.00    -0.206 F 
ATOM     69  C   UNL A   1      43.341  27.046  36.022  1.00  0.00     0.060 A 
BRANCH  69  70
ATOM     70  S   UNL A   1      44.091  25.900  37.190  1.00  0.00     0.124 S 
ATOM     71  O   UNL A   1      43.903  26.611  38.449  1.00  0.00    -0.237 OA
ATOM     72  O   UNL A   1      43.282  24.700  37.004  1.00  0.00    -0.237 OA
ATOM     73  O   UNL A   1      45.468  25.798  36.717  1.00  0.00    -0.744 OA
ENDBRANCH  69  70
ENDBRANCH  48  62
BRANCH  49  74
ATOM     74  C   UNL A   1      43.259  25.584  26.689  1.00  0.00     0.058 A 
ATOM     75  C   UNL A   1      44.145  25.509  25.595  1.00  0.00     0.135 A 
ATOM     76  C   UNL A   1      42.762  24.347  27.151  1.00  0.00     0.135 A 
ATOM     77  F   UNL A   1      44.694  26.625  25.089  1.00  0.00    -0.206 F 
ATOM     78  C   UNL A   1      44.548  24.288  25.034  1.00  0.00     0.059 A 
ATOM     79  C   UNL A   1      43.130  23.121  26.595  1.00  0.00     0.059 A 
ATOM     80  F   UNL A   1      41.961  24.278  28.224  1.00  0.00    -0.206 F 
ATOM     81  C   UNL A   1      44.050  23.096  25.557  1.00  0.00     0.060 A 
BRANCH  81  82
ATOM     82  S   UNL A   1      44.710  21.516  24.972  1.00  0.00     0.124 S 
ATOM     83  O   UNL A   1      46.100  21.587  25.405  1.00  0.00    -0.237 OA
ATOM     84  O   UNL A   1      43.868  20.555  25.676  1.00  0.00    -0.237 OA
ATOM     85  O   UNL A   1      44.503  21.577  23.527  1.00  0.00    -0.744 OA
ENDBRANCH  81  82
ENDBRANCH  49  74
BRANCH  61  86
ATOM     86  C   UNL A   1      45.199  31.355  28.520  1.00  0.00     0.058 A 
ATOM     87  C   UNL A   1      44.270  31.812  27.572  1.00  0.00     0.135 A 
ATOM     88  C   UNL A   1      46.481  31.933  28.506  1.00  0.00     0.135 A 
ATOM     89  F   UNL A   1      43.002  31.371  27.567  1.00  0.00    -0.206 F 
ATOM     90  C   UNL A   1      44.611  32.796  26.641  1.00  0.00     0.059 A 
ATOM     91  C   UNL A   1      46.831  32.935  27.609  1.00  0.00     0.059 A 
ATOM     92  F   UNL A   1      47.397  31.561  29.416  1.00  0.00    -0.206 F 
ATOM     93  C   UNL A   1      45.889  33.361  26.680  1.00  0.00     0.060 A 
BRANCH  93  94
ATOM     94  S   UNL A   1      46.276  34.719  25.557  1.00  0.00     0.124 S 
ATOM     95  O   UNL A   1      45.923  35.884  26.362  1.00  0.00    -0.237 OA
ATOM     96  O   UNL A   1      47.698  34.504  25.318  1.00  0.00    -0.237 OA
ATOM     97  O   UNL A   1      45.412  34.469  24.406  1.00  0.00    -0.744 OA
ENDBRANCH  93  94
ENDBRANCH  61  86
ENDBRANCH  35  36
ENDBRANCH  28  30
ENDBRANCH  27  28
ENDBRANCH  26  27
ENDBRANCH  25  26
ENDBRANCH  24  25
ENDBRANCH   1  24
TORSDOF 22
ENDMDL
MODEL 3
REMARK VINA RESULT:     -10.6      2.898      9.688
REMARK SMILES O=C(Cn1nnnc1[C@H]1Cc2ccccc2S1)OCCOCCOCCOC(=O)c1ccc(-c2c3nc(c(-c4c(F)cc(S(=O)(=O)[O-])cc4F)c4ccc([nH]4)c(-c4c(F)cc(S(=O)(=O)[O-])cc4F)c4nc(c(-c5c(F)cc(S(=O)(=O)[O-])cc5F)c5ccc2[nH]5)C=C4)C=C3)cc1
REMARK SMILES IDX 23 1 22 2 21 3 20 4 19 5 18 6 2 7 1 8 3 9 4 10 5 11 8 12
REMARK SMILES IDX 6 13 7 14 9 15 10 16 17 17 11 18 16 19 12 20 15 21 13 22
REMARK SMILES IDX 14 23 24 24 25 25 26 26 27 27 28 28 29 29 30 30 31 31 95 32
REMARK SMILES IDX 32 33 94 34 33 35 34 36 35 37 88 38 36 39 93 40 87 41 89 42
REMARK SMILES IDX 37 43 92 44 86 45 85 46 38 48 72 49 51 50 71 51 52 52 55 53
REMARK SMILES IDX 70 54 90 55 53 56 54 57 69 59 91 60 56 61 39 62 40 63 49 64
REMARK SMILES IDX 41 65 42 66 48 67 50 68 43 69 44 70 45 71 46 72 47 73 73 74
REMARK SMILES IDX 74 75 83 76 75 77 76 78 82 79 84 80 77 81 78 82 79 83 80 84
REMARK SMILES IDX 81 85 57 86 58 87 67 88 59 89 60 90 66 91 68 92 61 93 62 94
REMARK SMILES IDX 63 95 64 96 65 97
REMARK H PARENT 89 47 55 58
REMARK Flexibility Score: inf
ROOT
ATOM      1  C   UNL A   1      41.193  20.341  27.374  1.00  0.00     0.188 C 
ENDROOT
BRANCH   1   2
ATOM      2  C   UNL A   1      41.030  21.857  27.185  1.00  0.00     0.188 C 
BRANCH   2   3
ATOM      3  O   UNL A   1      40.169  22.263  26.122  1.00  0.00    -0.376 OA
BRANCH   3   4
ATOM      4  C   UNL A   1      38.785  22.387  26.454  1.00  0.00     0.202 C 
BRANCH   4   5
ATOM      5  C   UNL A   1      37.857  22.538  25.252  1.00  0.00     0.261 C 
BRANCH   5   6
ATOM      6  O   UNL A   1      37.127  23.776  25.330  1.00  0.00    -0.462 OA
BRANCH   6   7
ATOM      7  C   UNL A   1      35.854  23.814  25.767  1.00  0.00     0.327 C 
ATOM      8  O   UNL A   1      35.559  23.328  26.854  1.00  0.00    -0.250 OA
BRANCH   7   9
ATOM      9  C   UNL A   1      34.875  24.587  24.968  1.00  0.00     0.270 C 
BRANCH   9  10
ATOM     10  N   UNL A   1      34.352  23.848  23.852  1.00  0.00    -0.217 N 
ATOM     11  N   UNL A   1      34.231  24.545  22.704  1.00  0.00    -0.044 NA
ATOM     12  C   UNL A   1      33.774  22.605  23.713  1.00  0.00     0.165 A 
ATOM     13  N   UNL A   1      33.664  23.722  21.848  1.00  0.00    -0.024 NA
ATOM     14  N   UNL A   1      33.368  22.537  22.449  1.00  0.00    -0.113 NA
BRANCH  12  15
ATOM     15  C   UNL A   1      33.479  21.480  24.682  1.00  0.00     0.126 C 
ATOM     16  C   UNL A   1      32.353  20.438  24.489  1.00  0.00     0.059 C 
ATOM     17  S   UNL A   1      35.056  20.529  24.939  1.00  0.00    -0.114 SA
ATOM     18  C   UNL A   1      32.956  19.048  24.388  1.00  0.00    -0.033 A 
ATOM     19  C   UNL A   1      34.331  18.977  24.548  1.00  0.00     0.011 A 
ATOM     20  C   UNL A   1      32.261  17.857  24.194  1.00  0.00     0.005 A 
ATOM     21  C   UNL A   1      35.019  17.771  24.423  1.00  0.00     0.015 A 
ATOM     22  C   UNL A   1      32.930  16.642  24.033  1.00  0.00     0.000 A 
ATOM     23  C   UNL A   1      34.314  16.600  24.138  1.00  0.00     0.001 A 
ENDBRANCH  12  15
ENDBRANCH   9  10
ENDBRANCH   7   9
ENDBRANCH   6   7
ENDBRANCH   5   6
ENDBRANCH   4   5
ENDBRANCH   3   4
ENDBRANCH   2   3
ENDBRANCH   1   2
BRANCH   1  24
ATOM     24  O   UNL A   1      41.584  19.553  26.259  1.00  0.00    -0.376 OA
BRANCH  24  25
ATOM     25  C   UNL A   1      42.686  18.665  26.456  1.00  0.00     0.202 C 
BRANCH  25  26
ATOM     26  C   UNL A   1      43.737  18.557  25.334  1.00  0.00     0.261 C 
BRANCH  26  27
ATOM     27  O   UNL A   1      44.770  19.559  25.409  1.00  0.00    -0.460 OA
BRANCH  27  28
ATOM     28  C   UNL A   1      44.656  20.568  24.507  1.00  0.00     0.338 C 
ATOM     29  O   UNL A   1      44.544  20.464  23.297  1.00  0.00    -0.246 OA
BRANCH  28  30
ATOM     30  C   UNL A   1      44.454  21.843  25.224  1.00  0.00     0.060 A 
ATOM     31  C   UNL A   1      45.084  22.107  26.439  1.00  0.00     0.016 A 
ATOM     32  C   UNL A   1      43.602  22.791  24.640  1.00  0.00     0.016 A 
ATOM     33  C   UNL A   1      44.857  23.337  27.064  1.00  0.00     0.010 A 
ATOM     34  C   UNL A   1      43.346  23.999  25.288  1.00  0.00     0.010 A 
ATOM     35  C   UNL A   1      43.970  24.279  26.507  1.00  0.00    -0.014 A 
BRANCH  35  36
ATOM     36  C   UNL A   1      43.829  25.593  27.165  1.00  0.00     0.031 A 
ATOM     37  C   UNL A   1      44.960  26.511  26.963  1.00  0.00     0.074 A 
ATOM     38  C   UNL A   1      42.743  26.079  27.808  1.00  0.00     0.049 A 
ATOM     39  N   UNL A   1      45.739  26.987  27.876  1.00  0.00    -0.248 NA
ATOM     40  C   UNL A   1      45.300  26.901  25.590  1.00  0.00     0.031 C 
ATOM     41  C   UNL A   1      41.475  25.385  27.894  1.00  0.00     0.029 A 
ATOM     42  N   UNL A   1      42.484  27.279  28.439  1.00  0.00    -0.354 N 
ATOM     43  C   UNL A   1      46.488  27.953  27.227  1.00  0.00     0.074 A 
ATOM     44  C   UNL A   1      46.305  27.749  25.810  1.00  0.00     0.031 C 
ATOM     45  C   UNL A   1      40.526  26.214  28.373  1.00  0.00     0.029 A 
ATOM     46  C   UNL A   1      41.132  27.483  28.721  1.00  0.00     0.049 A 
ATOM     47  H   UNL A   1      43.186  27.929  28.668  1.00  0.00     0.167 HD
ATOM     48  C   UNL A   1      46.954  29.037  27.895  1.00  0.00     0.037 A 
ATOM     49  C   UNL A   1      40.489  28.573  29.215  1.00  0.00     0.037 A 
ATOM     50  C   UNL A   1      46.943  28.870  29.322  1.00  0.00     0.049 A 
ATOM     51  C   UNL A   1      41.465  29.348  30.010  1.00  0.00     0.074 A 
ATOM     52  C   UNL A   1      47.540  27.997  30.209  1.00  0.00     0.029 A 
ATOM     53  N   UNL A   1      45.955  29.526  30.010  1.00  0.00    -0.354 N 
ATOM     54  N   UNL A   1      41.977  28.931  31.137  1.00  0.00    -0.248 NA
ATOM     55  C   UNL A   1      42.113  30.514  29.424  1.00  0.00     0.031 C 
ATOM     56  C   UNL A   1      46.698  27.956  31.355  1.00  0.00     0.029 A 
ATOM     57  C   UNL A   1      45.614  28.802  31.127  1.00  0.00     0.049 A 
ATOM     58  H   UNL A   1      45.551  30.383  29.745  1.00  0.00     0.167 HD
ATOM     59  C   UNL A   1      43.237  29.495  31.165  1.00  0.00     0.074 A 
ATOM     60  C   UNL A   1      43.199  30.577  30.195  1.00  0.00     0.031 C 
ATOM     61  C   UNL A   1      44.286  28.821  31.710  1.00  0.00     0.037 A 
BRANCH  48  62
ATOM     62  C   UNL A   1      47.032  30.384  27.244  1.00  0.00     0.058 A 
ATOM     63  C   UNL A   1      48.248  31.082  27.206  1.00  0.00     0.135 A 
ATOM     64  C   UNL A   1      45.876  31.110  26.878  1.00  0.00     0.135 A 
ATOM     65  F   UNL A   1      49.386  30.487  27.599  1.00  0.00    -0.206 F 
ATOM     66  C   UNL A   1      48.313  32.421  26.823  1.00  0.00     0.059 A 
ATOM     67  C   UNL A   1      45.923  32.424  26.440  1.00  0.00     0.059 A 
ATOM     68  F   UNL A   1      44.647  30.589  27.021  1.00  0.00    -0.206 F 
ATOM     69  C   UNL A   1      47.144  33.081  26.443  1.00  0.00     0.060 A 
BRANCH  69  70
ATOM     70  S   UNL A   1      47.217  34.825  26.002  1.00  0.00     0.124 S 
ATOM     71  O   UNL A   1      48.143  34.796  24.876  1.00  0.00    -0.237 OA
ATOM     72  O   UNL A   1      45.824  35.118  25.681  1.00  0.00    -0.237 OA
ATOM     73  O   UNL A   1      47.717  35.454  27.220  1.00  0.00    -0.744 OA
ENDBRANCH  69  70
ENDBRANCH  48  62
BRANCH  49  74
ATOM     74  C   UNL A   1      39.079  29.020  28.991  1.00  0.00     0.058 A 
ATOM     75  C   UNL A   1      38.168  29.187  30.054  1.00  0.00     0.135 A 
ATOM     76  C   UNL A   1      38.658  29.530  27.745  1.00  0.00     0.135 A 
ATOM     77  F   UNL A   1      38.478  28.757  31.287  1.00  0.00    -0.206 F 
ATOM     78  C   UNL A   1      36.946  29.859  29.899  1.00  0.00     0.059 A 
ATOM     79  C   UNL A   1      37.437  30.182  27.562  1.00  0.00     0.059 A 
ATOM     80  F   UNL A   1      39.458  29.490  26.672  1.00  0.00    -0.206 F 
ATOM     81  C   UNL A   1      36.599  30.373  28.651  1.00  0.00     0.060 A 
BRANCH  81  82
ATOM     82  S   UNL A   1      35.123  31.406  28.486  1.00  0.00     0.124 S 
ATOM     83  O   UNL A   1      34.148  30.463  27.952  1.00  0.00    -0.237 OA
ATOM     84  O   UNL A   1      34.903  31.845  29.859  1.00  0.00    -0.237 OA
ATOM     85  O   UNL A   1      35.546  32.456  27.562  1.00  0.00    -0.744 OA
ENDBRANCH  81  82
ENDBRANCH  49  74
BRANCH  61  86
ATOM     86  C   UNL A   1      44.008  27.875  32.841  1.00  0.00     0.058 A 
ATOM     87  C   UNL A   1      43.775  28.246  34.175  1.00  0.00     0.135 A 
ATOM     88  C   UNL A   1      43.848  26.519  32.504  1.00  0.00     0.135 A 
ATOM     89  F   UNL A   1      43.828  29.530  34.563  1.00  0.00    -0.206 F 
ATOM     90  C   UNL A   1      43.410  27.299  35.134  1.00  0.00     0.059 A 
ATOM     91  C   UNL A   1      43.455  25.567  33.436  1.00  0.00     0.059 A 
ATOM     92  F   UNL A   1      44.021  26.116  31.234  1.00  0.00    -0.206 F 
ATOM     93  C   UNL A   1      43.238  25.966  34.750  1.00  0.00     0.060 A 
BRANCH  93  94
ATOM     94  S   UNL A   1      42.643  24.778  35.969  1.00  0.00     0.124 S 
ATOM     95  O   UNL A   1      41.713  25.587  36.749  1.00  0.00    -0.237 OA
ATOM     96  O   UNL A   1      42.051  23.755  35.115  1.00  0.00    -0.237 OA
ATOM     97  O   UNL A   1      43.857  24.368  36.671  1.00  0.00    -0.744 OA
ENDBRANCH  93  94
ENDBRANCH  61  86
ENDBRANCH  35  36
ENDBRANCH  28  30
ENDBRANCH  27  28
ENDBRANCH  26  27
ENDBRANCH  25  26
ENDBRANCH  24  25
ENDBRANCH   1  24
TORSDOF 22
ENDMDL
