MODEL 1
REMARK VINA RESULT:     -10.0      0.000      0.000
REMARK SMILES C#Cc1cc(Cl)c2c(c1)C=C(C(=O)OCCOCCOCCOC(=O)c1ccc(-c3c4nc(c(-c5c(F)cc(S(=O)(=O)[O-])cc5F)c5ccc([nH]5)c(-c5c(F)cc(S(=O)(=O)[O-])cc5F)c5nc(c(-c6c(F)cc(S(=O)(=O)[O-])cc6F)c6ccc3[nH]6)C=C5)C=C4)cc1)[C@@H](C(F)(F)F)O2
REMARK SMILES IDX 19 1 18 2 17 3 16 4 15 5 14 6 12 7 13 8 11 9 3 10 4 11 9 12
REMARK SMILES IDX 5 13 8 14 6 15 7 16 10 17 97 18 92 19 2 20 1 21 93 22 94 23
REMARK SMILES IDX 95 24 96 25 20 26 21 27 22 28 23 29 24 30 25 31 26 32 27 33
REMARK SMILES IDX 91 34 28 35 90 36 29 37 30 38 31 39 84 40 32 41 89 42 83 43
REMARK SMILES IDX 85 44 33 45 88 46 82 47 81 48 34 50 68 51 47 52 67 53 48 54
REMARK SMILES IDX 51 55 66 56 86 57 49 58 50 59 65 61 87 62 52 63 35 64 36 65
REMARK SMILES IDX 45 66 37 67 38 68 44 69 46 70 39 71 40 72 41 73 42 74 43 75
REMARK SMILES IDX 69 76 70 77 79 78 71 79 72 80 78 81 80 82 73 83 74 84 75 85
REMARK SMILES IDX 76 86 77 87 53 88 54 89 63 90 55 91 56 92 62 93 64 94 57 95
REMARK SMILES IDX 58 96 59 97 60 98 61 99
REMARK H PARENT 85 49 51 60
REMARK Flexibility Score: inf
ROOT
ATOM      1  C   UNL A   1      31.628  29.964  25.190  1.00  0.00     0.188 C 
ENDROOT
BRANCH   1   2
ATOM      2  C   UNL A   1      30.453  29.639  24.246  1.00  0.00     0.188 C 
BRANCH   2   3
ATOM      3  O   UNL A   1      30.762  29.408  22.891  1.00  0.00    -0.376 OA
BRANCH   3   4
ATOM      4  C   UNL A   1      31.829  28.553  22.525  1.00  0.00     0.202 C 
BRANCH   4   5
ATOM      5  C   UNL A   1      31.875  27.023  22.728  1.00  0.00     0.261 C 
BRANCH   5   6
ATOM      6  O   UNL A   1      32.644  26.516  23.822  1.00  0.00    -0.460 OA
BRANCH   6   7
ATOM      7  C   UNL A   1      31.977  25.719  24.693  1.00  0.00     0.338 C 
ATOM      8  O   UNL A   1      30.867  25.914  25.154  1.00  0.00    -0.246 OA
BRANCH   7   9
ATOM      9  C   UNL A   1      32.744  24.470  24.896  1.00  0.00     0.087 C 
ATOM     10  C   UNL A   1      36.956  22.317  25.799  1.00  0.00     0.027 A 
ATOM     11  C   UNL A   1      36.413  21.090  25.421  1.00  0.00     0.041 A 
ATOM     12  C   UNL A   1      36.148  23.457  25.835  1.00  0.00     0.029 A 
ATOM     13  C   UNL A   1      35.057  21.001  25.102  1.00  0.00     0.084 A 
ATOM     14  C   UNL A   1      34.798  23.378  25.466  1.00  0.00     0.020 A 
ATOM     15  Cl  UNL A   1      34.430  19.462  24.624  1.00  0.00    -0.080 Cl
ATOM     16  C   UNL A   1      34.241  22.140  25.126  1.00  0.00     0.146 A 
ATOM     17  C   UNL A   1      33.999  24.589  25.350  1.00  0.00     0.027 C 
ATOM     18  O   UNL A   1      32.919  21.985  24.810  1.00  0.00    -0.474 OA
ATOM     19  C   UNL A   1      32.084  23.152  24.604  1.00  0.00     0.316 C 
BRANCH  10  20
ATOM     20  C   UNL A   1      38.349  22.415  26.105  1.00  0.00    -0.070 C 
ATOM     21  C   UNL A   1      39.517  22.491  26.382  1.00  0.00     0.010 C 
ENDBRANCH  10  20
BRANCH  19  22
ATOM     22  C   UNL A   1      31.512  23.095  23.181  1.00  0.00     0.430 C 
ATOM     23  F   UNL A   1      31.376  21.817  22.754  1.00  0.00    -0.167 F 
ATOM     24  F   UNL A   1      30.282  23.656  23.112  1.00  0.00    -0.167 F 
ATOM     25  F   UNL A   1      32.302  23.739  22.294  1.00  0.00    -0.167 F 
ENDBRANCH  19  22
ENDBRANCH   7   9
ENDBRANCH   6   7
ENDBRANCH   5   6
ENDBRANCH   4   5
ENDBRANCH   3   4
ENDBRANCH   2   3
ENDBRANCH   1   2
BRANCH   1  26
ATOM     26  O   UNL A   1      32.247  28.897  25.871  1.00  0.00    -0.376 OA
BRANCH  26  27
ATOM     27  C   UNL A   1      33.086  29.180  26.981  1.00  0.00     0.202 C 
BRANCH  27  28
ATOM     28  C   UNL A   1      33.459  30.589  27.504  1.00  0.00     0.261 C 
BRANCH  28  29
ATOM     29  O   UNL A   1      34.839  30.974  27.536  1.00  0.00    -0.460 OA
BRANCH  29  30
ATOM     30  C   UNL A   1      35.401  31.091  28.768  1.00  0.00     0.338 C 
ATOM     31  O   UNL A   1      34.864  31.500  29.782  1.00  0.00    -0.246 OA
BRANCH  30  32
ATOM     32  C   UNL A   1      36.727  30.432  28.750  1.00  0.00     0.060 A 
ATOM     33  C   UNL A   1      37.377  30.166  29.965  1.00  0.00     0.016 A 
ATOM     34  C   UNL A   1      37.329  30.089  27.540  1.00  0.00     0.016 A 
ATOM     35  C   UNL A   1      38.631  29.553  29.974  1.00  0.00     0.010 A 
ATOM     36  C   UNL A   1      38.604  29.510  27.550  1.00  0.00     0.010 A 
ATOM     37  C   UNL A   1      39.270  29.260  28.765  1.00  0.00    -0.014 A 
BRANCH  37  38
ATOM     38  C   UNL A   1      40.706  28.879  28.764  1.00  0.00     0.031 A 
ATOM     39  C   UNL A   1      41.721  29.931  29.125  1.00  0.00     0.074 A 
ATOM     40  C   UNL A   1      41.103  27.625  28.478  1.00  0.00     0.049 A 
ATOM     41  N   UNL A   1      43.025  29.858  29.130  1.00  0.00    -0.248 NA
ATOM     42  C   UNL A   1      41.190  31.243  29.536  1.00  0.00     0.031 C 
ATOM     43  C   UNL A   1      40.216  26.504  28.170  1.00  0.00     0.029 A 
ATOM     44  N   UNL A   1      42.364  27.084  28.397  1.00  0.00    -0.354 N 
ATOM     45  C   UNL A   1      43.471  31.109  29.540  1.00  0.00     0.074 A 
ATOM     46  C   UNL A   1      42.301  31.934  29.741  1.00  0.00     0.031 C 
ATOM     47  C   UNL A   1      40.961  25.413  27.921  1.00  0.00     0.029 A 
ATOM     48  C   UNL A   1      42.378  25.763  28.014  1.00  0.00     0.049 A 
ATOM     49  H   UNL A   1      43.182  27.596  28.592  1.00  0.00     0.167 HD
ATOM     50  C   UNL A   1      44.742  31.527  29.744  1.00  0.00     0.037 A 
ATOM     51  C   UNL A   1      43.415  24.941  27.746  1.00  0.00     0.037 A 
ATOM     52  C   UNL A   1      45.903  30.699  29.546  1.00  0.00     0.049 A 
ATOM     53  C   UNL A   1      44.826  25.463  27.888  1.00  0.00     0.074 A 
ATOM     54  C   UNL A   1      47.233  31.033  29.733  1.00  0.00     0.029 A 
ATOM     55  N   UNL A   1      45.878  29.382  29.116  1.00  0.00    -0.354 N 
ATOM     56  N   UNL A   1      45.235  26.644  28.290  1.00  0.00    -0.248 NA
ATOM     57  C   UNL A   1      45.919  24.542  27.538  1.00  0.00     0.031 C 
ATOM     58  C   UNL A   1      48.014  29.939  29.356  1.00  0.00     0.029 A 
ATOM     59  C   UNL A   1      47.170  28.898  29.003  1.00  0.00     0.049 A 
ATOM     60  H   UNL A   1      45.062  28.866  28.920  1.00  0.00     0.167 HD
ATOM     61  C   UNL A   1      46.626  26.594  28.271  1.00  0.00     0.074 A 
ATOM     62  C   UNL A   1      46.990  25.263  27.835  1.00  0.00     0.031 C 
ATOM     63  C   UNL A   1      47.522  27.564  28.584  1.00  0.00     0.037 A 
BRANCH  50  64
ATOM     64  C   UNL A   1      44.960  32.942  30.203  1.00  0.00     0.058 A 
ATOM     65  C   UNL A   1      45.066  34.002  29.290  1.00  0.00     0.135 A 
ATOM     66  C   UNL A   1      44.966  33.253  31.574  1.00  0.00     0.135 A 
ATOM     67  F   UNL A   1      45.088  33.760  27.971  1.00  0.00    -0.206 F 
ATOM     68  C   UNL A   1      45.169  35.321  29.720  1.00  0.00     0.059 A 
ATOM     69  C   UNL A   1      45.037  34.566  32.025  1.00  0.00     0.059 A 
ATOM     70  F   UNL A   1      44.875  32.274  32.489  1.00  0.00    -0.206 F 
ATOM     71  C   UNL A   1      45.139  35.594  31.089  1.00  0.00     0.060 A 
BRANCH  71  72
ATOM     72  S   UNL A   1      45.218  37.317  31.620  1.00  0.00     0.124 S 
ATOM     73  O   UNL A   1      43.803  37.667  31.692  1.00  0.00    -0.237 OA
ATOM     74  O   UNL A   1      45.912  37.212  32.900  1.00  0.00    -0.237 OA
ATOM     75  O   UNL A   1      45.970  37.970  30.553  1.00  0.00    -0.744 OA
ENDBRANCH  71  72
ENDBRANCH  50  64
BRANCH  51  76
ATOM     76  C   UNL A   1      43.171  23.538  27.307  1.00  0.00     0.058 A 
ATOM     77  C   UNL A   1      43.282  23.170  25.958  1.00  0.00     0.135 A 
ATOM     78  C   UNL A   1      42.797  22.539  28.222  1.00  0.00     0.135 A 
ATOM     79  F   UNL A   1      43.621  24.088  25.039  1.00  0.00    -0.206 F 
ATOM     80  C   UNL A   1      43.013  21.875  25.527  1.00  0.00     0.059 A 
ATOM     81  C   UNL A   1      42.556  21.228  27.821  1.00  0.00     0.059 A 
ATOM     82  F   UNL A   1      42.679  22.831  29.527  1.00  0.00    -0.206 F 
ATOM     83  C   UNL A   1      42.656  20.908  26.468  1.00  0.00     0.060 A 
BRANCH  83  84
ATOM     84  S   UNL A   1      42.340  19.224  25.898  1.00  0.00     0.124 S 
ATOM     85  O   UNL A   1      42.868  18.434  27.005  1.00  0.00    -0.237 OA
ATOM     86  O   UNL A   1      40.888  19.224  25.750  1.00  0.00    -0.237 OA
ATOM     87  O   UNL A   1      43.092  19.143  24.651  1.00  0.00    -0.744 OA
ENDBRANCH  83  84
ENDBRANCH  51  76
BRANCH  63  88
ATOM     88  C   UNL A   1      48.989  27.230  28.504  1.00  0.00     0.058 A 
ATOM     89  C   UNL A   1      49.718  27.381  27.315  1.00  0.00     0.135 A 
ATOM     90  C   UNL A   1      49.694  26.840  29.657  1.00  0.00     0.135 A 
ATOM     91  F   UNL A   1      49.097  27.749  26.183  1.00  0.00    -0.206 F 
ATOM     92  C   UNL A   1      51.087  27.139  27.265  1.00  0.00     0.059 A 
ATOM     93  C   UNL A   1      51.069  26.626  29.639  1.00  0.00     0.059 A 
ATOM     94  F   UNL A   1      49.050  26.694  30.827  1.00  0.00    -0.206 F 
ATOM     95  C   UNL A   1      51.755  26.770  28.434  1.00  0.00     0.060 A 
BRANCH  95  96
ATOM     96  S   UNL A   1      53.539  26.500  28.358  1.00  0.00     0.124 S 
ATOM     97  O   UNL A   1      54.031  27.850  28.102  1.00  0.00    -0.237 OA
ATOM     98  O   UNL A   1      53.826  25.962  29.684  1.00  0.00    -0.237 OA
ATOM     99  O   UNL A   1      53.696  25.558  27.255  1.00  0.00    -0.744 OA
ENDBRANCH  95  96
ENDBRANCH  63  88
ENDBRANCH  37  38
ENDBRANCH  30  32
ENDBRANCH  29  30
ENDBRANCH  28  29
ENDBRANCH  27  28
ENDBRANCH  26  27
ENDBRANCH   1  26
TORSDOF 22
ENDMDL
MODEL 2
REMARK VINA RESULT:      -9.9      3.418      4.143
REMARK SMILES C#Cc1cc(Cl)c2c(c1)C=C(C(=O)OCCOCCOCCOC(=O)c1ccc(-c3c4nc(c(-c5c(F)cc(S(=O)(=O)[O-])cc5F)c5ccc([nH]5)c(-c5c(F)cc(S(=O)(=O)[O-])cc5F)c5nc(c(-c6c(F)cc(S(=O)(=O)[O-])cc6F)c6ccc3[nH]6)C=C5)C=C4)cc1)[C@@H](C(F)(F)F)O2
REMARK SMILES IDX 19 1 18 2 17 3 16 4 15 5 14 6 12 7 13 8 11 9 3 10 4 11 9 12
REMARK SMILES IDX 5 13 8 14 6 15 7 16 10 17 97 18 92 19 2 20 1 21 93 22 94 23
REMARK SMILES IDX 95 24 96 25 20 26 21 27 22 28 23 29 24 30 25 31 26 32 27 33
REMARK SMILES IDX 91 34 28 35 90 36 29 37 30 38 31 39 84 40 32 41 89 42 83 43
REMARK SMILES IDX 85 44 33 45 88 46 82 47 81 48 34 50 68 51 47 52 67 53 48 54
REMARK SMILES IDX 51 55 66 56 86 57 49 58 50 59 65 61 87 62 52 63 35 64 36 65
REMARK SMILES IDX 45 66 37 67 38 68 44 69 46 70 39 71 40 72 41 73 42 74 43 75
REMARK SMILES IDX 69 76 70 77 79 78 71 79 72 80 78 81 80 82 73 83 74 84 75 85
REMARK SMILES IDX 76 86 77 87 53 88 54 89 63 90 55 91 56 92 62 93 64 94 57 95
REMARK SMILES IDX 58 96 59 97 60 98 61 99
REMARK H PARENT 85 49 51 60
REMARK Flexibility Score: inf
ROOT
ATOM      1  C   UNL A   1      30.642  29.499  24.128  1.00  0.00     0.188 C 
ENDROOT
BRANCH   1   2
ATOM      2  C   UNL A   1      29.892  28.668  23.068  1.00  0.00     0.188 C 
BRANCH   2   3
ATOM      3  O   UNL A   1      30.647  28.178  21.984  1.00  0.00    -0.376 OA
BRANCH   3   4
ATOM      4  C   UNL A   1      31.361  26.960  22.088  1.00  0.00     0.202 C 
BRANCH   4   5
ATOM      5  C   UNL A   1      31.122  25.857  23.141  1.00  0.00     0.261 C 
BRANCH   5   6
ATOM      6  O   UNL A   1      32.178  25.573  24.064  1.00  0.00    -0.460 OA
BRANCH   6   7
ATOM      7  C   UNL A   1      31.878  24.694  25.052  1.00  0.00     0.338 C 
ATOM      8  O   UNL A   1      30.826  24.616  25.662  1.00  0.00    -0.246 OA
BRANCH   7   9
ATOM      9  C   UNL A   1      32.981  23.718  25.187  1.00  0.00     0.087 C 
ATOM     10  C   UNL A   1      37.646  22.856  26.014  1.00  0.00     0.027 A 
ATOM     11  C   UNL A   1      37.490  21.550  25.552  1.00  0.00     0.041 A 
ATOM     12  C   UNL A   1      36.537  23.701  26.110  1.00  0.00     0.029 A 
ATOM     13  C   UNL A   1      36.220  21.084  25.209  1.00  0.00     0.084 A 
ATOM     14  C   UNL A   1      35.269  23.249  25.717  1.00  0.00     0.020 A 
ATOM     15  Cl  UNL A   1      36.075  19.462  24.627  1.00  0.00    -0.080 Cl
ATOM     16  C   UNL A   1      35.102  21.927  25.292  1.00  0.00     0.146 A 
ATOM     17  C   UNL A   1      34.146  24.174  25.666  1.00  0.00     0.027 C 
ATOM     18  O   UNL A   1      33.884  21.407  24.948  1.00  0.00    -0.474 OA
ATOM     19  C   UNL A   1      32.740  22.285  24.804  1.00  0.00     0.316 C 
BRANCH  10  20
ATOM     20  C   UNL A   1      38.949  23.342  26.345  1.00  0.00    -0.070 C 
ATOM     21  C   UNL A   1      40.054  23.738  26.609  1.00  0.00     0.010 C 
ENDBRANCH  10  20
BRANCH  19  22
ATOM     22  C   UNL A   1      32.203  22.152  23.372  1.00  0.00     0.430 C 
ATOM     23  F   UNL A   1      32.214  20.863  22.958  1.00  0.00    -0.167 F 
ATOM     24  F   UNL A   1      30.922  22.577  23.275  1.00  0.00    -0.167 F 
ATOM     25  F   UNL A   1      32.936  22.868  22.491  1.00  0.00    -0.167 F 
ENDBRANCH  19  22
ENDBRANCH   7   9
ENDBRANCH   6   7
ENDBRANCH   5   6
ENDBRANCH   4   5
ENDBRANCH   3   4
ENDBRANCH   2   3
ENDBRANCH   1   2
BRANCH   1  26
ATOM     26  O   UNL A   1      31.787  28.934  24.725  1.00  0.00    -0.376 OA
BRANCH  26  27
ATOM     27  C   UNL A   1      31.682  28.372  26.025  1.00  0.00     0.202 C 
BRANCH  27  28
ATOM     28  C   UNL A   1      32.831  28.240  27.054  1.00  0.00     0.261 C 
BRANCH  28  29
ATOM     29  O   UNL A   1      34.125  28.758  26.720  1.00  0.00    -0.460 OA
BRANCH  29  30
ATOM     30  C   UNL A   1      34.435  29.978  27.232  1.00  0.00     0.338 C 
ATOM     31  O   UNL A   1      33.723  30.966  27.250  1.00  0.00    -0.246 OA
BRANCH  30  32
ATOM     32  C   UNL A   1      35.710  29.871  27.976  1.00  0.00     0.060 A 
ATOM     33  C   UNL A   1      36.914  30.174  27.321  1.00  0.00     0.016 A 
ATOM     34  C   UNL A   1      35.719  29.465  29.310  1.00  0.00     0.016 A 
ATOM     35  C   UNL A   1      38.130  30.074  27.999  1.00  0.00     0.010 A 
ATOM     36  C   UNL A   1      36.943  29.326  29.975  1.00  0.00     0.010 A 
ATOM     37  C   UNL A   1      38.155  29.609  29.318  1.00  0.00    -0.014 A 
BRANCH  37  38
ATOM     38  C   UNL A   1      39.448  29.229  29.941  1.00  0.00     0.031 A 
ATOM     39  C   UNL A   1      39.919  30.015  31.136  1.00  0.00     0.074 A 
ATOM     40  C   UNL A   1      40.178  28.197  29.478  1.00  0.00     0.049 A 
ATOM     41  N   UNL A   1      41.037  29.916  31.805  1.00  0.00    -0.248 NA
ATOM     42  C   UNL A   1      39.003  31.051  31.645  1.00  0.00     0.031 C 
ATOM     43  C   UNL A   1      39.804  27.325  28.366  1.00  0.00     0.029 A 
ATOM     44  N   UNL A   1      41.396  27.710  29.888  1.00  0.00    -0.354 N 
ATOM     45  C   UNL A   1      40.962  30.875  32.808  1.00  0.00     0.074 A 
ATOM     46  C   UNL A   1      39.705  31.570  32.641  1.00  0.00     0.031 C 
ATOM     47  C   UNL A   1      40.778  26.417  28.176  1.00  0.00     0.029 A 
ATOM     48  C   UNL A   1      41.863  26.665  29.125  1.00  0.00     0.049 A 
ATOM     49  H   UNL A   1      41.890  28.076  30.657  1.00  0.00     0.167 HD
ATOM     50  C   UNL A   1      41.854  31.142  33.790  1.00  0.00     0.037 A 
ATOM     51  C   UNL A   1      43.039  26.004  29.172  1.00  0.00     0.037 A 
ATOM     52  C   UNL A   1      43.102  30.444  33.954  1.00  0.00     0.049 A 
ATOM     53  C   UNL A   1      44.060  26.389  30.217  1.00  0.00     0.074 A 
ATOM     54  C   UNL A   1      44.070  30.640  34.923  1.00  0.00     0.029 A 
ATOM     55  N   UNL A   1      43.558  29.424  33.134  1.00  0.00    -0.354 N 
ATOM     56  N   UNL A   1      43.971  27.288  31.169  1.00  0.00    -0.248 NA
ATOM     57  C   UNL A   1      45.344  25.670  30.195  1.00  0.00     0.031 C 
ATOM     58  C   UNL A   1      45.138  29.782  34.653  1.00  0.00     0.029 A 
ATOM     59  C   UNL A   1      44.807  29.001  33.557  1.00  0.00     0.049 A 
ATOM     60  H   UNL A   1      43.066  29.054  32.365  1.00  0.00     0.167 HD
ATOM     61  C   UNL A   1      45.170  27.219  31.875  1.00  0.00     0.074 A 
ATOM     62  C   UNL A   1      45.961  26.179  31.252  1.00  0.00     0.031 C 
ATOM     63  C   UNL A   1      45.579  27.952  32.941  1.00  0.00     0.037 A 
BRANCH  50  64
ATOM     64  C   UNL A   1      41.528  32.235  34.769  1.00  0.00     0.058 A 
ATOM     65  C   UNL A   1      41.918  33.563  34.544  1.00  0.00     0.135 A 
ATOM     66  C   UNL A   1      40.733  31.966  35.897  1.00  0.00     0.135 A 
ATOM     67  F   UNL A   1      42.695  33.872  33.495  1.00  0.00    -0.206 F 
ATOM     68  C   UNL A   1      41.530  34.589  35.401  1.00  0.00     0.059 A 
ATOM     69  C   UNL A   1      40.309  32.979  36.750  1.00  0.00     0.059 A 
ATOM     70  F   UNL A   1      40.340  30.710  36.162  1.00  0.00    -0.206 F 
ATOM     71  C   UNL A   1      40.714  34.288  36.494  1.00  0.00     0.060 A 
BRANCH  71  72
ATOM     72  S   UNL A   1      40.179  35.642  37.561  1.00  0.00     0.124 S 
ATOM     73  O   UNL A   1      41.384  35.889  38.347  1.00  0.00    -0.237 OA
ATOM     74  O   UNL A   1      39.832  36.676  36.591  1.00  0.00    -0.237 OA
ATOM     75  O   UNL A   1      39.057  35.073  38.299  1.00  0.00    -0.744 OA
ENDBRANCH  71  72
ENDBRANCH  50  64
BRANCH  51  76
ATOM     76  C   UNL A   1      43.331  24.915  28.198  1.00  0.00     0.058 A 
ATOM     77  C   UNL A   1      43.795  25.201  26.905  1.00  0.00     0.135 A 
ATOM     78  C   UNL A   1      43.129  23.563  28.529  1.00  0.00     0.135 A 
ATOM     79  F   UNL A   1      43.989  26.475  26.531  1.00  0.00    -0.206 F 
ATOM     80  C   UNL A   1      44.028  24.197  25.971  1.00  0.00     0.059 A 
ATOM     81  C   UNL A   1      43.388  22.539  27.624  1.00  0.00     0.059 A 
ATOM     82  F   UNL A   1      42.690  23.228  29.752  1.00  0.00    -0.206 F 
ATOM     83  C   UNL A   1      43.827  22.867  26.342  1.00  0.00     0.060 A 
BRANCH  83  84
ATOM     84  S   UNL A   1      44.163  21.572  25.128  1.00  0.00     0.124 S 
ATOM     85  O   UNL A   1      43.071  20.640  25.381  1.00  0.00    -0.237 OA
ATOM     86  O   UNL A   1      44.094  22.312  23.872  1.00  0.00    -0.237 OA
ATOM     87  O   UNL A   1      45.493  21.100  25.498  1.00  0.00    -0.744 OA
ENDBRANCH  83  84
ENDBRANCH  51  76
BRANCH  63  88
ATOM     88  C   UNL A   1      46.930  27.647  33.536  1.00  0.00     0.058 A 
ATOM     89  C   UNL A   1      47.096  26.673  34.532  1.00  0.00     0.135 A 
ATOM     90  C   UNL A   1      48.085  28.275  33.037  1.00  0.00     0.135 A 
ATOM     91  F   UNL A   1      46.028  26.042  35.046  1.00  0.00    -0.206 F 
ATOM     92  C   UNL A   1      48.354  26.346  35.026  1.00  0.00     0.059 A 
ATOM     93  C   UNL A   1      49.356  27.939  33.492  1.00  0.00     0.059 A 
ATOM     94  F   UNL A   1      47.987  29.205  32.073  1.00  0.00    -0.206 F 
ATOM     95  C   UNL A   1      49.479  26.978  34.494  1.00  0.00     0.060 A 
BRANCH  95  96
ATOM     96  S   UNL A   1      51.107  26.510  35.120  1.00  0.00     0.124 S 
ATOM     97  O   UNL A   1      51.597  27.780  35.646  1.00  0.00    -0.237 OA
ATOM     98  O   UNL A   1      50.774  25.497  36.117  1.00  0.00    -0.237 OA
ATOM     99  O   UNL A   1      51.800  26.015  33.935  1.00  0.00    -0.744 OA
ENDBRANCH  95  96
ENDBRANCH  63  88
ENDBRANCH  37  38
ENDBRANCH  30  32
ENDBRANCH  29  30
ENDBRANCH  28  29
ENDBRANCH  27  28
ENDBRANCH  26  27
ENDBRANCH   1  26
TORSDOF 22
ENDMDL
MODEL 3
REMARK VINA RESULT:      -9.7      4.966     11.030
REMARK SMILES C#Cc1cc(Cl)c2c(c1)C=C(C(=O)OCCOCCOCCOC(=O)c1ccc(-c3c4nc(c(-c5c(F)cc(S(=O)(=O)[O-])cc5F)c5ccc([nH]5)c(-c5c(F)cc(S(=O)(=O)[O-])cc5F)c5nc(c(-c6c(F)cc(S(=O)(=O)[O-])cc6F)c6ccc3[nH]6)C=C5)C=C4)cc1)[C@@H](C(F)(F)F)O2
REMARK SMILES IDX 19 1 18 2 17 3 16 4 15 5 14 6 12 7 13 8 11 9 3 10 4 11 9 12
REMARK SMILES IDX 5 13 8 14 6 15 7 16 10 17 97 18 92 19 2 20 1 21 93 22 94 23
REMARK SMILES IDX 95 24 96 25 20 26 21 27 22 28 23 29 24 30 25 31 26 32 27 33
REMARK SMILES IDX 91 34 28 35 90 36 29 37 30 38 31 39 84 40 32 41 89 42 83 43
REMARK SMILES IDX 85 44 33 45 88 46 82 47 81 48 34 50 68 51 47 52 67 53 48 54
REMARK SMILES IDX 51 55 66 56 86 57 49 58 50 59 65 61 87 62 52 63 35 64 36 65
REMARK SMILES IDX 45 66 37 67 38 68 44 69 46 70 39 71 40 72 41 73 42 74 43 75
REMARK SMILES IDX 69 76 70 77 79 78 71 79 72 80 78 81 80 82 73 83 74 84 75 85
REMARK SMILES IDX 76 86 77 87 53 88 54 89 63 90 55 91 56 92 62 93 64 94 57 95
REMARK SMILES IDX 58 96 59 97 60 98 61 99
REMARK H PARENT 85 49 51 60
REMARK Flexibility Score: inf
ROOT
ATOM      1  C   UNL A   1      34.041  34.813  29.887  1.00  0.00     0.188 C 
ENDROOT
BRANCH   1   2
ATOM      2  C   UNL A   1      34.009  34.939  31.424  1.00  0.00     0.188 C 
BRANCH   2   3
ATOM      3  O   UNL A   1      33.845  33.750  32.162  1.00  0.00    -0.376 OA
BRANCH   3   4
ATOM      4  C   UNL A   1      34.247  33.675  33.518  1.00  0.00     0.202 C 
BRANCH   4   5
ATOM      5  C   UNL A   1      35.696  33.782  34.040  1.00  0.00     0.261 C 
BRANCH   5   6
ATOM      6  O   UNL A   1      36.732  34.050  33.091  1.00  0.00    -0.460 OA
BRANCH   6   7
ATOM      7  C   UNL A   1      37.662  33.075  32.942  1.00  0.00     0.338 C 
ATOM      8  O   UNL A   1      37.469  31.873  32.978  1.00  0.00    -0.246 OA
BRANCH   7   9
ATOM      9  C   UNL A   1      38.957  33.689  32.574  1.00  0.00     0.087 C 
ATOM     10  C   UNL A   1      41.986  35.183  29.142  1.00  0.00     0.027 A 
ATOM     11  C   UNL A   1      43.008  35.284  30.083  1.00  0.00     0.041 A 
ATOM     12  C   UNL A   1      40.695  34.831  29.547  1.00  0.00     0.029 A 
ATOM     13  C   UNL A   1      42.733  35.055  31.433  1.00  0.00     0.084 A 
ATOM     14  C   UNL A   1      40.429  34.554  30.894  1.00  0.00     0.020 A 
ATOM     15  Cl  UNL A   1      44.035  35.177  32.564  1.00  0.00    -0.080 Cl
ATOM     16  C   UNL A   1      41.443  34.694  31.848  1.00  0.00     0.146 A 
ATOM     17  C   UNL A   1      39.128  34.035  31.291  1.00  0.00     0.027 C 
ATOM     18  O   UNL A   1      41.236  34.492  33.185  1.00  0.00    -0.474 OA
ATOM     19  C   UNL A   1      39.992  33.906  33.643  1.00  0.00     0.316 C 
BRANCH  10  20
ATOM     20  C   UNL A   1      42.270  35.393  27.757  1.00  0.00    -0.070 C 
ATOM     21  C   UNL A   1      42.502  35.551  26.587  1.00  0.00     0.010 C 
ENDBRANCH  10  20
BRANCH  19  22
ATOM     22  C   UNL A   1      40.314  32.615  34.405  1.00  0.00     0.430 C 
ATOM     23  F   UNL A   1      41.513  32.696  35.031  1.00  0.00    -0.167 F 
ATOM     24  F   UNL A   1      39.396  32.357  35.366  1.00  0.00    -0.167 F 
ATOM     25  F   UNL A   1      40.355  31.541  33.585  1.00  0.00    -0.167 F 
ENDBRANCH  19  22
ENDBRANCH   7   9
ENDBRANCH   6   7
ENDBRANCH   5   6
ENDBRANCH   4   5
ENDBRANCH   3   4
ENDBRANCH   2   3
ENDBRANCH   1   2
BRANCH   1  26
ATOM     26  O   UNL A   1      33.568  33.618  29.310  1.00  0.00    -0.376 OA
BRANCH  26  27
ATOM     27  C   UNL A   1      34.505  32.657  28.847  1.00  0.00     0.202 C 
BRANCH  27  28
ATOM     28  C   UNL A   1      35.598  31.967  29.701  1.00  0.00     0.261 C 
BRANCH  28  29
ATOM     29  O   UNL A   1      35.986  30.626  29.378  1.00  0.00    -0.460 OA
BRANCH  29  30
ATOM     30  C   UNL A   1      36.698  29.962  30.326  1.00  0.00     0.338 C 
ATOM     31  O   UNL A   1      36.253  29.361  31.288  1.00  0.00    -0.246 OA
BRANCH  30  32
ATOM     32  C   UNL A   1      38.112  29.889  29.895  1.00  0.00     0.060 A 
ATOM     33  C   UNL A   1      38.408  29.799  28.526  1.00  0.00     0.016 A 
ATOM     34  C   UNL A   1      39.140  29.898  30.837  1.00  0.00     0.016 A 
ATOM     35  C   UNL A   1      39.734  29.722  28.094  1.00  0.00     0.010 A 
ATOM     36  C   UNL A   1      40.466  29.780  30.405  1.00  0.00     0.010 A 
ATOM     37  C   UNL A   1      40.768  29.669  29.035  1.00  0.00    -0.014 A 
BRANCH  37  38
ATOM     38  C   UNL A   1      42.139  29.300  28.600  1.00  0.00     0.031 A 
ATOM     39  C   UNL A   1      42.399  27.871  28.202  1.00  0.00     0.074 A 
ATOM     40  C   UNL A   1      43.128  30.212  28.532  1.00  0.00     0.049 A 
ATOM     41  N   UNL A   1      43.520  27.298  27.854  1.00  0.00    -0.248 NA
ATOM     42  C   UNL A   1      41.234  26.968  28.196  1.00  0.00     0.031 C 
ATOM     43  C   UNL A   1      42.989  31.636  28.835  1.00  0.00     0.029 A 
ATOM     44  N   UNL A   1      44.451  30.071  28.188  1.00  0.00    -0.354 N 
ATOM     45  C   UNL A   1      43.200  25.971  27.590  1.00  0.00     0.074 A 
ATOM     46  C   UNL A   1      41.786  25.814  27.853  1.00  0.00     0.031 C 
ATOM     47  C   UNL A   1      44.183  32.234  28.674  1.00  0.00     0.029 A 
ATOM     48  C   UNL A   1      45.180  31.233  28.295  1.00  0.00     0.049 A 
ATOM     49  H   UNL A   1      44.841  29.217  27.893  1.00  0.00     0.167 HD
ATOM     50  C   UNL A   1      44.008  24.978  27.155  1.00  0.00     0.037 A 
ATOM     51  C   UNL A   1      46.501  31.455  28.130  1.00  0.00     0.037 A 
ATOM     52  C   UNL A   1      45.413  25.141  26.892  1.00  0.00     0.049 A 
ATOM     53  C   UNL A   1      47.399  30.306  27.739  1.00  0.00     0.074 A 
ATOM     54  C   UNL A   1      46.315  24.192  26.442  1.00  0.00     0.029 A 
ATOM     55  N   UNL A   1      46.123  26.320  27.055  1.00  0.00    -0.354 N 
ATOM     56  N   UNL A   1      47.081  29.059  27.479  1.00  0.00    -0.248 NA
ATOM     57  C   UNL A   1      48.838  30.590  27.619  1.00  0.00     0.031 C 
ATOM     58  C   UNL A   1      47.580  24.782  26.394  1.00  0.00     0.029 A 
ATOM     59  C   UNL A   1      47.457  26.117  26.744  1.00  0.00     0.049 A 
ATOM     60  H   UNL A   1      45.735  27.177  27.349  1.00  0.00     0.167 HD
ATOM     61  C   UNL A   1      48.272  28.423  27.136  1.00  0.00     0.074 A 
ATOM     62  C   UNL A   1      49.314  29.425  27.204  1.00  0.00     0.031 C 
ATOM     63  C   UNL A   1      48.484  27.126  26.798  1.00  0.00     0.037 A 
BRANCH  50  64
ATOM     64  C   UNL A   1      43.407  23.617  26.934  1.00  0.00     0.058 A 
ATOM     65  C   UNL A   1      43.224  23.095  25.645  1.00  0.00     0.135 A 
ATOM     66  C   UNL A   1      43.100  22.789  28.028  1.00  0.00     0.135 A 
ATOM     67  F   UNL A   1      43.479  23.851  24.566  1.00  0.00    -0.206 F 
ATOM     68  C   UNL A   1      42.759  21.799  25.446  1.00  0.00     0.059 A 
ATOM     69  C   UNL A   1      42.663  21.481  27.853  1.00  0.00     0.059 A 
ATOM     70  F   UNL A   1      43.250  23.244  29.282  1.00  0.00    -0.206 F 
ATOM     71  C   UNL A   1      42.495  20.995  26.557  1.00  0.00     0.060 A 
BRANCH  71  72
ATOM     72  S   UNL A   1      41.946  19.299  26.274  1.00  0.00     0.124 S 
ATOM     73  O   UNL A   1      40.495  19.456  26.280  1.00  0.00    -0.237 OA
ATOM     74  O   UNL A   1      42.546  18.995  24.979  1.00  0.00    -0.237 OA
ATOM     75  O   UNL A   1      42.500  18.567  27.409  1.00  0.00    -0.744 OA
ENDBRANCH  71  72
ENDBRANCH  50  64
BRANCH  51  76
ATOM     76  C   UNL A   1      47.068  32.817  28.341  1.00  0.00     0.058 A 
ATOM     77  C   UNL A   1      47.136  33.746  27.291  1.00  0.00     0.135 A 
ATOM     78  C   UNL A   1      47.578  33.213  29.589  1.00  0.00     0.135 A 
ATOM     79  F   UNL A   1      46.678  33.415  26.074  1.00  0.00    -0.206 F 
ATOM     80  C   UNL A   1      47.704  35.004  27.462  1.00  0.00     0.059 A 
ATOM     81  C   UNL A   1      48.121  34.478  29.794  1.00  0.00     0.059 A 
ATOM     82  F   UNL A   1      47.537  32.368  30.632  1.00  0.00    -0.206 F 
ATOM     83  C   UNL A   1      48.190  35.363  28.719  1.00  0.00     0.060 A 
BRANCH  83  84
ATOM     84  S   UNL A   1      48.897  37.011  28.933  1.00  0.00     0.124 S 
ATOM     85  O   UNL A   1      47.889  37.850  28.294  1.00  0.00    -0.237 OA
ATOM     86  O   UNL A   1      48.985  37.115  30.386  1.00  0.00    -0.237 OA
ATOM     87  O   UNL A   1      50.176  36.923  28.237  1.00  0.00    -0.744 OA
ENDBRANCH  83  84
ENDBRANCH  51  76
BRANCH  63  88
ATOM     88  C   UNL A   1      49.886  26.705  26.439  1.00  0.00     0.058 A 
ATOM     89  C   UNL A   1      50.727  26.071  27.366  1.00  0.00     0.135 A 
ATOM     90  C   UNL A   1      50.359  26.856  25.124  1.00  0.00     0.135 A 
ATOM     91  F   UNL A   1      50.327  25.902  28.637  1.00  0.00    -0.206 F 
ATOM     92  C   UNL A   1      51.993  25.621  27.009  1.00  0.00     0.059 A 
ATOM     93  C   UNL A   1      51.609  26.382  24.736  1.00  0.00     0.059 A 
ATOM     94  F   UNL A   1      49.591  27.442  24.191  1.00  0.00    -0.206 F 
ATOM     95  C   UNL A   1      52.422  25.773  25.689  1.00  0.00     0.060 A 
BRANCH  95  96
ATOM     96  S   UNL A   1      54.053  25.145  25.235  1.00  0.00     0.124 S 
ATOM     97  O   UNL A   1      54.818  25.405  26.450  1.00  0.00    -0.237 OA
ATOM     98  O   UNL A   1      53.774  23.741  24.951  1.00  0.00    -0.237 OA
ATOM     99  O   UNL A   1      54.422  25.953  24.078  1.00  0.00    -0.744 OA
ENDBRANCH  95  96
ENDBRANCH  63  88
ENDBRANCH  37  38
ENDBRANCH  30  32
ENDBRANCH  29  30
ENDBRANCH  28  29
ENDBRANCH  27  28
ENDBRANCH  26  27
ENDBRANCH   1  26
TORSDOF 22
ENDMDL
