MODEL 1
REMARK VINA RESULT:      -7.8      0.000      0.000
REMARK SMILES O=C(CCCN1C(=O)/C(=C/c2ccccc2Cl)SC1=S)Nc1cccc(C(=O)OCCOCCOCCOC(=O)c2ccc(-c3c4nc(c(-c5c(F)cc(S(=O)(=O)[O-])cc5F)c5ccc([nH]5)c(-c5c(F)cc(S(=O)(=O)[O-])cc5F)c5nc(c(-c6c(F)cc(S(=O)(=O)[O-])cc6F)c6ccc3[nH]6)C=C5)C=C4)cc2)c1
REMARK SMILES IDX 32 1 31 2 30 3 29 4 27 5 28 6 26 7 22 8 23 9 107 10 24 11
REMARK SMILES IDX 25 12 21 13 1 14 2 15 3 17 4 18 5 19 6 20 7 21 19 22 8 23
REMARK SMILES IDX 9 24 18 25 20 26 10 27 11 28 12 29 16 30 13 31 15 32 17 33
REMARK SMILES IDX 14 34 33 35 34 36 35 37 36 38 37 39 38 40 39 41 40 42 41 43
REMARK SMILES IDX 42 44 106 45 43 46 105 47 44 48 45 49 46 50 99 51 47 52
REMARK SMILES IDX 104 53 98 54 100 55 48 56 103 57 97 58 96 59 49 61 83 62
REMARK SMILES IDX 62 63 82 64 63 65 66 66 81 67 101 68 64 69 65 70 80 72
REMARK SMILES IDX 102 73 67 74 50 75 51 76 60 77 52 78 53 79 59 80 61 81 54 82
REMARK SMILES IDX 55 83 56 84 57 85 58 86 84 87 85 88 94 89 86 90 87 91 93 92
REMARK SMILES IDX 95 93 88 94 89 95 90 96 91 97 92 98 68 99 69 100 78 101
REMARK SMILES IDX 70 102 71 103 77 104 79 105 72 106 73 107 74 108 75 109
REMARK SMILES IDX 76 110
REMARK H PARENT 21 16 100 60 66 71
REMARK Flexibility Score: inf
ROOT
ATOM      1  O   UNL A   1      39.867  22.967  26.836  1.00  0.00    -0.376 OA
ENDROOT
BRANCH   1   2
ATOM      2  C   UNL A   1      39.056  24.124  26.873  1.00  0.00     0.202 C 
BRANCH   2   3
ATOM      3  C   UNL A   1      39.608  25.541  26.623  1.00  0.00     0.261 C 
BRANCH   3   4
ATOM      4  O   UNL A   1      39.994  26.306  27.764  1.00  0.00    -0.460 OA
BRANCH   4   5
ATOM      5  C   UNL A   1      40.107  27.650  27.617  1.00  0.00     0.338 C 
ATOM      6  O   UNL A   1      40.257  28.265  26.576  1.00  0.00    -0.246 OA
BRANCH   5   7
ATOM      7  C   UNL A   1      39.800  28.254  28.933  1.00  0.00     0.062 A 
ATOM      8  C   UNL A   1      38.691  29.968  30.227  1.00  0.00     0.042 A 
ATOM      9  C   UNL A   1      39.532  29.672  31.308  1.00  0.00     0.026 A 
ATOM     10  C   UNL A   1      38.838  29.263  29.033  1.00  0.00     0.041 A 
ATOM     11  C   UNL A   1      40.455  28.625  31.225  1.00  0.00     0.003 A 
ATOM     12  C   UNL A   1      40.583  27.904  30.038  1.00  0.00     0.016 A 
BRANCH   8  13
ATOM     13  N   UNL A   1      37.744  30.994  30.400  1.00  0.00    -0.326 N 
ATOM     14  O   UNL A   1      38.694  32.668  29.098  1.00  0.00    -0.275 OA
ATOM     15  C   UNL A   1      37.804  32.250  29.833  1.00  0.00     0.224 C 
ATOM     16  H   UNL A   1      36.970  30.798  30.976  1.00  0.00     0.169 HD
BRANCH  15  17
ATOM     17  C   UNL A   1      36.617  33.137  30.154  1.00  0.00     0.102 C 
BRANCH  17  18
ATOM     18  C   UNL A   1      35.313  32.370  30.390  1.00  0.00     0.032 C 
BRANCH  18  19
ATOM     19  C   UNL A   1      34.773  32.374  31.829  1.00  0.00     0.128 C 
BRANCH  19  20
ATOM     20  N   UNL A   1      35.764  32.807  32.817  1.00  0.00    -0.293 N 
ATOM     21  C   UNL A   1      36.642  31.867  33.332  1.00  0.00     0.266 C 
ATOM     22  C   UNL A   1      35.926  34.104  33.257  1.00  0.00     0.148 C 
ATOM     23  O   UNL A   1      36.663  30.682  33.021  1.00  0.00    -0.268 OA
ATOM     24  C   UNL A   1      37.606  32.506  34.262  1.00  0.00     0.081 C 
ATOM     25  S   UNL A   1      37.333  34.203  34.306  1.00  0.00    -0.054 SA
ATOM     26  S   UNL A   1      35.003  35.443  32.889  1.00  0.00    -0.052 S 
ATOM     27  C   UNL A   1      38.534  31.804  34.928  1.00  0.00     0.031 C 
BRANCH  27  28
ATOM     28  C   UNL A   1      39.507  32.382  35.869  1.00  0.00    -0.006 A 
ATOM     29  C   UNL A   1      40.800  32.648  35.393  1.00  0.00     0.010 A 
ATOM     30  C   UNL A   1      39.203  32.689  37.207  1.00  0.00     0.048 A 
ATOM     31  C   UNL A   1      41.755  33.243  36.222  1.00  0.00     0.001 A 
ATOM     32  C   UNL A   1      40.156  33.299  38.028  1.00  0.00     0.021 A 
ATOM     33  Cl  UNL A   1      37.667  32.313  37.912  1.00  0.00    -0.084 Cl
ATOM     34  C   UNL A   1      41.429  33.581  37.534  1.00  0.00     0.002 A 
ENDBRANCH  27  28
ENDBRANCH  19  20
ENDBRANCH  18  19
ENDBRANCH  17  18
ENDBRANCH  15  17
ENDBRANCH   8  13
ENDBRANCH   5   7
ENDBRANCH   4   5
ENDBRANCH   3   4
ENDBRANCH   2   3
ENDBRANCH   1   2
BRANCH   1  35
ATOM     35  C   UNL A   1      39.415  21.824  26.145  1.00  0.00     0.188 C 
BRANCH  35  36
ATOM     36  C   UNL A   1      40.196  20.545  26.521  1.00  0.00     0.188 C 
BRANCH  36  37
ATOM     37  O   UNL A   1      41.304  20.117  25.735  1.00  0.00    -0.376 OA
BRANCH  37  38
ATOM     38  C   UNL A   1      42.625  20.299  26.227  1.00  0.00     0.202 C 
BRANCH  38  39
ATOM     39  C   UNL A   1      43.685  20.986  25.352  1.00  0.00     0.261 C 
BRANCH  39  40
ATOM     40  O   UNL A   1      43.299  22.236  24.764  1.00  0.00    -0.460 OA
BRANCH  40  41
ATOM     41  C   UNL A   1      44.282  23.166  24.663  1.00  0.00     0.338 C 
ATOM     42  O   UNL A   1      45.034  23.350  23.722  1.00  0.00    -0.246 OA
BRANCH  41  43
ATOM     43  C   UNL A   1      44.222  24.063  25.834  1.00  0.00     0.060 A 
ATOM     44  C   UNL A   1      45.395  24.703  26.256  1.00  0.00     0.016 A 
ATOM     45  C   UNL A   1      43.029  24.234  26.537  1.00  0.00     0.016 A 
ATOM     46  C   UNL A   1      45.381  25.516  27.390  1.00  0.00     0.010 A 
ATOM     47  C   UNL A   1      43.022  25.028  27.686  1.00  0.00     0.010 A 
ATOM     48  C   UNL A   1      44.201  25.657  28.130  1.00  0.00    -0.014 A 
BRANCH  48  49
ATOM     49  C   UNL A   1      44.215  26.328  29.453  1.00  0.00     0.031 A 
ATOM     50  C   UNL A   1      44.033  27.820  29.502  1.00  0.00     0.074 A 
ATOM     51  C   UNL A   1      44.420  25.630  30.584  1.00  0.00     0.049 A 
ATOM     52  N   UNL A   1      44.144  28.635  30.517  1.00  0.00    -0.248 NA
ATOM     53  C   UNL A   1      43.686  28.478  28.233  1.00  0.00     0.031 C 
ATOM     54  C   UNL A   1      44.566  24.178  30.667  1.00  0.00     0.029 A 
ATOM     55  N   UNL A   1      44.566  26.059  31.880  1.00  0.00    -0.354 N 
ATOM     56  C   UNL A   1      43.899  29.904  30.008  1.00  0.00     0.074 A 
ATOM     57  C   UNL A   1      43.651  29.753  28.591  1.00  0.00     0.031 C 
ATOM     58  C   UNL A   1      44.811  23.839  31.945  1.00  0.00     0.029 A 
ATOM     59  C   UNL A   1      44.879  25.051  32.760  1.00  0.00     0.049 A 
ATOM     60  H   UNL A   1      44.456  26.999  32.152  1.00  0.00     0.167 HD
ATOM     61  C   UNL A   1      43.884  31.089  30.665  1.00  0.00     0.037 A 
ATOM     62  C   UNL A   1      45.220  25.105  34.064  1.00  0.00     0.037 A 
ATOM     63  C   UNL A   1      44.139  31.231  32.074  1.00  0.00     0.049 A 
ATOM     64  C   UNL A   1      45.268  26.443  34.760  1.00  0.00     0.074 A 
ATOM     65  C   UNL A   1      44.132  32.386  32.836  1.00  0.00     0.029 A 
ATOM     66  N   UNL A   1      44.458  30.188  32.931  1.00  0.00    -0.354 N 
ATOM     67  N   UNL A   1      45.017  27.637  34.275  1.00  0.00    -0.248 NA
ATOM     68  C   UNL A   1      45.645  26.444  36.181  1.00  0.00     0.031 C 
ATOM     69  C   UNL A   1      44.499  32.048  34.144  1.00  0.00     0.029 A 
ATOM     70  C   UNL A   1      44.674  30.675  34.209  1.00  0.00     0.049 A 
ATOM     71  H   UNL A   1      44.523  29.242  32.668  1.00  0.00     0.167 HD
ATOM     72  C   UNL A   1      45.170  28.522  35.337  1.00  0.00     0.074 A 
ATOM     73  C   UNL A   1      45.536  27.729  36.493  1.00  0.00     0.031 C 
ATOM     74  C   UNL A   1      45.017  29.870  35.356  1.00  0.00     0.037 A 
BRANCH  61  75
ATOM     75  C   UNL A   1      43.618  32.330  29.858  1.00  0.00     0.058 A 
ATOM     76  C   UNL A   1      42.362  32.957  29.855  1.00  0.00     0.135 A 
ATOM     77  C   UNL A   1      44.643  32.916  29.098  1.00  0.00     0.135 A 
ATOM     78  F   UNL A   1      41.340  32.428  30.548  1.00  0.00    -0.206 F 
ATOM     79  C   UNL A   1      42.124  34.106  29.108  1.00  0.00     0.059 A 
ATOM     80  C   UNL A   1      44.437  34.080  28.365  1.00  0.00     0.059 A 
ATOM     81  F   UNL A   1      45.862  32.355  29.062  1.00  0.00    -0.206 F 
ATOM     82  C   UNL A   1      43.169  34.660  28.366  1.00  0.00     0.060 A 
BRANCH  82  83
ATOM     83  S   UNL A   1      42.846  36.153  27.403  1.00  0.00     0.124 S 
ATOM     84  O   UNL A   1      41.521  36.530  27.889  1.00  0.00    -0.237 OA
ATOM     85  O   UNL A   1      43.941  37.028  27.809  1.00  0.00    -0.237 OA
ATOM     86  O   UNL A   1      42.898  35.687  26.021  1.00  0.00    -0.744 OA
ENDBRANCH  82  83
ENDBRANCH  61  75
BRANCH  62  87
ATOM     87  C   UNL A   1      45.563  23.857  34.796  1.00  0.00     0.058 A 
ATOM     88  C   UNL A   1      44.602  23.172  35.554  1.00  0.00     0.135 A 
ATOM     89  C   UNL A   1      46.861  23.323  34.755  1.00  0.00     0.135 A 
ATOM     90  F   UNL A   1      43.351  23.650  35.637  1.00  0.00    -0.206 F 
ATOM     91  C   UNL A   1      44.916  22.012  36.254  1.00  0.00     0.059 A 
ATOM     92  C   UNL A   1      47.193  22.148  35.424  1.00  0.00     0.059 A 
ATOM     93  F   UNL A   1      47.818  23.934  34.038  1.00  0.00    -0.206 F 
ATOM     94  C   UNL A   1      46.215  21.505  36.180  1.00  0.00     0.060 A 
BRANCH  94  95
ATOM     95  S   UNL A   1      46.596  19.972  37.055  1.00  0.00     0.124 S 
ATOM     96  O   UNL A   1      45.907  18.985  36.231  1.00  0.00    -0.237 OA
ATOM     97  O   UNL A   1      48.054  19.943  37.001  1.00  0.00    -0.237 OA
ATOM     98  O   UNL A   1      46.030  20.193  38.382  1.00  0.00    -0.744 OA
ENDBRANCH  94  95
ENDBRANCH  62  87
BRANCH  74  99
ATOM     99  C   UNL A   1      45.185  30.580  36.673  1.00  0.00     0.058 A 
ATOM    100  C   UNL A   1      44.121  30.740  37.573  1.00  0.00     0.135 A 
ATOM    101  C   UNL A   1      46.455  31.032  37.071  1.00  0.00     0.135 A 
ATOM    102  F   UNL A   1      42.887  30.332  37.240  1.00  0.00    -0.206 F 
ATOM    103  C   UNL A   1      44.307  31.334  38.818  1.00  0.00     0.059 A 
ATOM    104  C   UNL A   1      46.669  31.604  38.322  1.00  0.00     0.059 A 
ATOM    105  F   UNL A   1      47.510  30.895  36.252  1.00  0.00    -0.206 F 
ATOM    106  C   UNL A   1      45.586  31.757  39.186  1.00  0.00     0.060 A 
BRANCH 106 107
ATOM    107  S   UNL A   1      45.824  32.475  40.826  1.00  0.00     0.124 S 
ATOM    108  O   UNL A   1      46.006  33.887  40.507  1.00  0.00    -0.237 OA
ATOM    109  O   UNL A   1      44.576  32.133  41.501  1.00  0.00    -0.237 OA
ATOM    110  O   UNL A   1      47.010  31.788  41.330  1.00  0.00    -0.744 OA
ENDBRANCH 106 107
ENDBRANCH  74  99
ENDBRANCH  48  49
ENDBRANCH  41  43
ENDBRANCH  40  41
ENDBRANCH  39  40
ENDBRANCH  38  39
ENDBRANCH  37  38
ENDBRANCH  36  37
ENDBRANCH  35  36
ENDBRANCH   1  35
TORSDOF 26
ENDMDL
MODEL 2
REMARK VINA RESULT:      -7.4      3.818      6.410
REMARK SMILES O=C(CCCN1C(=O)/C(=C/c2ccccc2Cl)SC1=S)Nc1cccc(C(=O)OCCOCCOCCOC(=O)c2ccc(-c3c4nc(c(-c5c(F)cc(S(=O)(=O)[O-])cc5F)c5ccc([nH]5)c(-c5c(F)cc(S(=O)(=O)[O-])cc5F)c5nc(c(-c6c(F)cc(S(=O)(=O)[O-])cc6F)c6ccc3[nH]6)C=C5)C=C4)cc2)c1
REMARK SMILES IDX 32 1 31 2 30 3 29 4 27 5 28 6 26 7 22 8 23 9 107 10 24 11
REMARK SMILES IDX 25 12 21 13 1 14 2 15 3 17 4 18 5 19 6 20 7 21 19 22 8 23
REMARK SMILES IDX 9 24 18 25 20 26 10 27 11 28 12 29 16 30 13 31 15 32 17 33
REMARK SMILES IDX 14 34 33 35 34 36 35 37 36 38 37 39 38 40 39 41 40 42 41 43
REMARK SMILES IDX 42 44 106 45 43 46 105 47 44 48 45 49 46 50 99 51 47 52
REMARK SMILES IDX 104 53 98 54 100 55 48 56 103 57 97 58 96 59 49 61 83 62
REMARK SMILES IDX 62 63 82 64 63 65 66 66 81 67 101 68 64 69 65 70 80 72
REMARK SMILES IDX 102 73 67 74 50 75 51 76 60 77 52 78 53 79 59 80 61 81 54 82
REMARK SMILES IDX 55 83 56 84 57 85 58 86 84 87 85 88 94 89 86 90 87 91 93 92
REMARK SMILES IDX 95 93 88 94 89 95 90 96 91 97 92 98 68 99 69 100 78 101
REMARK SMILES IDX 70 102 71 103 77 104 79 105 72 106 73 107 74 108 75 109
REMARK SMILES IDX 76 110
REMARK H PARENT 21 16 100 60 66 71
REMARK Flexibility Score: inf
ROOT
ATOM      1  O   UNL A   1      40.219  24.062  27.416  1.00  0.00    -0.376 OA
ENDROOT
BRANCH   1   2
ATOM      2  C   UNL A   1      39.387  25.199  27.292  1.00  0.00     0.202 C 
BRANCH   2   3
ATOM      3  C   UNL A   1      39.846  26.616  27.684  1.00  0.00     0.261 C 
BRANCH   3   4
ATOM      4  O   UNL A   1      38.947  27.405  28.463  1.00  0.00    -0.460 OA
BRANCH   4   5
ATOM      5  C   UNL A   1      39.302  28.687  28.735  1.00  0.00     0.338 C 
ATOM      6  O   UNL A   1      40.431  29.142  28.780  1.00  0.00    -0.246 OA
BRANCH   5   7
ATOM      7  C   UNL A   1      38.055  29.482  28.758  1.00  0.00     0.062 A 
ATOM      8  C   UNL A   1      36.018  30.190  27.666  1.00  0.00     0.042 A 
ATOM      9  C   UNL A   1      35.929  31.261  28.563  1.00  0.00     0.026 A 
ATOM     10  C   UNL A   1      37.094  29.307  27.759  1.00  0.00     0.041 A 
ATOM     11  C   UNL A   1      36.859  31.402  29.598  1.00  0.00     0.003 A 
ATOM     12  C   UNL A   1      37.921  30.504  29.704  1.00  0.00     0.016 A 
BRANCH   8  13
ATOM     13  N   UNL A   1      35.014  30.073  26.687  1.00  0.00    -0.326 N 
ATOM     14  O   UNL A   1      33.731  28.364  27.602  1.00  0.00    -0.275 OA
ATOM     15  C   UNL A   1      33.956  29.188  26.720  1.00  0.00     0.224 C 
ATOM     16  H   UNL A   1      35.071  30.674  25.910  1.00  0.00     0.169 HD
BRANCH  15  17
ATOM     17  C   UNL A   1      32.998  29.317  25.552  1.00  0.00     0.102 C 
BRANCH  17  18
ATOM     18  C   UNL A   1      33.258  28.317  24.421  1.00  0.00     0.032 C 
BRANCH  18  19
ATOM     19  C   UNL A   1      32.213  27.203  24.245  1.00  0.00     0.128 C 
BRANCH  19  20
ATOM     20  N   UNL A   1      32.807  25.881  24.038  1.00  0.00    -0.293 N 
ATOM     21  C   UNL A   1      33.188  25.144  25.146  1.00  0.00     0.266 C 
ATOM     22  C   UNL A   1      32.988  25.280  22.809  1.00  0.00     0.148 C 
ATOM     23  O   UNL A   1      33.064  25.509  26.309  1.00  0.00    -0.268 OA
ATOM     24  C   UNL A   1      33.705  23.813  24.738  1.00  0.00     0.081 C 
ATOM     25  S   UNL A   1      33.573  23.638  23.033  1.00  0.00    -0.054 SA
ATOM     26  S   UNL A   1      32.699  25.916  21.295  1.00  0.00    -0.052 S 
ATOM     27  C   UNL A   1      34.181  22.925  25.622  1.00  0.00     0.031 C 
BRANCH  27  28
ATOM     28  C   UNL A   1      34.714  21.598  25.274  1.00  0.00    -0.006 A 
ATOM     29  C   UNL A   1      36.108  21.433  25.271  1.00  0.00     0.010 A 
ATOM     30  C   UNL A   1      33.901  20.496  24.956  1.00  0.00     0.048 A 
ATOM     31  C   UNL A   1      36.675  20.185  24.997  1.00  0.00     0.001 A 
ATOM     32  C   UNL A   1      34.472  19.246  24.698  1.00  0.00     0.021 A 
ATOM     33  Cl  UNL A   1      32.179  20.624  24.842  1.00  0.00    -0.084 Cl
ATOM     34  C   UNL A   1      35.857  19.090  24.725  1.00  0.00     0.002 A 
ENDBRANCH  27  28
ENDBRANCH  19  20
ENDBRANCH  18  19
ENDBRANCH  17  18
ENDBRANCH  15  17
ENDBRANCH   8  13
ENDBRANCH   5   7
ENDBRANCH   4   5
ENDBRANCH   3   4
ENDBRANCH   2   3
ENDBRANCH   1   2
BRANCH   1  35
ATOM     35  C   UNL A   1      39.754  22.808  26.968  1.00  0.00     0.188 C 
BRANCH  35  36
ATOM     36  C   UNL A   1      40.829  21.702  27.054  1.00  0.00     0.188 C 
BRANCH  36  37
ATOM     37  O   UNL A   1      41.575  21.329  25.900  1.00  0.00    -0.376 OA
BRANCH  37  38
ATOM     38  C   UNL A   1      42.995  21.325  25.955  1.00  0.00     0.202 C 
BRANCH  38  39
ATOM     39  C   UNL A   1      43.814  21.780  24.735  1.00  0.00     0.261 C 
BRANCH  39  40
ATOM     40  O   UNL A   1      43.776  23.184  24.442  1.00  0.00    -0.460 OA
BRANCH  40  41
ATOM     41  C   UNL A   1      44.936  23.856  24.647  1.00  0.00     0.338 C 
ATOM     42  O   UNL A   1      45.921  23.871  23.929  1.00  0.00    -0.246 OA
BRANCH  41  43
ATOM     43  C   UNL A   1      44.789  24.727  25.830  1.00  0.00     0.060 A 
ATOM     44  C   UNL A   1      45.930  25.340  26.365  1.00  0.00     0.016 A 
ATOM     45  C   UNL A   1      43.544  24.898  26.434  1.00  0.00     0.016 A 
ATOM     46  C   UNL A   1      45.831  26.127  27.513  1.00  0.00     0.010 A 
ATOM     47  C   UNL A   1      43.450  25.666  27.599  1.00  0.00     0.010 A 
ATOM     48  C   UNL A   1      44.595  26.267  28.155  1.00  0.00    -0.014 A 
BRANCH  48  49
ATOM     49  C   UNL A   1      44.506  26.907  29.490  1.00  0.00     0.031 A 
ATOM     50  C   UNL A   1      44.287  28.393  29.560  1.00  0.00     0.074 A 
ATOM     51  C   UNL A   1      44.651  26.186  30.616  1.00  0.00     0.049 A 
ATOM     52  N   UNL A   1      44.313  29.186  30.599  1.00  0.00    -0.248 NA
ATOM     53  C   UNL A   1      44.011  29.073  28.286  1.00  0.00     0.031 C 
ATOM     54  C   UNL A   1      44.823  24.736  30.677  1.00  0.00     0.029 A 
ATOM     55  N   UNL A   1      44.700  26.588  31.929  1.00  0.00    -0.354 N 
ATOM     56  C   UNL A   1      44.074  30.462  30.102  1.00  0.00     0.074 A 
ATOM     57  C   UNL A   1      43.923  30.339  28.669  1.00  0.00     0.031 C 
ATOM     58  C   UNL A   1      44.991  24.372  31.961  1.00  0.00     0.029 A 
ATOM     59  C   UNL A   1      44.978  25.566  32.806  1.00  0.00     0.049 A 
ATOM     60  H   UNL A   1      44.552  27.518  32.214  1.00  0.00     0.167 HD
ATOM     61  C   UNL A   1      43.989  31.630  30.783  1.00  0.00     0.037 A 
ATOM     62  C   UNL A   1      45.229  25.596  34.130  1.00  0.00     0.037 A 
ATOM     63  C   UNL A   1      44.146  31.744  32.209  1.00  0.00     0.049 A 
ATOM     64  C   UNL A   1      45.201  26.918  34.857  1.00  0.00     0.074 A 
ATOM     65  C   UNL A   1      44.063  32.880  32.994  1.00  0.00     0.029 A 
ATOM     66  N   UNL A   1      44.431  30.688  33.062  1.00  0.00    -0.354 N 
ATOM     67  N   UNL A   1      44.956  28.117  34.383  1.00  0.00    -0.248 NA
ATOM     68  C   UNL A   1      45.483  26.893  36.300  1.00  0.00     0.031 C 
ATOM     69  C   UNL A   1      44.349  32.519  34.315  1.00  0.00     0.029 A 
ATOM     70  C   UNL A   1      44.550  31.148  34.362  1.00  0.00     0.049 A 
ATOM     71  H   UNL A   1      44.534  29.749  32.783  1.00  0.00     0.167 HD
ATOM     72  C   UNL A   1      45.019  28.980  35.473  1.00  0.00     0.074 A 
ATOM     73  C   UNL A   1      45.325  28.168  36.632  1.00  0.00     0.031 C 
ATOM     74  C   UNL A   1      44.835  30.324  35.511  1.00  0.00     0.037 A 
BRANCH  61  75
ATOM     75  C   UNL A   1      43.749  32.884  29.987  1.00  0.00     0.058 A 
ATOM     76  C   UNL A   1      44.797  33.575  29.360  1.00  0.00     0.135 A 
ATOM     77  C   UNL A   1      42.447  33.384  29.827  1.00  0.00     0.135 A 
ATOM     78  F   UNL A   1      46.064  33.152  29.496  1.00  0.00    -0.206 F 
ATOM     79  C   UNL A   1      44.566  34.732  28.623  1.00  0.00     0.059 A 
ATOM     80  C   UNL A   1      42.188  34.523  29.073  1.00  0.00     0.059 A 
ATOM     81  F   UNL A   1      41.408  32.763  30.410  1.00  0.00    -0.206 F 
ATOM     82  C   UNL A   1      43.256  35.198  28.486  1.00  0.00     0.060 A 
BRANCH  82  83
ATOM     83  S   UNL A   1      42.972  36.700  27.524  1.00  0.00     0.124 S 
ATOM     84  O   UNL A   1      44.298  37.312  27.544  1.00  0.00    -0.237 OA
ATOM     85  O   UNL A   1      42.540  36.168  26.237  1.00  0.00    -0.237 OA
ATOM     86  O   UNL A   1      41.946  37.404  28.286  1.00  0.00    -0.744 OA
ENDBRANCH  82  83
ENDBRANCH  61  75
BRANCH  62  87
ATOM     87  C   UNL A   1      45.551  24.338  34.856  1.00  0.00     0.058 A 
ATOM     88  C   UNL A   1      46.879  23.924  35.035  1.00  0.00     0.135 A 
ATOM     89  C   UNL A   1      44.537  23.524  35.385  1.00  0.00     0.135 A 
ATOM     90  F   UNL A   1      47.884  24.660  34.535  1.00  0.00    -0.206 F 
ATOM     91  C   UNL A   1      47.191  22.743  35.700  1.00  0.00     0.059 A 
ATOM     92  C   UNL A   1      44.825  22.352  36.079  1.00  0.00     0.059 A 
ATOM     93  F   UNL A   1      43.250  23.878  35.249  1.00  0.00    -0.206 F 
ATOM     94  C   UNL A   1      46.156  21.964  36.222  1.00  0.00     0.060 A 
BRANCH  94  95
ATOM     95  S   UNL A   1      46.578  20.458  37.125  1.00  0.00     0.124 S 
ATOM     96  O   UNL A   1      46.460  20.903  38.509  1.00  0.00    -0.237 OA
ATOM     97  O   UNL A   1      45.553  19.528  36.664  1.00  0.00    -0.237 OA
ATOM     98  O   UNL A   1      47.934  20.163  36.670  1.00  0.00    -0.744 OA
ENDBRANCH  94  95
ENDBRANCH  62  87
BRANCH  74  99
ATOM     99  C   UNL A   1      44.898  31.006  36.852  1.00  0.00     0.058 A 
ATOM    100  C   UNL A   1      46.089  31.552  37.353  1.00  0.00     0.135 A 
ATOM    101  C   UNL A   1      43.725  31.187  37.605  1.00  0.00     0.135 A 
ATOM    102  F   UNL A   1      47.238  31.403  36.678  1.00  0.00    -0.206 F 
ATOM    103  C   UNL A   1      46.118  32.244  38.561  1.00  0.00     0.059 A 
ATOM    104  C   UNL A   1      43.726  31.898  38.801  1.00  0.00     0.059 A 
ATOM    105  F   UNL A   1      42.557  30.693  37.166  1.00  0.00    -0.206 F 
ATOM    106  C   UNL A   1      44.930  32.417  39.275  1.00  0.00     0.060 A 
BRANCH 106 107
ATOM    107  S   UNL A   1      44.971  33.364  40.812  1.00  0.00     0.124 S 
ATOM    108  O   UNL A   1      45.536  32.393  41.742  1.00  0.00    -0.237 OA
ATOM    109  O   UNL A   1      45.837  34.486  40.464  1.00  0.00    -0.237 OA
ATOM    110  O   UNL A   1      43.570  33.709  41.038  1.00  0.00    -0.744 OA
ENDBRANCH 106 107
ENDBRANCH  74  99
ENDBRANCH  48  49
ENDBRANCH  41  43
ENDBRANCH  40  41
ENDBRANCH  39  40
ENDBRANCH  38  39
ENDBRANCH  37  38
ENDBRANCH  36  37
ENDBRANCH  35  36
ENDBRANCH   1  35
TORSDOF 26
ENDMDL
MODEL 3
REMARK VINA RESULT:      -6.9      3.705      8.467
REMARK SMILES O=C(CCCN1C(=O)/C(=C/c2ccccc2Cl)SC1=S)Nc1cccc(C(=O)OCCOCCOCCOC(=O)c2ccc(-c3c4nc(c(-c5c(F)cc(S(=O)(=O)[O-])cc5F)c5ccc([nH]5)c(-c5c(F)cc(S(=O)(=O)[O-])cc5F)c5nc(c(-c6c(F)cc(S(=O)(=O)[O-])cc6F)c6ccc3[nH]6)C=C5)C=C4)cc2)c1
REMARK SMILES IDX 32 1 31 2 30 3 29 4 27 5 28 6 26 7 22 8 23 9 107 10 24 11
REMARK SMILES IDX 25 12 21 13 1 14 2 15 3 17 4 18 5 19 6 20 7 21 19 22 8 23
REMARK SMILES IDX 9 24 18 25 20 26 10 27 11 28 12 29 16 30 13 31 15 32 17 33
REMARK SMILES IDX 14 34 33 35 34 36 35 37 36 38 37 39 38 40 39 41 40 42 41 43
REMARK SMILES IDX 42 44 106 45 43 46 105 47 44 48 45 49 46 50 99 51 47 52
REMARK SMILES IDX 104 53 98 54 100 55 48 56 103 57 97 58 96 59 49 61 83 62
REMARK SMILES IDX 62 63 82 64 63 65 66 66 81 67 101 68 64 69 65 70 80 72
REMARK SMILES IDX 102 73 67 74 50 75 51 76 60 77 52 78 53 79 59 80 61 81 54 82
REMARK SMILES IDX 55 83 56 84 57 85 58 86 84 87 85 88 94 89 86 90 87 91 93 92
REMARK SMILES IDX 95 93 88 94 89 95 90 96 91 97 92 98 68 99 69 100 78 101
REMARK SMILES IDX 70 102 71 103 77 104 79 105 72 106 73 107 74 108 75 109
REMARK SMILES IDX 76 110
REMARK H PARENT 21 16 100 60 66 71
REMARK Flexibility Score: inf
ROOT
ATOM      1  O   UNL A   1      42.770  22.485  27.507  1.00  0.00    -0.376 OA
ENDROOT
BRANCH   1   2
ATOM      2  C   UNL A   1      41.589  21.767  27.808  1.00  0.00     0.202 C 
BRANCH   2   3
ATOM      3  C   UNL A   1      41.092  20.582  26.958  1.00  0.00     0.261 C 
BRANCH   3   4
ATOM      4  O   UNL A   1      41.832  20.261  25.781  1.00  0.00    -0.460 OA
BRANCH   4   5
ATOM      5  C   UNL A   1      42.580  19.128  25.792  1.00  0.00     0.338 C 
ATOM      6  O   UNL A   1      42.173  17.981  25.809  1.00  0.00    -0.246 OA
BRANCH   5   7
ATOM      7  C   UNL A   1      43.983  19.537  25.563  1.00  0.00     0.062 A 
ATOM      8  C   UNL A   1      45.571  21.204  24.826  1.00  0.00     0.042 A 
ATOM      9  C   UNL A   1      46.546  20.205  24.722  1.00  0.00     0.026 A 
ATOM     10  C   UNL A   1      44.282  20.863  25.235  1.00  0.00     0.041 A 
ATOM     11  C   UNL A   1      46.262  18.891  25.105  1.00  0.00     0.003 A 
ATOM     12  C   UNL A   1      44.979  18.555  25.538  1.00  0.00     0.016 A 
BRANCH   8  13
ATOM     13  N   UNL A   1      45.942  22.517  24.482  1.00  0.00    -0.326 N 
ATOM     14  O   UNL A   1      46.672  23.302  26.545  1.00  0.00    -0.275 OA
ATOM     15  C   UNL A   1      46.460  23.460  25.345  1.00  0.00     0.224 C 
ATOM     16  H   UNL A   1      45.821  22.788  23.543  1.00  0.00     0.169 HD
BRANCH  15  17
ATOM     17  C   UNL A   1      46.816  24.779  24.689  1.00  0.00     0.102 C 
BRANCH  17  18
ATOM     18  C   UNL A   1      46.626  25.997  25.598  1.00  0.00     0.032 C 
BRANCH  18  19
ATOM     19  C   UNL A   1      47.116  27.344  25.041  1.00  0.00     0.128 C 
BRANCH  19  20
ATOM     20  N   UNL A   1      46.864  28.468  25.945  1.00  0.00    -0.293 N 
ATOM     21  C   UNL A   1      45.566  28.928  26.087  1.00  0.00     0.266 C 
ATOM     22  C   UNL A   1      47.825  29.096  26.711  1.00  0.00     0.148 C 
ATOM     23  O   UNL A   1      44.589  28.461  25.512  1.00  0.00    -0.268 OA
ATOM     24  C   UNL A   1      45.503  30.022  27.088  1.00  0.00     0.081 C 
ATOM     25  S   UNL A   1      47.062  30.274  27.770  1.00  0.00    -0.054 SA
ATOM     26  S   UNL A   1      49.471  28.832  26.725  1.00  0.00    -0.052 S 
ATOM     27  C   UNL A   1      44.365  30.668  27.376  1.00  0.00     0.031 C 
BRANCH  27  28
ATOM     28  C   UNL A   1      44.247  31.765  28.351  1.00  0.00    -0.006 A 
ATOM     29  C   UNL A   1      44.106  33.070  27.854  1.00  0.00     0.010 A 
ATOM     30  C   UNL A   1      44.258  31.569  29.743  1.00  0.00     0.048 A 
ATOM     31  C   UNL A   1      43.939  34.149  28.727  1.00  0.00     0.001 A 
ATOM     32  C   UNL A   1      44.076  32.649  30.612  1.00  0.00     0.021 A 
ATOM     33  Cl  UNL A   1      44.521  30.011  30.451  1.00  0.00    -0.084 Cl
ATOM     34  C   UNL A   1      43.911  33.936  30.104  1.00  0.00     0.002 A 
ENDBRANCH  27  28
ENDBRANCH  19  20
ENDBRANCH  18  19
ENDBRANCH  17  18
ENDBRANCH  15  17
ENDBRANCH   8  13
ENDBRANCH   5   7
ENDBRANCH   4   5
ENDBRANCH   3   4
ENDBRANCH   2   3
ENDBRANCH   1   2
BRANCH   1  35
ATOM     35  C   UNL A   1      43.836  22.487  28.430  1.00  0.00     0.188 C 
BRANCH  35  36
ATOM     36  C   UNL A   1      43.607  23.458  29.610  1.00  0.00     0.188 C 
BRANCH  36  37
ATOM     37  O   UNL A   1      44.233  24.737  29.625  1.00  0.00    -0.376 OA
BRANCH  37  38
ATOM     38  C   UNL A   1      43.562  25.852  29.052  1.00  0.00     0.202 C 
BRANCH  38  39
ATOM     39  C   UNL A   1      43.308  25.901  27.536  1.00  0.00     0.261 C 
BRANCH  39  40
ATOM     40  O   UNL A   1      41.987  25.540  27.110  1.00  0.00    -0.460 OA
BRANCH  40  41
ATOM     41  C   UNL A   1      41.162  26.577  26.817  1.00  0.00     0.338 C 
ATOM     42  O   UNL A   1      40.608  26.806  25.756  1.00  0.00    -0.246 OA
BRANCH  41  43
ATOM     43  C   UNL A   1      40.892  27.343  28.049  1.00  0.00     0.060 A 
ATOM     44  C   UNL A   1      41.468  28.613  28.196  1.00  0.00     0.016 A 
ATOM     45  C   UNL A   1      40.116  26.795  29.071  1.00  0.00     0.016 A 
ATOM     46  C   UNL A   1      41.273  29.340  29.371  1.00  0.00     0.010 A 
ATOM     47  C   UNL A   1      39.943  27.513  30.257  1.00  0.00     0.010 A 
ATOM     48  C   UNL A   1      40.536  28.779  30.421  1.00  0.00    -0.014 A 
BRANCH  48  49
ATOM     49  C   UNL A   1      40.504  29.432  31.753  1.00  0.00     0.031 A 
ATOM     50  C   UNL A   1      39.444  30.463  32.021  1.00  0.00     0.074 A 
ATOM     51  C   UNL A   1      41.420  29.137  32.693  1.00  0.00     0.049 A 
ATOM     52  N   UNL A   1      39.302  31.258  33.049  1.00  0.00    -0.248 NA
ATOM     53  C   UNL A   1      38.412  30.624  30.986  1.00  0.00     0.031 C 
ATOM     54  C   UNL A   1      42.467  28.125  32.566  1.00  0.00     0.029 A 
ATOM     55  N   UNL A   1      41.628  29.685  33.935  1.00  0.00    -0.354 N 
ATOM     56  C   UNL A   1      38.176  32.025  32.777  1.00  0.00     0.074 A 
ATOM     57  C   UNL A   1      37.683  31.614  31.481  1.00  0.00     0.031 C 
ATOM     58  C   UNL A   1      43.227  28.145  33.675  1.00  0.00     0.029 A 
ATOM     59  C   UNL A   1      42.746  29.197  34.570  1.00  0.00     0.049 A 
ATOM     60  H   UNL A   1      41.034  30.362  34.332  1.00  0.00     0.167 HD
ATOM     61  C   UNL A   1      37.606  32.988  33.541  1.00  0.00     0.037 A 
ATOM     62  C   UNL A   1      43.333  29.582  35.721  1.00  0.00     0.037 A 
ATOM     63  C   UNL A   1      38.106  33.396  34.828  1.00  0.00     0.049 A 
ATOM     64  C   UNL A   1      42.722  30.705  36.522  1.00  0.00     0.074 A 
ATOM     65  C   UNL A   1      37.592  34.351  35.687  1.00  0.00     0.029 A 
ATOM     66  N   UNL A   1      39.243  32.883  35.435  1.00  0.00    -0.354 N 
ATOM     67  N   UNL A   1      41.647  31.414  36.267  1.00  0.00    -0.248 NA
ATOM     68  C   UNL A   1      43.404  31.084  37.769  1.00  0.00     0.031 C 
ATOM     69  C   UNL A   1      38.447  34.452  36.789  1.00  0.00     0.029 A 
ATOM     70  C   UNL A   1      39.460  33.517  36.646  1.00  0.00     0.049 A 
ATOM     71  H   UNL A   1      39.812  32.173  35.059  1.00  0.00     0.167 HD
ATOM     72  C   UNL A   1      41.504  32.293  37.336  1.00  0.00     0.074 A 
ATOM     73  C   UNL A   1      42.603  32.030  38.242  1.00  0.00     0.031 C 
ATOM     74  C   UNL A   1      40.547  33.230  37.549  1.00  0.00     0.037 A 
BRANCH  61  75
ATOM     75  C   UNL A   1      36.396  33.691  32.989  1.00  0.00     0.058 A 
ATOM     76  C   UNL A   1      36.474  34.524  31.862  1.00  0.00     0.135 A 
ATOM     77  C   UNL A   1      35.136  33.504  33.580  1.00  0.00     0.135 A 
ATOM     78  F   UNL A   1      37.657  34.753  31.270  1.00  0.00    -0.206 F 
ATOM     79  C   UNL A   1      35.349  35.168  31.356  1.00  0.00     0.059 A 
ATOM     80  C   UNL A   1      33.993  34.115  33.074  1.00  0.00     0.059 A 
ATOM     81  F   UNL A   1      35.007  32.721  34.662  1.00  0.00    -0.206 F 
ATOM     82  C   UNL A   1      34.113  34.957  31.970  1.00  0.00     0.060 A 
BRANCH  82  83
ATOM     83  S   UNL A   1      32.663  35.797  31.299  1.00  0.00     0.124 S 
ATOM     84  O   UNL A   1      33.061  37.198  31.410  1.00  0.00    -0.237 OA
ATOM     85  O   UNL A   1      32.594  35.265  29.943  1.00  0.00    -0.237 OA
ATOM     86  O   UNL A   1      31.584  35.380  32.190  1.00  0.00    -0.744 OA
ENDBRANCH  82  83
ENDBRANCH  61  75
BRANCH  62  87
ATOM     87  C   UNL A   1      44.581  28.915  36.179  1.00  0.00     0.058 A 
ATOM     88  C   UNL A   1      45.842  29.426  35.842  1.00  0.00     0.135 A 
ATOM     89  C   UNL A   1      44.538  27.751  36.964  1.00  0.00     0.135 A 
ATOM     90  F   UNL A   1      45.937  30.528  35.082  1.00  0.00    -0.206 F 
ATOM     91  C   UNL A   1      47.016  28.803  36.254  1.00  0.00     0.059 A 
ATOM     92  C   UNL A   1      45.697  27.125  37.412  1.00  0.00     0.059 A 
ATOM     93  F   UNL A   1      43.357  27.224  37.322  1.00  0.00    -0.206 F 
ATOM     94  C   UNL A   1      46.933  27.654  37.042  1.00  0.00     0.060 A 
BRANCH  94  95
ATOM     95  S   UNL A   1      48.464  26.883  37.610  1.00  0.00     0.124 S 
ATOM     96  O   UNL A   1      48.191  26.698  39.030  1.00  0.00    -0.237 OA
ATOM     97  O   UNL A   1      48.512  25.667  36.805  1.00  0.00    -0.237 OA
ATOM     98  O   UNL A   1      49.482  27.879  37.288  1.00  0.00    -0.744 OA
ENDBRANCH  94  95
ENDBRANCH  62  87
BRANCH  74  99
ATOM     99  C   UNL A   1      40.600  34.009  38.837  1.00  0.00     0.058 A 
ATOM    100  C   UNL A   1      41.281  35.231  38.941  1.00  0.00     0.135 A 
ATOM    101  C   UNL A   1      39.883  33.560  39.960  1.00  0.00     0.135 A 
ATOM    102  F   UNL A   1      41.986  35.703  37.901  1.00  0.00    -0.206 F 
ATOM    103  C   UNL A   1      41.259  35.976  40.117  1.00  0.00     0.059 A 
ATOM    104  C   UNL A   1      39.826  34.302  41.136  1.00  0.00     0.059 A 
ATOM    105  F   UNL A   1      39.205  32.402  39.911  1.00  0.00    -0.206 F 
ATOM    106  C   UNL A   1      40.524  35.506  41.207  1.00  0.00     0.060 A 
BRANCH 106 107
ATOM    107  S   UNL A   1      40.459  36.510  42.707  1.00  0.00     0.124 S 
ATOM    108  O   UNL A   1      39.562  37.588  42.302  1.00  0.00    -0.237 OA
ATOM    109  O   UNL A   1      39.921  35.572  43.687  1.00  0.00    -0.237 OA
ATOM    110  O   UNL A   1      41.850  36.898  42.918  1.00  0.00    -0.744 OA
ENDBRANCH 106 107
ENDBRANCH  74  99
ENDBRANCH  48  49
ENDBRANCH  41  43
ENDBRANCH  40  41
ENDBRANCH  39  40
ENDBRANCH  38  39
ENDBRANCH  37  38
ENDBRANCH  36  37
ENDBRANCH  35  36
ENDBRANCH   1  35
TORSDOF 26
ENDMDL
