MODEL 1
REMARK VINA RESULT:     -10.1      0.000      0.000
REMARK SMILES C=CCS(=O)(=O)N1CCc2ccccc2[C@@H]1C(=O)OCCOCCOCCOC(=O)c1ccc(-c2c3nc(c(-c4c(F)cc(S(=O)(=O)[O-])cc4F)c4ccc([nH]4)c(-c4c(F)cc(S(=O)(=O)[O-])cc4F)c4nc(c(-c5c(F)cc(S(=O)(=O)[O-])cc5F)c5ccc2[nH]5)C=C4)C=C3)cc1
REMARK SMILES IDX 23 1 22 2 21 3 20 4 19 5 17 6 18 7 16 8 7 9 8 10 9 11 15 12
REMARK SMILES IDX 10 13 14 14 11 15 13 16 12 17 4 18 5 19 6 20 3 21 2 22 1 23
REMARK SMILES IDX 24 24 25 25 26 26 27 27 28 28 29 29 30 30 31 31 32 32 96 33
REMARK SMILES IDX 33 34 95 35 34 36 35 37 36 38 89 39 37 40 94 41 88 42 90 43
REMARK SMILES IDX 38 44 93 45 87 46 86 47 39 49 73 50 52 51 72 52 53 53 56 54
REMARK SMILES IDX 71 55 91 56 54 57 55 58 70 60 92 61 57 62 40 63 41 64 50 65
REMARK SMILES IDX 42 66 43 67 49 68 51 69 44 70 45 71 46 72 47 73 48 74 74 75
REMARK SMILES IDX 75 76 84 77 76 78 77 79 83 80 85 81 78 82 79 83 80 84 81 85
REMARK SMILES IDX 82 86 58 87 59 88 68 89 60 90 61 91 67 92 69 93 62 94 63 95
REMARK SMILES IDX 64 96 65 97 66 98
REMARK H PARENT 90 48 56 59
REMARK Flexibility Score: inf
ROOT
ATOM      1  C   UNL A   1      33.742  28.161  24.540  1.00  0.00     0.188 C 
ENDROOT
BRANCH   1   2
ATOM      2  O   UNL A   1      33.296  28.714  23.307  1.00  0.00    -0.376 OA
BRANCH   2   3
ATOM      3  C   UNL A   1      33.639  28.033  22.107  1.00  0.00     0.202 C 
BRANCH   3   4
ATOM      4  C   UNL A   1      33.111  26.604  21.938  1.00  0.00     0.261 C 
BRANCH   4   5
ATOM      5  O   UNL A   1      34.083  25.563  22.189  1.00  0.00    -0.462 OA
BRANCH   5   6
ATOM      6  C   UNL A   1      33.578  24.301  22.263  1.00  0.00     0.329 C 
ATOM      7  O   UNL A   1      33.293  23.666  21.247  1.00  0.00    -0.250 OA
BRANCH   6   8
ATOM      8  C   UNL A   1      33.373  23.716  23.700  1.00  0.00     0.213 C 
ATOM      9  N   UNL A   1      32.479  24.502  24.675  1.00  0.00    -0.183 NA
ATOM     10  C   UNL A   1      33.020  24.513  26.069  1.00  0.00     0.108 C 
ATOM     11  C   UNL A   1      34.418  25.108  26.071  1.00  0.00     0.052 C 
ATOM     12  C   UNL A   1      34.780  23.413  24.271  1.00  0.00    -0.015 A 
ATOM     13  C   UNL A   1      35.313  24.167  25.331  1.00  0.00    -0.041 A 
ATOM     14  C   UNL A   1      35.594  22.431  23.681  1.00  0.00     0.006 A 
ATOM     15  C   UNL A   1      36.652  24.023  25.710  1.00  0.00     0.004 A 
ATOM     16  C   UNL A   1      36.924  22.277  24.073  1.00  0.00     0.000 A 
ATOM     17  C   UNL A   1      37.458  23.087  25.072  1.00  0.00     0.000 A 
BRANCH   9  18
ATOM     18  S   UNL A   1      30.825  24.056  24.597  1.00  0.00     0.218 S 
ATOM     19  O   UNL A   1      30.666  22.854  25.391  1.00  0.00    -0.212 OA
ATOM     20  O   UNL A   1      30.464  24.036  23.194  1.00  0.00    -0.212 OA
BRANCH  18  21
ATOM     21  C   UNL A   1      29.948  25.457  25.390  1.00  0.00     0.181 C 
BRANCH  21  22
ATOM     22  C   UNL A   1      30.324  26.782  24.771  1.00  0.00    -0.017 C 
ATOM     23  C   UNL A   1      29.860  27.266  23.610  1.00  0.00     0.005 C 
ENDBRANCH  21  22
ENDBRANCH  18  21
ENDBRANCH   9  18
ENDBRANCH   6   8
ENDBRANCH   5   6
ENDBRANCH   4   5
ENDBRANCH   3   4
ENDBRANCH   2   3
ENDBRANCH   1   2
BRANCH   1  24
ATOM     24  C   UNL A   1      33.169  28.730  25.844  1.00  0.00     0.188 C 
BRANCH  24  25
ATOM     25  O   UNL A   1      32.559  29.996  25.689  1.00  0.00    -0.376 OA
BRANCH  25  26
ATOM     26  C   UNL A   1      32.677  30.889  26.781  1.00  0.00     0.202 C 
BRANCH  26  27
ATOM     27  C   UNL A   1      33.821  30.449  27.703  1.00  0.00     0.261 C 
BRANCH  27  28
ATOM     28  O   UNL A   1      34.872  31.425  27.868  1.00  0.00    -0.460 OA
BRANCH  28  29
ATOM     29  C   UNL A   1      35.471  31.465  29.077  1.00  0.00     0.338 C 
ATOM     30  O   UNL A   1      34.958  31.812  30.135  1.00  0.00    -0.246 OA
BRANCH  29  31
ATOM     31  C   UNL A   1      36.766  30.754  28.991  1.00  0.00     0.060 A 
ATOM     32  C   UNL A   1      37.488  30.558  30.176  1.00  0.00     0.016 A 
ATOM     33  C   UNL A   1      37.273  30.288  27.781  1.00  0.00     0.016 A 
ATOM     34  C   UNL A   1      38.736  29.942  30.158  1.00  0.00     0.010 A 
ATOM     35  C   UNL A   1      38.531  29.670  27.761  1.00  0.00     0.010 A 
ATOM     36  C   UNL A   1      39.279  29.518  28.944  1.00  0.00    -0.014 A 
BRANCH  36  37
ATOM     37  C   UNL A   1      40.697  29.087  28.885  1.00  0.00     0.031 A 
ATOM     38  C   UNL A   1      41.760  30.095  29.220  1.00  0.00     0.074 A 
ATOM     39  C   UNL A   1      41.043  27.820  28.590  1.00  0.00     0.049 A 
ATOM     40  N   UNL A   1      43.059  30.006  29.112  1.00  0.00    -0.248 NA
ATOM     41  C   UNL A   1      41.284  31.379  29.758  1.00  0.00     0.031 C 
ATOM     42  C   UNL A   1      40.113  26.714  28.369  1.00  0.00     0.029 A 
ATOM     43  N   UNL A   1      42.283  27.257  28.419  1.00  0.00    -0.354 N 
ATOM     44  C   UNL A   1      43.557  31.230  29.541  1.00  0.00     0.074 A 
ATOM     45  C   UNL A   1      42.417  32.048  29.897  1.00  0.00     0.031 C 
ATOM     46  C   UNL A   1      40.817  25.605  28.080  1.00  0.00     0.029 A 
ATOM     47  C   UNL A   1      42.242  25.937  28.037  1.00  0.00     0.049 A 
ATOM     48  H   UNL A   1      43.123  27.751  28.559  1.00  0.00     0.167 HD
ATOM     49  C   UNL A   1      44.846  31.637  29.626  1.00  0.00     0.037 A 
ATOM     50  C   UNL A   1      43.235  25.110  27.657  1.00  0.00     0.037 A 
ATOM     51  C   UNL A   1      45.972  30.821  29.254  1.00  0.00     0.049 A 
ATOM     52  C   UNL A   1      44.653  25.627  27.616  1.00  0.00     0.074 A 
ATOM     53  C   UNL A   1      47.316  31.147  29.269  1.00  0.00     0.029 A 
ATOM     54  N   UNL A   1      45.884  29.515  28.790  1.00  0.00    -0.354 N 
ATOM     55  N   UNL A   1      45.116  26.802  27.972  1.00  0.00    -0.248 NA
ATOM     56  C   UNL A   1      45.681  24.707  27.107  1.00  0.00     0.031 C 
ATOM     57  C   UNL A   1      48.036  30.061  28.760  1.00  0.00     0.029 A 
ATOM     58  C   UNL A   1      47.147  29.031  28.489  1.00  0.00     0.049 A 
ATOM     59  H   UNL A   1      45.047  29.008  28.690  1.00  0.00     0.167 HD
ATOM     60  C   UNL A   1      46.492  26.749  27.767  1.00  0.00     0.074 A 
ATOM     61  C   UNL A   1      46.786  25.427  27.256  1.00  0.00     0.031 C 
ATOM     62  C   UNL A   1      47.429  27.707  27.989  1.00  0.00     0.037 A 
BRANCH  49  63
ATOM     63  C   UNL A   1      45.084  33.055  30.071  1.00  0.00     0.058 A 
ATOM     64  C   UNL A   1      45.277  33.391  31.421  1.00  0.00     0.135 A 
ATOM     65  C   UNL A   1      45.075  34.099  29.132  1.00  0.00     0.135 A 
ATOM     66  F   UNL A   1      45.273  32.435  32.363  1.00  0.00    -0.206 F 
ATOM     67  C   UNL A   1      45.391  34.716  31.829  1.00  0.00     0.059 A 
ATOM     68  C   UNL A   1      45.223  35.428  29.514  1.00  0.00     0.059 A 
ATOM     69  F   UNL A   1      44.895  33.836  27.828  1.00  0.00    -0.206 F 
ATOM     70  C   UNL A   1      45.351  35.728  30.869  1.00  0.00     0.060 A 
BRANCH  70  71
ATOM     71  S   UNL A   1      45.436  37.445  31.419  1.00  0.00     0.124 S 
ATOM     72  O   UNL A   1      45.632  38.145  30.154  1.00  0.00    -0.237 OA
ATOM     73  O   UNL A   1      44.134  37.634  32.052  1.00  0.00    -0.237 OA
ATOM     74  O   UNL A   1      46.579  37.456  32.327  1.00  0.00    -0.744 OA
ENDBRANCH  70  71
ENDBRANCH  49  63
BRANCH  50  75
ATOM     75  C   UNL A   1      42.932  23.706  27.264  1.00  0.00     0.058 A 
ATOM     76  C   UNL A   1      42.610  22.744  28.232  1.00  0.00     0.135 A 
ATOM     77  C   UNL A   1      42.959  23.297  25.921  1.00  0.00     0.135 A 
ATOM     78  F   UNL A   1      42.591  23.080  29.531  1.00  0.00    -0.206 F 
ATOM     79  C   UNL A   1      42.327  21.427  27.886  1.00  0.00     0.059 A 
ATOM     80  C   UNL A   1      42.652  21.991  25.547  1.00  0.00     0.059 A 
ATOM     81  F   UNL A   1      43.263  24.177  24.955  1.00  0.00    -0.206 F 
ATOM     82  C   UNL A   1      42.340  21.063  26.539  1.00  0.00     0.060 A 
BRANCH  82  83
ATOM     83  S   UNL A   1      41.899  19.367  26.100  1.00  0.00     0.124 S 
ATOM     84  O   UNL A   1      40.460  19.481  25.889  1.00  0.00    -0.237 OA
ATOM     85  O   UNL A   1      42.706  19.146  24.904  1.00  0.00    -0.237 OA
ATOM     86  O   UNL A   1      42.305  18.600  27.274  1.00  0.00    -0.744 OA
ENDBRANCH  82  83
ENDBRANCH  50  75
BRANCH  62  87
ATOM     87  C   UNL A   1      48.871  27.350  27.735  1.00  0.00     0.058 A 
ATOM     88  C   UNL A   1      49.680  26.767  28.721  1.00  0.00     0.135 A 
ATOM     89  C   UNL A   1      49.431  27.544  26.461  1.00  0.00     0.135 A 
ATOM     90  F   UNL A   1      49.200  26.565  29.959  1.00  0.00    -0.206 F 
ATOM     91  C   UNL A   1      51.000  26.408  28.460  1.00  0.00     0.059 A 
ATOM     92  C   UNL A   1      50.738  27.165  26.169  1.00  0.00     0.059 A 
ATOM     93  F   UNL A   1      48.699  28.088  25.476  1.00  0.00    -0.206 F 
ATOM     94  C   UNL A   1      51.519  26.607  27.180  1.00  0.00     0.060 A 
BRANCH  94  95
ATOM     95  S   UNL A   1      53.219  26.100  26.844  1.00  0.00     0.124 S 
ATOM     96  O   UNL A   1      53.027  24.750  26.324  1.00  0.00    -0.237 OA
ATOM     97  O   UNL A   1      53.655  27.098  25.873  1.00  0.00    -0.237 OA
ATOM     98  O   UNL A   1      53.864  26.182  28.152  1.00  0.00    -0.744 OA
ENDBRANCH  94  95
ENDBRANCH  62  87
ENDBRANCH  36  37
ENDBRANCH  29  31
ENDBRANCH  28  29
ENDBRANCH  27  28
ENDBRANCH  26  27
ENDBRANCH  25  26
ENDBRANCH  24  25
ENDBRANCH   1  24
TORSDOF 23
ENDMDL
MODEL 2
REMARK VINA RESULT:     -10.1      1.743      8.663
REMARK SMILES C=CCS(=O)(=O)N1CCc2ccccc2[C@@H]1C(=O)OCCOCCOCCOC(=O)c1ccc(-c2c3nc(c(-c4c(F)cc(S(=O)(=O)[O-])cc4F)c4ccc([nH]4)c(-c4c(F)cc(S(=O)(=O)[O-])cc4F)c4nc(c(-c5c(F)cc(S(=O)(=O)[O-])cc5F)c5ccc2[nH]5)C=C4)C=C3)cc1
REMARK SMILES IDX 23 1 22 2 21 3 20 4 19 5 17 6 18 7 16 8 7 9 8 10 9 11 15 12
REMARK SMILES IDX 10 13 14 14 11 15 13 16 12 17 4 18 5 19 6 20 3 21 2 22 1 23
REMARK SMILES IDX 24 24 25 25 26 26 27 27 28 28 29 29 30 30 31 31 32 32 96 33
REMARK SMILES IDX 33 34 95 35 34 36 35 37 36 38 89 39 37 40 94 41 88 42 90 43
REMARK SMILES IDX 38 44 93 45 87 46 86 47 39 49 73 50 52 51 72 52 53 53 56 54
REMARK SMILES IDX 71 55 91 56 54 57 55 58 70 60 92 61 57 62 40 63 41 64 50 65
REMARK SMILES IDX 42 66 43 67 49 68 51 69 44 70 45 71 46 72 47 73 48 74 74 75
REMARK SMILES IDX 75 76 84 77 76 78 77 79 83 80 85 81 78 82 79 83 80 84 81 85
REMARK SMILES IDX 82 86 58 87 59 88 68 89 60 90 61 91 67 92 69 93 62 94 63 95
REMARK SMILES IDX 64 96 65 97 66 98
REMARK H PARENT 90 48 56 59
REMARK Flexibility Score: inf
ROOT
ATOM      1  C   UNL A   1      33.833  30.232  26.940  1.00  0.00     0.188 C 
ENDROOT
BRANCH   1   2
ATOM      2  O   UNL A   1      32.582  30.020  27.583  1.00  0.00    -0.376 OA
BRANCH   2   3
ATOM      3  C   UNL A   1      31.819  28.882  27.202  1.00  0.00     0.202 C 
BRANCH   3   4
ATOM      4  C   UNL A   1      32.298  28.099  25.975  1.00  0.00     0.261 C 
BRANCH   4   5
ATOM      5  O   UNL A   1      32.832  26.785  26.263  1.00  0.00    -0.462 OA
BRANCH   5   6
ATOM      6  C   UNL A   1      32.012  25.744  25.952  1.00  0.00     0.329 C 
ATOM      7  O   UNL A   1      31.366  25.157  26.821  1.00  0.00    -0.250 OA
BRANCH   6   8
ATOM      8  C   UNL A   1      31.949  25.334  24.442  1.00  0.00     0.213 C 
ATOM      9  N   UNL A   1      33.276  25.227  23.671  1.00  0.00    -0.183 NA
ATOM     10  C   UNL A   1      33.176  25.764  22.279  1.00  0.00     0.108 C 
ATOM     11  C   UNL A   1      32.731  27.217  22.322  1.00  0.00     0.052 C 
ATOM     12  C   UNL A   1      30.920  26.270  23.761  1.00  0.00    -0.015 A 
ATOM     13  C   UNL A   1      31.327  27.246  22.835  1.00  0.00    -0.041 A 
ATOM     14  C   UNL A   1      29.564  26.223  24.123  1.00  0.00     0.006 A 
ATOM     15  C   UNL A   1      30.429  28.214  22.375  1.00  0.00     0.004 A 
ATOM     16  C   UNL A   1      28.666  27.180  23.648  1.00  0.00     0.000 A 
ATOM     17  C   UNL A   1      29.103  28.187  22.792  1.00  0.00     0.000 A 
BRANCH   9  18
ATOM     18  S   UNL A   1      33.984  23.666  23.741  1.00  0.00     0.218 S 
ATOM     19  O   UNL A   1      34.434  23.337  22.404  1.00  0.00    -0.212 OA
ATOM     20  O   UNL A   1      33.026  22.804  24.403  1.00  0.00    -0.212 OA
BRANCH  18  21
ATOM     21  C   UNL A   1      35.423  23.880  24.857  1.00  0.00     0.181 C 
BRANCH  21  22
ATOM     22  C   UNL A   1      35.850  22.574  25.484  1.00  0.00    -0.017 C 
ATOM     23  C   UNL A   1      36.407  21.539  24.838  1.00  0.00     0.005 C 
ENDBRANCH  21  22
ENDBRANCH  18  21
ENDBRANCH   9  18
ENDBRANCH   6   8
ENDBRANCH   5   6
ENDBRANCH   4   5
ENDBRANCH   3   4
ENDBRANCH   2   3
ENDBRANCH   1   2
BRANCH   1  24
ATOM     24  C   UNL A   1      35.051  30.572  27.809  1.00  0.00     0.188 C 
BRANCH  24  25
ATOM     25  O   UNL A   1      35.510  31.898  27.645  1.00  0.00    -0.376 OA
BRANCH  25  26
ATOM     26  C   UNL A   1      35.299  32.777  28.734  1.00  0.00     0.202 C 
BRANCH  26  27
ATOM     27  C   UNL A   1      35.377  32.007  30.057  1.00  0.00     0.261 C 
BRANCH  27  28
ATOM     28  O   UNL A   1      36.713  31.833  30.576  1.00  0.00    -0.460 OA
BRANCH  28  29
ATOM     29  C   UNL A   1      37.005  30.619  31.088  1.00  0.00     0.338 C 
ATOM     30  O   UNL A   1      36.281  29.934  31.804  1.00  0.00    -0.246 OA
BRANCH  29  31
ATOM     31  C   UNL A   1      38.223  30.102  30.427  1.00  0.00     0.060 A 
ATOM     32  C   UNL A   1      39.310  29.747  31.236  1.00  0.00     0.016 A 
ATOM     33  C   UNL A   1      38.311  29.967  29.043  1.00  0.00     0.016 A 
ATOM     34  C   UNL A   1      40.504  29.302  30.673  1.00  0.00     0.010 A 
ATOM     35  C   UNL A   1      39.512  29.523  28.476  1.00  0.00     0.010 A 
ATOM     36  C   UNL A   1      40.622  29.213  29.285  1.00  0.00    -0.014 A 
BRANCH  36  37
ATOM     37  C   UNL A   1      41.953  28.976  28.676  1.00  0.00     0.031 A 
ATOM     38  C   UNL A   1      42.271  27.593  28.182  1.00  0.00     0.074 A 
ATOM     39  C   UNL A   1      42.848  29.969  28.517  1.00  0.00     0.049 A 
ATOM     40  N   UNL A   1      43.399  27.104  27.740  1.00  0.00    -0.248 NA
ATOM     41  C   UNL A   1      41.154  26.636  28.180  1.00  0.00     0.031 C 
ATOM     42  C   UNL A   1      42.622  31.377  28.836  1.00  0.00     0.029 A 
ATOM     43  N   UNL A   1      44.138  29.932  28.048  1.00  0.00    -0.354 N 
ATOM     44  C   UNL A   1      43.138  25.774  27.435  1.00  0.00     0.074 A 
ATOM     45  C   UNL A   1      41.747  25.532  27.755  1.00  0.00     0.031 C 
ATOM     46  C   UNL A   1      43.742  32.070  28.563  1.00  0.00     0.029 A 
ATOM     47  C   UNL A   1      44.781  31.145  28.109  1.00  0.00     0.049 A 
ATOM     48  H   UNL A   1      44.562  29.114  27.701  1.00  0.00     0.167 HD
ATOM     49  C   UNL A   1      43.981  24.837  26.938  1.00  0.00     0.037 A 
ATOM     50  C   UNL A   1      46.069  31.460  27.865  1.00  0.00     0.037 A 
ATOM     51  C   UNL A   1      45.367  25.084  26.636  1.00  0.00     0.049 A 
ATOM     52  C   UNL A   1      47.031  30.372  27.453  1.00  0.00     0.074 A 
ATOM     53  C   UNL A   1      46.318  24.198  26.161  1.00  0.00     0.029 A 
ATOM     54  N   UNL A   1      46.006  26.307  26.791  1.00  0.00    -0.354 N 
ATOM     55  N   UNL A   1      46.794  29.104  27.216  1.00  0.00    -0.248 NA
ATOM     56  C   UNL A   1      48.440  30.759  27.290  1.00  0.00     0.031 C 
ATOM     57  C   UNL A   1      47.542  24.870  26.084  1.00  0.00     0.029 A 
ATOM     58  C   UNL A   1      47.343  26.193  26.447  1.00  0.00     0.049 A 
ATOM     59  H   UNL A   1      45.571  27.135  27.100  1.00  0.00     0.167 HD
ATOM     60  C   UNL A   1      48.014  28.550  26.838  1.00  0.00     0.074 A 
ATOM     61  C   UNL A   1      48.987  29.621  26.879  1.00  0.00     0.031 C 
ATOM     62  C   UNL A   1      48.302  27.271  26.483  1.00  0.00     0.037 A 
BRANCH  49  63
ATOM     63  C   UNL A   1      43.430  23.448  26.765  1.00  0.00     0.058 A 
ATOM     64  C   UNL A   1      43.190  22.598  27.857  1.00  0.00     0.135 A 
ATOM     65  C   UNL A   1      43.181  22.944  25.478  1.00  0.00     0.135 A 
ATOM     66  F   UNL A   1      43.432  23.020  29.108  1.00  0.00    -0.206 F 
ATOM     67  C   UNL A   1      42.780  21.281  27.675  1.00  0.00     0.059 A 
ATOM     68  C   UNL A   1      42.736  21.642  25.275  1.00  0.00     0.059 A 
ATOM     69  F   UNL A   1      43.393  23.712  24.397  1.00  0.00    -0.206 F 
ATOM     70  C   UNL A   1      42.567  20.810  26.379  1.00  0.00     0.060 A 
BRANCH  70  71
ATOM     71  S   UNL A   1      42.098  19.081  26.155  1.00  0.00     0.124 S 
ATOM     72  O   UNL A   1      42.322  18.545  27.494  1.00  0.00    -0.237 OA
ATOM     73  O   UNL A   1      40.702  19.187  25.741  1.00  0.00    -0.237 OA
ATOM     74  O   UNL A   1      43.020  18.608  25.127  1.00  0.00    -0.744 OA
ENDBRANCH  70  71
ENDBRANCH  49  63
BRANCH  50  75
ATOM     75  C   UNL A   1      46.539  32.864  28.021  1.00  0.00     0.058 A 
ATOM     76  C   UNL A   1      46.436  33.776  26.961  1.00  0.00     0.135 A 
ATOM     77  C   UNL A   1      47.100  33.323  29.224  1.00  0.00     0.135 A 
ATOM     78  F   UNL A   1      45.925  33.382  25.784  1.00  0.00    -0.206 F 
ATOM     79  C   UNL A   1      46.871  35.092  27.084  1.00  0.00     0.059 A 
ATOM     80  C   UNL A   1      47.517  34.642  29.381  1.00  0.00     0.059 A 
ATOM     81  F   UNL A   1      47.223  32.490  30.268  1.00  0.00    -0.206 F 
ATOM     82  C   UNL A   1      47.401  35.517  28.303  1.00  0.00     0.060 A 
BRANCH  82  83
ATOM     83  S   UNL A   1      47.896  37.247  28.470  1.00  0.00     0.124 S 
ATOM     84  O   UNL A   1      49.327  37.173  28.196  1.00  0.00    -0.237 OA
ATOM     85  O   UNL A   1      47.081  37.893  27.445  1.00  0.00    -0.237 OA
ATOM     86  O   UNL A   1      47.532  37.568  29.846  1.00  0.00    -0.744 OA
ENDBRANCH  82  83
ENDBRANCH  50  75
BRANCH  62  87
ATOM     87  C   UNL A   1      49.713  26.963  26.055  1.00  0.00     0.058 A 
ATOM     88  C   UNL A   1      50.669  26.452  26.947  1.00  0.00     0.135 A 
ATOM     89  C   UNL A   1      50.096  27.126  24.713  1.00  0.00     0.135 A 
ATOM     90  F   UNL A   1      50.361  26.282  28.244  1.00  0.00    -0.206 F 
ATOM     91  C   UNL A   1      51.959  26.137  26.530  1.00  0.00     0.059 A 
ATOM     92  C   UNL A   1      51.370  26.789  24.267  1.00  0.00     0.059 A 
ATOM     93  F   UNL A   1      49.219  27.600  23.813  1.00  0.00    -0.206 F 
ATOM     94  C   UNL A   1      52.299  26.304  25.186  1.00  0.00     0.060 A 
BRANCH  94  95
ATOM     95  S   UNL A   1      53.963  25.853  24.650  1.00  0.00     0.124 S 
ATOM     96  O   UNL A   1      53.896  26.129  23.219  1.00  0.00    -0.237 OA
ATOM     97  O   UNL A   1      54.798  26.758  25.433  1.00  0.00    -0.237 OA
ATOM     98  O   UNL A   1      54.067  24.442  25.013  1.00  0.00    -0.744 OA
ENDBRANCH  94  95
ENDBRANCH  62  87
ENDBRANCH  36  37
ENDBRANCH  29  31
ENDBRANCH  28  29
ENDBRANCH  27  28
ENDBRANCH  26  27
ENDBRANCH  25  26
ENDBRANCH  24  25
ENDBRANCH   1  24
TORSDOF 23
ENDMDL
MODEL 3
REMARK VINA RESULT:      -9.6      1.552      2.167
REMARK SMILES C=CCS(=O)(=O)N1CCc2ccccc2[C@@H]1C(=O)OCCOCCOCCOC(=O)c1ccc(-c2c3nc(c(-c4c(F)cc(S(=O)(=O)[O-])cc4F)c4ccc([nH]4)c(-c4c(F)cc(S(=O)(=O)[O-])cc4F)c4nc(c(-c5c(F)cc(S(=O)(=O)[O-])cc5F)c5ccc2[nH]5)C=C4)C=C3)cc1
REMARK SMILES IDX 23 1 22 2 21 3 20 4 19 5 17 6 18 7 16 8 7 9 8 10 9 11 15 12
REMARK SMILES IDX 10 13 14 14 11 15 13 16 12 17 4 18 5 19 6 20 3 21 2 22 1 23
REMARK SMILES IDX 24 24 25 25 26 26 27 27 28 28 29 29 30 30 31 31 32 32 96 33
REMARK SMILES IDX 33 34 95 35 34 36 35 37 36 38 89 39 37 40 94 41 88 42 90 43
REMARK SMILES IDX 38 44 93 45 87 46 86 47 39 49 73 50 52 51 72 52 53 53 56 54
REMARK SMILES IDX 71 55 91 56 54 57 55 58 70 60 92 61 57 62 40 63 41 64 50 65
REMARK SMILES IDX 42 66 43 67 49 68 51 69 44 70 45 71 46 72 47 73 48 74 74 75
REMARK SMILES IDX 75 76 84 77 76 78 77 79 83 80 85 81 78 82 79 83 80 84 81 85
REMARK SMILES IDX 82 86 58 87 59 88 68 89 60 90 61 91 67 92 69 93 62 94 63 95
REMARK SMILES IDX 64 96 65 97 66 98
REMARK H PARENT 90 48 56 59
REMARK Flexibility Score: inf
ROOT
ATOM      1  C   UNL A   1      31.797  29.397  25.310  1.00  0.00     0.188 C 
ENDROOT
BRANCH   1   2
ATOM      2  O   UNL A   1      31.310  28.270  24.592  1.00  0.00    -0.376 OA
BRANCH   2   3
ATOM      3  C   UNL A   1      32.226  27.550  23.777  1.00  0.00     0.202 C 
BRANCH   3   4
ATOM      4  C   UNL A   1      32.897  26.320  24.398  1.00  0.00     0.261 C 
BRANCH   4   5
ATOM      5  O   UNL A   1      34.030  25.807  23.659  1.00  0.00    -0.462 OA
BRANCH   5   6
ATOM      6  C   UNL A   1      33.840  24.596  23.069  1.00  0.00     0.329 C 
ATOM      7  O   UNL A   1      33.637  24.500  21.857  1.00  0.00    -0.250 OA
BRANCH   6   8
ATOM      8  C   UNL A   1      33.883  23.346  24.011  1.00  0.00     0.213 C 
ATOM      9  N   UNL A   1      32.759  23.193  25.051  1.00  0.00    -0.183 NA
ATOM     10  C   UNL A   1      33.260  22.693  26.367  1.00  0.00     0.108 C 
ATOM     11  C   UNL A   1      34.321  23.639  26.904  1.00  0.00     0.052 C 
ATOM     12  C   UNL A   1      35.300  23.295  24.631  1.00  0.00    -0.015 A 
ATOM     13  C   UNL A   1      35.506  23.553  25.997  1.00  0.00    -0.041 A 
ATOM     14  C   UNL A   1      36.426  23.074  23.820  1.00  0.00     0.006 A 
ATOM     15  C   UNL A   1      36.799  23.700  26.510  1.00  0.00     0.004 A 
ATOM     16  C   UNL A   1      37.715  23.204  24.339  1.00  0.00     0.000 A 
ATOM     17  C   UNL A   1      37.901  23.538  25.677  1.00  0.00     0.000 A 
BRANCH   9  18
ATOM     18  S   UNL A   1      31.403  22.317  24.469  1.00  0.00     0.218 S 
ATOM     19  O   UNL A   1      30.701  23.178  23.540  1.00  0.00    -0.212 OA
ATOM     20  O   UNL A   1      30.707  21.805  25.632  1.00  0.00    -0.212 OA
BRANCH  18  21
ATOM     21  C   UNL A   1      32.142  20.895  23.578  1.00  0.00     0.181 C 
BRANCH  21  22
ATOM     22  C   UNL A   1      32.503  19.767  24.514  1.00  0.00    -0.017 C 
ATOM     23  C   UNL A   1      33.364  18.773  24.250  1.00  0.00     0.005 C 
ENDBRANCH  21  22
ENDBRANCH  18  21
ENDBRANCH   9  18
ENDBRANCH   6   8
ENDBRANCH   5   6
ENDBRANCH   4   5
ENDBRANCH   3   4
ENDBRANCH   2   3
ENDBRANCH   1   2
BRANCH   1  24
ATOM     24  C   UNL A   1      31.794  29.341  26.843  1.00  0.00     0.188 C 
BRANCH  24  25
ATOM     25  O   UNL A   1      32.929  28.700  27.388  1.00  0.00    -0.376 OA
BRANCH  25  26
ATOM     26  C   UNL A   1      34.188  29.120  26.894  1.00  0.00     0.202 C 
BRANCH  26  27
ATOM     27  C   UNL A   1      34.634  30.401  27.608  1.00  0.00     0.261 C 
BRANCH  27  28
ATOM     28  O   UNL A   1      35.334  30.187  28.852  1.00  0.00    -0.460 OA
BRANCH  28  29
ATOM     29  C   UNL A   1      36.363  31.020  29.115  1.00  0.00     0.338 C 
ATOM     30  O   UNL A   1      36.300  32.099  29.694  1.00  0.00    -0.246 OA
BRANCH  29  31
ATOM     31  C   UNL A   1      37.632  30.308  28.850  1.00  0.00     0.060 A 
ATOM     32  C   UNL A   1      38.450  29.992  29.943  1.00  0.00     0.016 A 
ATOM     33  C   UNL A   1      38.025  29.955  27.561  1.00  0.00     0.016 A 
ATOM     34  C   UNL A   1      39.680  29.368  29.758  1.00  0.00     0.010 A 
ATOM     35  C   UNL A   1      39.264  29.329  27.373  1.00  0.00     0.010 A 
ATOM     36  C   UNL A   1      40.109  29.056  28.466  1.00  0.00    -0.014 A 
BRANCH  36  37
ATOM     37  C   UNL A   1      41.508  28.618  28.243  1.00  0.00     0.031 A 
ATOM     38  C   UNL A   1      42.598  29.649  28.340  1.00  0.00     0.074 A 
ATOM     39  C   UNL A   1      41.820  27.331  28.008  1.00  0.00     0.049 A 
ATOM     40  N   UNL A   1      43.869  29.547  28.057  1.00  0.00    -0.248 NA
ATOM     41  C   UNL A   1      42.191  30.973  28.832  1.00  0.00     0.031 C 
ATOM     42  C   UNL A   1      40.879  26.212  28.012  1.00  0.00     0.029 A 
ATOM     43  N   UNL A   1      43.030  26.752  27.711  1.00  0.00    -0.354 N 
ATOM     44  C   UNL A   1      44.411  30.801  28.309  1.00  0.00     0.074 A 
ATOM     45  C   UNL A   1      43.326  31.650  28.754  1.00  0.00     0.031 C 
ATOM     46  C   UNL A   1      41.546  25.082  27.720  1.00  0.00     0.029 A 
ATOM     47  C   UNL A   1      42.947  25.406  27.448  1.00  0.00     0.049 A 
ATOM     48  H   UNL A   1      43.876  27.254  27.688  1.00  0.00     0.167 HD
ATOM     49  C   UNL A   1      45.696  31.212  28.176  1.00  0.00     0.037 A 
ATOM     50  C   UNL A   1      43.885  24.547  27.001  1.00  0.00     0.037 A 
ATOM     51  C   UNL A   1      46.766  30.364  27.718  1.00  0.00     0.049 A 
ATOM     52  C   UNL A   1      45.278  25.056  26.718  1.00  0.00     0.074 A 
ATOM     53  C   UNL A   1      48.096  30.687  27.516  1.00  0.00     0.029 A 
ATOM     54  N   UNL A   1      46.626  29.025  27.381  1.00  0.00    -0.354 N 
ATOM     55  N   UNL A   1      45.775  26.255  26.907  1.00  0.00    -0.248 NA
ATOM     56  C   UNL A   1      46.232  24.094  26.146  1.00  0.00     0.031 C 
ATOM     57  C   UNL A   1      48.746  29.561  27.001  1.00  0.00     0.029 A 
ATOM     58  C   UNL A   1      47.838  28.515  26.945  1.00  0.00     0.049 A 
ATOM     59  H   UNL A   1      45.787  28.513  27.442  1.00  0.00     0.167 HD
ATOM     60  C   UNL A   1      47.109  26.182  26.514  1.00  0.00     0.074 A 
ATOM     61  C   UNL A   1      47.340  24.821  26.077  1.00  0.00     0.031 C 
ATOM     62  C   UNL A   1      48.059  27.153  26.521  1.00  0.00     0.037 A 
BRANCH  49  63
ATOM     63  C   UNL A   1      45.982  32.660  28.465  1.00  0.00     0.058 A 
ATOM     64  C   UNL A   1      46.196  33.134  29.770  1.00  0.00     0.135 A 
ATOM     65  C   UNL A   1      45.996  33.597  27.419  1.00  0.00     0.135 A 
ATOM     66  F   UNL A   1      46.171  32.286  30.810  1.00  0.00    -0.206 F 
ATOM     67  C   UNL A   1      46.354  34.491  30.032  1.00  0.00     0.059 A 
ATOM     68  C   UNL A   1      46.188  34.955  27.655  1.00  0.00     0.059 A 
ATOM     69  F   UNL A   1      45.797  33.201  26.152  1.00  0.00    -0.206 F 
ATOM     70  C   UNL A   1      46.337  35.394  28.968  1.00  0.00     0.060 A 
BRANCH  70  71
ATOM     71  S   UNL A   1      46.479  37.157  29.330  1.00  0.00     0.124 S 
ATOM     72  O   UNL A   1      47.719  37.195  30.100  1.00  0.00    -0.237 OA
ATOM     73  O   UNL A   1      46.544  37.746  27.995  1.00  0.00    -0.237 OA
ATOM     74  O   UNL A   1      45.263  37.449  30.082  1.00  0.00    -0.744 OA
ENDBRANCH  70  71
ENDBRANCH  49  63
BRANCH  50  75
ATOM     75  C   UNL A   1      43.542  23.116  26.772  1.00  0.00     0.058 A 
ATOM     76  C   UNL A   1      43.339  22.246  27.853  1.00  0.00     0.135 A 
ATOM     77  C   UNL A   1      43.413  22.590  25.477  1.00  0.00     0.135 A 
ATOM     78  F   UNL A   1      43.471  22.696  29.110  1.00  0.00    -0.206 F 
ATOM     79  C   UNL A   1      43.021  20.905  27.661  1.00  0.00     0.059 A 
ATOM     80  C   UNL A   1      43.068  21.258  25.258  1.00  0.00     0.059 A 
ATOM     81  F   UNL A   1      43.598  23.379  24.408  1.00  0.00    -0.206 F 
ATOM     82  C   UNL A   1      42.878  20.423  26.359  1.00  0.00     0.060 A 
BRANCH  82  83
ATOM     83  S   UNL A   1      42.394  18.699  26.127  1.00  0.00     0.124 S 
ATOM     84  O   UNL A   1      40.988  18.832  25.762  1.00  0.00    -0.237 OA
ATOM     85  O   UNL A   1      43.294  18.275  25.059  1.00  0.00    -0.237 OA
ATOM     86  O   UNL A   1      42.653  18.099  27.432  1.00  0.00    -0.744 OA
ENDBRANCH  82  83
ENDBRANCH  50  75
BRANCH  62  87
ATOM     87  C   UNL A   1      49.454  26.772  26.096  1.00  0.00     0.058 A 
ATOM     88  C   UNL A   1      50.376  26.201  26.986  1.00  0.00     0.135 A 
ATOM     89  C   UNL A   1      49.850  26.930  24.757  1.00  0.00     0.135 A 
ATOM     90  F   UNL A   1      50.053  26.033  28.279  1.00  0.00    -0.206 F 
ATOM     91  C   UNL A   1      51.648  25.820  26.569  1.00  0.00     0.059 A 
ATOM     92  C   UNL A   1      51.106  26.529  24.312  1.00  0.00     0.059 A 
ATOM     93  F   UNL A   1      49.005  27.462  23.860  1.00  0.00    -0.206 F 
ATOM     94  C   UNL A   1      52.003  25.984  25.230  1.00  0.00     0.060 A 
BRANCH  94  95
ATOM     95  S   UNL A   1      53.642  25.449  24.695  1.00  0.00     0.124 S 
ATOM     96  O   UNL A   1      53.747  26.083  23.385  1.00  0.00    -0.237 OA
ATOM     97  O   UNL A   1      54.504  25.997  25.736  1.00  0.00    -0.237 OA
ATOM     98  O   UNL A   1      53.538  23.992  24.679  1.00  0.00    -0.744 OA
ENDBRANCH  94  95
ENDBRANCH  62  87
ENDBRANCH  36  37
ENDBRANCH  29  31
ENDBRANCH  28  29
ENDBRANCH  27  28
ENDBRANCH  26  27
ENDBRANCH  25  26
ENDBRANCH  24  25
ENDBRANCH   1  24
TORSDOF 23
ENDMDL
