MODEL 1
REMARK VINA RESULT:     -10.9      0.000      0.000
REMARK SMILES Cc1cc(C)cc(-c2ccc([C@@H](C)C(=O)OCCOCCOCCOC(=O)c3ccc(-c4c5nc(c(-c6c(F)cc(S(=O)(=O)[O-])cc6F)c6ccc([nH]6)c(-c6c(F)cc(S(=O)(=O)[O-])cc6F)c6nc(c(-c7c(F)cc(S(=O)(=O)[O-])cc7F)c7ccc4[nH]7)C=C6)C=C5)cc3)cc2F)c1
REMARK SMILES IDX 21 1 20 2 19 3 18 4 17 5 16 6 14 7 15 8 12 9 13 10 11 11
REMARK SMILES IDX 8 12 9 13 95 14 10 15 94 16 96 17 7 18 1 19 2 20 3 21 97 22
REMARK SMILES IDX 4 23 5 24 6 25 22 26 23 27 24 28 25 29 26 30 27 31 28 32
REMARK SMILES IDX 29 33 93 34 30 35 92 36 31 37 32 38 33 39 86 40 34 41 91 42
REMARK SMILES IDX 85 43 87 44 35 45 90 46 84 47 83 48 36 50 70 51 49 52 69 53
REMARK SMILES IDX 50 54 53 55 68 56 88 57 51 58 52 59 67 61 89 62 54 63 37 64
REMARK SMILES IDX 38 65 47 66 39 67 40 68 46 69 48 70 41 71 42 72 43 73 44 74
REMARK SMILES IDX 45 75 71 76 72 77 81 78 73 79 74 80 80 81 82 82 75 83 76 84
REMARK SMILES IDX 77 85 78 86 79 87 55 88 56 89 65 90 57 91 58 92 64 93 66 94
REMARK SMILES IDX 59 95 60 96 61 97 62 98 63 99
REMARK H PARENT 87 49 53 60
REMARK Flexibility Score: inf
ROOT
ATOM      1  C   UNL A   1      41.253  21.879  27.771  1.00  0.00     0.188 C 
ENDROOT
BRANCH   1   2
ATOM      2  C   UNL A   1      40.021  21.814  26.855  1.00  0.00     0.188 C 
BRANCH   2   3
ATOM      3  O   UNL A   1      39.283  23.005  26.606  1.00  0.00    -0.376 OA
BRANCH   3   4
ATOM      4  C   UNL A   1      38.130  22.948  25.775  1.00  0.00     0.202 C 
BRANCH   4   5
ATOM      5  C   UNL A   1      37.557  21.571  25.398  1.00  0.00     0.261 C 
BRANCH   5   6
ATOM      6  O   UNL A   1      36.325  21.589  24.640  1.00  0.00    -0.463 OA
BRANCH   6   7
ATOM      7  C   UNL A   1      35.198  21.240  25.313  1.00  0.00     0.313 C 
ATOM      8  O   UNL A   1      34.563  20.217  25.067  1.00  0.00    -0.252 OA
BRANCH   7   9
ATOM      9  C   UNL A   1      34.750  22.184  26.435  1.00  0.00     0.126 C 
ATOM     10  C   UNL A   1      33.868  21.395  27.401  1.00  0.00     0.025 C 
BRANCH   9  11
ATOM     11  C   UNL A   1      34.109  23.540  26.137  1.00  0.00    -0.031 A 
ATOM     12  C   UNL A   1      32.785  26.030  25.592  1.00  0.00     0.017 A 
ATOM     13  C   UNL A   1      34.138  25.822  25.264  1.00  0.00     0.012 A 
ATOM     14  C   UNL A   1      32.115  24.967  26.204  1.00  0.00     0.131 A 
ATOM     15  C   UNL A   1      34.788  24.599  25.522  1.00  0.00     0.005 A 
ATOM     16  C   UNL A   1      32.751  23.745  26.462  1.00  0.00     0.044 A 
ATOM     17  F   UNL A   1      30.821  25.088  26.545  1.00  0.00    -0.206 F 
BRANCH  12  18
ATOM     18  C   UNL A   1      32.106  27.296  25.246  1.00  0.00    -0.015 A 
ATOM     19  C   UNL A   1      31.815  30.930  26.432  1.00  0.00     0.044 C 
ATOM     20  C   UNL A   1      31.631  29.670  25.638  1.00  0.00    -0.050 A 
ATOM     21  C   UNL A   1      30.794  29.686  24.516  1.00  0.00     0.006 A 
ATOM     22  C   UNL A   1      32.278  28.472  25.998  1.00  0.00     0.012 A 
ATOM     23  C   UNL A   1      30.595  28.530  23.756  1.00  0.00    -0.050 A 
ATOM     24  C   UNL A   1      29.685  28.566  22.565  1.00  0.00     0.044 C 
ATOM     25  C   UNL A   1      31.253  27.349  24.127  1.00  0.00     0.012 A 
ENDBRANCH  12  18
ENDBRANCH   9  11
ENDBRANCH   7   9
ENDBRANCH   6   7
ENDBRANCH   5   6
ENDBRANCH   4   5
ENDBRANCH   3   4
ENDBRANCH   2   3
ENDBRANCH   1   2
BRANCH   1  26
ATOM     26  O   UNL A   1      42.480  21.618  27.127  1.00  0.00    -0.376 OA
BRANCH  26  27
ATOM     27  C   UNL A   1      42.538  21.861  25.735  1.00  0.00     0.202 C 
BRANCH  27  28
ATOM     28  C   UNL A   1      42.936  23.281  25.305  1.00  0.00     0.261 C 
BRANCH  28  29
ATOM     29  O   UNL A   1      42.902  24.294  26.329  1.00  0.00    -0.460 OA
BRANCH  29  30
ATOM     30  C   UNL A   1      42.162  25.398  26.080  1.00  0.00     0.338 C 
ATOM     31  O   UNL A   1      41.529  25.636  25.060  1.00  0.00    -0.246 OA
BRANCH  30  32
ATOM     32  C   UNL A   1      42.059  26.178  27.336  1.00  0.00     0.060 A 
ATOM     33  C   UNL A   1      41.055  25.855  28.262  1.00  0.00     0.016 A 
ATOM     34  C   UNL A   1      42.947  27.223  27.603  1.00  0.00     0.016 A 
ATOM     35  C   UNL A   1      40.915  26.602  29.435  1.00  0.00     0.010 A 
ATOM     36  C   UNL A   1      42.790  27.983  28.769  1.00  0.00     0.010 A 
ATOM     37  C   UNL A   1      41.752  27.700  29.675  1.00  0.00    -0.014 A 
BRANCH  37  38
ATOM     38  C   UNL A   1      41.431  28.657  30.767  1.00  0.00     0.031 A 
ATOM     39  C   UNL A   1      42.262  28.619  32.024  1.00  0.00     0.074 A 
ATOM     40  C   UNL A   1      40.441  29.561  30.646  1.00  0.00     0.049 A 
ATOM     41  N   UNL A   1      42.141  29.318  33.122  1.00  0.00    -0.248 NA
ATOM     42  C   UNL A   1      43.379  27.660  32.042  1.00  0.00     0.031 C 
ATOM     43  C   UNL A   1      39.592  29.734  29.470  1.00  0.00     0.029 A 
ATOM     44  N   UNL A   1      39.982  30.505  31.534  1.00  0.00    -0.354 N 
ATOM     45  C   UNL A   1      43.162  28.882  33.961  1.00  0.00     0.074 A 
ATOM     46  C   UNL A   1      43.869  27.834  33.260  1.00  0.00     0.031 C 
ATOM     47  C   UNL A   1      38.712  30.722  29.709  1.00  0.00     0.029 A 
ATOM     48  C   UNL A   1      38.910  31.230  31.067  1.00  0.00     0.049 A 
ATOM     49  H   UNL A   1      40.383  30.651  32.421  1.00  0.00     0.167 HD
ATOM     50  C   UNL A   1      43.487  29.326  35.199  1.00  0.00     0.037 A 
ATOM     51  C   UNL A   1      38.162  32.178  31.669  1.00  0.00     0.037 A 
ATOM     52  C   UNL A   1      42.784  30.372  35.895  1.00  0.00     0.049 A 
ATOM     53  C   UNL A   1      38.496  32.603  33.078  1.00  0.00     0.074 A 
ATOM     54  C   UNL A   1      43.050  30.898  37.147  1.00  0.00     0.029 A 
ATOM     55  N   UNL A   1      41.678  31.050  35.405  1.00  0.00    -0.354 N 
ATOM     56  N   UNL A   1      39.469  32.190  33.857  1.00  0.00    -0.248 NA
ATOM     57  C   UNL A   1      37.634  33.624  33.691  1.00  0.00     0.031 C 
ATOM     58  C   UNL A   1      42.071  31.852  37.438  1.00  0.00     0.029 A 
ATOM     59  C   UNL A   1      41.232  31.968  36.341  1.00  0.00     0.049 A 
ATOM     60  H   UNL A   1      41.270  30.900  34.521  1.00  0.00     0.167 HD
ATOM     61  C   UNL A   1      39.348  32.916  35.039  1.00  0.00     0.074 A 
ATOM     62  C   UNL A   1      38.219  33.806  34.867  1.00  0.00     0.031 C 
ATOM     63  C   UNL A   1      40.105  32.852  36.164  1.00  0.00     0.037 A 
BRANCH  50  64
ATOM     64  C   UNL A   1      44.651  28.674  35.896  1.00  0.00     0.058 A 
ATOM     65  C   UNL A   1      44.449  27.556  36.722  1.00  0.00     0.135 A 
ATOM     66  C   UNL A   1      45.954  29.189  35.800  1.00  0.00     0.135 A 
ATOM     67  F   UNL A   1      43.227  27.015  36.844  1.00  0.00    -0.206 F 
ATOM     68  C   UNL A   1      45.492  26.987  37.445  1.00  0.00     0.059 A 
ATOM     69  C   UNL A   1      47.018  28.618  36.492  1.00  0.00     0.059 A 
ATOM     70  F   UNL A   1      46.208  30.241  35.006  1.00  0.00    -0.206 F 
ATOM     71  C   UNL A   1      46.774  27.526  37.325  1.00  0.00     0.060 A 
BRANCH  71  72
ATOM     72  S   UNL A   1      48.119  26.760  38.254  1.00  0.00     0.124 S 
ATOM     73  O   UNL A   1      48.109  25.399  37.730  1.00  0.00    -0.237 OA
ATOM     74  O   UNL A   1      49.262  27.582  37.870  1.00  0.00    -0.237 OA
ATOM     75  O   UNL A   1      47.694  26.902  39.644  1.00  0.00    -0.744 OA
ENDBRANCH  71  72
ENDBRANCH  50  64
BRANCH  51  76
ATOM     76  C   UNL A   1      37.021  32.796  30.939  1.00  0.00     0.058 A 
ATOM     77  C   UNL A   1      37.232  33.758  29.939  1.00  0.00     0.135 A 
ATOM     78  C   UNL A   1      35.695  32.450  31.240  1.00  0.00     0.135 A 
ATOM     79  F   UNL A   1      38.480  34.125  29.609  1.00  0.00    -0.206 F 
ATOM     80  C   UNL A   1      36.170  34.380  29.289  1.00  0.00     0.059 A 
ATOM     81  C   UNL A   1      34.617  33.037  30.583  1.00  0.00     0.059 A 
ATOM     82  F   UNL A   1      35.441  31.518  32.172  1.00  0.00    -0.206 F 
ATOM     83  C   UNL A   1      34.866  34.016  29.622  1.00  0.00     0.060 A 
BRANCH  83  84
ATOM     84  S   UNL A   1      33.503  34.854  28.783  1.00  0.00     0.124 S 
ATOM     85  O   UNL A   1      33.166  33.891  27.740  1.00  0.00    -0.237 OA
ATOM     86  O   UNL A   1      32.525  34.997  29.857  1.00  0.00    -0.237 OA
ATOM     87  O   UNL A   1      34.107  36.099  28.317  1.00  0.00    -0.744 OA
ENDBRANCH  83  84
ENDBRANCH  51  76
BRANCH  63  88
ATOM     88  C   UNL A   1      39.764  33.781  37.299  1.00  0.00     0.058 A 
ATOM     89  C   UNL A   1      40.370  35.045  37.395  1.00  0.00     0.135 A 
ATOM     90  C   UNL A   1      38.892  33.399  38.331  1.00  0.00     0.135 A 
ATOM     91  F   UNL A   1      41.221  35.462  36.443  1.00  0.00    -0.206 F 
ATOM     92  C   UNL A   1      40.136  35.888  38.476  1.00  0.00     0.059 A 
ATOM     93  C   UNL A   1      38.618  34.240  39.408  1.00  0.00     0.059 A 
ATOM     94  F   UNL A   1      38.279  32.205  38.289  1.00  0.00    -0.206 F 
ATOM     95  C   UNL A   1      39.257  35.478  39.478  1.00  0.00     0.060 A 
BRANCH  95  96
ATOM     96  S   UNL A   1      38.941  36.599  40.858  1.00  0.00     0.124 S 
ATOM     97  O   UNL A   1      40.284  36.811  41.387  1.00  0.00    -0.237 OA
ATOM     98  O   UNL A   1      38.334  37.746  40.188  1.00  0.00    -0.237 OA
ATOM     99  O   UNL A   1      38.040  35.836  41.716  1.00  0.00    -0.744 OA
ENDBRANCH  95  96
ENDBRANCH  63  88
ENDBRANCH  37  38
ENDBRANCH  30  32
ENDBRANCH  29  30
ENDBRANCH  28  29
ENDBRANCH  27  28
ENDBRANCH  26  27
ENDBRANCH   1  26
TORSDOF 22
ENDMDL
MODEL 2
REMARK VINA RESULT:     -10.9      1.221      8.286
REMARK SMILES Cc1cc(C)cc(-c2ccc([C@@H](C)C(=O)OCCOCCOCCOC(=O)c3ccc(-c4c5nc(c(-c6c(F)cc(S(=O)(=O)[O-])cc6F)c6ccc([nH]6)c(-c6c(F)cc(S(=O)(=O)[O-])cc6F)c6nc(c(-c7c(F)cc(S(=O)(=O)[O-])cc7F)c7ccc4[nH]7)C=C6)C=C5)cc3)cc2F)c1
REMARK SMILES IDX 21 1 20 2 19 3 18 4 17 5 16 6 14 7 15 8 12 9 13 10 11 11
REMARK SMILES IDX 8 12 9 13 95 14 10 15 94 16 96 17 7 18 1 19 2 20 3 21 97 22
REMARK SMILES IDX 4 23 5 24 6 25 22 26 23 27 24 28 25 29 26 30 27 31 28 32
REMARK SMILES IDX 29 33 93 34 30 35 92 36 31 37 32 38 33 39 86 40 34 41 91 42
REMARK SMILES IDX 85 43 87 44 35 45 90 46 84 47 83 48 36 50 70 51 49 52 69 53
REMARK SMILES IDX 50 54 53 55 68 56 88 57 51 58 52 59 67 61 89 62 54 63 37 64
REMARK SMILES IDX 38 65 47 66 39 67 40 68 46 69 48 70 41 71 42 72 43 73 44 74
REMARK SMILES IDX 45 75 71 76 72 77 81 78 73 79 74 80 80 81 82 82 75 83 76 84
REMARK SMILES IDX 77 85 78 86 79 87 55 88 56 89 65 90 57 91 58 92 64 93 66 94
REMARK SMILES IDX 59 95 60 96 61 97 62 98 63 99
REMARK H PARENT 87 49 53 60
REMARK Flexibility Score: inf
ROOT
ATOM      1  C   UNL A   1      37.770  21.355  24.935  1.00  0.00     0.188 C 
ENDROOT
BRANCH   1   2
ATOM      2  C   UNL A   1      36.293  21.763  24.824  1.00  0.00     0.188 C 
BRANCH   2   3
ATOM      3  O   UNL A   1      35.823  22.868  25.589  1.00  0.00    -0.376 OA
BRANCH   3   4
ATOM      4  C   UNL A   1      35.047  22.625  26.755  1.00  0.00     0.202 C 
BRANCH   4   5
ATOM      5  C   UNL A   1      34.089  21.421  26.771  1.00  0.00     0.261 C 
BRANCH   5   6
ATOM      6  O   UNL A   1      32.688  21.730  26.587  1.00  0.00    -0.463 OA
BRANCH   6   7
ATOM      7  C   UNL A   1      32.161  21.439  25.370  1.00  0.00     0.313 C 
ATOM      8  O   UNL A   1      31.893  20.293  25.015  1.00  0.00    -0.252 OA
BRANCH   7   9
ATOM      9  C   UNL A   1      31.888  22.626  24.440  1.00  0.00     0.126 C 
ATOM     10  C   UNL A   1      32.666  22.408  23.143  1.00  0.00     0.025 C 
BRANCH   9  11
ATOM     11  C   UNL A   1      32.059  24.072  24.910  1.00  0.00    -0.031 A 
ATOM     12  C   UNL A   1      32.489  26.794  25.719  1.00  0.00     0.017 A 
ATOM     13  C   UNL A   1      31.606  25.944  26.413  1.00  0.00     0.012 A 
ATOM     14  C   UNL A   1      33.144  26.251  24.610  1.00  0.00     0.131 A 
ATOM     15  C   UNL A   1      31.399  24.606  26.023  1.00  0.00     0.005 A 
ATOM     16  C   UNL A   1      32.948  24.920  24.216  1.00  0.00     0.044 A 
ATOM     17  F   UNL A   1      34.004  26.998  23.898  1.00  0.00    -0.206 F 
BRANCH  12  18
ATOM     18  C   UNL A   1      32.744  28.171  26.190  1.00  0.00    -0.015 A 
ATOM     19  C   UNL A   1      35.375  30.224  28.079  1.00  0.00     0.044 C 
ATOM     20  C   UNL A   1      34.133  29.843  27.325  1.00  0.00    -0.050 A 
ATOM     21  C   UNL A   1      33.178  30.827  27.042  1.00  0.00     0.006 A 
ATOM     22  C   UNL A   1      33.907  28.520  26.901  1.00  0.00     0.012 A 
ATOM     23  C   UNL A   1      32.008  30.508  26.347  1.00  0.00    -0.050 A 
ATOM     24  C   UNL A   1      30.992  31.573  26.063  1.00  0.00     0.044 C 
ATOM     25  C   UNL A   1      31.804  29.185  25.927  1.00  0.00     0.012 A 
ENDBRANCH  12  18
ENDBRANCH   9  11
ENDBRANCH   7   9
ENDBRANCH   6   7
ENDBRANCH   5   6
ENDBRANCH   4   5
ENDBRANCH   3   4
ENDBRANCH   2   3
ENDBRANCH   1   2
BRANCH   1  26
ATOM     26  O   UNL A   1      38.518  22.100  25.870  1.00  0.00    -0.376 OA
BRANCH  26  27
ATOM     27  C   UNL A   1      39.735  21.533  26.315  1.00  0.00     0.202 C 
BRANCH  27  28
ATOM     28  C   UNL A   1      40.898  22.509  26.554  1.00  0.00     0.261 C 
BRANCH  28  29
ATOM     29  O   UNL A   1      40.560  23.909  26.594  1.00  0.00    -0.460 OA
BRANCH  29  30
ATOM     30  C   UNL A   1      41.585  24.791  26.612  1.00  0.00     0.338 C 
ATOM     31  O   UNL A   1      42.517  24.840  25.821  1.00  0.00    -0.246 OA
BRANCH  30  32
ATOM     32  C   UNL A   1      41.278  25.835  27.618  1.00  0.00     0.060 A 
ATOM     33  C   UNL A   1      42.163  26.913  27.777  1.00  0.00     0.016 A 
ATOM     34  C   UNL A   1      40.125  25.754  28.403  1.00  0.00     0.016 A 
ATOM     35  C   UNL A   1      41.914  27.889  28.747  1.00  0.00     0.010 A 
ATOM     36  C   UNL A   1      39.890  26.721  29.388  1.00  0.00     0.010 A 
ATOM     37  C   UNL A   1      40.800  27.775  29.590  1.00  0.00    -0.014 A 
BRANCH  37  38
ATOM     38  C   UNL A   1      40.685  28.643  30.792  1.00  0.00     0.031 A 
ATOM     39  C   UNL A   1      39.650  29.739  30.790  1.00  0.00     0.074 A 
ATOM     40  C   UNL A   1      41.459  28.455  31.877  1.00  0.00     0.049 A 
ATOM     41  N   UNL A   1      39.397  30.645  31.699  1.00  0.00    -0.248 NA
ATOM     42  C   UNL A   1      38.786  29.822  29.601  1.00  0.00     0.031 C 
ATOM     43  C   UNL A   1      42.467  27.407  32.025  1.00  0.00     0.029 A 
ATOM     44  N   UNL A   1      41.519  29.149  33.062  1.00  0.00    -0.354 N 
ATOM     45  C   UNL A   1      38.350  31.407  31.191  1.00  0.00     0.074 A 
ATOM     46  C   UNL A   1      38.039  30.880  29.880  1.00  0.00     0.031 C 
ATOM     47  C   UNL A   1      43.047  27.529  33.232  1.00  0.00     0.029 A 
ATOM     48  C   UNL A   1      42.480  28.684  33.929  1.00  0.00     0.049 A 
ATOM     49  H   UNL A   1      40.928  29.909  33.271  1.00  0.00     0.167 HD
ATOM     50  C   UNL A   1      37.698  32.443  31.771  1.00  0.00     0.037 A 
ATOM     51  C   UNL A   1      42.870  29.146  35.136  1.00  0.00     0.037 A 
ATOM     52  C   UNL A   1      38.007  32.964  33.077  1.00  0.00     0.049 A 
ATOM     53  C   UNL A   1      42.181  30.349  35.729  1.00  0.00     0.074 A 
ATOM     54  C   UNL A   1      37.392  34.004  33.753  1.00  0.00     0.029 A 
ATOM     55  N   UNL A   1      39.015  32.493  33.904  1.00  0.00    -0.354 N 
ATOM     56  N   UNL A   1      41.187  31.055  35.243  1.00  0.00    -0.248 NA
ATOM     57  C   UNL A   1      42.664  30.820  37.036  1.00  0.00     0.031 C 
ATOM     58  C   UNL A   1      38.065  34.198  34.962  1.00  0.00     0.029 A 
ATOM     59  C   UNL A   1      39.058  33.238  35.071  1.00  0.00     0.049 A 
ATOM     60  H   UNL A   1      39.613  31.738  33.693  1.00  0.00     0.167 HD
ATOM     61  C   UNL A   1      40.911  32.035  36.193  1.00  0.00     0.074 A 
ATOM     62  C   UNL A   1      41.832  31.822  37.289  1.00  0.00     0.031 C 
ATOM     63  C   UNL A   1      39.979  33.021  36.160  1.00  0.00     0.037 A 
BRANCH  50  64
ATOM     64  C   UNL A   1      36.589  33.099  30.993  1.00  0.00     0.058 A 
ATOM     65  C   UNL A   1      36.883  34.031  29.984  1.00  0.00     0.135 A 
ATOM     66  C   UNL A   1      35.237  32.857  31.286  1.00  0.00     0.135 A 
ATOM     67  F   UNL A   1      38.157  34.295  29.655  1.00  0.00    -0.206 F 
ATOM     68  C   UNL A   1      35.877  34.716  29.310  1.00  0.00     0.059 A 
ATOM     69  C   UNL A   1      34.214  33.509  30.604  1.00  0.00     0.059 A 
ATOM     70  F   UNL A   1      34.899  31.958  32.224  1.00  0.00    -0.206 F 
ATOM     71  C   UNL A   1      34.545  34.450  29.628  1.00  0.00     0.060 A 
BRANCH  71  72
ATOM     72  S   UNL A   1      33.253  35.332  28.726  1.00  0.00     0.124 S 
ATOM     73  O   UNL A   1      34.034  36.247  27.901  1.00  0.00    -0.237 OA
ATOM     74  O   UNL A   1      32.583  34.248  28.015  1.00  0.00    -0.237 OA
ATOM     75  O   UNL A   1      32.466  35.956  29.786  1.00  0.00    -0.744 OA
ENDBRANCH  71  72
ENDBRANCH  50  64
BRANCH  51  76
ATOM     76  C   UNL A   1      43.972  28.462  35.868  1.00  0.00     0.058 A 
ATOM     77  C   UNL A   1      43.708  27.437  36.789  1.00  0.00     0.135 A 
ATOM     78  C   UNL A   1      45.312  28.835  35.675  1.00  0.00     0.135 A 
ATOM     79  F   UNL A   1      42.445  27.039  37.011  1.00  0.00    -0.206 F 
ATOM     80  C   UNL A   1      44.726  26.829  37.518  1.00  0.00     0.059 A 
ATOM     81  C   UNL A   1      46.350  28.222  36.371  1.00  0.00     0.059 A 
ATOM     82  F   UNL A   1      45.619  29.793  34.788  1.00  0.00    -0.206 F 
ATOM     83  C   UNL A   1      46.044  27.233  37.305  1.00  0.00     0.060 A 
BRANCH  83  84
ATOM     84  S   UNL A   1      47.347  26.448  38.280  1.00  0.00     0.124 S 
ATOM     85  O   UNL A   1      46.702  26.325  39.583  1.00  0.00    -0.237 OA
ATOM     86  O   UNL A   1      47.561  25.201  37.555  1.00  0.00    -0.237 OA
ATOM     87  O   UNL A   1      48.445  27.408  38.211  1.00  0.00    -0.744 OA
ENDBRANCH  83  84
ENDBRANCH  51  76
BRANCH  63  88
ATOM     88  C   UNL A   1      39.881  33.940  37.350  1.00  0.00     0.058 A 
ATOM     89  C   UNL A   1      40.651  35.114  37.410  1.00  0.00     0.135 A 
ATOM     90  C   UNL A   1      39.081  33.630  38.461  1.00  0.00     0.135 A 
ATOM     91  F   UNL A   1      41.443  35.458  36.382  1.00  0.00    -0.206 F 
ATOM     92  C   UNL A   1      40.642  35.937  38.532  1.00  0.00     0.059 A 
ATOM     93  C   UNL A   1      39.031  34.456  39.581  1.00  0.00     0.059 A 
ATOM     94  F   UNL A   1      38.319  32.524  38.455  1.00  0.00    -0.206 F 
ATOM     95  C   UNL A   1      39.827  35.601  39.613  1.00  0.00     0.060 A 
BRANCH  95  96
ATOM     96  S   UNL A   1      39.804  36.698  41.047  1.00  0.00     0.124 S 
ATOM     97  O   UNL A   1      38.903  37.755  40.602  1.00  0.00    -0.237 OA
ATOM     98  O   UNL A   1      39.288  35.822  42.095  1.00  0.00    -0.237 OA
ATOM     99  O   UNL A   1      41.203  37.087  41.198  1.00  0.00    -0.744 OA
ENDBRANCH  95  96
ENDBRANCH  63  88
ENDBRANCH  37  38
ENDBRANCH  30  32
ENDBRANCH  29  30
ENDBRANCH  28  29
ENDBRANCH  27  28
ENDBRANCH  26  27
ENDBRANCH   1  26
TORSDOF 22
ENDMDL
MODEL 3
REMARK VINA RESULT:     -10.7      1.265      2.410
REMARK SMILES Cc1cc(C)cc(-c2ccc([C@@H](C)C(=O)OCCOCCOCCOC(=O)c3ccc(-c4c5nc(c(-c6c(F)cc(S(=O)(=O)[O-])cc6F)c6ccc([nH]6)c(-c6c(F)cc(S(=O)(=O)[O-])cc6F)c6nc(c(-c7c(F)cc(S(=O)(=O)[O-])cc7F)c7ccc4[nH]7)C=C6)C=C5)cc3)cc2F)c1
REMARK SMILES IDX 21 1 20 2 19 3 18 4 17 5 16 6 14 7 15 8 12 9 13 10 11 11
REMARK SMILES IDX 8 12 9 13 95 14 10 15 94 16 96 17 7 18 1 19 2 20 3 21 97 22
REMARK SMILES IDX 4 23 5 24 6 25 22 26 23 27 24 28 25 29 26 30 27 31 28 32
REMARK SMILES IDX 29 33 93 34 30 35 92 36 31 37 32 38 33 39 86 40 34 41 91 42
REMARK SMILES IDX 85 43 87 44 35 45 90 46 84 47 83 48 36 50 70 51 49 52 69 53
REMARK SMILES IDX 50 54 53 55 68 56 88 57 51 58 52 59 67 61 89 62 54 63 37 64
REMARK SMILES IDX 38 65 47 66 39 67 40 68 46 69 48 70 41 71 42 72 43 73 44 74
REMARK SMILES IDX 45 75 71 76 72 77 81 78 73 79 74 80 80 81 82 82 75 83 76 84
REMARK SMILES IDX 77 85 78 86 79 87 55 88 56 89 65 90 57 91 58 92 64 93 66 94
REMARK SMILES IDX 59 95 60 96 61 97 62 98 63 99
REMARK H PARENT 87 49 53 60
REMARK Flexibility Score: inf
ROOT
ATOM      1  C   UNL A   1      36.953  22.191  24.615  1.00  0.00     0.188 C 
ENDROOT
BRANCH   1   2
ATOM      2  C   UNL A   1      35.744  23.138  24.571  1.00  0.00     0.188 C 
BRANCH   2   3
ATOM      3  O   UNL A   1      35.408  23.882  25.736  1.00  0.00    -0.376 OA
BRANCH   3   4
ATOM      4  C   UNL A   1      34.732  23.232  26.805  1.00  0.00     0.202 C 
BRANCH   4   5
ATOM      5  C   UNL A   1      34.314  21.762  26.632  1.00  0.00     0.261 C 
BRANCH   5   6
ATOM      6  O   UNL A   1      32.929  21.540  26.277  1.00  0.00    -0.463 OA
BRANCH   6   7
ATOM      7  C   UNL A   1      32.645  21.511  24.949  1.00  0.00     0.313 C 
ATOM      8  O   UNL A   1      33.044  20.621  24.201  1.00  0.00    -0.252 OA
BRANCH   7   9
ATOM      9  C   UNL A   1      31.769  22.647  24.411  1.00  0.00     0.126 C 
ATOM     10  C   UNL A   1      31.803  22.597  22.884  1.00  0.00     0.025 C 
BRANCH   9  11
ATOM     11  C   UNL A   1      31.942  24.091  24.887  1.00  0.00    -0.031 A 
ATOM     12  C   UNL A   1      32.358  26.818  25.685  1.00  0.00     0.017 A 
ATOM     13  C   UNL A   1      31.709  25.890  26.522  1.00  0.00     0.012 A 
ATOM     14  C   UNL A   1      32.786  26.349  24.439  1.00  0.00     0.131 A 
ATOM     15  C   UNL A   1      31.511  24.550  26.137  1.00  0.00     0.005 A 
ATOM     16  C   UNL A   1      32.597  25.017  24.048  1.00  0.00     0.044 A 
ATOM     17  F   UNL A   1      33.415  27.174  23.585  1.00  0.00    -0.206 F 
BRANCH  12  18
ATOM     18  C   UNL A   1      32.618  28.200  26.140  1.00  0.00    -0.015 A 
ATOM     19  C   UNL A   1      31.025  31.687  26.106  1.00  0.00     0.044 C 
ATOM     20  C   UNL A   1      31.983  30.558  26.355  1.00  0.00    -0.050 A 
ATOM     21  C   UNL A   1      33.169  30.812  27.056  1.00  0.00     0.006 A 
ATOM     22  C   UNL A   1      31.719  29.254  25.898  1.00  0.00     0.012 A 
ATOM     23  C   UNL A   1      34.087  29.787  27.301  1.00  0.00    -0.050 A 
ATOM     24  C   UNL A   1      35.356  30.082  28.044  1.00  0.00     0.044 C 
ATOM     25  C   UNL A   1      33.802  28.493  26.843  1.00  0.00     0.012 A 
ENDBRANCH  12  18
ENDBRANCH   9  11
ENDBRANCH   7   9
ENDBRANCH   6   7
ENDBRANCH   5   6
ENDBRANCH   4   5
ENDBRANCH   3   4
ENDBRANCH   2   3
ENDBRANCH   1   2
BRANCH   1  26
ATOM     26  O   UNL A   1      38.009  22.622  25.445  1.00  0.00    -0.376 OA
BRANCH  26  27
ATOM     27  C   UNL A   1      38.916  21.635  25.893  1.00  0.00     0.202 C 
BRANCH  27  28
ATOM     28  C   UNL A   1      40.247  22.139  26.471  1.00  0.00     0.261 C 
BRANCH  28  29
ATOM     29  O   UNL A   1      40.421  23.568  26.522  1.00  0.00    -0.460 OA
BRANCH  29  30
ATOM     30  C   UNL A   1      41.588  24.031  27.024  1.00  0.00     0.338 C 
ATOM     31  O   UNL A   1      42.713  23.658  26.715  1.00  0.00    -0.246 OA
BRANCH  30  32
ATOM     32  C   UNL A   1      41.295  25.224  27.851  1.00  0.00     0.060 A 
ATOM     33  C   UNL A   1      42.316  26.155  28.097  1.00  0.00     0.016 A 
ATOM     34  C   UNL A   1      40.020  25.429  28.384  1.00  0.00     0.016 A 
ATOM     35  C   UNL A   1      42.073  27.268  28.906  1.00  0.00     0.010 A 
ATOM     36  C   UNL A   1      39.785  26.533  29.212  1.00  0.00     0.010 A 
ATOM     37  C   UNL A   1      40.818  27.441  29.507  1.00  0.00    -0.014 A 
BRANCH  37  38
ATOM     38  C   UNL A   1      40.640  28.455  30.580  1.00  0.00     0.031 A 
ATOM     39  C   UNL A   1      41.522  28.373  31.800  1.00  0.00     0.074 A 
ATOM     40  C   UNL A   1      39.735  29.446  30.473  1.00  0.00     0.049 A 
ATOM     41  N   UNL A   1      41.519  29.112  32.878  1.00  0.00    -0.248 NA
ATOM     42  C   UNL A   1      42.543  27.313  31.800  1.00  0.00     0.031 C 
ATOM     43  C   UNL A   1      38.852  29.665  29.330  1.00  0.00     0.029 A 
ATOM     44  N   UNL A   1      39.409  30.454  31.348  1.00  0.00    -0.354 N 
ATOM     45  C   UNL A   1      42.532  28.605  33.686  1.00  0.00     0.074 A 
ATOM     46  C   UNL A   1      43.104  27.474  32.989  1.00  0.00     0.031 C 
ATOM     47  C   UNL A   1      38.081  30.739  29.575  1.00  0.00     0.029 A 
ATOM     48  C   UNL A   1      38.389  31.264  30.906  1.00  0.00     0.049 A 
ATOM     49  H   UNL A   1      39.863  30.586  32.212  1.00  0.00     0.167 HD
ATOM     50  C   UNL A   1      42.956  29.050  34.893  1.00  0.00     0.037 A 
ATOM     51  C   UNL A   1      37.763  32.297  31.509  1.00  0.00     0.037 A 
ATOM     52  C   UNL A   1      42.388  30.179  35.584  1.00  0.00     0.049 A 
ATOM     53  C   UNL A   1      38.201  32.727  32.887  1.00  0.00     0.074 A 
ATOM     54  C   UNL A   1      42.760  30.712  36.805  1.00  0.00     0.029 A 
ATOM     55  N   UNL A   1      41.328  30.945  35.121  1.00  0.00    -0.354 N 
ATOM     56  N   UNL A   1      39.166  32.245  33.636  1.00  0.00    -0.248 NA
ATOM     57  C   UNL A   1      37.468  33.844  33.503  1.00  0.00     0.031 C 
ATOM     58  C   UNL A   1      41.889  31.763  37.108  1.00  0.00     0.029 A 
ATOM     59  C   UNL A   1      41.015  31.928  36.046  1.00  0.00     0.049 A 
ATOM     60  H   UNL A   1      40.866  30.810  34.261  1.00  0.00     0.167 HD
ATOM     61  C   UNL A   1      39.170  33.014  34.797  1.00  0.00     0.074 A 
ATOM     62  C   UNL A   1      38.123  34.002  34.646  1.00  0.00     0.031 C 
ATOM     63  C   UNL A   1      39.969  32.910  35.889  1.00  0.00     0.037 A 
BRANCH  50  64
ATOM     64  C   UNL A   1      44.084  28.310  35.559  1.00  0.00     0.058 A 
ATOM     65  C   UNL A   1      45.415  28.550  35.178  1.00  0.00     0.135 A 
ATOM     66  C   UNL A   1      43.850  27.319  36.525  1.00  0.00     0.135 A 
ATOM     67  F   UNL A   1      45.699  29.493  34.266  1.00  0.00    -0.206 F 
ATOM     68  C   UNL A   1      46.469  27.820  35.715  1.00  0.00     0.059 A 
ATOM     69  C   UNL A   1      44.892  26.595  37.097  1.00  0.00     0.059 A 
ATOM     70  F   UNL A   1      42.600  27.065  36.944  1.00  0.00    -0.206 F 
ATOM     71  C   UNL A   1      46.198  26.842  36.673  1.00  0.00     0.060 A 
BRANCH  71  72
ATOM     72  S   UNL A   1      47.582  25.919  37.375  1.00  0.00     0.124 S 
ATOM     73  O   UNL A   1      46.903  25.000  38.281  1.00  0.00    -0.237 OA
ATOM     74  O   UNL A   1      48.180  25.317  36.188  1.00  0.00    -0.237 OA
ATOM     75  O   UNL A   1      48.389  26.954  38.016  1.00  0.00    -0.744 OA
ENDBRANCH  71  72
ENDBRANCH  50  64
BRANCH  51  76
ATOM     76  C   UNL A   1      36.652  33.000  30.810  1.00  0.00     0.058 A 
ATOM     77  C   UNL A   1      36.904  33.892  29.756  1.00  0.00     0.135 A 
ATOM     78  C   UNL A   1      35.316  32.807  31.194  1.00  0.00     0.135 A 
ATOM     79  F   UNL A   1      38.163  34.112  29.345  1.00  0.00    -0.206 F 
ATOM     80  C   UNL A   1      35.877  34.594  29.132  1.00  0.00     0.059 A 
ATOM     81  C   UNL A   1      34.269  33.476  30.566  1.00  0.00     0.059 A 
ATOM     82  F   UNL A   1      35.021  31.946  32.180  1.00  0.00    -0.206 F 
ATOM     83  C   UNL A   1      34.563  34.382  29.548  1.00  0.00     0.060 A 
BRANCH  83  84
ATOM     84  S   UNL A   1      33.248  35.323  28.742  1.00  0.00     0.124 S 
ATOM     85  O   UNL A   1      32.535  35.872  29.890  1.00  0.00    -0.237 OA
ATOM     86  O   UNL A   1      34.005  36.282  27.945  1.00  0.00    -0.237 OA
ATOM     87  O   UNL A   1      32.525  34.309  27.980  1.00  0.00    -0.744 OA
ENDBRANCH  83  84
ENDBRANCH  51  76
BRANCH  63  88
ATOM     88  C   UNL A   1      39.770  33.899  37.008  1.00  0.00     0.058 A 
ATOM     89  C   UNL A   1      40.463  35.122  37.011  1.00  0.00     0.135 A 
ATOM     90  C   UNL A   1      38.951  33.613  38.111  1.00  0.00     0.135 A 
ATOM     91  F   UNL A   1      41.269  35.446  35.987  1.00  0.00    -0.206 F 
ATOM     92  C   UNL A   1      40.361  36.016  38.071  1.00  0.00     0.059 A 
ATOM     93  C   UNL A   1      38.809  34.508  39.169  1.00  0.00     0.059 A 
ATOM     94  F   UNL A   1      38.260  32.463  38.158  1.00  0.00    -0.206 F 
ATOM     95  C   UNL A   1      39.530  35.702  39.146  1.00  0.00     0.060 A 
BRANCH  95  96
ATOM     96  S   UNL A   1      39.387  36.890  40.498  1.00  0.00     0.124 S 
ATOM     97  O   UNL A   1      40.744  36.902  41.033  1.00  0.00    -0.237 OA
ATOM     98  O   UNL A   1      38.968  38.102  39.799  1.00  0.00    -0.237 OA
ATOM     99  O   UNL A   1      38.375  36.295  41.367  1.00  0.00    -0.744 OA
ENDBRANCH  95  96
ENDBRANCH  63  88
ENDBRANCH  37  38
ENDBRANCH  30  32
ENDBRANCH  29  30
ENDBRANCH  28  29
ENDBRANCH  27  28
ENDBRANCH  26  27
ENDBRANCH   1  26
TORSDOF 22
ENDMDL
