MODEL 1
REMARK VINA RESULT:     -11.4      0.000      0.000
REMARK SMILES O=C(OCCOCCOCCOC(=O)c1ccc(-c2c3nc(c(-c4c(F)cc(S(=O)(=O)[O-])cc4F)c4ccc([nH]4)c(-c4c(F)cc(S(=O)(=O)[O-])cc4F)c4nc(c(-c5c(F)cc(S(=O)(=O)[O-])cc5F)c5ccc2[nH]5)C=C4)C=C3)cc1)C1=Cc2cc(S(F)(F)(F)(F)F)cc(Br)c2O[C@@H]1C(F)(F)F
REMARK SMILES IDX 8 1 7 2 6 3 5 4 4 5 3 6 2 7 1 8 81 9 82 10 97 11 83 12 96 13
REMARK SMILES IDX 84 14 95 15 85 16 93 17 92 18 94 19 98 20 99 21 100 22
REMARK SMILES IDX 101 23 86 24 87 25 88 26 89 27 90 28 91 29 9 30 10 31 11 32
REMARK SMILES IDX 12 33 13 34 14 35 15 36 16 37 80 38 17 39 79 40 18 41 19 42
REMARK SMILES IDX 20 43 73 44 21 45 78 46 72 47 74 48 22 49 77 50 71 51 70 52
REMARK SMILES IDX 23 54 57 55 36 56 56 57 37 58 40 59 55 60 75 61 38 62 39 63
REMARK SMILES IDX 54 65 76 66 41 67 24 68 25 69 34 70 26 71 27 72 33 73 35 74
REMARK SMILES IDX 28 75 29 76 30 77 31 78 32 79 58 80 59 81 68 82 60 83 61 84
REMARK SMILES IDX 67 85 69 86 62 87 63 88 64 89 65 90 66 91 42 92 43 93 52 94
REMARK SMILES IDX 44 95 45 96 51 97 53 98 46 99 47 100 48 101 49 102 50 103
REMARK H PARENT 74 53 40 64
REMARK Flexibility Score: inf
ROOT
ATOM      1  C   UNL A   1      32.453  27.823  24.241  1.00  0.00     0.188 C 
ENDROOT
BRANCH   1   2
ATOM      2  C   UNL A   1      31.696  27.511  22.960  1.00  0.00     0.188 C 
BRANCH   2   3
ATOM      3  O   UNL A   1      32.576  26.902  22.026  1.00  0.00    -0.376 OA
BRANCH   3   4
ATOM      4  C   UNL A   1      32.058  25.635  21.646  1.00  0.00     0.202 C 
BRANCH   4   5
ATOM      5  C   UNL A   1      33.202  24.648  21.482  1.00  0.00     0.261 C 
BRANCH   5   6
ATOM      6  O   UNL A   1      33.097  23.634  22.471  1.00  0.00    -0.460 OA
BRANCH   6   7
ATOM      7  C   UNL A   1      32.975  23.989  23.841  1.00  0.00     0.338 C 
ATOM      8  O   UNL A   1      33.890  24.667  24.405  1.00  0.00    -0.246 OA
BRANCH   7   9
ATOM      9  C   UNL A   1      31.751  23.558  24.632  1.00  0.00     0.087 C 
ATOM     10  C   UNL A   1      31.683  22.303  25.150  1.00  0.00     0.027 C 
ATOM     11  C   UNL A   1      30.602  24.531  24.843  1.00  0.00     0.316 C 
ATOM     12  C   UNL A   1      32.832  21.330  24.938  1.00  0.00     0.020 A 
ATOM     13  O   UNL A   1      34.357  23.098  25.384  1.00  0.00    -0.474 OA
ATOM     14  C   UNL A   1      32.539  20.044  24.515  1.00  0.00     0.036 A 
ATOM     15  C   UNL A   1      34.087  21.732  25.107  1.00  0.00     0.142 A 
ATOM     16  C   UNL A   1      33.641  19.158  24.573  1.00  0.00     0.109 A 
ATOM     17  C   UNL A   1      35.125  20.837  25.014  1.00  0.00     0.062 A 
ATOM     18  C   UNL A   1      34.904  19.536  24.659  1.00  0.00     0.044 A 
ATOM     19  Br  UNL A   1      36.952  21.436  25.399  1.00  0.00    -0.047 Br
BRANCH  11  20
ATOM     20  C   UNL A   1      30.399  24.759  26.332  1.00  0.00     0.430 C 
ATOM     21  F   UNL A   1      29.786  23.705  26.863  1.00  0.00    -0.167 F 
ATOM     22  F   UNL A   1      31.580  24.927  26.920  1.00  0.00    -0.167 F 
ATOM     23  F   UNL A   1      29.654  25.844  26.517  1.00  0.00    -0.167 F 
ENDBRANCH  11  20
BRANCH  16  24
ATOM     24  S   UNL A   1      33.296  17.382  24.526  1.00  0.00     0.310 S 
ATOM     25  F   UNL A   1      31.742  17.626  24.320  1.00  0.00    -0.094 F 
ATOM     26  F   UNL A   1      33.026  17.419  26.078  1.00  0.00    -0.094 F 
ATOM     27  F   UNL A   1      32.999  15.856  24.484  1.00  0.00    -0.094 F 
ATOM     28  F   UNL A   1      33.432  17.390  22.952  1.00  0.00    -0.094 F 
ATOM     29  F   UNL A   1      33.488  18.950  24.538  1.00  0.00    -0.094 F 
ENDBRANCH  16  24
ENDBRANCH   7   9
ENDBRANCH   6   7
ENDBRANCH   5   6
ENDBRANCH   4   5
ENDBRANCH   3   4
ENDBRANCH   2   3
ENDBRANCH   1   2
BRANCH   1  30
ATOM     30  O   UNL A   1      31.533  28.211  25.251  1.00  0.00    -0.376 OA
BRANCH  30  31
ATOM     31  C   UNL A   1      31.896  29.487  25.757  1.00  0.00     0.202 C 
BRANCH  31  32
ATOM     32  C   UNL A   1      32.460  29.333  27.160  1.00  0.00     0.261 C 
BRANCH  32  33
ATOM     33  O   UNL A   1      33.880  29.340  27.103  1.00  0.00    -0.460 OA
BRANCH  33  34
ATOM     34  C   UNL A   1      34.616  30.279  27.873  1.00  0.00     0.338 C 
ATOM     35  O   UNL A   1      34.060  31.351  28.270  1.00  0.00    -0.246 OA
BRANCH  34  36
ATOM     36  C   UNL A   1      36.069  30.002  28.223  1.00  0.00     0.060 A 
ATOM     37  C   UNL A   1      37.041  30.212  27.259  1.00  0.00     0.016 A 
ATOM     38  C   UNL A   1      36.374  29.485  29.407  1.00  0.00     0.016 A 
ATOM     39  C   UNL A   1      38.272  29.571  27.536  1.00  0.00     0.010 A 
ATOM     40  C   UNL A   1      37.636  29.001  29.655  1.00  0.00     0.010 A 
ATOM     41  C   UNL A   1      38.631  29.121  28.724  1.00  0.00    -0.014 A 
BRANCH  41  42
ATOM     42  C   UNL A   1      40.071  28.756  29.041  1.00  0.00     0.031 A 
ATOM     43  C   UNL A   1      40.536  27.480  28.721  1.00  0.00     0.074 A 
ATOM     44  C   UNL A   1      40.870  29.766  29.550  1.00  0.00     0.049 A 
ATOM     45  N   UNL A   1      41.787  27.024  28.808  1.00  0.00    -0.248 NA
ATOM     46  C   UNL A   1      39.683  26.396  28.212  1.00  0.00     0.031 C 
ATOM     47  C   UNL A   1      40.411  31.059  29.868  1.00  0.00     0.029 A 
ATOM     48  N   UNL A   1      42.216  29.715  29.839  1.00  0.00    -0.354 N 
ATOM     49  C   UNL A   1      41.845  25.756  28.394  1.00  0.00     0.074 A 
ATOM     50  C   UNL A   1      40.492  25.333  28.010  1.00  0.00     0.031 C 
ATOM     51  C   UNL A   1      41.461  31.773  30.352  1.00  0.00     0.029 A 
ATOM     52  C   UNL A   1      42.595  30.939  30.343  1.00  0.00     0.049 A 
ATOM     53  H   UNL A   1      42.806  28.938  29.707  1.00  0.00     0.167 HD
ATOM     54  C   UNL A   1      42.974  24.939  28.319  1.00  0.00     0.037 A 
ATOM     55  C   UNL A   1      43.852  31.325  30.779  1.00  0.00     0.037 A 
ATOM     56  C   UNL A   1      44.241  25.339  28.714  1.00  0.00     0.049 A 
ATOM     57  C   UNL A   1      44.971  30.488  30.759  1.00  0.00     0.074 A 
ATOM     58  C   UNL A   1      45.390  24.530  28.638  1.00  0.00     0.029 A 
ATOM     59  N   UNL A   1      44.614  26.555  29.242  1.00  0.00    -0.354 N 
ATOM     60  N   UNL A   1      45.037  29.234  30.308  1.00  0.00    -0.248 NA
ATOM     61  C   UNL A   1      46.301  30.875  31.248  1.00  0.00     0.031 C 
ATOM     62  C   UNL A   1      46.441  25.244  29.122  1.00  0.00     0.029 A 
ATOM     63  C   UNL A   1      45.965  26.512  29.508  1.00  0.00     0.049 A 
ATOM     64  H   UNL A   1      44.019  27.323  29.401  1.00  0.00     0.167 HD
ATOM     65  C   UNL A   1      46.280  28.765  30.434  1.00  0.00     0.074 A 
ATOM     66  C   UNL A   1      47.109  29.811  31.047  1.00  0.00     0.031 C 
ATOM     67  C   UNL A   1      46.757  27.508  30.060  1.00  0.00     0.037 A 
BRANCH  54  68
ATOM     68  C   UNL A   1      42.805  23.530  27.773  1.00  0.00     0.058 A 
ATOM     69  C   UNL A   1      43.107  23.362  26.431  1.00  0.00     0.135 A 
ATOM     70  C   UNL A   1      42.438  22.504  28.530  1.00  0.00     0.135 A 
ATOM     71  F   UNL A   1      43.714  24.294  25.703  1.00  0.00    -0.206 F 
ATOM     72  C   UNL A   1      42.710  22.109  25.907  1.00  0.00     0.059 A 
ATOM     73  C   UNL A   1      42.198  21.272  27.970  1.00  0.00     0.059 A 
ATOM     74  F   UNL A   1      42.301  22.668  29.843  1.00  0.00    -0.206 F 
ATOM     75  C   UNL A   1      42.419  21.049  26.639  1.00  0.00     0.060 A 
BRANCH  75  76
ATOM     76  S   UNL A   1      42.317  19.393  25.920  1.00  0.00     0.124 S 
ATOM     77  O   UNL A   1      43.103  19.355  24.608  1.00  0.00    -0.237 OA
ATOM     78  O   UNL A   1      42.908  18.374  26.898  1.00  0.00    -0.237 OA
ATOM     79  O   UNL A   1      40.679  19.004  25.614  1.00  0.00    -0.744 OA
ENDBRANCH  75  76
ENDBRANCH  54  68
BRANCH  55  80
ATOM     80  C   UNL A   1      44.025  32.739  31.310  1.00  0.00     0.058 A 
ATOM     81  C   UNL A   1      43.876  33.008  32.660  1.00  0.00     0.135 A 
ATOM     82  C   UNL A   1      44.238  33.713  30.433  1.00  0.00     0.135 A 
ATOM     83  F   UNL A   1      43.915  32.064  33.596  1.00  0.00    -0.206 F 
ATOM     84  C   UNL A   1      43.679  34.378  32.954  1.00  0.00     0.059 A 
ATOM     85  C   UNL A   1      44.164  35.030  30.819  1.00  0.00     0.059 A 
ATOM     86  F   UNL A   1      44.526  33.411  29.171  1.00  0.00    -0.206 F 
ATOM     87  C   UNL A   1      43.960  35.369  32.128  1.00  0.00     0.060 A 
BRANCH  87  88
ATOM     88  S   UNL A   1      44.070  37.084  32.697  1.00  0.00     0.124 S 
ATOM     89  O   UNL A   1      45.465  37.343  33.270  1.00  0.00    -0.237 OA
ATOM     90  O   UNL A   1      43.820  38.028  31.518  1.00  0.00    -0.237 OA
ATOM     91  O   UNL A   1      42.895  37.360  33.907  1.00  0.00    -0.744 OA
ENDBRANCH  87  88
ENDBRANCH  55  80
BRANCH  67  92
ATOM     92  C   UNL A   1      48.233  27.213  30.268  1.00  0.00     0.058 A 
ATOM     93  C   UNL A   1      48.630  26.593  31.441  1.00  0.00     0.135 A 
ATOM     94  C   UNL A   1      49.121  27.612  29.365  1.00  0.00     0.135 A 
ATOM     95  F   UNL A   1      47.785  25.956  32.247  1.00  0.00    -0.206 F 
ATOM     96  C   UNL A   1      50.017  26.698  31.705  1.00  0.00     0.059 A 
ATOM     97  C   UNL A   1      50.466  27.561  29.637  1.00  0.00     0.059 A 
ATOM     98  F   UNL A   1      48.703  28.066  28.186  1.00  0.00    -0.206 F 
ATOM     99  C   UNL A   1      50.928  27.015  30.802  1.00  0.00     0.060 A 
BRANCH  99 100
ATOM    100  S   UNL A   1      52.693  26.740  31.094  1.00  0.00     0.124 S 
ATOM    101  O   UNL A   1      53.369  26.331  29.782  1.00  0.00    -0.237 OA
ATOM    102  O   UNL A   1      53.331  28.029  31.616  1.00  0.00    -0.237 OA
ATOM    103  O   UNL A   1      52.893  25.496  32.251  1.00  0.00    -0.744 OA
ENDBRANCH  99 100
ENDBRANCH  67  92
ENDBRANCH  41  42
ENDBRANCH  34  36
ENDBRANCH  33  34
ENDBRANCH  32  33
ENDBRANCH  31  32
ENDBRANCH  30  31
ENDBRANCH   1  30
TORSDOF 22
ENDMDL
MODEL 2
REMARK VINA RESULT:     -11.2      4.848     10.074
REMARK SMILES O=C(OCCOCCOCCOC(=O)c1ccc(-c2c3nc(c(-c4c(F)cc(S(=O)(=O)[O-])cc4F)c4ccc([nH]4)c(-c4c(F)cc(S(=O)(=O)[O-])cc4F)c4nc(c(-c5c(F)cc(S(=O)(=O)[O-])cc5F)c5ccc2[nH]5)C=C4)C=C3)cc1)C1=Cc2cc(S(F)(F)(F)(F)F)cc(Br)c2O[C@@H]1C(F)(F)F
REMARK SMILES IDX 8 1 7 2 6 3 5 4 4 5 3 6 2 7 1 8 81 9 82 10 97 11 83 12 96 13
REMARK SMILES IDX 84 14 95 15 85 16 93 17 92 18 94 19 98 20 99 21 100 22
REMARK SMILES IDX 101 23 86 24 87 25 88 26 89 27 90 28 91 29 9 30 10 31 11 32
REMARK SMILES IDX 12 33 13 34 14 35 15 36 16 37 80 38 17 39 79 40 18 41 19 42
REMARK SMILES IDX 20 43 73 44 21 45 78 46 72 47 74 48 22 49 77 50 71 51 70 52
REMARK SMILES IDX 23 54 57 55 36 56 56 57 37 58 40 59 55 60 75 61 38 62 39 63
REMARK SMILES IDX 54 65 76 66 41 67 24 68 25 69 34 70 26 71 27 72 33 73 35 74
REMARK SMILES IDX 28 75 29 76 30 77 31 78 32 79 58 80 59 81 68 82 60 83 61 84
REMARK SMILES IDX 67 85 69 86 62 87 63 88 64 89 65 90 66 91 42 92 43 93 52 94
REMARK SMILES IDX 44 95 45 96 51 97 53 98 46 99 47 100 48 101 49 102 50 103
REMARK H PARENT 74 53 40 64
REMARK Flexibility Score: inf
ROOT
ATOM      1  C   UNL A   1      40.790  21.841  26.209  1.00  0.00     0.188 C 
ENDROOT
BRANCH   1   2
ATOM      2  C   UNL A   1      39.303  22.155  26.223  1.00  0.00     0.188 C 
BRANCH   2   3
ATOM      3  O   UNL A   1      38.594  21.121  25.558  1.00  0.00    -0.376 OA
BRANCH   3   4
ATOM      4  C   UNL A   1      37.490  21.678  24.858  1.00  0.00     0.202 C 
BRANCH   4   5
ATOM      5  C   UNL A   1      37.051  22.961  25.543  1.00  0.00     0.261 C 
BRANCH   5   6
ATOM      6  O   UNL A   1      36.261  23.729  24.647  1.00  0.00    -0.460 OA
BRANCH   6   7
ATOM      7  C   UNL A   1      35.269  23.093  23.852  1.00  0.00     0.338 C 
ATOM      8  O   UNL A   1      35.372  23.096  22.585  1.00  0.00    -0.246 OA
BRANCH   7   9
ATOM      9  C   UNL A   1      34.085  22.410  24.517  1.00  0.00     0.087 C 
ATOM     10  C   UNL A   1      33.079  23.156  25.046  1.00  0.00     0.027 C 
ATOM     11  C   UNL A   1      34.026  20.893  24.589  1.00  0.00     0.316 C 
ATOM     12  C   UNL A   1      33.138  24.673  24.974  1.00  0.00     0.020 A 
ATOM     13  O   UNL A   1      33.905  24.495  22.731  1.00  0.00    -0.474 OA
ATOM     14  C   UNL A   1      32.876  25.400  26.124  1.00  0.00     0.036 A 
ATOM     15  C   UNL A   1      33.488  25.275  23.842  1.00  0.00     0.142 A 
ATOM     16  C   UNL A   1      32.727  26.790  25.900  1.00  0.00     0.109 A 
ATOM     17  C   UNL A   1      33.449  26.644  23.738  1.00  0.00     0.062 A 
ATOM     18  C   UNL A   1      33.140  27.424  24.818  1.00  0.00     0.044 A 
ATOM     19  Br  UNL A   1      33.842  27.492  22.016  1.00  0.00    -0.047 Br
BRANCH  11  20
ATOM     20  C   UNL A   1      32.784  20.399  23.866  1.00  0.00     0.430 C 
ATOM     21  F   UNL A   1      32.543  21.179  22.815  1.00  0.00    -0.167 F 
ATOM     22  F   UNL A   1      32.977  19.150  23.455  1.00  0.00    -0.167 F 
ATOM     23  F   UNL A   1      31.744  20.439  24.693  1.00  0.00    -0.167 F 
ENDBRANCH  11  20
BRANCH  16  24
ATOM     24  S   UNL A   1      31.915  27.767  27.189  1.00  0.00     0.310 S 
ATOM     25  F   UNL A   1      31.713  29.001  26.214  1.00  0.00    -0.094 F 
ATOM     26  F   UNL A   1      33.314  28.384  27.568  1.00  0.00    -0.094 F 
ATOM     27  F   UNL A   1      31.215  28.606  28.295  1.00  0.00    -0.094 F 
ATOM     28  F   UNL A   1      30.505  27.246  26.705  1.00  0.00    -0.094 F 
ATOM     29  F   UNL A   1      32.597  26.997  25.990  1.00  0.00    -0.094 F 
ENDBRANCH  16  24
ENDBRANCH   7   9
ENDBRANCH   6   7
ENDBRANCH   5   6
ENDBRANCH   4   5
ENDBRANCH   3   4
ENDBRANCH   2   3
ENDBRANCH   1   2
BRANCH   1  30
ATOM     30  O   UNL A   1      41.324  22.021  27.512  1.00  0.00    -0.376 OA
BRANCH  30  31
ATOM     31  C   UNL A   1      42.679  22.434  27.417  1.00  0.00     0.202 C 
BRANCH  31  32
ATOM     32  C   UNL A   1      42.946  22.976  26.023  1.00  0.00     0.261 C 
BRANCH  32  33
ATOM     33  O   UNL A   1      43.365  24.330  26.113  1.00  0.00    -0.460 OA
BRANCH  33  34
ATOM     34  C   UNL A   1      42.400  25.369  26.179  1.00  0.00     0.338 C 
ATOM     35  O   UNL A   1      41.699  25.651  25.156  1.00  0.00    -0.246 OA
BRANCH  34  36
ATOM     36  C   UNL A   1      42.204  26.145  27.471  1.00  0.00     0.060 A 
ATOM     37  C   UNL A   1      41.228  25.727  28.360  1.00  0.00     0.016 A 
ATOM     38  C   UNL A   1      42.904  27.252  27.688  1.00  0.00     0.016 A 
ATOM     39  C   UNL A   1      40.861  26.708  29.312  1.00  0.00     0.010 A 
ATOM     40  C   UNL A   1      42.576  28.096  28.720  1.00  0.00     0.010 A 
ATOM     41  C   UNL A   1      41.582  27.776  29.603  1.00  0.00    -0.014 A 
BRANCH  41  42
ATOM     42  C   UNL A   1      41.321  28.603  30.850  1.00  0.00     0.031 A 
ATOM     43  C   UNL A   1      42.159  28.449  31.955  1.00  0.00     0.074 A 
ATOM     44  C   UNL A   1      40.306  29.541  30.773  1.00  0.00     0.049 A 
ATOM     45  N   UNL A   1      42.163  29.167  33.080  1.00  0.00    -0.248 NA
ATOM     46  C   UNL A   1      43.215  27.431  32.053  1.00  0.00     0.031 C 
ATOM     47  C   UNL A   1      39.462  29.709  29.658  1.00  0.00     0.029 A 
ATOM     48  N   UNL A   1      39.931  30.461  31.727  1.00  0.00    -0.354 N 
ATOM     49  C   UNL A   1      43.124  28.735  33.899  1.00  0.00     0.074 A 
ATOM     50  C   UNL A   1      43.811  27.608  33.253  1.00  0.00     0.031 C 
ATOM     51  C   UNL A   1      38.583  30.706  29.941  1.00  0.00     0.029 A 
ATOM     52  C   UNL A   1      38.864  31.181  31.236  1.00  0.00     0.049 A 
ATOM     53  H   UNL A   1      40.353  30.584  32.608  1.00  0.00     0.167 HD
ATOM     54  C   UNL A   1      43.456  29.237  35.158  1.00  0.00     0.037 A 
ATOM     55  C   UNL A   1      38.161  32.194  31.867  1.00  0.00     0.037 A 
ATOM     56  C   UNL A   1      42.780  30.281  35.772  1.00  0.00     0.049 A 
ATOM     57  C   UNL A   1      38.456  32.658  33.151  1.00  0.00     0.074 A 
ATOM     58  C   UNL A   1      43.107  30.804  37.037  1.00  0.00     0.029 A 
ATOM     59  N   UNL A   1      41.697  30.983  35.291  1.00  0.00    -0.354 N 
ATOM     60  N   UNL A   1      39.441  32.253  33.954  1.00  0.00    -0.248 NA
ATOM     61  C   UNL A   1      37.698  33.710  33.843  1.00  0.00     0.031 C 
ATOM     62  C   UNL A   1      42.227  31.803  37.320  1.00  0.00     0.029 A 
ATOM     63  C   UNL A   1      41.337  31.918  36.235  1.00  0.00     0.049 A 
ATOM     64  H   UNL A   1      41.257  30.842  34.421  1.00  0.00     0.167 HD
ATOM     65  C   UNL A   1      39.418  32.944  35.095  1.00  0.00     0.074 A 
ATOM     66  C   UNL A   1      38.292  33.885  35.044  1.00  0.00     0.031 C 
ATOM     67  C   UNL A   1      40.293  32.829  36.177  1.00  0.00     0.037 A 
BRANCH  54  68
ATOM     68  C   UNL A   1      44.623  28.606  35.899  1.00  0.00     0.058 A 
ATOM     69  C   UNL A   1      44.305  27.562  36.752  1.00  0.00     0.135 A 
ATOM     70  C   UNL A   1      45.882  28.986  35.716  1.00  0.00     0.135 A 
ATOM     71  F   UNL A   1      43.107  26.985  36.776  1.00  0.00    -0.206 F 
ATOM     72  C   UNL A   1      45.369  27.166  37.596  1.00  0.00     0.059 A 
ATOM     73  C   UNL A   1      46.891  28.458  36.485  1.00  0.00     0.059 A 
ATOM     74  F   UNL A   1      46.170  29.888  34.781  1.00  0.00    -0.206 F 
ATOM     75  C   UNL A   1      46.639  27.464  37.390  1.00  0.00     0.060 A 
BRANCH  75  76
ATOM     76  S   UNL A   1      47.973  26.604  38.259  1.00  0.00     0.124 S 
ATOM     77  O   UNL A   1      47.499  26.207  39.658  1.00  0.00    -0.237 OA
ATOM     78  O   UNL A   1      48.365  25.347  37.477  1.00  0.00    -0.237 OA
ATOM     79  O   UNL A   1      49.329  27.639  38.389  1.00  0.00    -0.744 OA
ENDBRANCH  75  76
ENDBRANCH  54  68
BRANCH  55  80
ATOM     80  C   UNL A   1      37.003  32.836  31.121  1.00  0.00     0.058 A 
ATOM     81  C   UNL A   1      35.708  32.378  31.299  1.00  0.00     0.135 A 
ATOM     82  C   UNL A   1      37.281  33.787  30.237  1.00  0.00     0.135 A 
ATOM     83  F   UNL A   1      35.342  31.622  32.330  1.00  0.00    -0.206 F 
ATOM     84  C   UNL A   1      34.810  32.785  30.284  1.00  0.00     0.059 A 
ATOM     85  C   UNL A   1      36.318  34.236  29.364  1.00  0.00     0.059 A 
ATOM     86  F   UNL A   1      38.503  34.310  30.195  1.00  0.00    -0.206 F 
ATOM     87  C   UNL A   1      35.031  33.782  29.445  1.00  0.00     0.060 A 
BRANCH  87  88
ATOM     88  S   UNL A   1      33.701  34.508  28.455  1.00  0.00     0.124 S 
ATOM     89  O   UNL A   1      34.296  35.495  27.448  1.00  0.00    -0.237 OA
ATOM     90  O   UNL A   1      32.961  33.398  27.704  1.00  0.00    -0.237 OA
ATOM     91  O   UNL A   1      32.607  35.328  29.482  1.00  0.00    -0.744 OA
ENDBRANCH  87  88
ENDBRANCH  55  80
BRANCH  67  92
ATOM     92  C   UNL A   1      40.089  33.759  37.362  1.00  0.00     0.058 A 
ATOM     93  C   UNL A   1      39.163  33.411  38.331  1.00  0.00     0.135 A 
ATOM     94  C   UNL A   1      40.744  34.913  37.417  1.00  0.00     0.135 A 
ATOM     95  F   UNL A   1      38.676  32.181  38.460  1.00  0.00    -0.206 F 
ATOM     96  C   UNL A   1      38.781  34.485  39.171  1.00  0.00     0.059 A 
ATOM     97  C   UNL A   1      40.409  35.862  38.350  1.00  0.00     0.059 A 
ATOM     98  F   UNL A   1      41.732  35.151  36.558  1.00  0.00    -0.206 F 
ATOM     99  C   UNL A   1      39.461  35.610  39.302  1.00  0.00     0.060 A 
BRANCH  99 100
ATOM    100  S   UNL A   1      39.152  36.755  40.669  1.00  0.00     0.124 S 
ATOM    101  O   UNL A   1      40.483  37.323  41.169  1.00  0.00    -0.237 OA
ATOM    102  O   UNL A   1      38.258  37.900  40.185  1.00  0.00    -0.237 OA
ATOM    103  O   UNL A   1      38.371  35.924  41.945  1.00  0.00    -0.744 OA
ENDBRANCH  99 100
ENDBRANCH  67  92
ENDBRANCH  41  42
ENDBRANCH  34  36
ENDBRANCH  33  34
ENDBRANCH  32  33
ENDBRANCH  31  32
ENDBRANCH  30  31
ENDBRANCH   1  30
TORSDOF 22
ENDMDL
MODEL 3
REMARK VINA RESULT:     -11.0      4.757     10.476
REMARK SMILES O=C(OCCOCCOCCOC(=O)c1ccc(-c2c3nc(c(-c4c(F)cc(S(=O)(=O)[O-])cc4F)c4ccc([nH]4)c(-c4c(F)cc(S(=O)(=O)[O-])cc4F)c4nc(c(-c5c(F)cc(S(=O)(=O)[O-])cc5F)c5ccc2[nH]5)C=C4)C=C3)cc1)C1=Cc2cc(S(F)(F)(F)(F)F)cc(Br)c2O[C@@H]1C(F)(F)F
REMARK SMILES IDX 8 1 7 2 6 3 5 4 4 5 3 6 2 7 1 8 81 9 82 10 97 11 83 12 96 13
REMARK SMILES IDX 84 14 95 15 85 16 93 17 92 18 94 19 98 20 99 21 100 22
REMARK SMILES IDX 101 23 86 24 87 25 88 26 89 27 90 28 91 29 9 30 10 31 11 32
REMARK SMILES IDX 12 33 13 34 14 35 15 36 16 37 80 38 17 39 79 40 18 41 19 42
REMARK SMILES IDX 20 43 73 44 21 45 78 46 72 47 74 48 22 49 77 50 71 51 70 52
REMARK SMILES IDX 23 54 57 55 36 56 56 57 37 58 40 59 55 60 75 61 38 62 39 63
REMARK SMILES IDX 54 65 76 66 41 67 24 68 25 69 34 70 26 71 27 72 33 73 35 74
REMARK SMILES IDX 28 75 29 76 30 77 31 78 32 79 58 80 59 81 68 82 60 83 61 84
REMARK SMILES IDX 67 85 69 86 62 87 63 88 64 89 65 90 66 91 42 92 43 93 52 94
REMARK SMILES IDX 44 95 45 96 51 97 53 98 46 99 47 100 48 101 49 102 50 103
REMARK H PARENT 74 53 40 64
REMARK Flexibility Score: inf
ROOT
ATOM      1  C   UNL A   1      40.658  21.684  26.551  1.00  0.00     0.188 C 
ENDROOT
BRANCH   1   2
ATOM      2  C   UNL A   1      39.282  22.332  26.535  1.00  0.00     0.188 C 
BRANCH   2   3
ATOM      3  O   UNL A   1      38.349  21.447  25.933  1.00  0.00    -0.376 OA
BRANCH   3   4
ATOM      4  C   UNL A   1      37.627  22.137  24.923  1.00  0.00     0.202 C 
BRANCH   4   5
ATOM      5  C   UNL A   1      37.039  23.413  25.502  1.00  0.00     0.261 C 
BRANCH   5   6
ATOM      6  O   UNL A   1      36.142  23.988  24.563  1.00  0.00    -0.460 OA
BRANCH   6   7
ATOM      7  C   UNL A   1      35.274  23.155  23.808  1.00  0.00     0.338 C 
ATOM      8  O   UNL A   1      35.469  22.997  22.562  1.00  0.00    -0.246 OA
BRANCH   7   9
ATOM      9  C   UNL A   1      34.111  22.452  24.490  1.00  0.00     0.087 C 
ATOM     10  C   UNL A   1      33.095  23.181  25.025  1.00  0.00     0.027 C 
ATOM     11  C   UNL A   1      34.083  20.935  24.573  1.00  0.00     0.316 C 
ATOM     12  C   UNL A   1      33.123  24.698  24.942  1.00  0.00     0.020 A 
ATOM     13  O   UNL A   1      33.869  24.521  22.692  1.00  0.00    -0.474 OA
ATOM     14  C   UNL A   1      32.858  25.429  26.089  1.00  0.00     0.036 A 
ATOM     15  C   UNL A   1      33.448  25.300  23.802  1.00  0.00     0.142 A 
ATOM     16  C   UNL A   1      32.678  26.813  25.858  1.00  0.00     0.109 A 
ATOM     17  C   UNL A   1      33.380  26.667  23.689  1.00  0.00     0.062 A 
ATOM     18  C   UNL A   1      33.066  27.448  24.766  1.00  0.00     0.044 A 
ATOM     19  Br  UNL A   1      33.738  27.511  21.956  1.00  0.00    -0.047 Br
BRANCH  11  20
ATOM     20  C   UNL A   1      32.843  20.411  23.866  1.00  0.00     0.430 C 
ATOM     21  F   UNL A   1      32.573  21.181  22.816  1.00  0.00    -0.167 F 
ATOM     22  F   UNL A   1      33.059  19.164  23.458  1.00  0.00    -0.167 F 
ATOM     23  F   UNL A   1      31.813  20.431  24.706  1.00  0.00    -0.167 F 
ENDBRANCH  11  20
BRANCH  16  24
ATOM     24  S   UNL A   1      31.860  27.782  27.148  1.00  0.00     0.310 S 
ATOM     25  F   UNL A   1      31.609  29.000  26.162  1.00  0.00    -0.094 F 
ATOM     26  F   UNL A   1      33.248  28.441  27.498  1.00  0.00    -0.094 F 
ATOM     27  F   UNL A   1      31.154  28.615  28.256  1.00  0.00    -0.094 F 
ATOM     28  F   UNL A   1      30.457  27.218  26.691  1.00  0.00    -0.094 F 
ATOM     29  F   UNL A   1      32.544  27.018  25.947  1.00  0.00    -0.094 F 
ENDBRANCH  16  24
ENDBRANCH   7   9
ENDBRANCH   6   7
ENDBRANCH   5   6
ENDBRANCH   4   5
ENDBRANCH   3   4
ENDBRANCH   2   3
ENDBRANCH   1   2
BRANCH   1  30
ATOM     30  O   UNL A   1      41.241  21.844  27.835  1.00  0.00    -0.376 OA
BRANCH  30  31
ATOM     31  C   UNL A   1      42.618  22.159  27.695  1.00  0.00     0.202 C 
BRANCH  31  32
ATOM     32  C   UNL A   1      42.895  22.592  26.264  1.00  0.00     0.261 C 
BRANCH  32  33
ATOM     33  O   UNL A   1      43.320  23.947  26.253  1.00  0.00    -0.460 OA
BRANCH  33  34
ATOM     34  C   UNL A   1      42.360  24.992  26.222  1.00  0.00     0.338 C 
ATOM     35  O   UNL A   1      41.636  25.160  25.191  1.00  0.00    -0.246 OA
BRANCH  34  36
ATOM     36  C   UNL A   1      42.196  25.910  27.423  1.00  0.00     0.060 A 
ATOM     37  C   UNL A   1      41.227  25.612  28.366  1.00  0.00     0.016 A 
ATOM     38  C   UNL A   1      42.919  27.021  27.506  1.00  0.00     0.016 A 
ATOM     39  C   UNL A   1      40.891  26.699  29.207  1.00  0.00     0.010 A 
ATOM     40  C   UNL A   1      42.621  27.981  28.442  1.00  0.00     0.010 A 
ATOM     41  C   UNL A   1      41.634  27.779  29.367  1.00  0.00    -0.014 A 
BRANCH  41  42
ATOM     42  C   UNL A   1      41.406  28.744  30.519  1.00  0.00     0.031 A 
ATOM     43  C   UNL A   1      40.350  29.653  30.445  1.00  0.00     0.074 A 
ATOM     44  C   UNL A   1      42.220  28.592  31.628  1.00  0.00     0.049 A 
ATOM     45  N   UNL A   1      39.923  30.483  31.398  1.00  0.00    -0.248 NA
ATOM     46  C   UNL A   1      39.505  29.840  29.256  1.00  0.00     0.031 C 
ATOM     47  C   UNL A   1      43.283  27.671  31.714  1.00  0.00     0.029 A 
ATOM     48  N   UNL A   1      42.161  29.278  32.821  1.00  0.00    -0.354 N 
ATOM     49  C   UNL A   1      38.874  31.185  30.961  1.00  0.00     0.074 A 
ATOM     50  C   UNL A   1      38.595  30.786  29.576  1.00  0.00     0.031 C 
ATOM     51  C   UNL A   1      43.863  27.809  32.935  1.00  0.00     0.029 A 
ATOM     52  C   UNL A   1      43.172  28.816  33.634  1.00  0.00     0.049 A 
ATOM     53  H   UNL A   1      41.508  29.978  33.052  1.00  0.00     0.167 HD
ATOM     54  C   UNL A   1      38.140  32.140  31.666  1.00  0.00     0.037 A 
ATOM     55  C   UNL A   1      43.492  29.239  34.914  1.00  0.00     0.037 A 
ATOM     56  C   UNL A   1      38.433  32.532  32.963  1.00  0.00     0.049 A 
ATOM     57  C   UNL A   1      42.793  30.237  35.598  1.00  0.00     0.074 A 
ATOM     58  C   UNL A   1      37.698  33.488  33.689  1.00  0.00     0.029 A 
ATOM     59  N   UNL A   1      39.459  32.089  33.766  1.00  0.00    -0.354 N 
ATOM     60  N   UNL A   1      41.721  30.911  35.177  1.00  0.00    -0.248 NA
ATOM     61  C   UNL A   1      43.141  30.716  36.942  1.00  0.00     0.031 C 
ATOM     62  C   UNL A   1      38.278  33.626  34.912  1.00  0.00     0.029 A 
ATOM     63  C   UNL A   1      39.386  32.758  34.968  1.00  0.00     0.049 A 
ATOM     64  H   UNL A   1      40.129  31.409  33.525  1.00  0.00     0.167 HD
ATOM     65  C   UNL A   1      41.320  31.770  36.115  1.00  0.00     0.074 A 
ATOM     66  C   UNL A   1      42.232  31.663  37.261  1.00  0.00     0.031 C 
ATOM     67  C   UNL A   1      40.228  32.638  36.063  1.00  0.00     0.037 A 
BRANCH  54  68
ATOM     68  C   UNL A   1      36.952  32.787  30.972  1.00  0.00     0.058 A 
ATOM     69  C   UNL A   1      37.224  33.947  30.263  1.00  0.00     0.135 A 
ATOM     70  C   UNL A   1      35.733  32.264  30.994  1.00  0.00     0.135 A 
ATOM     71  F   UNL A   1      38.460  34.365  30.004  1.00  0.00    -0.206 F 
ATOM     72  C   UNL A   1      36.068  34.645  29.840  1.00  0.00     0.059 A 
ATOM     73  C   UNL A   1      34.671  32.940  30.441  1.00  0.00     0.059 A 
ATOM     74  F   UNL A   1      35.536  31.075  31.557  1.00  0.00    -0.206 F 
ATOM     75  C   UNL A   1      34.858  34.119  29.776  1.00  0.00     0.060 A 
BRANCH  75  76
ATOM     76  S   UNL A   1      33.520  34.920  28.859  1.00  0.00     0.124 S 
ATOM     77  O   UNL A   1      34.108  35.938  27.880  1.00  0.00    -0.237 OA
ATOM     78  O   UNL A   1      32.729  33.863  28.083  1.00  0.00    -0.237 OA
ATOM     79  O   UNL A   1      32.476  35.719  29.954  1.00  0.00    -0.744 OA
ENDBRANCH  75  76
ENDBRANCH  54  68
BRANCH  55  80
ATOM     80  C   UNL A   1      44.669  28.581  35.614  1.00  0.00     0.058 A 
ATOM     81  C   UNL A   1      45.935  29.141  35.542  1.00  0.00     0.135 A 
ATOM     82  C   UNL A   1      44.465  27.418  36.220  1.00  0.00     0.135 A 
ATOM     83  F   UNL A   1      46.150  30.402  35.177  1.00  0.00    -0.206 F 
ATOM     84  C   UNL A   1      46.977  28.250  35.892  1.00  0.00     0.059 A 
ATOM     85  C   UNL A   1      45.525  26.661  36.660  1.00  0.00     0.059 A 
ATOM     86  F   UNL A   1      43.222  26.981  36.404  1.00  0.00    -0.206 F 
ATOM     87  C   UNL A   1      46.807  27.127  36.567  1.00  0.00     0.060 A 
BRANCH  87  88
ATOM     88  S   UNL A   1      48.197  26.251  37.326  1.00  0.00     0.124 S 
ATOM     89  O   UNL A   1      47.764  24.829  37.693  1.00  0.00    -0.237 OA
ATOM     90  O   UNL A   1      49.363  26.190  36.336  1.00  0.00    -0.237 OA
ATOM     91  O   UNL A   1      48.690  27.079  38.738  1.00  0.00    -0.744 OA
ENDBRANCH  87  88
ENDBRANCH  55  80
BRANCH  67  92
ATOM     92  C   UNL A   1      39.943  33.502  37.280  1.00  0.00     0.058 A 
ATOM     93  C   UNL A   1      38.925  33.128  38.141  1.00  0.00     0.135 A 
ATOM     94  C   UNL A   1      40.621  34.630  37.463  1.00  0.00     0.135 A 
ATOM     95  F   UNL A   1      38.396  31.908  38.151  1.00  0.00    -0.206 F 
ATOM     96  C   UNL A   1      38.498  34.161  39.009  1.00  0.00     0.059 A 
ATOM     97  C   UNL A   1      40.229  35.532  38.421  1.00  0.00     0.059 A 
ATOM     98  F   UNL A   1      41.688  34.887  36.712  1.00  0.00    -0.206 F 
ATOM     99  C   UNL A   1      39.193  35.254  39.269  1.00  0.00     0.060 A 
BRANCH  99 100
ATOM    100  S   UNL A   1      38.793  36.325  40.671  1.00  0.00     0.124 S 
ATOM    101  O   UNL A   1      38.259  37.664  40.156  1.00  0.00    -0.237 OA
ATOM    102  O   UNL A   1      37.728  35.653  41.541  1.00  0.00    -0.237 OA
ATOM    103  O   UNL A   1      40.202  36.594  41.603  1.00  0.00    -0.744 OA
ENDBRANCH  99 100
ENDBRANCH  67  92
ENDBRANCH  41  42
ENDBRANCH  34  36
ENDBRANCH  33  34
ENDBRANCH  32  33
ENDBRANCH  31  32
ENDBRANCH  30  31
ENDBRANCH   1  30
TORSDOF 22
ENDMDL
