MODEL 1
REMARK VINA RESULT:     -10.7      0.000      0.000
REMARK SMILES O=C(OCCOCCOCCOC(=O)c1ccc(C[N@H+]2CC[N@H+]3CCCC[C@@H]3C2)c(F)c1)c1ccc(-c2c3nc(c(-c4c(F)cc(S(=O)(=O)[O-])cc4F)c4ccc([nH]4)c(-c4c(F)cc(S(=O)(=O)[O-])cc4F)c4nc(c(-c5c(F)cc(S(=O)(=O)[O-])cc5F)c5ccc2[nH]5)C=C4)C=C3)cc1
REMARK SMILES IDX 7 1 6 2 5 3 4 4 3 5 2 6 1 7 33 8 34 9 98 10 35 11 97 12
REMARK SMILES IDX 36 13 37 14 38 15 91 16 39 17 96 18 90 19 92 20 40 21 95 22
REMARK SMILES IDX 89 23 88 24 41 26 75 27 54 28 74 29 55 30 58 31 73 32 93 33
REMARK SMILES IDX 56 34 57 35 72 37 94 38 59 39 42 40 43 41 52 42 44 43 45 44
REMARK SMILES IDX 51 45 53 46 46 47 47 48 48 49 49 50 50 51 76 52 77 53 86 54
REMARK SMILES IDX 78 55 79 56 85 57 87 58 80 59 81 60 82 61 83 62 84 63 60 64
REMARK SMILES IDX 61 65 70 66 62 67 63 68 69 69 71 70 64 71 65 72 66 73 67 74
REMARK SMILES IDX 68 75 8 76 9 77 10 78 11 79 12 80 13 81 14 82 15 83 16 84
REMARK SMILES IDX 32 85 17 86 30 87 18 88 31 89 19 90 20 91 21 92 29 93 22 95
REMARK SMILES IDX 28 96 23 97 27 98 24 99 26 101 25 102
REMARK H PARENT 92 25 58 36 20 94 23 100
REMARK Flexibility Score: inf
ROOT
ATOM      1  C   UNL A   1      34.736  29.907  27.636  1.00  0.00     0.188 C 
ENDROOT
BRANCH   1   2
ATOM      2  O   UNL A   1      34.466  31.143  28.300  1.00  0.00    -0.376 OA
BRANCH   2   3
ATOM      3  C   UNL A   1      34.022  32.180  27.415  1.00  0.00     0.202 C 
BRANCH   3   4
ATOM      4  C   UNL A   1      32.646  32.820  27.719  1.00  0.00     0.261 C 
BRANCH   4   5
ATOM      5  O   UNL A   1      32.676  34.228  28.027  1.00  0.00    -0.460 OA
BRANCH   5   6
ATOM      6  C   UNL A   1      33.130  34.877  29.129  1.00  0.00     0.338 C 
ATOM      7  O   UNL A   1      32.470  35.826  29.554  1.00  0.00    -0.246 OA
BRANCH   6   8
ATOM      8  C   UNL A   1      34.384  34.509  29.856  1.00  0.00     0.060 A 
ATOM      9  C   UNL A   1      35.661  34.555  29.307  1.00  0.00     0.016 A 
ATOM     10  C   UNL A   1      34.269  34.080  31.188  1.00  0.00     0.016 A 
ATOM     11  C   UNL A   1      36.765  34.041  29.966  1.00  0.00     0.010 A 
ATOM     12  C   UNL A   1      35.397  33.645  31.898  1.00  0.00     0.010 A 
ATOM     13  C   UNL A   1      36.648  33.568  31.263  1.00  0.00    -0.014 A 
BRANCH  13  14
ATOM     14  C   UNL A   1      37.778  32.829  31.867  1.00  0.00     0.031 A 
ATOM     15  C   UNL A   1      38.430  33.422  33.067  1.00  0.00     0.074 A 
ATOM     16  C   UNL A   1      38.118  31.577  31.505  1.00  0.00     0.049 A 
ATOM     17  N   UNL A   1      39.398  32.925  33.776  1.00  0.00    -0.248 NA
ATOM     18  C   UNL A   1      37.839  34.657  33.615  1.00  0.00     0.031 C 
ATOM     19  C   UNL A   1      37.311  30.702  30.679  1.00  0.00     0.029 A 
ATOM     20  N   UNL A   1      39.236  30.819  31.744  1.00  0.00    -0.354 N 
ATOM     21  C   UNL A   1      39.466  33.719  34.904  1.00  0.00     0.074 A 
ATOM     22  C   UNL A   1      38.531  34.807  34.732  1.00  0.00     0.031 C 
ATOM     23  C   UNL A   1      38.031  29.647  30.279  1.00  0.00     0.029 A 
ATOM     24  C   UNL A   1      39.326  29.730  30.898  1.00  0.00     0.049 A 
ATOM     25  H   UNL A   1      39.899  31.028  32.440  1.00  0.00     0.167 HD
ATOM     26  C   UNL A   1      40.193  33.489  36.015  1.00  0.00     0.037 A 
ATOM     27  C   UNL A   1      40.322  28.861  30.662  1.00  0.00     0.037 A 
ATOM     28  C   UNL A   1      41.127  32.402  36.126  1.00  0.00     0.049 A 
ATOM     29  C   UNL A   1      41.352  28.811  31.727  1.00  0.00     0.074 A 
ATOM     30  C   UNL A   1      42.003  32.126  37.155  1.00  0.00     0.029 A 
ATOM     31  N   UNL A   1      41.315  31.417  35.158  1.00  0.00    -0.354 N 
ATOM     32  N   UNL A   1      41.465  29.608  32.761  1.00  0.00    -0.248 NA
ATOM     33  C   UNL A   1      42.270  27.675  31.707  1.00  0.00     0.031 C 
ATOM     34  C   UNL A   1      42.773  31.020  36.779  1.00  0.00     0.029 A 
ATOM     35  C   UNL A   1      42.336  30.565  35.544  1.00  0.00     0.049 A 
ATOM     36  H   UNL A   1      40.798  31.337  34.325  1.00  0.00     0.167 HD
ATOM     37  C   UNL A   1      42.407  29.023  33.575  1.00  0.00     0.074 A 
ATOM     38  C   UNL A   1      42.862  27.822  32.886  1.00  0.00     0.031 C 
ATOM     39  C   UNL A   1      42.815  29.422  34.802  1.00  0.00     0.037 A 
BRANCH  26  40
ATOM     40  C   UNL A   1      40.022  34.468  37.133  1.00  0.00     0.058 A 
ATOM     41  C   UNL A   1      40.674  35.706  37.085  1.00  0.00     0.135 A 
ATOM     42  C   UNL A   1      39.162  34.216  38.218  1.00  0.00     0.135 A 
ATOM     43  F   UNL A   1      41.474  36.009  36.050  1.00  0.00    -0.206 F 
ATOM     44  C   UNL A   1      40.493  36.659  38.078  1.00  0.00     0.059 A 
ATOM     45  C   UNL A   1      38.948  35.166  39.213  1.00  0.00     0.059 A 
ATOM     46  F   UNL A   1      38.470  33.066  38.281  1.00  0.00    -0.206 F 
ATOM     47  C   UNL A   1      39.626  36.382  39.136  1.00  0.00     0.060 A 
BRANCH  47  48
ATOM     48  S   UNL A   1      39.367  37.659  40.385  1.00  0.00     0.124 S 
ATOM     49  O   UNL A   1      38.707  36.908  41.447  1.00  0.00    -0.237 OA
ATOM     50  O   UNL A   1      40.732  38.093  40.663  1.00  0.00    -0.237 OA
ATOM     51  O   UNL A   1      38.535  38.641  39.696  1.00  0.00    -0.744 OA
ENDBRANCH  47  48
ENDBRANCH  26  40
BRANCH  27  52
ATOM     52  C   UNL A   1      40.273  27.904  29.527  1.00  0.00     0.058 A 
ATOM     53  C   UNL A   1      39.493  26.737  29.614  1.00  0.00     0.135 A 
ATOM     54  C   UNL A   1      41.050  28.078  28.375  1.00  0.00     0.135 A 
ATOM     55  F   UNL A   1      38.738  26.512  30.700  1.00  0.00    -0.206 F 
ATOM     56  C   UNL A   1      39.506  25.769  28.610  1.00  0.00     0.059 A 
ATOM     57  C   UNL A   1      41.083  27.123  27.358  1.00  0.00     0.059 A 
ATOM     58  F   UNL A   1      41.809  29.176  28.243  1.00  0.00    -0.206 F 
ATOM     59  C   UNL A   1      40.325  25.959  27.497  1.00  0.00     0.060 A 
BRANCH  59  60
ATOM     60  S   UNL A   1      40.420  24.652  26.250  1.00  0.00     0.124 S 
ATOM     61  O   UNL A   1      39.017  24.271  26.118  1.00  0.00    -0.237 OA
ATOM     62  O   UNL A   1      40.994  25.352  25.106  1.00  0.00    -0.237 OA
ATOM     63  O   UNL A   1      41.285  23.654  26.871  1.00  0.00    -0.744 OA
ENDBRANCH  59  60
ENDBRANCH  27  52
BRANCH  39  64
ATOM     64  C   UNL A   1      43.857  28.567  35.439  1.00  0.00     0.058 A 
ATOM     65  C   UNL A   1      45.213  28.754  35.138  1.00  0.00     0.135 A 
ATOM     66  C   UNL A   1      43.500  27.546  36.331  1.00  0.00     0.135 A 
ATOM     67  F   UNL A   1      45.597  29.726  34.295  1.00  0.00    -0.206 F 
ATOM     68  C   UNL A   1      46.186  27.937  35.692  1.00  0.00     0.059 A 
ATOM     69  C   UNL A   1      44.459  26.742  36.924  1.00  0.00     0.059 A 
ATOM     70  F   UNL A   1      42.212  27.357  36.663  1.00  0.00    -0.206 F 
ATOM     71  C   UNL A   1      45.797  26.934  36.582  1.00  0.00     0.060 A 
BRANCH  71  72
ATOM     72  S   UNL A   1      47.074  25.892  37.308  1.00  0.00     0.124 S 
ATOM     73  O   UNL A   1      46.671  25.867  38.709  1.00  0.00    -0.237 OA
ATOM     74  O   UNL A   1      46.906  24.642  36.573  1.00  0.00    -0.237 OA
ATOM     75  O   UNL A   1      48.306  26.619  37.020  1.00  0.00    -0.744 OA
ENDBRANCH  71  72
ENDBRANCH  39  64
ENDBRANCH  13  14
ENDBRANCH   6   8
ENDBRANCH   5   6
ENDBRANCH   4   5
ENDBRANCH   3   4
ENDBRANCH   2   3
ENDBRANCH   1   2
BRANCH   1  76
ATOM     76  C   UNL A   1      33.542  29.160  27.042  1.00  0.00     0.188 C 
BRANCH  76  77
ATOM     77  O   UNL A   1      33.202  29.393  25.686  1.00  0.00    -0.376 OA
BRANCH  77  78
ATOM     78  C   UNL A   1      31.892  29.870  25.414  1.00  0.00     0.202 C 
BRANCH  78  79
ATOM     79  C   UNL A   1      31.058  29.244  24.278  1.00  0.00     0.261 C 
BRANCH  79  80
ATOM     80  O   UNL A   1      30.977  27.808  24.241  1.00  0.00    -0.460 OA
BRANCH  80  81
ATOM     81  C   UNL A   1      31.265  27.250  23.032  1.00  0.00     0.338 C 
ATOM     82  O   UNL A   1      30.710  27.487  21.977  1.00  0.00    -0.246 OA
BRANCH  81  83
ATOM     83  C   UNL A   1      32.299  26.189  23.164  1.00  0.00     0.063 A 
ATOM     84  C   UNL A   1      32.208  25.108  22.281  1.00  0.00     0.016 A 
ATOM     85  C   UNL A   1      33.304  26.198  24.137  1.00  0.00     0.055 A 
ATOM     86  C   UNL A   1      33.056  24.003  22.425  1.00  0.00     0.013 A 
ATOM     87  C   UNL A   1      34.131  25.075  24.285  1.00  0.00     0.132 A 
ATOM     88  C   UNL A   1      33.973  23.935  23.489  1.00  0.00     0.042 A 
ATOM     89  F   UNL A   1      35.042  25.082  25.270  1.00  0.00    -0.206 F 
BRANCH  88  90
ATOM     90  C   UNL A   1      34.678  22.628  23.802  1.00  0.00     0.302 C 
BRANCH  90  91
ATOM     91  N   UNL A   1      34.429  21.931  25.079  1.00  0.00    -0.322 N 
ATOM     92  C   UNL A   1      33.027  21.870  25.498  1.00  0.00     0.324 C 
ATOM     93  C   UNL A   1      35.038  20.599  25.283  1.00  0.00     0.328 C 
ATOM     94  H   UNL A   1      34.944  22.572  25.682  1.00  0.00     0.348 HD
ATOM     95  C   UNL A   1      32.188  20.689  24.953  1.00  0.00     0.324 C 
ATOM     96  C   UNL A   1      34.325  19.495  24.482  1.00  0.00     0.239 C 
ATOM     97  N   UNL A   1      32.868  19.434  24.602  1.00  0.00    -0.323 N 
ATOM     98  C   UNL A   1      34.862  18.077  24.642  1.00  0.00     0.071 C 
ATOM     99  C   UNL A   1      32.324  18.794  23.402  1.00  0.00     0.262 C 
ATOM    100  H   UNL A   1      32.667  18.865  25.424  1.00  0.00     0.348 HD
ATOM    101  C   UNL A   1      34.371  17.223  23.463  1.00  0.00     0.012 C 
ATOM    102  C   UNL A   1      32.873  17.378  23.174  1.00  0.00     0.062 C 
ENDBRANCH  90  91
ENDBRANCH  88  90
ENDBRANCH  81  83
ENDBRANCH  80  81
ENDBRANCH  79  80
ENDBRANCH  78  79
ENDBRANCH  77  78
ENDBRANCH  76  77
ENDBRANCH   1  76
TORSDOF 22
ENDMDL
MODEL 2
REMARK VINA RESULT:     -10.6      2.535      9.079
REMARK SMILES O=C(OCCOCCOCCOC(=O)c1ccc(C[N@H+]2CC[N@H+]3CCCC[C@@H]3C2)c(F)c1)c1ccc(-c2c3nc(c(-c4c(F)cc(S(=O)(=O)[O-])cc4F)c4ccc([nH]4)c(-c4c(F)cc(S(=O)(=O)[O-])cc4F)c4nc(c(-c5c(F)cc(S(=O)(=O)[O-])cc5F)c5ccc2[nH]5)C=C4)C=C3)cc1
REMARK SMILES IDX 7 1 6 2 5 3 4 4 3 5 2 6 1 7 33 8 34 9 98 10 35 11 97 12
REMARK SMILES IDX 36 13 37 14 38 15 91 16 39 17 96 18 90 19 92 20 40 21 95 22
REMARK SMILES IDX 89 23 88 24 41 26 75 27 54 28 74 29 55 30 58 31 73 32 93 33
REMARK SMILES IDX 56 34 57 35 72 37 94 38 59 39 42 40 43 41 52 42 44 43 45 44
REMARK SMILES IDX 51 45 53 46 46 47 47 48 48 49 49 50 50 51 76 52 77 53 86 54
REMARK SMILES IDX 78 55 79 56 85 57 87 58 80 59 81 60 82 61 83 62 84 63 60 64
REMARK SMILES IDX 61 65 70 66 62 67 63 68 69 69 71 70 64 71 65 72 66 73 67 74
REMARK SMILES IDX 68 75 8 76 9 77 10 78 11 79 12 80 13 81 14 82 15 83 16 84
REMARK SMILES IDX 32 85 17 86 30 87 18 88 31 89 19 90 20 91 21 92 29 93 22 95
REMARK SMILES IDX 28 96 23 97 27 98 24 99 26 101 25 102
REMARK H PARENT 92 25 58 36 20 94 23 100
REMARK Flexibility Score: inf
ROOT
ATOM      1  C   UNL A   1      37.799  23.607  25.841  1.00  0.00     0.188 C 
ENDROOT
BRANCH   1   2
ATOM      2  O   UNL A   1      38.823  22.615  25.927  1.00  0.00    -0.376 OA
BRANCH   2   3
ATOM      3  C   UNL A   1      39.837  22.924  26.894  1.00  0.00     0.202 C 
BRANCH   3   4
ATOM      4  C   UNL A   1      41.307  22.854  26.414  1.00  0.00     0.261 C 
BRANCH   4   5
ATOM      5  O   UNL A   1      41.933  24.127  26.163  1.00  0.00    -0.460 OA
BRANCH   5   6
ATOM      6  C   UNL A   1      41.462  25.389  26.333  1.00  0.00     0.338 C 
ATOM      7  O   UNL A   1      41.093  26.008  25.335  1.00  0.00    -0.246 OA
BRANCH   6   8
ATOM      8  C   UNL A   1      41.365  26.070  27.661  1.00  0.00     0.060 A 
ATOM      9  C   UNL A   1      40.279  25.974  28.524  1.00  0.00     0.016 A 
ATOM     10  C   UNL A   1      42.446  26.869  28.069  1.00  0.00     0.016 A 
ATOM     11  C   UNL A   1      40.169  26.760  29.659  1.00  0.00     0.010 A 
ATOM     12  C   UNL A   1      42.384  27.596  29.266  1.00  0.00     0.010 A 
ATOM     13  C   UNL A   1      41.211  27.589  30.040  1.00  0.00    -0.014 A 
BRANCH  13  14
ATOM     14  C   UNL A   1      40.993  28.574  31.121  1.00  0.00     0.031 A 
ATOM     15  C   UNL A   1      41.784  28.414  32.372  1.00  0.00     0.074 A 
ATOM     16  C   UNL A   1      40.266  29.697  30.962  1.00  0.00     0.049 A 
ATOM     17  N   UNL A   1      41.785  29.183  33.420  1.00  0.00    -0.248 NA
ATOM     18  C   UNL A   1      42.792  27.338  32.401  1.00  0.00     0.031 C 
ATOM     19  C   UNL A   1      39.809  30.217  29.689  1.00  0.00     0.029 A 
ATOM     20  N   UNL A   1      39.744  30.593  31.858  1.00  0.00    -0.354 N 
ATOM     21  C   UNL A   1      42.854  28.755  34.183  1.00  0.00     0.074 A 
ATOM     22  C   UNL A   1      43.405  27.580  33.548  1.00  0.00     0.031 C 
ATOM     23  C   UNL A   1      38.897  31.177  29.881  1.00  0.00     0.029 A 
ATOM     24  C   UNL A   1      38.771  31.398  31.296  1.00  0.00     0.049 A 
ATOM     25  H   UNL A   1      40.031  30.656  32.798  1.00  0.00     0.167 HD
ATOM     26  C   UNL A   1      43.367  29.362  35.271  1.00  0.00     0.037 A 
ATOM     27  C   UNL A   1      37.892  32.253  31.843  1.00  0.00     0.037 A 
ATOM     28  C   UNL A   1      42.766  30.518  35.877  1.00  0.00     0.049 A 
ATOM     29  C   UNL A   1      38.249  32.703  33.209  1.00  0.00     0.074 A 
ATOM     30  C   UNL A   1      43.125  31.159  37.045  1.00  0.00     0.029 A 
ATOM     31  N   UNL A   1      41.663  31.198  35.365  1.00  0.00    -0.354 N 
ATOM     32  N   UNL A   1      39.216  32.251  33.968  1.00  0.00    -0.248 NA
ATOM     33  C   UNL A   1      37.536  33.868  33.730  1.00  0.00     0.031 C 
ATOM     34  C   UNL A   1      42.197  32.179  37.279  1.00  0.00     0.029 A 
ATOM     35  C   UNL A   1      41.294  32.218  36.226  1.00  0.00     0.049 A 
ATOM     36  H   UNL A   1      41.212  30.986  34.516  1.00  0.00     0.167 HD
ATOM     37  C   UNL A   1      39.300  33.131  35.021  1.00  0.00     0.074 A 
ATOM     38  C   UNL A   1      38.251  34.121  34.818  1.00  0.00     0.031 C 
ATOM     39  C   UNL A   1      40.200  33.140  36.033  1.00  0.00     0.037 A 
BRANCH  26  40
ATOM     40  C   UNL A   1      44.586  28.733  35.867  1.00  0.00     0.058 A 
ATOM     41  C   UNL A   1      45.859  29.196  35.510  1.00  0.00     0.135 A 
ATOM     42  C   UNL A   1      44.501  27.720  36.841  1.00  0.00     0.135 A 
ATOM     43  F   UNL A   1      45.990  30.187  34.615  1.00  0.00    -0.206 F 
ATOM     44  C   UNL A   1      47.008  28.672  36.087  1.00  0.00     0.059 A 
ATOM     45  C   UNL A   1      45.639  27.197  37.448  1.00  0.00     0.059 A 
ATOM     46  F   UNL A   1      43.302  27.282  37.258  1.00  0.00    -0.206 F 
ATOM     47  C   UNL A   1      46.889  27.675  37.056  1.00  0.00     0.060 A 
BRANCH  47  48
ATOM     48  S   UNL A   1      48.396  27.051  37.828  1.00  0.00     0.124 S 
ATOM     49  O   UNL A   1      48.399  27.768  39.098  1.00  0.00    -0.237 OA
ATOM     50  O   UNL A   1      48.127  25.619  37.903  1.00  0.00    -0.237 OA
ATOM     51  O   UNL A   1      49.443  27.434  36.885  1.00  0.00    -0.744 OA
ENDBRANCH  47  48
ENDBRANCH  26  40
BRANCH  27  52
ATOM     52  C   UNL A   1      36.775  32.836  31.056  1.00  0.00     0.058 A 
ATOM     53  C   UNL A   1      37.005  33.918  30.188  1.00  0.00     0.135 A 
ATOM     54  C   UNL A   1      35.454  32.392  31.200  1.00  0.00     0.135 A 
ATOM     55  F   UNL A   1      38.249  34.393  30.020  1.00  0.00    -0.206 F 
ATOM     56  C   UNL A   1      35.962  34.554  29.515  1.00  0.00     0.059 A 
ATOM     57  C   UNL A   1      34.393  33.013  30.540  1.00  0.00     0.059 A 
ATOM     58  F   UNL A   1      35.183  31.361  32.013  1.00  0.00    -0.206 F 
ATOM     59  C   UNL A   1      34.655  34.111  29.718  1.00  0.00     0.060 A 
BRANCH  59  60
ATOM     60  S   UNL A   1      33.296  35.005  28.927  1.00  0.00     0.124 S 
ATOM     61  O   UNL A   1      32.454  35.333  30.073  1.00  0.00    -0.237 OA
ATOM     62  O   UNL A   1      33.984  36.131  28.304  1.00  0.00    -0.237 OA
ATOM     63  O   UNL A   1      32.740  34.023  28.001  1.00  0.00    -0.744 OA
ENDBRANCH  59  60
ENDBRANCH  27  52
BRANCH  39  64
ATOM     64  C   UNL A   1      40.030  34.237  37.029  1.00  0.00     0.058 A 
ATOM     65  C   UNL A   1      39.217  34.055  38.156  1.00  0.00     0.135 A 
ATOM     66  C   UNL A   1      40.661  35.476  36.845  1.00  0.00     0.135 A 
ATOM     67  F   UNL A   1      38.602  32.881  38.371  1.00  0.00    -0.206 F 
ATOM     68  C   UNL A   1      39.019  35.082  39.065  1.00  0.00     0.059 A 
ATOM     69  C   UNL A   1      40.506  36.503  37.761  1.00  0.00     0.059 A 
ATOM     70  F   UNL A   1      41.469  35.674  35.791  1.00  0.00    -0.206 F 
ATOM     71  C   UNL A   1      39.667  36.301  38.857  1.00  0.00     0.060 A 
BRANCH  71  72
ATOM     72  S   UNL A   1      39.415  37.620  40.057  1.00  0.00     0.124 S 
ATOM     73  O   UNL A   1      40.723  38.265  40.063  1.00  0.00    -0.237 OA
ATOM     74  O   UNL A   1      38.329  38.385  39.449  1.00  0.00    -0.237 OA
ATOM     75  O   UNL A   1      39.060  36.902  41.277  1.00  0.00    -0.744 OA
ENDBRANCH  71  72
ENDBRANCH  39  64
ENDBRANCH  13  14
ENDBRANCH   6   8
ENDBRANCH   5   6
ENDBRANCH   4   5
ENDBRANCH   3   4
ENDBRANCH   2   3
ENDBRANCH   1   2
BRANCH   1  76
ATOM     76  C   UNL A   1      36.351  23.124  25.916  1.00  0.00     0.188 C 
BRANCH  76  77
ATOM     77  O   UNL A   1      35.830  22.371  24.834  1.00  0.00    -0.376 OA
BRANCH  77  78
ATOM     78  C   UNL A   1      36.170  20.993  24.774  1.00  0.00     0.202 C 
BRANCH  78  79
ATOM     79  C   UNL A   1      35.094  19.917  25.024  1.00  0.00     0.261 C 
BRANCH  79  80
ATOM     80  O   UNL A   1      33.947  20.307  25.799  1.00  0.00    -0.460 OA
BRANCH  80  81
ATOM     81  C   UNL A   1      32.764  20.282  25.123  1.00  0.00     0.338 C 
ATOM     82  O   UNL A   1      32.196  19.295  24.698  1.00  0.00    -0.246 OA
BRANCH  81  83
ATOM     83  C   UNL A   1      32.277  21.659  24.846  1.00  0.00     0.063 A 
ATOM     84  C   UNL A   1      32.055  21.991  23.504  1.00  0.00     0.016 A 
ATOM     85  C   UNL A   1      32.080  22.630  25.834  1.00  0.00     0.055 A 
ATOM     86  C   UNL A   1      31.728  23.303  23.145  1.00  0.00     0.013 A 
ATOM     87  C   UNL A   1      31.775  23.946  25.458  1.00  0.00     0.132 A 
ATOM     88  C   UNL A   1      31.671  24.321  24.114  1.00  0.00     0.042 A 
ATOM     89  F   UNL A   1      31.659  24.872  26.422  1.00  0.00    -0.206 F 
BRANCH  88  90
ATOM     90  C   UNL A   1      31.599  25.776  23.685  1.00  0.00     0.302 C 
BRANCH  90  91
ATOM     91  N   UNL A   1      32.834  26.541  23.427  1.00  0.00    -0.322 N 
ATOM     92  C   UNL A   1      32.702  27.638  22.464  1.00  0.00     0.324 C 
ATOM     93  C   UNL A   1      33.616  27.025  24.585  1.00  0.00     0.328 C 
ATOM     94  H   UNL A   1      33.377  25.782  23.016  1.00  0.00     0.348 HD
ATOM     95  C   UNL A   1      32.243  29.006  23.025  1.00  0.00     0.324 C 
ATOM     96  C   UNL A   1      32.955  28.226  25.283  1.00  0.00     0.239 C 
ATOM     97  N   UNL A   1      32.539  29.337  24.426  1.00  0.00    -0.323 N 
ATOM     98  C   UNL A   1      33.696  28.817  26.478  1.00  0.00     0.071 C 
ATOM     99  C   UNL A   1      31.456  30.064  25.092  1.00  0.00     0.262 C 
ATOM    100  H   UNL A   1      33.353  29.942  24.317  1.00  0.00     0.348 HD
ATOM    101  C   UNL A   1      32.713  29.654  27.309  1.00  0.00     0.012 C 
ATOM    102  C   UNL A   1      31.859  30.611  26.470  1.00  0.00     0.062 C 
ENDBRANCH  90  91
ENDBRANCH  88  90
ENDBRANCH  81  83
ENDBRANCH  80  81
ENDBRANCH  79  80
ENDBRANCH  78  79
ENDBRANCH  77  78
ENDBRANCH  76  77
ENDBRANCH   1  76
TORSDOF 22
ENDMDL
MODEL 3
REMARK VINA RESULT:     -10.6      1.041      8.203
REMARK SMILES O=C(OCCOCCOCCOC(=O)c1ccc(C[N@H+]2CC[N@H+]3CCCC[C@@H]3C2)c(F)c1)c1ccc(-c2c3nc(c(-c4c(F)cc(S(=O)(=O)[O-])cc4F)c4ccc([nH]4)c(-c4c(F)cc(S(=O)(=O)[O-])cc4F)c4nc(c(-c5c(F)cc(S(=O)(=O)[O-])cc5F)c5ccc2[nH]5)C=C4)C=C3)cc1
REMARK SMILES IDX 7 1 6 2 5 3 4 4 3 5 2 6 1 7 33 8 34 9 98 10 35 11 97 12
REMARK SMILES IDX 36 13 37 14 38 15 91 16 39 17 96 18 90 19 92 20 40 21 95 22
REMARK SMILES IDX 89 23 88 24 41 26 75 27 54 28 74 29 55 30 58 31 73 32 93 33
REMARK SMILES IDX 56 34 57 35 72 37 94 38 59 39 42 40 43 41 52 42 44 43 45 44
REMARK SMILES IDX 51 45 53 46 46 47 47 48 48 49 49 50 50 51 76 52 77 53 86 54
REMARK SMILES IDX 78 55 79 56 85 57 87 58 80 59 81 60 82 61 83 62 84 63 60 64
REMARK SMILES IDX 61 65 70 66 62 67 63 68 69 69 71 70 64 71 65 72 66 73 67 74
REMARK SMILES IDX 68 75 8 76 9 77 10 78 11 79 12 80 13 81 14 82 15 83 16 84
REMARK SMILES IDX 32 85 17 86 30 87 18 88 31 89 19 90 20 91 21 92 29 93 22 95
REMARK SMILES IDX 28 96 23 97 27 98 24 99 26 101 25 102
REMARK H PARENT 92 25 58 36 20 94 23 100
REMARK Flexibility Score: inf
ROOT
ATOM      1  C   UNL A   1      35.194  29.591  27.583  1.00  0.00     0.188 C 
ENDROOT
BRANCH   1   2
ATOM      2  O   UNL A   1      34.653  30.679  28.333  1.00  0.00    -0.376 OA
BRANCH   2   3
ATOM      3  C   UNL A   1      34.436  31.860  27.547  1.00  0.00     0.202 C 
BRANCH   3   4
ATOM      4  C   UNL A   1      33.033  32.509  27.630  1.00  0.00     0.261 C 
BRANCH   4   5
ATOM      5  O   UNL A   1      33.025  33.928  27.880  1.00  0.00    -0.460 OA
BRANCH   5   6
ATOM      6  C   UNL A   1      33.356  34.626  28.996  1.00  0.00     0.338 C 
ATOM      7  O   UNL A   1      32.648  35.581  29.313  1.00  0.00    -0.246 OA
BRANCH   6   8
ATOM      8  C   UNL A   1      34.532  34.303  29.862  1.00  0.00     0.060 A 
ATOM      9  C   UNL A   1      35.861  34.408  29.465  1.00  0.00     0.016 A 
ATOM     10  C   UNL A   1      34.282  33.855  31.169  1.00  0.00     0.016 A 
ATOM     11  C   UNL A   1      36.902  33.933  30.246  1.00  0.00     0.010 A 
ATOM     12  C   UNL A   1      35.338  33.461  32.003  1.00  0.00     0.010 A 
ATOM     13  C   UNL A   1      36.656  33.443  31.517  1.00  0.00    -0.014 A 
BRANCH  13  14
ATOM     14  C   UNL A   1      37.739  32.746  32.245  1.00  0.00     0.031 A 
ATOM     15  C   UNL A   1      38.207  31.440  31.703  1.00  0.00     0.074 A 
ATOM     16  C   UNL A   1      38.439  33.312  33.246  1.00  0.00     0.049 A 
ATOM     17  N   UNL A   1      39.167  30.688  32.152  1.00  0.00    -0.248 NA
ATOM     18  C   UNL A   1      37.616  30.986  30.431  1.00  0.00     0.031 C 
ATOM     19  C   UNL A   1      38.410  34.720  33.588  1.00  0.00     0.029 A 
ATOM     20  N   UNL A   1      39.285  32.791  34.191  1.00  0.00    -0.354 N 
ATOM     21  C   UNL A   1      39.369  29.736  31.172  1.00  0.00     0.074 A 
ATOM     22  C   UNL A   1      38.352  29.921  30.162  1.00  0.00     0.031 C 
ATOM     23  C   UNL A   1      38.988  34.920  34.778  1.00  0.00     0.029 A 
ATOM     24  C   UNL A   1      39.507  33.662  35.240  1.00  0.00     0.049 A 
ATOM     25  H   UNL A   1      39.689  31.895  34.127  1.00  0.00     0.167 HD
ATOM     26  C   UNL A   1      40.380  28.848  31.101  1.00  0.00     0.037 A 
ATOM     27  C   UNL A   1      40.095  33.491  36.435  1.00  0.00     0.037 A 
ATOM     28  C   UNL A   1      41.355  28.689  32.146  1.00  0.00     0.049 A 
ATOM     29  C   UNL A   1      40.982  32.306  36.514  1.00  0.00     0.074 A 
ATOM     30  C   UNL A   1      42.361  27.751  32.245  1.00  0.00     0.029 A 
ATOM     31  N   UNL A   1      41.431  29.486  33.287  1.00  0.00    -0.354 N 
ATOM     32  N   UNL A   1      41.125  31.359  35.620  1.00  0.00    -0.248 NA
ATOM     33  C   UNL A   1      41.902  32.241  37.647  1.00  0.00     0.031 C 
ATOM     34  C   UNL A   1      42.998  27.932  33.477  1.00  0.00     0.029 A 
ATOM     35  C   UNL A   1      42.433  29.022  34.122  1.00  0.00     0.049 A 
ATOM     36  H   UNL A   1      40.858  30.265  33.472  1.00  0.00     0.167 HD
ATOM     37  C   UNL A   1      42.216  30.628  36.028  1.00  0.00     0.074 A 
ATOM     38  C   UNL A   1      42.669  31.224  37.277  1.00  0.00     0.031 C 
ATOM     39  C   UNL A   1      42.812  29.592  35.394  1.00  0.00     0.037 A 
BRANCH  26  40
ATOM     40  C   UNL A   1      40.413  27.977  29.886  1.00  0.00     0.058 A 
ATOM     41  C   UNL A   1      41.354  28.219  28.877  1.00  0.00     0.135 A 
ATOM     42  C   UNL A   1      39.565  26.862  29.746  1.00  0.00     0.135 A 
ATOM     43  F   UNL A   1      42.209  29.246  28.984  1.00  0.00    -0.206 F 
ATOM     44  C   UNL A   1      41.448  27.396  27.763  1.00  0.00     0.059 A 
ATOM     45  C   UNL A   1      39.659  26.011  28.648  1.00  0.00     0.059 A 
ATOM     46  F   UNL A   1      38.685  26.555  30.713  1.00  0.00    -0.206 F 
ATOM     47  C   UNL A   1      40.599  26.293  27.658  1.00  0.00     0.060 A 
BRANCH  47  48
ATOM     48  S   UNL A   1      40.780  25.210  26.227  1.00  0.00     0.124 S 
ATOM     49  O   UNL A   1      39.417  24.718  26.051  1.00  0.00    -0.237 OA
ATOM     50  O   UNL A   1      41.262  26.133  25.205  1.00  0.00    -0.237 OA
ATOM     51  O   UNL A   1      41.754  24.219  26.673  1.00  0.00    -0.744 OA
ENDBRANCH  47  48
ENDBRANCH  26  40
BRANCH  27  52
ATOM     52  C   UNL A   1      40.009  34.519  37.504  1.00  0.00     0.058 A 
ATOM     53  C   UNL A   1      40.968  35.544  37.585  1.00  0.00     0.135 A 
ATOM     54  C   UNL A   1      39.031  34.468  38.506  1.00  0.00     0.135 A 
ATOM     55  F   UNL A   1      41.935  35.635  36.660  1.00  0.00    -0.206 F 
ATOM     56  C   UNL A   1      40.975  36.462  38.635  1.00  0.00     0.059 A 
ATOM     57  C   UNL A   1      39.018  35.372  39.568  1.00  0.00     0.059 A 
ATOM     58  F   UNL A   1      38.092  33.512  38.471  1.00  0.00    -0.206 F 
ATOM     59  C   UNL A   1      40.010  36.352  39.637  1.00  0.00     0.060 A 
BRANCH  59  60
ATOM     60  S   UNL A   1      40.087  37.478  41.051  1.00  0.00     0.124 S 
ATOM     61  O   UNL A   1      41.404  38.083  40.872  1.00  0.00    -0.237 OA
ATOM     62  O   UNL A   1      38.949  38.358  40.812  1.00  0.00    -0.237 OA
ATOM     63  O   UNL A   1      39.958  36.587  42.199  1.00  0.00    -0.744 OA
ENDBRANCH  59  60
ENDBRANCH  27  52
BRANCH  39  64
ATOM     64  C   UNL A   1      43.991  29.007  36.095  1.00  0.00     0.058 A 
ATOM     65  C   UNL A   1      43.847  27.869  36.900  1.00  0.00     0.135 A 
ATOM     66  C   UNL A   1      45.259  29.595  35.980  1.00  0.00     0.135 A 
ATOM     67  F   UNL A   1      42.651  27.271  37.029  1.00  0.00    -0.206 F 
ATOM     68  C   UNL A   1      44.927  27.342  37.589  1.00  0.00     0.059 A 
ATOM     69  C   UNL A   1      46.359  29.063  36.631  1.00  0.00     0.059 A 
ATOM     70  F   UNL A   1      45.437  30.671  35.195  1.00  0.00    -0.206 F 
ATOM     71  C   UNL A   1      46.177  27.948  37.449  1.00  0.00     0.060 A 
BRANCH  71  72
ATOM     72  S   UNL A   1      47.576  27.241  38.336  1.00  0.00     0.124 S 
ATOM     73  O   UNL A   1      48.700  27.909  37.692  1.00  0.00    -0.237 OA
ATOM     74  O   UNL A   1      47.299  27.640  39.713  1.00  0.00    -0.237 OA
ATOM     75  O   UNL A   1      47.456  25.811  38.070  1.00  0.00    -0.744 OA
ENDBRANCH  71  72
ENDBRANCH  39  64
ENDBRANCH  13  14
ENDBRANCH   6   8
ENDBRANCH   5   6
ENDBRANCH   4   5
ENDBRANCH   3   4
ENDBRANCH   2   3
ENDBRANCH   1   2
BRANCH   1  76
ATOM     76  C   UNL A   1      34.203  28.695  26.840  1.00  0.00     0.188 C 
BRANCH  76  77
ATOM     77  O   UNL A   1      33.811  29.059  25.528  1.00  0.00    -0.376 OA
BRANCH  77  78
ATOM     78  C   UNL A   1      32.525  29.641  25.368  1.00  0.00     0.202 C 
BRANCH  78  79
ATOM     79  C   UNL A   1      31.351  28.794  24.837  1.00  0.00     0.261 C 
BRANCH  79  80
ATOM     80  O   UNL A   1      31.617  27.407  24.561  1.00  0.00    -0.460 OA
BRANCH  80  81
ATOM     81  C   UNL A   1      31.824  27.115  23.247  1.00  0.00     0.338 C 
ATOM     82  O   UNL A   1      31.842  27.908  22.325  1.00  0.00    -0.246 OA
BRANCH  81  83
ATOM     83  C   UNL A   1      31.913  25.646  23.032  1.00  0.00     0.063 A 
ATOM     84  C   UNL A   1      30.757  24.901  23.289  1.00  0.00     0.016 A 
ATOM     85  C   UNL A   1      33.083  24.986  22.641  1.00  0.00     0.055 A 
ATOM     86  C   UNL A   1      30.793  23.502  23.244  1.00  0.00     0.013 A 
ATOM     87  C   UNL A   1      33.111  23.585  22.623  1.00  0.00     0.132 A 
ATOM     88  C   UNL A   1      31.999  22.822  22.995  1.00  0.00     0.042 A 
ATOM     89  F   UNL A   1      34.265  22.975  22.310  1.00  0.00    -0.206 F 
BRANCH  88  90
ATOM     90  C   UNL A   1      32.088  21.324  23.228  1.00  0.00     0.302 C 
BRANCH  90  91
ATOM     91  N   UNL A   1      32.188  20.785  24.599  1.00  0.00    -0.322 N 
ATOM     92  C   UNL A   1      32.895  19.507  24.720  1.00  0.00     0.324 C 
ATOM     93  C   UNL A   1      32.657  21.684  25.675  1.00  0.00     0.328 C 
ATOM     94  H   UNL A   1      31.191  20.647  24.760  1.00  0.00     0.348 HD
ATOM     95  C   UNL A   1      34.433  19.575  24.879  1.00  0.00     0.324 C 
ATOM     96  C   UNL A   1      34.172  21.943  25.610  1.00  0.00     0.239 C 
ATOM     97  N   UNL A   1      35.035  20.767  25.491  1.00  0.00    -0.323 N 
ATOM     98  C   UNL A   1      34.761  22.841  26.693  1.00  0.00     0.071 C 
ATOM     99  C   UNL A   1      36.295  21.170  24.863  1.00  0.00     0.262 C 
ATOM    100  H   UNL A   1      35.207  20.435  26.440  1.00  0.00     0.348 HD
ATOM    101  C   UNL A   1      36.128  23.359  26.221  1.00  0.00     0.012 C 
ATOM    102  C   UNL A   1      37.035  22.264  25.647  1.00  0.00     0.062 C 
ENDBRANCH  90  91
ENDBRANCH  88  90
ENDBRANCH  81  83
ENDBRANCH  80  81
ENDBRANCH  79  80
ENDBRANCH  78  79
ENDBRANCH  77  78
ENDBRANCH  76  77
ENDBRANCH   1  76
TORSDOF 22
ENDMDL
