MODEL 1
REMARK VINA RESULT:      -9.3      0.000      0.000
REMARK SMILES O=C(Cc1ccc(=O)n(C(F)F)c1)OCCOCCOCCOC(=O)c1ccc(-c2c3nc(c(-c4c(F)cc(S(=O)(=O)[O-])cc4F)c4ccc([nH]4)c(-c4c(F)cc(S(=O)(=O)[O-])cc4F)c4nc(c(-c5c(F)cc(S(=O)(=O)[O-])cc5F)c5ccc2[nH]5)C=C4)C=C3)cc1
REMARK SMILES IDX 19 1 18 2 17 3 16 4 15 5 14 6 2 7 1 8 3 9 4 10 5 11 13 12
REMARK SMILES IDX 6 13 9 14 7 15 8 16 10 17 11 18 12 19 20 20 21 21 22 22
REMARK SMILES IDX 23 23 24 24 25 25 26 26 27 27 91 28 28 29 90 30 29 31 30 32
REMARK SMILES IDX 31 33 84 34 32 35 89 36 83 37 85 38 33 39 88 40 82 41 81 42
REMARK SMILES IDX 34 44 68 45 47 46 67 47 48 48 51 49 66 50 86 51 49 52 50 53
REMARK SMILES IDX 65 55 87 56 52 57 35 58 36 59 45 60 37 61 38 62 44 63 46 64
REMARK SMILES IDX 39 65 40 66 41 67 42 68 43 69 69 70 70 71 79 72 71 73 72 74
REMARK SMILES IDX 78 75 80 76 73 77 74 78 75 79 76 80 77 81 53 82 54 83 63 84
REMARK SMILES IDX 55 85 56 86 62 87 64 88 57 89 58 90 59 91 60 92 61 93
REMARK H PARENT 85 43 51 54
REMARK Flexibility Score: inf
ROOT
ATOM      1  C   UNL A   1      40.633  20.018  26.553  1.00  0.00     0.188 C 
ENDROOT
BRANCH   1   2
ATOM      2  C   UNL A   1      42.064  19.469  26.558  1.00  0.00     0.188 C 
BRANCH   2   3
ATOM      3  O   UNL A   1      42.739  19.572  25.329  1.00  0.00    -0.376 OA
BRANCH   3   4
ATOM      4  C   UNL A   1      44.073  19.148  25.147  1.00  0.00     0.202 C 
BRANCH   4   5
ATOM      5  C   UNL A   1      45.019  19.652  24.049  1.00  0.00     0.261 C 
BRANCH   5   6
ATOM      6  O   UNL A   1      44.908  20.983  23.511  1.00  0.00    -0.463 OA
BRANCH   6   7
ATOM      7  C   UNL A   1      44.749  22.177  24.117  1.00  0.00     0.310 C 
ATOM      8  O   UNL A   1      43.643  22.715  24.094  1.00  0.00    -0.252 OA
BRANCH   7   9
ATOM      9  C   UNL A   1      45.940  22.891  24.724  1.00  0.00     0.159 C 
BRANCH   9  10
ATOM     10  C   UNL A   1      45.602  23.592  25.998  1.00  0.00    -0.020 A 
ATOM     11  C   UNL A   1      45.955  24.988  26.133  1.00  0.00     0.011 A 
ATOM     12  C   UNL A   1      44.986  22.976  27.018  1.00  0.00     0.099 A 
ATOM     13  C   UNL A   1      45.570  25.684  27.209  1.00  0.00     0.072 A 
ATOM     14  N   UNL A   1      44.524  23.681  28.110  1.00  0.00    -0.258 N 
ATOM     15  C   UNL A   1      44.745  25.040  28.269  1.00  0.00     0.254 A 
ATOM     16  O   UNL A   1      44.297  25.735  29.175  1.00  0.00    -0.269 OA
BRANCH  14  17
ATOM     17  C   UNL A   1      43.711  23.024  29.101  1.00  0.00     0.451 C 
ATOM     18  F   UNL A   1      43.207  21.857  28.643  1.00  0.00    -0.185 F 
ATOM     19  F   UNL A   1      44.431  22.766  30.223  1.00  0.00    -0.185 F 
ENDBRANCH  14  17
ENDBRANCH   9  10
ENDBRANCH   7   9
ENDBRANCH   6   7
ENDBRANCH   5   6
ENDBRANCH   4   5
ENDBRANCH   3   4
ENDBRANCH   2   3
ENDBRANCH   1   2
BRANCH   1  20
ATOM     20  O   UNL A   1      40.302  21.031  27.490  1.00  0.00    -0.376 OA
BRANCH  20  21
ATOM     21  C   UNL A   1      39.835  22.282  26.990  1.00  0.00     0.202 C 
BRANCH  21  22
ATOM     22  C   UNL A   1      40.734  23.102  26.045  1.00  0.00     0.261 C 
BRANCH  22  23
ATOM     23  O   UNL A   1      41.674  23.985  26.696  1.00  0.00    -0.460 OA
BRANCH  23  24
ATOM     24  C   UNL A   1      41.753  25.242  26.200  1.00  0.00     0.338 C 
ATOM     25  O   UNL A   1      42.029  25.561  25.045  1.00  0.00    -0.246 OA
BRANCH  24  26
ATOM     26  C   UNL A   1      41.326  26.230  27.208  1.00  0.00     0.060 A 
ATOM     27  C   UNL A   1      40.346  25.903  28.146  1.00  0.00     0.016 A 
ATOM     28  C   UNL A   1      41.996  27.459  27.291  1.00  0.00     0.016 A 
ATOM     29  C   UNL A   1      40.054  26.803  29.181  1.00  0.00     0.010 A 
ATOM     30  C   UNL A   1      41.690  28.363  28.314  1.00  0.00     0.010 A 
ATOM     31  C   UNL A   1      40.733  28.031  29.285  1.00  0.00    -0.014 A 
BRANCH  31  32
ATOM     32  C   UNL A   1      40.562  28.883  30.494  1.00  0.00     0.031 A 
ATOM     33  C   UNL A   1      41.436  28.732  31.708  1.00  0.00     0.074 A 
ATOM     34  C   UNL A   1      39.589  29.816  30.487  1.00  0.00     0.049 A 
ATOM     35  N   UNL A   1      41.447  29.446  32.805  1.00  0.00    -0.248 NA
ATOM     36  C   UNL A   1      42.422  27.643  31.687  1.00  0.00     0.031 C 
ATOM     37  C   UNL A   1      38.661  30.050  29.379  1.00  0.00     0.029 A 
ATOM     38  N   UNL A   1      39.223  30.746  31.429  1.00  0.00    -0.354 N 
ATOM     39  C   UNL A   1      42.461  28.919  33.597  1.00  0.00     0.074 A 
ATOM     40  C   UNL A   1      43.007  27.788  32.871  1.00  0.00     0.031 C 
ATOM     41  C   UNL A   1      37.855  31.077  29.692  1.00  0.00     0.029 A 
ATOM     42  C   UNL A   1      38.186  31.556  31.031  1.00  0.00     0.049 A 
ATOM     43  H   UNL A   1      39.661  30.824  32.308  1.00  0.00     0.167 HD
ATOM     44  C   UNL A   1      42.906  29.353  34.802  1.00  0.00     0.037 A 
ATOM     45  C   UNL A   1      37.572  32.575  31.665  1.00  0.00     0.037 A 
ATOM     46  C   UNL A   1      42.339  30.459  35.538  1.00  0.00     0.049 A 
ATOM     47  C   UNL A   1      38.040  32.984  33.035  1.00  0.00     0.074 A 
ATOM     48  C   UNL A   1      42.732  30.967  36.765  1.00  0.00     0.029 A 
ATOM     49  N   UNL A   1      41.255  31.222  35.125  1.00  0.00    -0.354 N 
ATOM     50  N   UNL A   1      39.032  32.505  33.747  1.00  0.00    -0.248 NA
ATOM     51  C   UNL A   1      37.307  34.080  33.686  1.00  0.00     0.031 C 
ATOM     52  C   UNL A   1      41.860  32.003  37.117  1.00  0.00     0.029 A 
ATOM     53  C   UNL A   1      40.957  32.181  36.084  1.00  0.00     0.049 A 
ATOM     54  H   UNL A   1      40.770  31.101  34.277  1.00  0.00     0.167 HD
ATOM     55  C   UNL A   1      39.062  33.261  34.914  1.00  0.00     0.074 A 
ATOM     56  C   UNL A   1      37.999  34.239  34.806  1.00  0.00     0.031 C 
ATOM     57  C   UNL A   1      39.898  33.155  35.976  1.00  0.00     0.037 A 
BRANCH  44  58
ATOM     58  C   UNL A   1      44.086  28.644  35.415  1.00  0.00     0.058 A 
ATOM     59  C   UNL A   1      43.909  27.548  36.275  1.00  0.00     0.135 A 
ATOM     60  C   UNL A   1      45.401  28.994  35.068  1.00  0.00     0.135 A 
ATOM     61  F   UNL A   1      42.675  27.176  36.650  1.00  0.00    -0.206 F 
ATOM     62  C   UNL A   1      44.991  26.833  36.777  1.00  0.00     0.059 A 
ATOM     63  C   UNL A   1      46.499  28.277  35.538  1.00  0.00     0.059 A 
ATOM     64  F   UNL A   1      45.630  30.031  34.245  1.00  0.00    -0.206 F 
ATOM     65  C   UNL A   1      46.283  27.202  36.399  1.00  0.00     0.060 A 
BRANCH  65  66
ATOM     66  S   UNL A   1      47.672  26.251  37.050  1.00  0.00     0.124 S 
ATOM     67  O   UNL A   1      48.050  27.050  38.210  1.00  0.00    -0.237 OA
ATOM     68  O   UNL A   1      47.054  24.961  37.340  1.00  0.00    -0.237 OA
ATOM     69  O   UNL A   1      48.632  26.251  35.950  1.00  0.00    -0.744 OA
ENDBRANCH  65  66
ENDBRANCH  44  58
BRANCH  45  70
ATOM     70  C   UNL A   1      36.465  33.307  30.994  1.00  0.00     0.058 A 
ATOM     71  C   UNL A   1      36.728  34.210  29.953  1.00  0.00     0.135 A 
ATOM     72  C   UNL A   1      35.127  33.120  31.375  1.00  0.00     0.135 A 
ATOM     73  F   UNL A   1      37.992  34.429  29.558  1.00  0.00    -0.206 F 
ATOM     74  C   UNL A   1      35.708  34.916  29.325  1.00  0.00     0.059 A 
ATOM     75  C   UNL A   1      34.086  33.792  30.742  1.00  0.00     0.059 A 
ATOM     76  F   UNL A   1      34.822  32.257  32.356  1.00  0.00    -0.206 F 
ATOM     77  C   UNL A   1      34.389  34.697  29.725  1.00  0.00     0.060 A 
BRANCH  77  78
ATOM     78  S   UNL A   1      33.071  35.592  28.876  1.00  0.00     0.124 S 
ATOM     79  O   UNL A   1      33.832  36.508  28.034  1.00  0.00    -0.237 OA
ATOM     80  O   UNL A   1      32.373  34.515  28.180  1.00  0.00    -0.237 OA
ATOM     81  O   UNL A   1      32.325  36.210  29.969  1.00  0.00    -0.744 OA
ENDBRANCH  77  78
ENDBRANCH  45  70
BRANCH  57  82
ATOM     82  C   UNL A   1      39.720  34.139  37.103  1.00  0.00     0.058 A 
ATOM     83  C   UNL A   1      38.857  33.886  38.181  1.00  0.00     0.135 A 
ATOM     84  C   UNL A   1      40.449  35.341  37.123  1.00  0.00     0.135 A 
ATOM     85  F   UNL A   1      38.131  32.757  38.213  1.00  0.00    -0.206 F 
ATOM     86  C   UNL A   1      38.698  34.799  39.219  1.00  0.00     0.059 A 
ATOM     87  C   UNL A   1      40.331  36.254  38.167  1.00  0.00     0.059 A 
ATOM     88  F   UNL A   1      41.299  35.633  36.125  1.00  0.00    -0.206 F 
ATOM     89  C   UNL A   1      39.440  35.982  39.205  1.00  0.00     0.060 A 
BRANCH  89  90
ATOM     90  S   UNL A   1      39.233  37.149  40.566  1.00  0.00     0.124 S 
ATOM     91  O   UNL A   1      38.255  38.079  40.011  1.00  0.00    -0.237 OA
ATOM     92  O   UNL A   1      38.751  36.287  41.642  1.00  0.00    -0.237 OA
ATOM     93  O   UNL A   1      40.575  37.691  40.759  1.00  0.00    -0.744 OA
ENDBRANCH  89  90
ENDBRANCH  57  82
ENDBRANCH  31  32
ENDBRANCH  24  26
ENDBRANCH  23  24
ENDBRANCH  22  23
ENDBRANCH  21  22
ENDBRANCH  20  21
ENDBRANCH   1  20
TORSDOF 22
ENDMDL
MODEL 2
REMARK VINA RESULT:      -9.0      3.158      9.561
REMARK SMILES O=C(Cc1ccc(=O)n(C(F)F)c1)OCCOCCOCCOC(=O)c1ccc(-c2c3nc(c(-c4c(F)cc(S(=O)(=O)[O-])cc4F)c4ccc([nH]4)c(-c4c(F)cc(S(=O)(=O)[O-])cc4F)c4nc(c(-c5c(F)cc(S(=O)(=O)[O-])cc5F)c5ccc2[nH]5)C=C4)C=C3)cc1
REMARK SMILES IDX 19 1 18 2 17 3 16 4 15 5 14 6 2 7 1 8 3 9 4 10 5 11 13 12
REMARK SMILES IDX 6 13 9 14 7 15 8 16 10 17 11 18 12 19 20 20 21 21 22 22
REMARK SMILES IDX 23 23 24 24 25 25 26 26 27 27 91 28 28 29 90 30 29 31 30 32
REMARK SMILES IDX 31 33 84 34 32 35 89 36 83 37 85 38 33 39 88 40 82 41 81 42
REMARK SMILES IDX 34 44 68 45 47 46 67 47 48 48 51 49 66 50 86 51 49 52 50 53
REMARK SMILES IDX 65 55 87 56 52 57 35 58 36 59 45 60 37 61 38 62 44 63 46 64
REMARK SMILES IDX 39 65 40 66 41 67 42 68 43 69 69 70 70 71 79 72 71 73 72 74
REMARK SMILES IDX 78 75 80 76 73 77 74 78 75 79 76 80 77 81 53 82 54 83 63 84
REMARK SMILES IDX 55 85 56 86 62 87 64 88 57 89 58 90 59 91 60 92 61 93
REMARK H PARENT 85 43 51 54
REMARK Flexibility Score: inf
ROOT
ATOM      1  C   UNL A   1      42.455  20.392  26.088  1.00  0.00     0.188 C 
ENDROOT
BRANCH   1   2
ATOM      2  C   UNL A   1      41.042  20.412  26.681  1.00  0.00     0.188 C 
BRANCH   2   3
ATOM      3  O   UNL A   1      40.247  21.497  26.273  1.00  0.00    -0.376 OA
BRANCH   3   4
ATOM      4  C   UNL A   1      38.944  21.342  25.754  1.00  0.00     0.202 C 
BRANCH   4   5
ATOM      5  C   UNL A   1      37.858  22.427  25.750  1.00  0.00     0.261 C 
BRANCH   5   6
ATOM      6  O   UNL A   1      37.438  23.069  24.531  1.00  0.00    -0.463 OA
BRANCH   6   7
ATOM      7  C   UNL A   1      36.286  22.990  23.836  1.00  0.00     0.310 C 
ATOM      8  O   UNL A   1      36.334  22.845  22.615  1.00  0.00    -0.252 OA
BRANCH   7   9
ATOM      9  C   UNL A   1      34.956  23.181  24.536  1.00  0.00     0.159 C 
BRANCH   9  10
ATOM     10  C   UNL A   1      34.216  21.898  24.726  1.00  0.00    -0.020 A 
ATOM     11  C   UNL A   1      32.776  21.944  24.853  1.00  0.00     0.011 A 
ATOM     12  C   UNL A   1      34.836  20.710  24.782  1.00  0.00     0.099 A 
ATOM     13  C   UNL A   1      32.064  20.813  24.910  1.00  0.00     0.072 A 
ATOM     14  N   UNL A   1      34.125  19.527  24.778  1.00  0.00    -0.258 N 
ATOM     15  C   UNL A   1      32.741  19.488  24.810  1.00  0.00     0.254 A 
ATOM     16  O   UNL A   1      32.053  18.476  24.731  1.00  0.00    -0.269 OA
BRANCH  14  17
ATOM     17  C   UNL A   1      34.819  18.271  24.658  1.00  0.00     0.451 C 
ATOM     18  F   UNL A   1      34.535  17.650  23.491  1.00  0.00    -0.185 F 
ATOM     19  F   UNL A   1      36.163  18.451  24.729  1.00  0.00    -0.185 F 
ENDBRANCH  14  17
ENDBRANCH   9  10
ENDBRANCH   7   9
ENDBRANCH   6   7
ENDBRANCH   5   6
ENDBRANCH   4   5
ENDBRANCH   3   4
ENDBRANCH   2   3
ENDBRANCH   1   2
BRANCH   1  20
ATOM     20  O   UNL A   1      43.266  21.544  26.253  1.00  0.00    -0.376 OA
BRANCH  20  21
ATOM     21  C   UNL A   1      43.472  22.388  25.122  1.00  0.00     0.202 C 
BRANCH  21  22
ATOM     22  C   UNL A   1      43.188  23.898  25.242  1.00  0.00     0.261 C 
BRANCH  22  23
ATOM     23  O   UNL A   1      42.168  24.262  26.197  1.00  0.00    -0.460 OA
BRANCH  23  24
ATOM     24  C   UNL A   1      41.655  25.509  26.075  1.00  0.00     0.338 C 
ATOM     25  O   UNL A   1      41.128  25.993  25.077  1.00  0.00    -0.246 OA
BRANCH  24  26
ATOM     26  C   UNL A   1      41.681  26.214  27.371  1.00  0.00     0.060 A 
ATOM     27  C   UNL A   1      42.688  27.137  27.653  1.00  0.00     0.016 A 
ATOM     28  C   UNL A   1      40.619  26.036  28.269  1.00  0.00     0.016 A 
ATOM     29  C   UNL A   1      42.617  27.897  28.829  1.00  0.00     0.010 A 
ATOM     30  C   UNL A   1      40.560  26.783  29.450  1.00  0.00     0.010 A 
ATOM     31  C   UNL A   1      41.546  27.740  29.729  1.00  0.00    -0.014 A 
BRANCH  31  32
ATOM     32  C   UNL A   1      41.374  28.689  30.864  1.00  0.00     0.031 A 
ATOM     33  C   UNL A   1      40.329  29.769  30.851  1.00  0.00     0.074 A 
ATOM     34  C   UNL A   1      42.189  28.565  31.931  1.00  0.00     0.049 A 
ATOM     35  N   UNL A   1      40.019  30.623  31.793  1.00  0.00    -0.248 NA
ATOM     36  C   UNL A   1      39.529  29.908  29.626  1.00  0.00     0.031 C 
ATOM     37  C   UNL A   1      43.256  27.571  32.058  1.00  0.00     0.029 A 
ATOM     38  N   UNL A   1      42.243  29.265  33.111  1.00  0.00    -0.354 N 
ATOM     39  C   UNL A   1      38.967  31.382  31.295  1.00  0.00     0.074 A 
ATOM     40  C   UNL A   1      38.728  30.918  29.941  1.00  0.00     0.031 C 
ATOM     41  C   UNL A   1      43.838  27.704  33.260  1.00  0.00     0.029 A 
ATOM     42  C   UNL A   1      43.208  28.808  33.979  1.00  0.00     0.049 A 
ATOM     43  H   UNL A   1      41.649  30.023  33.317  1.00  0.00     0.167 HD
ATOM     44  C   UNL A   1      38.256  32.356  31.916  1.00  0.00     0.037 A 
ATOM     45  C   UNL A   1      43.546  29.224  35.216  1.00  0.00     0.037 A 
ATOM     46  C   UNL A   1      38.518  32.838  33.252  1.00  0.00     0.049 A 
ATOM     47  C   UNL A   1      42.787  30.358  35.850  1.00  0.00     0.074 A 
ATOM     48  C   UNL A   1      37.843  33.820  33.960  1.00  0.00     0.029 A 
ATOM     49  N   UNL A   1      39.537  32.388  34.080  1.00  0.00    -0.354 N 
ATOM     50  N   UNL A   1      41.763  31.030  35.381  1.00  0.00    -0.248 NA
ATOM     51  C   UNL A   1      43.227  30.784  37.185  1.00  0.00     0.031 C 
ATOM     52  C   UNL A   1      38.481  33.997  35.192  1.00  0.00     0.029 A 
ATOM     53  C   UNL A   1      39.518  33.086  35.280  1.00  0.00     0.049 A 
ATOM     54  H   UNL A   1      40.178  31.677  33.850  1.00  0.00     0.167 HD
ATOM     55  C   UNL A   1      41.417  31.937  36.378  1.00  0.00     0.074 A 
ATOM     56  C   UNL A   1      42.331  31.717  37.479  1.00  0.00     0.031 C 
ATOM     57  C   UNL A   1      40.429  32.866  36.378  1.00  0.00     0.037 A 
BRANCH  44  58
ATOM     58  C   UNL A   1      37.100  32.970  31.171  1.00  0.00     0.058 A 
ATOM     59  C   UNL A   1      37.313  33.888  30.130  1.00  0.00     0.135 A 
ATOM     60  C   UNL A   1      35.778  32.569  31.426  1.00  0.00     0.135 A 
ATOM     61  F   UNL A   1      38.554  34.316  29.849  1.00  0.00    -0.206 F 
ATOM     62  C   UNL A   1      36.258  34.396  29.378  1.00  0.00     0.059 A 
ATOM     63  C   UNL A   1      34.709  33.044  30.670  1.00  0.00     0.059 A 
ATOM     64  F   UNL A   1      35.516  31.690  32.407  1.00  0.00    -0.206 F 
ATOM     65  C   UNL A   1      34.959  33.963  29.653  1.00  0.00     0.060 A 
BRANCH  65  66
ATOM     66  S   UNL A   1      33.607  34.622  28.655  1.00  0.00     0.124 S 
ATOM     67  O   UNL A   1      34.233  35.798  28.061  1.00  0.00    -0.237 OA
ATOM     68  O   UNL A   1      33.331  33.518  27.741  1.00  0.00    -0.237 OA
ATOM     69  O   UNL A   1      32.561  34.897  29.636  1.00  0.00    -0.744 OA
ENDBRANCH  65  66
ENDBRANCH  44  58
BRANCH  45  70
ATOM     70  C   UNL A   1      44.638  28.538  35.956  1.00  0.00     0.058 A 
ATOM     71  C   UNL A   1      44.357  27.480  36.835  1.00  0.00     0.135 A 
ATOM     72  C   UNL A   1      45.980  28.920  35.801  1.00  0.00     0.135 A 
ATOM     73  F   UNL A   1      43.088  27.084  37.022  1.00  0.00    -0.206 F 
ATOM     74  C   UNL A   1      45.363  26.838  37.547  1.00  0.00     0.059 A 
ATOM     75  C   UNL A   1      47.007  28.274  36.481  1.00  0.00     0.059 A 
ATOM     76  F   UNL A   1      46.302  29.917  34.963  1.00  0.00    -0.206 F 
ATOM     77  C   UNL A   1      46.686  27.240  37.361  1.00  0.00     0.060 A 
BRANCH  77  78
ATOM     78  S   UNL A   1      47.985  26.373  38.265  1.00  0.00     0.124 S 
ATOM     79  O   UNL A   1      47.782  26.869  39.621  1.00  0.00    -0.237 OA
ATOM     80  O   UNL A   1      47.632  24.974  38.036  1.00  0.00    -0.237 OA
ATOM     81  O   UNL A   1      49.210  26.819  37.606  1.00  0.00    -0.744 OA
ENDBRANCH  77  78
ENDBRANCH  45  70
BRANCH  57  82
ATOM     82  C   UNL A   1      40.259  33.702  37.620  1.00  0.00     0.058 A 
ATOM     83  C   UNL A   1      39.316  33.379  38.609  1.00  0.00     0.135 A 
ATOM     84  C   UNL A   1      41.074  34.826  37.841  1.00  0.00     0.135 A 
ATOM     85  F   UNL A   1      38.506  32.320  38.450  1.00  0.00    -0.206 F 
ATOM     86  C   UNL A   1      39.165  34.155  39.755  1.00  0.00     0.059 A 
ATOM     87  C   UNL A   1      40.962  35.598  38.994  1.00  0.00     0.059 A 
ATOM     88  F   UNL A   1      42.001  35.177  36.935  1.00  0.00    -0.206 F 
ATOM     89  C   UNL A   1      39.994  35.263  39.939  1.00  0.00     0.060 A 
BRANCH  89  90
ATOM     90  S   UNL A   1      39.794  36.251  41.438  1.00  0.00     0.124 S 
ATOM     91  O   UNL A   1      41.073  36.951  41.502  1.00  0.00    -0.237 OA
ATOM     92  O   UNL A   1      38.634  37.076  41.112  1.00  0.00    -0.237 OA
ATOM     93  O   UNL A   1      39.573  35.251  42.478  1.00  0.00    -0.744 OA
ENDBRANCH  89  90
ENDBRANCH  57  82
ENDBRANCH  31  32
ENDBRANCH  24  26
ENDBRANCH  23  24
ENDBRANCH  22  23
ENDBRANCH  21  22
ENDBRANCH  20  21
ENDBRANCH   1  20
TORSDOF 22
ENDMDL
MODEL 3
REMARK VINA RESULT:      -8.9      4.970     11.494
REMARK SMILES O=C(Cc1ccc(=O)n(C(F)F)c1)OCCOCCOCCOC(=O)c1ccc(-c2c3nc(c(-c4c(F)cc(S(=O)(=O)[O-])cc4F)c4ccc([nH]4)c(-c4c(F)cc(S(=O)(=O)[O-])cc4F)c4nc(c(-c5c(F)cc(S(=O)(=O)[O-])cc5F)c5ccc2[nH]5)C=C4)C=C3)cc1
REMARK SMILES IDX 19 1 18 2 17 3 16 4 15 5 14 6 2 7 1 8 3 9 4 10 5 11 13 12
REMARK SMILES IDX 6 13 9 14 7 15 8 16 10 17 11 18 12 19 20 20 21 21 22 22
REMARK SMILES IDX 23 23 24 24 25 25 26 26 27 27 91 28 28 29 90 30 29 31 30 32
REMARK SMILES IDX 31 33 84 34 32 35 89 36 83 37 85 38 33 39 88 40 82 41 81 42
REMARK SMILES IDX 34 44 68 45 47 46 67 47 48 48 51 49 66 50 86 51 49 52 50 53
REMARK SMILES IDX 65 55 87 56 52 57 35 58 36 59 45 60 37 61 38 62 44 63 46 64
REMARK SMILES IDX 39 65 40 66 41 67 42 68 43 69 69 70 70 71 79 72 71 73 72 74
REMARK SMILES IDX 78 75 80 76 73 77 74 78 75 79 76 80 77 81 53 82 54 83 63 84
REMARK SMILES IDX 55 85 56 86 62 87 64 88 57 89 58 90 59 91 60 92 61 93
REMARK H PARENT 85 43 51 54
REMARK Flexibility Score: inf
ROOT
ATOM      1  C   UNL A   1      34.324  29.100  27.061  1.00  0.00     0.188 C 
ENDROOT
BRANCH   1   2
ATOM      2  C   UNL A   1      34.045  29.295  25.567  1.00  0.00     0.188 C 
BRANCH   2   3
ATOM      3  O   UNL A   1      32.880  28.663  25.097  1.00  0.00    -0.376 OA
BRANCH   3   4
ATOM      4  C   UNL A   1      32.714  27.261  25.095  1.00  0.00     0.202 C 
BRANCH   4   5
ATOM      5  C   UNL A   1      31.524  26.513  24.481  1.00  0.00     0.261 C 
BRANCH   5   6
ATOM      6  O   UNL A   1      30.187  27.047  24.537  1.00  0.00    -0.463 OA
BRANCH   6   7
ATOM      7  C   UNL A   1      29.379  27.524  23.569  1.00  0.00     0.310 C 
ATOM      8  O   UNL A   1      28.206  27.153  23.535  1.00  0.00    -0.252 OA
BRANCH   7   9
ATOM      9  C   UNL A   1      29.935  28.420  22.481  1.00  0.00     0.159 C 
BRANCH   9  10
ATOM     10  C   UNL A   1      29.377  29.805  22.536  1.00  0.00    -0.020 A 
ATOM     11  C   UNL A   1      29.442  30.525  23.788  1.00  0.00     0.011 A 
ATOM     12  C   UNL A   1      28.820  30.401  21.472  1.00  0.00     0.099 A 
ATOM     13  C   UNL A   1      29.060  31.806  23.854  1.00  0.00     0.072 A 
ATOM     14  N   UNL A   1      28.475  31.736  21.494  1.00  0.00    -0.258 N 
ATOM     15  C   UNL A   1      28.591  32.518  22.632  1.00  0.00     0.254 A 
ATOM     16  O   UNL A   1      28.374  33.723  22.695  1.00  0.00    -0.269 OA
BRANCH  14  17
ATOM     17  C   UNL A   1      28.047  32.390  20.284  1.00  0.00     0.451 C 
ATOM     18  F   UNL A   1      27.379  31.546  19.466  1.00  0.00    -0.185 F 
ATOM     19  F   UNL A   1      27.236  33.443  20.564  1.00  0.00    -0.185 F 
ENDBRANCH  14  17
ENDBRANCH   9  10
ENDBRANCH   7   9
ENDBRANCH   6   7
ENDBRANCH   5   6
ENDBRANCH   4   5
ENDBRANCH   3   4
ENDBRANCH   2   3
ENDBRANCH   1   2
BRANCH   1  20
ATOM     20  O   UNL A   1      34.071  30.188  27.936  1.00  0.00    -0.376 OA
BRANCH  20  21
ATOM     21  C   UNL A   1      33.231  31.242  27.472  1.00  0.00     0.202 C 
BRANCH  21  22
ATOM     22  C   UNL A   1      33.702  32.702  27.610  1.00  0.00     0.261 C 
BRANCH  22  23
ATOM     23  O   UNL A   1      32.699  33.636  28.064  1.00  0.00    -0.460 OA
BRANCH  23  24
ATOM     24  C   UNL A   1      33.157  34.738  28.706  1.00  0.00     0.338 C 
ATOM     25  O   UNL A   1      32.643  35.854  28.708  1.00  0.00    -0.246 OA
BRANCH  24  26
ATOM     26  C   UNL A   1      34.321  34.406  29.548  1.00  0.00     0.060 A 
ATOM     27  C   UNL A   1      34.142  33.822  30.803  1.00  0.00     0.016 A 
ATOM     28  C   UNL A   1      35.613  34.573  29.029  1.00  0.00     0.016 A 
ATOM     29  C   UNL A   1      35.261  33.387  31.527  1.00  0.00     0.010 A 
ATOM     30  C   UNL A   1      36.728  34.154  29.761  1.00  0.00     0.010 A 
ATOM     31  C   UNL A   1      36.561  33.532  31.007  1.00  0.00    -0.014 A 
BRANCH  31  32
ATOM     32  C   UNL A   1      37.718  32.887  31.687  1.00  0.00     0.031 A 
ATOM     33  C   UNL A   1      38.277  33.409  32.981  1.00  0.00     0.074 A 
ATOM     34  C   UNL A   1      38.272  31.800  31.114  1.00  0.00     0.049 A 
ATOM     35  N   UNL A   1      39.235  32.912  33.721  1.00  0.00    -0.248 NA
ATOM     36  C   UNL A   1      37.685  34.645  33.512  1.00  0.00     0.031 C 
ATOM     37  C   UNL A   1      37.835  31.206  29.849  1.00  0.00     0.029 A 
ATOM     38  N   UNL A   1      39.309  30.996  31.519  1.00  0.00    -0.354 N 
ATOM     39  C   UNL A   1      39.345  33.751  34.824  1.00  0.00     0.074 A 
ATOM     40  C   UNL A   1      38.386  34.821  34.626  1.00  0.00     0.031 C 
ATOM     41  C   UNL A   1      38.576  30.115  29.598  1.00  0.00     0.029 A 
ATOM     42  C   UNL A   1      39.559  29.947  30.665  1.00  0.00     0.049 A 
ATOM     43  H   UNL A   1      39.826  31.156  32.342  1.00  0.00     0.167 HD
ATOM     44  C   UNL A   1      40.152  33.626  35.907  1.00  0.00     0.037 A 
ATOM     45  C   UNL A   1      40.470  28.956  30.732  1.00  0.00     0.037 A 
ATOM     46  C   UNL A   1      41.129  32.577  36.086  1.00  0.00     0.049 A 
ATOM     47  C   UNL A   1      41.405  28.887  31.911  1.00  0.00     0.074 A 
ATOM     48  C   UNL A   1      41.986  32.374  37.155  1.00  0.00     0.029 A 
ATOM     49  N   UNL A   1      41.390  31.563  35.175  1.00  0.00    -0.354 N 
ATOM     50  N   UNL A   1      41.459  29.662  32.967  1.00  0.00    -0.248 NA
ATOM     51  C   UNL A   1      42.396  27.803  31.907  1.00  0.00     0.031 C 
ATOM     52  C   UNL A   1      42.796  31.269  36.871  1.00  0.00     0.029 A 
ATOM     53  C   UNL A   1      42.406  30.746  35.650  1.00  0.00     0.049 A 
ATOM     54  H   UNL A   1      40.922  31.440  34.317  1.00  0.00     0.167 HD
ATOM     55  C   UNL A   1      42.470  29.139  33.768  1.00  0.00     0.074 A 
ATOM     56  C   UNL A   1      42.988  27.975  33.081  1.00  0.00     0.031 C 
ATOM     57  C   UNL A   1      42.922  29.585  34.966  1.00  0.00     0.037 A 
BRANCH  44  58
ATOM     58  C   UNL A   1      40.013  34.640  37.011  1.00  0.00     0.058 A 
ATOM     59  C   UNL A   1      39.092  34.455  38.056  1.00  0.00     0.135 A 
ATOM     60  C   UNL A   1      40.866  35.754  37.085  1.00  0.00     0.135 A 
ATOM     61  F   UNL A   1      38.243  33.415  38.032  1.00  0.00    -0.206 F 
ATOM     62  C   UNL A   1      39.015  35.341  39.125  1.00  0.00     0.059 A 
ATOM     63  C   UNL A   1      40.824  36.640  38.159  1.00  0.00     0.059 A 
ATOM     64  F   UNL A   1      41.769  35.978  36.116  1.00  0.00    -0.206 F 
ATOM     65  C   UNL A   1      39.889  36.428  39.170  1.00  0.00     0.060 A 
BRANCH  65  66
ATOM     66  S   UNL A   1      39.783  37.557  40.575  1.00  0.00     0.124 S 
ATOM     67  O   UNL A   1      38.413  38.044  40.451  1.00  0.00    -0.237 OA
ATOM     68  O   UNL A   1      40.042  36.670  41.704  1.00  0.00    -0.237 OA
ATOM     69  O   UNL A   1      40.825  38.542  40.302  1.00  0.00    -0.744 OA
ENDBRANCH  65  66
ENDBRANCH  44  58
BRANCH  45  70
ATOM     70  C   UNL A   1      40.523  27.922  29.665  1.00  0.00     0.058 A 
ATOM     71  C   UNL A   1      41.503  27.974  28.662  1.00  0.00     0.135 A 
ATOM     72  C   UNL A   1      39.603  26.863  29.625  1.00  0.00     0.135 A 
ATOM     73  F   UNL A   1      42.401  28.972  28.653  1.00  0.00    -0.206 F 
ATOM     74  C   UNL A   1      41.558  27.026  27.647  1.00  0.00     0.059 A 
ATOM     75  C   UNL A   1      39.656  25.886  28.637  1.00  0.00     0.059 A 
ATOM     76  F   UNL A   1      38.655  26.761  30.569  1.00  0.00    -0.206 F 
ATOM     77  C   UNL A   1      40.631  25.983  27.645  1.00  0.00     0.060 A 
BRANCH  77  78
ATOM     78  S   UNL A   1      40.738  24.738  26.343  1.00  0.00     0.124 S 
ATOM     79  O   UNL A   1      39.379  24.210  26.327  1.00  0.00    -0.237 OA
ATOM     80  O   UNL A   1      41.126  25.541  25.187  1.00  0.00    -0.237 OA
ATOM     81  O   UNL A   1      41.766  23.824  26.834  1.00  0.00    -0.744 OA
ENDBRANCH  77  78
ENDBRANCH  45  70
BRANCH  57  82
ATOM     82  C   UNL A   1      44.020  28.796  35.633  1.00  0.00     0.058 A 
ATOM     83  C   UNL A   1      43.743  27.741  36.517  1.00  0.00     0.135 A 
ATOM     84  C   UNL A   1      45.369  29.078  35.359  1.00  0.00     0.135 A 
ATOM     85  F   UNL A   1      42.473  27.430  36.821  1.00  0.00    -0.206 F 
ATOM     86  C   UNL A   1      44.761  27.016  37.129  1.00  0.00     0.059 A 
ATOM     87  C   UNL A   1      46.403  28.345  35.935  1.00  0.00     0.059 A 
ATOM     88  F   UNL A   1      45.695  30.069  34.514  1.00  0.00    -0.206 F 
ATOM     89  C   UNL A   1      46.090  27.325  36.831  1.00  0.00     0.060 A 
BRANCH  89  90
ATOM     90  S   UNL A   1      47.398  26.365  37.624  1.00  0.00     0.124 S 
ATOM     91  O   UNL A   1      48.582  26.838  36.914  1.00  0.00    -0.237 OA
ATOM     92  O   UNL A   1      47.285  26.780  39.018  1.00  0.00    -0.237 OA
ATOM     93  O   UNL A   1      47.017  24.982  37.354  1.00  0.00    -0.744 OA
ENDBRANCH  89  90
ENDBRANCH  57  82
ENDBRANCH  31  32
ENDBRANCH  24  26
ENDBRANCH  23  24
ENDBRANCH  22  23
ENDBRANCH  21  22
ENDBRANCH  20  21
ENDBRANCH   1  20
TORSDOF 22
ENDMDL
