MODEL 1
REMARK VINA RESULT:     -10.6      0.000      0.000
REMARK SMILES C[C@@H](C(=O)OCCOCCOCCOC(=O)c1ccc(-c2c3nc(c(-c4c(F)cc(S(=O)(=O)[O-])cc4F)c4ccc([nH]4)c(-c4c(F)cc(S(=O)(=O)[O-])cc4F)c4nc(c(-c5c(F)cc(S(=O)(=O)[O-])cc5F)c5ccc2[nH]5)C=C4)C=C3)cc1)c1ccc(-c2ccccc2)cc1
REMARK SMILES IDX 10 1 9 2 8 3 7 4 6 5 5 6 3 7 4 8 2 9 1 10 83 11 84 12 94 13
REMARK SMILES IDX 85 14 93 15 86 16 87 17 88 18 92 19 89 20 91 21 90 22 11 23
REMARK SMILES IDX 12 24 13 25 14 26 15 27 16 28 17 29 18 30 82 31 19 32 81 33
REMARK SMILES IDX 20 34 21 35 22 36 75 37 23 38 80 39 74 40 76 41 24 42 79 43
REMARK SMILES IDX 73 44 72 45 25 47 59 48 38 49 58 50 39 51 42 52 57 53 77 54
REMARK SMILES IDX 40 55 41 56 56 58 78 59 43 60 26 61 27 62 36 63 28 64 29 65
REMARK SMILES IDX 35 66 37 67 30 68 31 69 32 70 33 71 34 72 60 73 61 74 70 75
REMARK SMILES IDX 62 76 63 77 69 78 71 79 64 80 65 81 66 82 67 83 68 84 44 85
REMARK SMILES IDX 45 86 54 87 46 88 47 89 53 90 55 91 48 92 49 93 50 94 51 95
REMARK SMILES IDX 52 96
REMARK H PARENT 76 46 42 57
REMARK Flexibility Score: inf
ROOT
ATOM      1  C   UNL A   1      32.554  30.068  26.996  1.00  0.00     0.188 C 
ENDROOT
BRANCH   1   2
ATOM      2  C   UNL A   1      32.216  29.439  25.636  1.00  0.00     0.188 C 
BRANCH   2   3
ATOM      3  O   UNL A   1      31.337  28.321  25.612  1.00  0.00    -0.376 OA
BRANCH   3   4
ATOM      4  C   UNL A   1      30.948  27.793  24.346  1.00  0.00     0.202 C 
BRANCH   4   5
ATOM      5  C   UNL A   1      31.089  26.281  24.078  1.00  0.00     0.261 C 
BRANCH   5   6
ATOM      6  O   UNL A   1      31.861  25.949  22.903  1.00  0.00    -0.463 OA
BRANCH   6   7
ATOM      7  C   UNL A   1      33.010  25.251  23.109  1.00  0.00     0.313 C 
ATOM      8  O   UNL A   1      33.901  25.157  22.270  1.00  0.00    -0.252 OA
BRANCH   7   9
ATOM      9  C   UNL A   1      33.119  24.614  24.509  1.00  0.00     0.126 C 
ATOM     10  C   UNL A   1      33.964  25.424  25.504  1.00  0.00     0.025 C 
BRANCH   9  11
ATOM     11  C   UNL A   1      33.349  23.096  24.496  1.00  0.00    -0.034 A 
ATOM     12  C   UNL A   1      32.682  22.312  23.542  1.00  0.00     0.005 A 
ATOM     13  C   UNL A   1      34.089  22.408  25.473  1.00  0.00     0.005 A 
ATOM     14  C   UNL A   1      32.715  20.914  23.586  1.00  0.00     0.009 A 
ATOM     15  C   UNL A   1      34.122  21.000  25.515  1.00  0.00     0.009 A 
ATOM     16  C   UNL A   1      33.412  20.224  24.587  1.00  0.00    -0.018 A 
BRANCH  16  17
ATOM     17  C   UNL A   1      33.351  18.749  24.658  1.00  0.00    -0.018 A 
ATOM     18  C   UNL A   1      33.913  17.966  23.641  1.00  0.00     0.009 A 
ATOM     19  C   UNL A   1      32.684  18.070  25.695  1.00  0.00     0.009 A 
ATOM     20  C   UNL A   1      33.807  16.576  23.654  1.00  0.00     0.001 A 
ATOM     21  C   UNL A   1      32.590  16.670  25.711  1.00  0.00     0.001 A 
ATOM     22  C   UNL A   1      33.156  15.921  24.687  1.00  0.00     0.000 A 
ENDBRANCH  16  17
ENDBRANCH   9  11
ENDBRANCH   7   9
ENDBRANCH   6   7
ENDBRANCH   5   6
ENDBRANCH   4   5
ENDBRANCH   3   4
ENDBRANCH   2   3
ENDBRANCH   1   2
BRANCH   1  23
ATOM     23  O   UNL A   1      33.927  30.130  27.305  1.00  0.00    -0.376 OA
BRANCH  23  24
ATOM     24  C   UNL A   1      34.545  31.389  27.505  1.00  0.00     0.202 C 
BRANCH  24  25
ATOM     25  C   UNL A   1      34.767  32.015  28.898  1.00  0.00     0.261 C 
BRANCH  25  26
ATOM     26  O   UNL A   1      36.113  32.208  29.348  1.00  0.00    -0.460 OA
BRANCH  26  27
ATOM     27  C   UNL A   1      36.527  31.467  30.403  1.00  0.00     0.338 C 
ATOM     28  O   UNL A   1      35.907  31.259  31.436  1.00  0.00    -0.246 OA
BRANCH  27  29
ATOM     29  C   UNL A   1      37.755  30.750  29.989  1.00  0.00     0.060 A 
ATOM     30  C   UNL A   1      38.590  30.194  30.972  1.00  0.00     0.016 A 
ATOM     31  C   UNL A   1      38.065  30.602  28.638  1.00  0.00     0.016 A 
ATOM     32  C   UNL A   1      39.744  29.500  30.603  1.00  0.00     0.010 A 
ATOM     33  C   UNL A   1      39.238  29.934  28.271  1.00  0.00     0.010 A 
ATOM     34  C   UNL A   1      40.097  29.402  29.251  1.00  0.00    -0.014 A 
BRANCH  34  35
ATOM     35  C   UNL A   1      41.451  28.927  28.865  1.00  0.00     0.031 A 
ATOM     36  C   UNL A   1      42.589  29.911  28.934  1.00  0.00     0.074 A 
ATOM     37  C   UNL A   1      41.663  27.668  28.438  1.00  0.00     0.049 A 
ATOM     38  N   UNL A   1      43.842  29.756  28.601  1.00  0.00    -0.248 NA
ATOM     39  C   UNL A   1      42.259  31.259  29.426  1.00  0.00     0.031 C 
ATOM     40  C   UNL A   1      40.640  26.632  28.340  1.00  0.00     0.029 A 
ATOM     41  N   UNL A   1      42.811  27.047  28.004  1.00  0.00    -0.354 N 
ATOM     42  C   UNL A   1      44.441  30.996  28.799  1.00  0.00     0.074 A 
ATOM     43  C   UNL A   1      43.413  31.892  29.280  1.00  0.00     0.031 C 
ATOM     44  C   UNL A   1      41.209  25.499  27.887  1.00  0.00     0.029 A 
ATOM     45  C   UNL A   1      42.634  25.727  27.651  1.00  0.00     0.049 A 
ATOM     46  H   UNL A   1      43.681  27.505  27.950  1.00  0.00     0.167 HD
ATOM     47  C   UNL A   1      45.728  31.355  28.581  1.00  0.00     0.037 A 
ATOM     48  C   UNL A   1      43.526  24.811  27.209  1.00  0.00     0.037 A 
ATOM     49  C   UNL A   1      46.744  30.451  28.110  1.00  0.00     0.049 A 
ATOM     50  C   UNL A   1      44.966  25.236  27.023  1.00  0.00     0.074 A 
ATOM     51  C   UNL A   1      48.081  30.713  27.870  1.00  0.00     0.029 A 
ATOM     52  N   UNL A   1      46.536  29.114  27.803  1.00  0.00    -0.354 N 
ATOM     53  N   UNL A   1      45.528  26.397  27.269  1.00  0.00    -0.248 NA
ATOM     54  C   UNL A   1      45.895  24.226  26.495  1.00  0.00     0.031 C 
ATOM     55  C   UNL A   1      48.668  29.550  27.361  1.00  0.00     0.029 A 
ATOM     56  C   UNL A   1      47.714  28.546  27.348  1.00  0.00     0.049 A 
ATOM     57  H   UNL A   1      45.678  28.639  27.896  1.00  0.00     0.167 HD
ATOM     58  C   UNL A   1      46.874  26.248  26.939  1.00  0.00     0.074 A 
ATOM     59  C   UNL A   1      47.050  24.874  26.526  1.00  0.00     0.031 C 
ATOM     60  C   UNL A   1      47.870  27.169  26.952  1.00  0.00     0.037 A 
BRANCH  47  61
ATOM     61  C   UNL A   1      46.097  32.798  28.794  1.00  0.00     0.058 A 
ATOM     62  C   UNL A   1      45.918  33.772  27.801  1.00  0.00     0.135 A 
ATOM     63  C   UNL A   1      46.610  33.214  30.035  1.00  0.00     0.135 A 
ATOM     64  F   UNL A   1      45.453  33.428  26.590  1.00  0.00    -0.206 F 
ATOM     65  C   UNL A   1      46.255  35.105  28.022  1.00  0.00     0.059 A 
ATOM     66  C   UNL A   1      46.924  34.545  30.288  1.00  0.00     0.059 A 
ATOM     67  F   UNL A   1      46.808  32.322  31.019  1.00  0.00    -0.206 F 
ATOM     68  C   UNL A   1      46.755  35.481  29.270  1.00  0.00     0.060 A 
BRANCH  68  69
ATOM     69  S   UNL A   1      47.174  37.216  29.544  1.00  0.00     0.124 S 
ATOM     70  O   UNL A   1      48.571  37.248  29.122  1.00  0.00    -0.237 OA
ATOM     71  O   UNL A   1      46.233  37.905  28.667  1.00  0.00    -0.237 OA
ATOM     72  O   UNL A   1      46.947  37.401  30.973  1.00  0.00    -0.744 OA
ENDBRANCH  68  69
ENDBRANCH  47  61
BRANCH  48  73
ATOM     73  C   UNL A   1      43.121  23.388  26.971  1.00  0.00     0.058 A 
ATOM     74  C   UNL A   1      42.951  22.898  25.662  1.00  0.00     0.135 A 
ATOM     75  C   UNL A   1      42.909  22.481  28.020  1.00  0.00     0.135 A 
ATOM     76  F   UNL A   1      43.116  23.718  24.612  1.00  0.00    -0.206 F 
ATOM     77  C   UNL A   1      42.614  21.575  25.400  1.00  0.00     0.059 A 
ATOM     78  C   UNL A   1      42.593  21.144  27.785  1.00  0.00     0.059 A 
ATOM     79  F   UNL A   1      43.037  22.883  29.293  1.00  0.00    -0.206 F 
ATOM     80  C   UNL A   1      42.446  20.701  26.471  1.00  0.00     0.060 A 
BRANCH  80  81
ATOM     81  S   UNL A   1      42.069  18.971  26.113  1.00  0.00     0.124 S 
ATOM     82  O   UNL A   1      40.641  19.034  25.830  1.00  0.00    -0.237 OA
ATOM     83  O   UNL A   1      42.936  18.702  24.971  1.00  0.00    -0.237 OA
ATOM     84  O   UNL A   1      42.439  18.285  27.348  1.00  0.00    -0.744 OA
ENDBRANCH  80  81
ENDBRANCH  48  73
BRANCH  60  85
ATOM     85  C   UNL A   1      49.240  26.718  26.516  1.00  0.00     0.058 A 
ATOM     86  C   UNL A   1      49.679  26.873  25.190  1.00  0.00     0.135 A 
ATOM     87  C   UNL A   1      50.146  26.179  27.444  1.00  0.00     0.135 A 
ATOM     88  F   UNL A   1      48.856  27.381  24.260  1.00  0.00    -0.206 F 
ATOM     89  C   UNL A   1      50.954  26.481  24.794  1.00  0.00     0.059 A 
ATOM     90  C   UNL A   1      51.438  25.812  27.078  1.00  0.00     0.059 A 
ATOM     91  F   UNL A   1      49.787  26.021  28.728  1.00  0.00    -0.206 F 
ATOM     92  C   UNL A   1      51.828  25.954  25.747  1.00  0.00     0.060 A 
BRANCH  92  93
ATOM     93  S   UNL A   1      53.490  25.482  25.226  1.00  0.00     0.124 S 
ATOM     94  O   UNL A   1      54.315  26.394  26.011  1.00  0.00    -0.237 OA
ATOM     95  O   UNL A   1      53.552  24.077  25.617  1.00  0.00    -0.237 OA
ATOM     96  O   UNL A   1      53.480  25.726  23.786  1.00  0.00    -0.744 OA
ENDBRANCH  92  93
ENDBRANCH  60  85
ENDBRANCH  34  35
ENDBRANCH  27  29
ENDBRANCH  26  27
ENDBRANCH  25  26
ENDBRANCH  24  25
ENDBRANCH  23  24
ENDBRANCH   1  23
TORSDOF 22
ENDMDL
MODEL 2
REMARK VINA RESULT:     -10.4      6.466     12.464
REMARK SMILES C[C@@H](C(=O)OCCOCCOCCOC(=O)c1ccc(-c2c3nc(c(-c4c(F)cc(S(=O)(=O)[O-])cc4F)c4ccc([nH]4)c(-c4c(F)cc(S(=O)(=O)[O-])cc4F)c4nc(c(-c5c(F)cc(S(=O)(=O)[O-])cc5F)c5ccc2[nH]5)C=C4)C=C3)cc1)c1ccc(-c2ccccc2)cc1
REMARK SMILES IDX 10 1 9 2 8 3 7 4 6 5 5 6 3 7 4 8 2 9 1 10 83 11 84 12 94 13
REMARK SMILES IDX 85 14 93 15 86 16 87 17 88 18 92 19 89 20 91 21 90 22 11 23
REMARK SMILES IDX 12 24 13 25 14 26 15 27 16 28 17 29 18 30 82 31 19 32 81 33
REMARK SMILES IDX 20 34 21 35 22 36 75 37 23 38 80 39 74 40 76 41 24 42 79 43
REMARK SMILES IDX 73 44 72 45 25 47 59 48 38 49 58 50 39 51 42 52 57 53 77 54
REMARK SMILES IDX 40 55 41 56 56 58 78 59 43 60 26 61 27 62 36 63 28 64 29 65
REMARK SMILES IDX 35 66 37 67 30 68 31 69 32 70 33 71 34 72 60 73 61 74 70 75
REMARK SMILES IDX 62 76 63 77 69 78 71 79 64 80 65 81 66 82 67 83 68 84 44 85
REMARK SMILES IDX 45 86 54 87 46 88 47 89 53 90 55 91 48 92 49 93 50 94 51 95
REMARK SMILES IDX 52 96
REMARK H PARENT 76 46 42 57
REMARK Flexibility Score: inf
ROOT
ATOM      1  C   UNL A   1      46.547  23.518  24.768  1.00  0.00     0.188 C 
ENDROOT
BRANCH   1   2
ATOM      2  C   UNL A   1      46.115  22.120  24.300  1.00  0.00     0.188 C 
BRANCH   2   3
ATOM      3  O   UNL A   1      46.566  20.993  25.043  1.00  0.00    -0.376 OA
BRANCH   3   4
ATOM      4  C   UNL A   1      46.195  19.692  24.592  1.00  0.00     0.202 C 
BRANCH   4   5
ATOM      5  C   UNL A   1      45.497  18.722  25.565  1.00  0.00     0.261 C 
BRANCH   5   6
ATOM      6  O   UNL A   1      44.073  18.587  25.359  1.00  0.00    -0.463 OA
BRANCH   6   7
ATOM      7  C   UNL A   1      43.326  19.711  25.522  1.00  0.00     0.313 C 
ATOM      8  O   UNL A   1      43.374  20.669  24.757  1.00  0.00    -0.252 OA
BRANCH   7   9
ATOM      9  C   UNL A   1      42.379  19.668  26.738  1.00  0.00     0.126 C 
ATOM     10  C   UNL A   1      42.477  18.378  27.567  1.00  0.00     0.025 C 
BRANCH   9  11
ATOM     11  C   UNL A   1      40.962  20.191  26.454  1.00  0.00    -0.034 A 
ATOM     12  C   UNL A   1      40.037  19.347  25.824  1.00  0.00     0.005 A 
ATOM     13  C   UNL A   1      40.564  21.522  26.665  1.00  0.00     0.005 A 
ATOM     14  C   UNL A   1      38.794  19.817  25.385  1.00  0.00     0.009 A 
ATOM     15  C   UNL A   1      39.311  21.993  26.223  1.00  0.00     0.009 A 
ATOM     16  C   UNL A   1      38.412  21.155  25.549  1.00  0.00    -0.018 A 
BRANCH  16  17
ATOM     17  C   UNL A   1      37.130  21.639  24.993  1.00  0.00    -0.018 A 
ATOM     18  C   UNL A   1      35.942  20.937  25.234  1.00  0.00     0.009 A 
ATOM     19  C   UNL A   1      37.048  22.769  24.159  1.00  0.00     0.009 A 
ATOM     20  C   UNL A   1      34.735  21.337  24.663  1.00  0.00     0.001 A 
ATOM     21  C   UNL A   1      35.829  23.177  23.595  1.00  0.00     0.001 A 
ATOM     22  C   UNL A   1      34.668  22.459  23.851  1.00  0.00     0.000 A 
ENDBRANCH  16  17
ENDBRANCH   9  11
ENDBRANCH   7   9
ENDBRANCH   6   7
ENDBRANCH   5   6
ENDBRANCH   4   5
ENDBRANCH   3   4
ENDBRANCH   2   3
ENDBRANCH   1   2
BRANCH   1  23
ATOM     23  O   UNL A   1      45.558  24.516  24.670  1.00  0.00    -0.376 OA
BRANCH  23  24
ATOM     24  C   UNL A   1      44.560  24.618  25.670  1.00  0.00     0.202 C 
BRANCH  24  25
ATOM     25  C   UNL A   1      43.108  24.132  25.476  1.00  0.00     0.261 C 
BRANCH  25  26
ATOM     26  O   UNL A   1      42.051  24.913  26.045  1.00  0.00    -0.460 OA
BRANCH  26  27
ATOM     27  C   UNL A   1      42.102  26.254  25.862  1.00  0.00     0.338 C 
ATOM     28  O   UNL A   1      42.005  26.850  24.798  1.00  0.00    -0.246 OA
BRANCH  27  29
ATOM     29  C   UNL A   1      42.047  26.888  27.199  1.00  0.00     0.060 A 
ATOM     30  C   UNL A   1      41.193  26.353  28.178  1.00  0.00     0.016 A 
ATOM     31  C   UNL A   1      42.855  27.984  27.495  1.00  0.00     0.016 A 
ATOM     32  C   UNL A   1      41.138  26.925  29.451  1.00  0.00     0.010 A 
ATOM     33  C   UNL A   1      42.774  28.576  28.760  1.00  0.00     0.010 A 
ATOM     34  C   UNL A   1      41.897  28.066  29.736  1.00  0.00    -0.014 A 
BRANCH  34  35
ATOM     35  C   UNL A   1      41.635  28.848  30.972  1.00  0.00     0.031 A 
ATOM     36  C   UNL A   1      40.426  29.745  30.995  1.00  0.00     0.074 A 
ATOM     37  C   UNL A   1      42.459  28.788  32.035  1.00  0.00     0.049 A 
ATOM     38  N   UNL A   1      40.015  30.563  31.926  1.00  0.00    -0.248 NA
ATOM     39  C   UNL A   1      39.579  29.732  29.790  1.00  0.00     0.031 C 
ATOM     40  C   UNL A   1      43.651  27.950  32.126  1.00  0.00     0.029 A 
ATOM     41  N   UNL A   1      42.421  29.448  33.241  1.00  0.00    -0.354 N 
ATOM     42  C   UNL A   1      38.890  31.194  31.406  1.00  0.00     0.074 A 
ATOM     43  C   UNL A   1      38.684  30.665  30.076  1.00  0.00     0.031 C 
ATOM     44  C   UNL A   1      44.224  28.137  33.329  1.00  0.00     0.029 A 
ATOM     45  C   UNL A   1      43.450  29.115  34.094  1.00  0.00     0.049 A 
ATOM     46  H   UNL A   1      41.722  30.101  33.473  1.00  0.00     0.167 HD
ATOM     47  C   UNL A   1      38.113  32.141  31.981  1.00  0.00     0.037 A 
ATOM     48  C   UNL A   1      43.719  29.537  35.351  1.00  0.00     0.037 A 
ATOM     49  C   UNL A   1      38.323  32.652  33.310  1.00  0.00     0.049 A 
ATOM     50  C   UNL A   1      42.800  30.562  35.980  1.00  0.00     0.074 A 
ATOM     51  C   UNL A   1      37.584  33.603  33.991  1.00  0.00     0.029 A 
ATOM     52  N   UNL A   1      39.350  32.261  34.158  1.00  0.00    -0.354 N 
ATOM     53  N   UNL A   1      41.708  31.106  35.496  1.00  0.00    -0.248 NA
ATOM     54  C   UNL A   1      43.153  31.033  37.327  1.00  0.00     0.031 C 
ATOM     55  C   UNL A   1      38.198  33.831  35.227  1.00  0.00     0.029 A 
ATOM     56  C   UNL A   1      39.280  32.973  35.344  1.00  0.00     0.049 A 
ATOM     57  H   UNL A   1      40.027  31.577  33.948  1.00  0.00     0.167 HD
ATOM     58  C   UNL A   1      41.240  31.969  36.485  1.00  0.00     0.074 A 
ATOM     59  C   UNL A   1      42.138  31.836  37.611  1.00  0.00     0.031 C 
ATOM     60  C   UNL A   1      40.179  32.815  36.459  1.00  0.00     0.037 A 
BRANCH  47  61
ATOM     61  C   UNL A   1      36.998  32.726  31.158  1.00  0.00     0.058 A 
ATOM     62  C   UNL A   1      35.661  32.333  31.320  1.00  0.00     0.135 A 
ATOM     63  C   UNL A   1      37.277  33.728  30.212  1.00  0.00     0.135 A 
ATOM     64  F   UNL A   1      35.340  31.365  32.192  1.00  0.00    -0.206 F 
ATOM     65  C   UNL A   1      34.642  32.895  30.556  1.00  0.00     0.059 A 
ATOM     66  C   UNL A   1      36.270  34.325  29.461  1.00  0.00     0.059 A 
ATOM     67  F   UNL A   1      38.539  34.138  30.013  1.00  0.00    -0.206 F 
ATOM     68  C   UNL A   1      34.957  33.893  29.631  1.00  0.00     0.060 A 
BRANCH  68  69
ATOM     69  S   UNL A   1      33.621  34.621  28.660  1.00  0.00     0.124 S 
ATOM     70  O   UNL A   1      33.298  33.529  27.745  1.00  0.00    -0.237 OA
ATOM     71  O   UNL A   1      32.617  34.910  29.679  1.00  0.00    -0.237 OA
ATOM     72  O   UNL A   1      34.242  35.790  28.046  1.00  0.00    -0.744 OA
ENDBRANCH  68  69
ENDBRANCH  47  61
BRANCH  48  73
ATOM     73  C   UNL A   1      44.859  28.962  36.135  1.00  0.00     0.058 A 
ATOM     74  C   UNL A   1      46.155  29.498  36.020  1.00  0.00     0.135 A 
ATOM     75  C   UNL A   1      44.694  27.887  37.021  1.00  0.00     0.135 A 
ATOM     76  F   UNL A   1      46.388  30.514  35.173  1.00  0.00    -0.206 F 
ATOM     77  C   UNL A   1      47.229  29.017  36.759  1.00  0.00     0.059 A 
ATOM     78  C   UNL A   1      45.749  27.399  37.791  1.00  0.00     0.059 A 
ATOM     79  F   UNL A   1      43.490  27.314  37.168  1.00  0.00    -0.206 F 
ATOM     80  C   UNL A   1      47.013  27.970  37.652  1.00  0.00     0.060 A 
BRANCH  80  81
ATOM     81  S   UNL A   1      48.403  27.396  38.651  1.00  0.00     0.124 S 
ATOM     82  O   UNL A   1      47.763  27.155  39.938  1.00  0.00    -0.237 OA
ATOM     83  O   UNL A   1      48.832  26.209  37.918  1.00  0.00    -0.237 OA
ATOM     84  O   UNL A   1      49.333  28.520  38.609  1.00  0.00    -0.744 OA
ENDBRANCH  80  81
ENDBRANCH  48  73
BRANCH  60  85
ATOM     85  C   UNL A   1      39.927  33.654  37.685  1.00  0.00     0.058 A 
ATOM     86  C   UNL A   1      40.592  34.874  37.893  1.00  0.00     0.135 A 
ATOM     87  C   UNL A   1      38.967  33.263  38.634  1.00  0.00     0.135 A 
ATOM     88  F   UNL A   1      41.520  35.295  37.020  1.00  0.00    -0.206 F 
ATOM     89  C   UNL A   1      40.338  35.660  39.012  1.00  0.00     0.059 A 
ATOM     90  C   UNL A   1      38.672  34.051  39.743  1.00  0.00     0.059 A 
ATOM     91  F   UNL A   1      38.290  32.115  38.479  1.00  0.00    -0.206 F 
ATOM     92  C   UNL A   1      39.373  35.241  39.931  1.00  0.00     0.060 A 
BRANCH  92  93
ATOM     93  S   UNL A   1      39.031  36.289  41.360  1.00  0.00     0.124 S 
ATOM     94  O   UNL A   1      37.852  35.641  41.924  1.00  0.00    -0.237 OA
ATOM     95  O   UNL A   1      40.258  36.162  42.141  1.00  0.00    -0.237 OA
ATOM     96  O   UNL A   1      38.803  37.606  40.772  1.00  0.00    -0.744 OA
ENDBRANCH  92  93
ENDBRANCH  60  85
ENDBRANCH  34  35
ENDBRANCH  27  29
ENDBRANCH  26  27
ENDBRANCH  25  26
ENDBRANCH  24  25
ENDBRANCH  23  24
ENDBRANCH   1  23
TORSDOF 22
ENDMDL
MODEL 3
REMARK VINA RESULT:     -10.2      0.656      8.138
REMARK SMILES C[C@@H](C(=O)OCCOCCOCCOC(=O)c1ccc(-c2c3nc(c(-c4c(F)cc(S(=O)(=O)[O-])cc4F)c4ccc([nH]4)c(-c4c(F)cc(S(=O)(=O)[O-])cc4F)c4nc(c(-c5c(F)cc(S(=O)(=O)[O-])cc5F)c5ccc2[nH]5)C=C4)C=C3)cc1)c1ccc(-c2ccccc2)cc1
REMARK SMILES IDX 10 1 9 2 8 3 7 4 6 5 5 6 3 7 4 8 2 9 1 10 83 11 84 12 94 13
REMARK SMILES IDX 85 14 93 15 86 16 87 17 88 18 92 19 89 20 91 21 90 22 11 23
REMARK SMILES IDX 12 24 13 25 14 26 15 27 16 28 17 29 18 30 82 31 19 32 81 33
REMARK SMILES IDX 20 34 21 35 22 36 75 37 23 38 80 39 74 40 76 41 24 42 79 43
REMARK SMILES IDX 73 44 72 45 25 47 59 48 38 49 58 50 39 51 42 52 57 53 77 54
REMARK SMILES IDX 40 55 41 56 56 58 78 59 43 60 26 61 27 62 36 63 28 64 29 65
REMARK SMILES IDX 35 66 37 67 30 68 31 69 32 70 33 71 34 72 60 73 61 74 70 75
REMARK SMILES IDX 62 76 63 77 69 78 71 79 64 80 65 81 66 82 67 83 68 84 44 85
REMARK SMILES IDX 45 86 54 87 46 88 47 89 53 90 55 91 48 92 49 93 50 94 51 95
REMARK SMILES IDX 52 96
REMARK H PARENT 76 46 42 57
REMARK Flexibility Score: inf
ROOT
ATOM      1  C   UNL A   1      33.184  30.395  26.916  1.00  0.00     0.188 C 
ENDROOT
BRANCH   1   2
ATOM      2  C   UNL A   1      32.828  29.381  25.818  1.00  0.00     0.188 C 
BRANCH   2   3
ATOM      3  O   UNL A   1      31.994  28.282  26.163  1.00  0.00    -0.376 OA
BRANCH   3   4
ATOM      4  C   UNL A   1      31.287  27.615  25.119  1.00  0.00     0.202 C 
BRANCH   4   5
ATOM      5  C   UNL A   1      31.470  26.096  24.928  1.00  0.00     0.261 C 
BRANCH   5   6
ATOM      6  O   UNL A   1      31.897  25.705  23.604  1.00  0.00    -0.463 OA
BRANCH   6   7
ATOM      7  C   UNL A   1      33.133  25.148  23.505  1.00  0.00     0.313 C 
ATOM      8  O   UNL A   1      33.817  25.201  22.487  1.00  0.00    -0.252 OA
BRANCH   7   9
ATOM      9  C   UNL A   1      33.625  24.469  24.799  1.00  0.00     0.126 C 
ATOM     10  C   UNL A   1      34.994  24.966  25.289  1.00  0.00     0.025 C 
BRANCH   9  11
ATOM     11  C   UNL A   1      33.394  22.951  24.843  1.00  0.00    -0.034 A 
ATOM     12  C   UNL A   1      33.882  22.217  25.934  1.00  0.00     0.005 A 
ATOM     13  C   UNL A   1      32.837  22.214  23.783  1.00  0.00     0.005 A 
ATOM     14  C   UNL A   1      33.855  20.818  25.950  1.00  0.00     0.009 A 
ATOM     15  C   UNL A   1      32.810  20.805  23.803  1.00  0.00     0.009 A 
ATOM     16  C   UNL A   1      33.344  20.078  24.875  1.00  0.00    -0.018 A 
BRANCH  16  17
ATOM     17  C   UNL A   1      33.415  18.601  24.885  1.00  0.00    -0.018 A 
ATOM     18  C   UNL A   1      34.405  17.934  24.153  1.00  0.00     0.009 A 
ATOM     19  C   UNL A   1      32.473  17.805  25.561  1.00  0.00     0.009 A 
ATOM     20  C   UNL A   1      34.449  16.542  24.092  1.00  0.00     0.001 A 
ATOM     21  C   UNL A   1      32.526  16.403  25.509  1.00  0.00     0.001 A 
ATOM     22  C   UNL A   1      33.519  15.771  24.773  1.00  0.00     0.000 A 
ENDBRANCH  16  17
ENDBRANCH   9  11
ENDBRANCH   7   9
ENDBRANCH   6   7
ENDBRANCH   5   6
ENDBRANCH   4   5
ENDBRANCH   3   4
ENDBRANCH   2   3
ENDBRANCH   1   2
BRANCH   1  23
ATOM     23  O   UNL A   1      34.561  30.542  27.175  1.00  0.00    -0.376 OA
BRANCH  23  24
ATOM     24  C   UNL A   1      35.028  31.686  27.866  1.00  0.00     0.202 C 
BRANCH  24  25
ATOM     25  C   UNL A   1      35.051  31.800  29.405  1.00  0.00     0.261 C 
BRANCH  25  26
ATOM     26  O   UNL A   1      36.323  31.855  30.061  1.00  0.00    -0.460 OA
BRANCH  26  27
ATOM     27  C   UNL A   1      36.683  30.785  30.809  1.00  0.00     0.338 C 
ATOM     28  O   UNL A   1      35.989  30.203  31.631  1.00  0.00    -0.246 OA
BRANCH  27  29
ATOM     29  C   UNL A   1      37.975  30.288  30.282  1.00  0.00     0.060 A 
ATOM     30  C   UNL A   1      38.932  29.782  31.177  1.00  0.00     0.016 A 
ATOM     31  C   UNL A   1      38.229  30.295  28.912  1.00  0.00     0.016 A 
ATOM     32  C   UNL A   1      40.150  29.293  30.701  1.00  0.00     0.010 A 
ATOM     33  C   UNL A   1      39.463  29.835  28.439  1.00  0.00     0.010 A 
ATOM     34  C   UNL A   1      40.439  29.356  29.332  1.00  0.00    -0.014 A 
BRANCH  34  35
ATOM     35  C   UNL A   1      41.824  29.114  28.849  1.00  0.00     0.031 A 
ATOM     36  C   UNL A   1      42.151  27.749  28.303  1.00  0.00     0.074 A 
ATOM     37  C   UNL A   1      42.773  30.066  28.919  1.00  0.00     0.049 A 
ATOM     38  N   UNL A   1      43.290  27.277  27.874  1.00  0.00    -0.248 NA
ATOM     39  C   UNL A   1      41.042  26.781  28.256  1.00  0.00     0.031 C 
ATOM     40  C   UNL A   1      42.567  31.421  29.420  1.00  0.00     0.029 A 
ATOM     41  N   UNL A   1      44.103  30.036  28.569  1.00  0.00    -0.354 N 
ATOM     42  C   UNL A   1      43.049  25.946  27.550  1.00  0.00     0.074 A 
ATOM     43  C   UNL A   1      41.655  25.686  27.831  1.00  0.00     0.031 C 
ATOM     44  C   UNL A   1      43.727  32.099  29.333  1.00  0.00     0.029 A 
ATOM     45  C   UNL A   1      44.764  31.227  28.782  1.00  0.00     0.049 A 
ATOM     46  H   UNL A   1      44.544  29.237  28.200  1.00  0.00     0.167 HD
ATOM     47  C   UNL A   1      43.919  25.023  27.076  1.00  0.00     0.037 A 
ATOM     48  C   UNL A   1      46.049  31.572  28.539  1.00  0.00     0.037 A 
ATOM     49  C   UNL A   1      45.303  25.297  26.791  1.00  0.00     0.049 A 
ATOM     50  C   UNL A   1      46.981  30.526  27.964  1.00  0.00     0.074 A 
ATOM     51  C   UNL A   1      46.264  24.434  26.296  1.00  0.00     0.029 A 
ATOM     52  N   UNL A   1      45.924  26.523  26.980  1.00  0.00    -0.354 N 
ATOM     53  N   UNL A   1      46.723  29.289  27.609  1.00  0.00    -0.248 NA
ATOM     54  C   UNL A   1      48.381  30.925  27.760  1.00  0.00     0.031 C 
ATOM     55  C   UNL A   1      47.481  25.122  26.241  1.00  0.00     0.029 A 
ATOM     56  C   UNL A   1      47.263  26.431  26.638  1.00  0.00     0.049 A 
ATOM     57  H   UNL A   1      45.479  27.339  27.307  1.00  0.00     0.167 HD
ATOM     58  C   UNL A   1      47.924  28.771  27.128  1.00  0.00     0.074 A 
ATOM     59  C   UNL A   1      48.893  29.843  27.191  1.00  0.00     0.031 C 
ATOM     60  C   UNL A   1      48.209  27.517  26.697  1.00  0.00     0.037 A 
BRANCH  47  61
ATOM     61  C   UNL A   1      43.415  23.618  26.891  1.00  0.00     0.058 A 
ATOM     62  C   UNL A   1      43.128  23.086  25.625  1.00  0.00     0.135 A 
ATOM     63  C   UNL A   1      43.252  22.778  28.006  1.00  0.00     0.135 A 
ATOM     64  F   UNL A   1      43.243  23.849  24.527  1.00  0.00    -0.206 F 
ATOM     65  C   UNL A   1      42.673  21.779  25.473  1.00  0.00     0.059 A 
ATOM     66  C   UNL A   1      42.829  21.460  27.875  1.00  0.00     0.059 A 
ATOM     67  F   UNL A   1      43.507  23.237  29.242  1.00  0.00    -0.206 F 
ATOM     68  C   UNL A   1      42.530  20.973  26.604  1.00  0.00     0.060 A 
BRANCH  68  69
ATOM     69  S   UNL A   1      41.954  19.276  26.387  1.00  0.00     0.124 S 
ATOM     70  O   UNL A   1      42.126  18.736  27.732  1.00  0.00    -0.237 OA
ATOM     71  O   UNL A   1      40.574  19.469  25.954  1.00  0.00    -0.237 OA
ATOM     72  O   UNL A   1      42.856  18.736  25.375  1.00  0.00    -0.744 OA
ENDBRANCH  68  69
ENDBRANCH  47  61
BRANCH  48  73
ATOM     73  C   UNL A   1      46.532  32.971  28.767  1.00  0.00     0.058 A 
ATOM     74  C   UNL A   1      46.551  33.907  27.715  1.00  0.00     0.135 A 
ATOM     75  C   UNL A   1      46.971  33.419  30.022  1.00  0.00     0.135 A 
ATOM     76  F   UNL A   1      46.166  33.539  26.483  1.00  0.00    -0.206 F 
ATOM     77  C   UNL A   1      46.955  35.224  27.898  1.00  0.00     0.059 A 
ATOM     78  C   UNL A   1      47.361  34.740  30.237  1.00  0.00     0.059 A 
ATOM     79  F   UNL A   1      46.997  32.577  31.066  1.00  0.00    -0.206 F 
ATOM     80  C   UNL A   1      47.351  35.635  29.168  1.00  0.00     0.060 A 
BRANCH  80  81
ATOM     81  S   UNL A   1      47.815  37.364  29.403  1.00  0.00     0.124 S 
ATOM     82  O   UNL A   1      46.570  37.940  29.896  1.00  0.00    -0.237 OA
ATOM     83  O   UNL A   1      48.898  37.257  30.375  1.00  0.00    -0.237 OA
ATOM     84  O   UNL A   1      48.221  37.787  28.066  1.00  0.00    -0.744 OA
ENDBRANCH  80  81
ENDBRANCH  48  73
BRANCH  60  85
ATOM     85  C   UNL A   1      49.621  27.238  26.251  1.00  0.00     0.058 A 
ATOM     86  C   UNL A   1      50.000  27.332  24.901  1.00  0.00     0.135 A 
ATOM     87  C   UNL A   1      50.621  26.931  27.189  1.00  0.00     0.135 A 
ATOM     88  F   UNL A   1      49.087  27.621  23.961  1.00  0.00    -0.206 F 
ATOM     89  C   UNL A   1      51.310  27.100  24.495  1.00  0.00     0.059 A 
ATOM     90  C   UNL A   1      51.944  26.729  26.809  1.00  0.00     0.059 A 
ATOM     91  F   UNL A   1      50.320  26.842  28.495  1.00  0.00    -0.206 F 
ATOM     92  C   UNL A   1      52.277  26.802  25.457  1.00  0.00     0.060 A 
BRANCH  92  93
ATOM     93  S   UNL A   1      53.979  26.538  24.917  1.00  0.00     0.124 S 
ATOM     94  O   UNL A   1      54.722  26.817  26.142  1.00  0.00    -0.237 OA
ATOM     95  O   UNL A   1      53.958  25.140  24.495  1.00  0.00    -0.237 OA
ATOM     96  O   UNL A   1      54.151  27.509  23.842  1.00  0.00    -0.744 OA
ENDBRANCH  92  93
ENDBRANCH  60  85
ENDBRANCH  34  35
ENDBRANCH  27  29
ENDBRANCH  26  27
ENDBRANCH  25  26
ENDBRANCH  24  25
ENDBRANCH  23  24
ENDBRANCH   1  23
TORSDOF 22
ENDMDL
