MODEL 1
REMARK VINA RESULT:     -11.2      0.000      0.000
REMARK SMILES NC(=O)c1c(-c2ccc(Cl)cc2)csc1NC(=O)[C@H]1[C@@H](C(=O)OCCOCCOCCOC(=O)c2ccc(-c3c4nc(c(-c5c(F)cc(S(=O)(=O)[O-])cc5F)c5ccc([nH]5)c(-c5c(F)cc(S(=O)(=O)[O-])cc5F)c5nc(c(-c6c(F)cc(S(=O)(=O)[O-])cc6F)c6ccc3[nH]6)C=C5)C=C4)cc2)[C@@H]2CC[C@H]1O2
REMARK SMILES IDX 27 1 26 2 25 3 24 4 23 5 21 6 22 7 20 8 19 9 104 10 101 11
REMARK SMILES IDX 103 12 105 13 102 14 17 15 16 16 18 18 15 19 4 20 5 21 13 22
REMARK SMILES IDX 14 23 2 24 1 25 3 28 6 29 7 30 12 31 8 32 11 33 9 34 10 35
REMARK SMILES IDX 28 36 29 37 30 38 31 39 32 40 33 41 34 42 35 43 36 44 100 45
REMARK SMILES IDX 37 46 99 47 38 48 39 49 40 50 93 51 41 52 98 53 92 54 94 55
REMARK SMILES IDX 42 56 97 57 91 58 90 59 43 61 77 62 56 63 76 64 57 65 60 66
REMARK SMILES IDX 75 67 95 68 58 69 59 70 74 72 96 73 61 74 44 75 45 76 54 77
REMARK SMILES IDX 46 78 47 79 53 80 55 81 48 82 49 83 50 84 51 85 52 86 78 87
REMARK SMILES IDX 79 88 88 89 80 90 81 91 87 92 89 93 82 94 83 95 84 96 85 97
REMARK SMILES IDX 86 98 62 99 63 100 72 101 64 102 65 103 71 104 73 105 66 106
REMARK SMILES IDX 67 107 68 108 69 109 70 110
REMARK H PARENT 16 17 1 26 1 27 94 60 60 71
REMARK Flexibility Score: inf
ROOT
ATOM      1  C   UNL A   1      38.228  22.385  25.709  1.00  0.00     0.188 C 
ENDROOT
BRANCH   1   2
ATOM      2  O   UNL A   1      37.517  21.929  24.565  1.00  0.00    -0.376 OA
BRANCH   2   3
ATOM      3  C   UNL A   1      36.341  22.612  24.168  1.00  0.00     0.202 C 
BRANCH   3   4
ATOM      4  C   UNL A   1      35.887  23.853  24.950  1.00  0.00     0.261 C 
BRANCH   4   5
ATOM      5  O   UNL A   1      34.892  24.685  24.320  1.00  0.00    -0.463 OA
BRANCH   5   6
ATOM      6  C   UNL A   1      34.306  25.606  25.124  1.00  0.00     0.312 C 
ATOM      7  O   UNL A   1      34.267  25.526  26.348  1.00  0.00    -0.252 OA
BRANCH   6   8
ATOM      8  C   UNL A   1      33.717  26.804  24.405  1.00  0.00     0.143 C 
ATOM      9  C   UNL A   1      32.356  27.374  24.854  1.00  0.00     0.124 C 
ATOM     10  C   UNL A   1      31.817  27.830  23.523  1.00  0.00     0.132 C 
ATOM     11  C   UNL A   1      33.528  26.669  22.885  1.00  0.00     0.133 C 
ATOM     12  C   UNL A   1      32.663  28.856  22.765  1.00  0.00     0.035 C 
ATOM     13  O   UNL A   1      32.088  26.642  22.743  1.00  0.00    -0.373 OA
ATOM     14  C   UNL A   1      33.778  27.996  22.178  1.00  0.00     0.036 C 
BRANCH   9  15
ATOM     15  C   UNL A   1      31.519  26.444  25.752  1.00  0.00     0.231 C 
ATOM     16  N   UNL A   1      31.316  25.100  25.760  1.00  0.00    -0.317 N 
ATOM     17  H   UNL A   1      30.848  24.838  26.585  1.00  0.00     0.170 HD
ATOM     18  O   UNL A   1      30.962  27.025  26.709  1.00  0.00    -0.274 OA
BRANCH  16  19
ATOM     19  C   UNL A   1      31.555  23.975  24.976  1.00  0.00     0.108 A 
ATOM     20  C   UNL A   1      32.159  22.776  25.384  1.00  0.00     0.082 A 
ATOM     21  C   UNL A   1      32.322  21.871  24.253  1.00  0.00     0.007 A 
ATOM     22  C   UNL A   1      31.819  22.409  23.090  1.00  0.00     0.076 A 
ATOM     23  S   UNL A   1      30.940  23.795  23.420  1.00  0.00    -0.125 S 
BRANCH  20  24
ATOM     24  C   UNL A   1      32.519  22.536  26.783  1.00  0.00     0.252 C 
ATOM     25  N   UNL A   1      33.826  22.259  27.054  1.00  0.00    -0.365 N 
ATOM     26  H   UNL A   1      34.111  22.091  27.981  1.00  0.00     0.159 HD
ATOM     27  H   UNL A   1      34.485  22.227  26.323  1.00  0.00     0.159 HD
ATOM     28  O   UNL A   1      31.702  22.578  27.699  1.00  0.00    -0.269 OA
ENDBRANCH  20  24
BRANCH  21  29
ATOM     29  C   UNL A   1      32.718  20.475  24.181  1.00  0.00    -0.017 A 
ATOM     30  C   UNL A   1      33.865  20.019  24.842  1.00  0.00     0.010 A 
ATOM     31  C   UNL A   1      32.043  19.638  23.284  1.00  0.00     0.010 A 
ATOM     32  C   UNL A   1      34.342  18.730  24.591  1.00  0.00     0.021 A 
ATOM     33  C   UNL A   1      32.523  18.353  23.035  1.00  0.00     0.021 A 
ATOM     34  C   UNL A   1      33.673  17.907  23.685  1.00  0.00     0.041 A 
ATOM     35  Cl  UNL A   1      34.285  16.337  23.341  1.00  0.00    -0.084 Cl
ENDBRANCH  21  29
ENDBRANCH  16  19
ENDBRANCH   9  15
ENDBRANCH   6   8
ENDBRANCH   5   6
ENDBRANCH   4   5
ENDBRANCH   3   4
ENDBRANCH   2   3
ENDBRANCH   1   2
BRANCH   1  36
ATOM     36  C   UNL A   1      39.532  21.670  26.139  1.00  0.00     0.188 C 
BRANCH  36  37
ATOM     37  O   UNL A   1      40.444  22.546  26.767  1.00  0.00    -0.376 OA
BRANCH  37  38
ATOM     38  C   UNL A   1      41.744  22.648  26.235  1.00  0.00     0.202 C 
BRANCH  38  39
ATOM     39  C   UNL A   1      42.736  23.687  26.785  1.00  0.00     0.261 C 
BRANCH  39  40
ATOM     40  O   UNL A   1      42.888  24.922  26.069  1.00  0.00    -0.460 OA
BRANCH  40  41
ATOM     41  C   UNL A   1      41.842  25.784  26.082  1.00  0.00     0.338 C 
ATOM     42  O   UNL A   1      41.021  25.941  25.204  1.00  0.00    -0.246 OA
BRANCH  41  43
ATOM     43  C   UNL A   1      41.769  26.413  27.426  1.00  0.00     0.060 A 
ATOM     44  C   UNL A   1      40.688  26.116  28.267  1.00  0.00     0.016 A 
ATOM     45  C   UNL A   1      42.756  27.308  27.846  1.00  0.00     0.016 A 
ATOM     46  C   UNL A   1      40.579  26.735  29.519  1.00  0.00     0.010 A 
ATOM     47  C   UNL A   1      42.635  27.940  29.091  1.00  0.00     0.010 A 
ATOM     48  C   UNL A   1      41.531  27.680  29.925  1.00  0.00    -0.014 A 
BRANCH  48  49
ATOM     49  C   UNL A   1      41.304  28.523  31.132  1.00  0.00     0.031 A 
ATOM     50  C   UNL A   1      40.212  29.563  31.091  1.00  0.00     0.074 A 
ATOM     51  C   UNL A   1      42.052  28.390  32.243  1.00  0.00     0.049 A 
ATOM     52  N   UNL A   1      39.897  30.476  31.972  1.00  0.00    -0.248 NA
ATOM     53  C   UNL A   1      39.366  29.572  29.886  1.00  0.00     0.031 C 
ATOM     54  C   UNL A   1      43.114  27.405  32.434  1.00  0.00     0.029 A 
ATOM     55  N   UNL A   1      42.044  29.106  33.418  1.00  0.00    -0.354 N 
ATOM     56  C   UNL A   1      38.826  31.176  31.427  1.00  0.00     0.074 A 
ATOM     57  C   UNL A   1      38.566  30.600  30.124  1.00  0.00     0.031 C 
ATOM     58  C   UNL A   1      43.670  27.592  33.645  1.00  0.00     0.029 A 
ATOM     59  C   UNL A   1      43.033  28.734  34.300  1.00  0.00     0.049 A 
ATOM     60  H   UNL A   1      41.392  29.819  33.609  1.00  0.00     0.167 HD
ATOM     61  C   UNL A   1      38.118  32.201  31.961  1.00  0.00     0.037 A 
ATOM     62  C   UNL A   1      43.401  29.271  35.482  1.00  0.00     0.037 A 
ATOM     63  C   UNL A   1      38.382  32.780  33.254  1.00  0.00     0.049 A 
ATOM     64  C   UNL A   1      42.649  30.464  36.026  1.00  0.00     0.074 A 
ATOM     65  C   UNL A   1      37.712  33.813  33.887  1.00  0.00     0.029 A 
ATOM     66  N   UNL A   1      39.402  32.385  34.108  1.00  0.00    -0.354 N 
ATOM     67  N   UNL A   1      41.626  31.103  35.509  1.00  0.00    -0.248 NA
ATOM     68  C   UNL A   1      43.101  31.007  37.316  1.00  0.00     0.031 C 
ATOM     69  C   UNL A   1      38.362  34.081  35.095  1.00  0.00     0.029 A 
ATOM     70  C   UNL A   1      39.395  33.171  35.249  1.00  0.00     0.049 A 
ATOM     71  H   UNL A   1      40.037  31.654  33.929  1.00  0.00     0.167 HD
ATOM     72  C   UNL A   1      41.294  32.099  36.425  1.00  0.00     0.074 A 
ATOM     73  C   UNL A   1      42.217  31.971  37.533  1.00  0.00     0.031 C 
ATOM     74  C   UNL A   1      40.311  33.032  36.356  1.00  0.00     0.037 A 
BRANCH  61  75
ATOM     75  C   UNL A   1      37.002  32.784  31.135  1.00  0.00     0.058 A 
ATOM     76  C   UNL A   1      35.657  32.457  31.370  1.00  0.00     0.135 A 
ATOM     77  C   UNL A   1      37.280  33.710  30.116  1.00  0.00     0.135 A 
ATOM     78  F   UNL A   1      35.334  31.565  32.320  1.00  0.00    -0.206 F 
ATOM     79  C   UNL A   1      34.630  33.004  30.606  1.00  0.00     0.059 A 
ATOM     80  C   UNL A   1      36.268  34.294  29.360  1.00  0.00     0.059 A 
ATOM     81  F   UNL A   1      38.548  34.059  29.847  1.00  0.00    -0.206 F 
ATOM     82  C   UNL A   1      34.946  33.923  29.604  1.00  0.00     0.060 A 
BRANCH  82  83
ATOM     83  S   UNL A   1      33.602  34.623  28.624  1.00  0.00     0.124 S 
ATOM     84  O   UNL A   1      34.255  35.779  28.017  1.00  0.00    -0.237 OA
ATOM     85  O   UNL A   1      33.278  33.529  27.713  1.00  0.00    -0.237 OA
ATOM     86  O   UNL A   1      32.580  34.932  29.618  1.00  0.00    -0.744 OA
ENDBRANCH  82  83
ENDBRANCH  61  75
BRANCH  62  87
ATOM     87  C   UNL A   1      44.557  28.705  36.233  1.00  0.00     0.058 A 
ATOM     88  C   UNL A   1      45.858  29.199  36.047  1.00  0.00     0.135 A 
ATOM     89  C   UNL A   1      44.388  27.648  37.141  1.00  0.00     0.135 A 
ATOM     90  F   UNL A   1      46.078  30.196  35.176  1.00  0.00    -0.206 F 
ATOM     91  C   UNL A   1      46.949  28.657  36.721  1.00  0.00     0.059 A 
ATOM     92  C   UNL A   1      45.458  27.110  37.850  1.00  0.00     0.059 A 
ATOM     93  F   UNL A   1      43.166  27.138  37.358  1.00  0.00    -0.206 F 
ATOM     94  C   UNL A   1      46.738  27.615  37.624  1.00  0.00     0.060 A 
BRANCH  94  95
ATOM     95  S   UNL A   1      48.155  26.953  38.529  1.00  0.00     0.124 S 
ATOM     96  O   UNL A   1      48.984  28.142  38.688  1.00  0.00    -0.237 OA
ATOM     97  O   UNL A   1      47.529  26.446  39.745  1.00  0.00    -0.237 OA
ATOM     98  O   UNL A   1      48.681  25.932  37.629  1.00  0.00    -0.744 OA
ENDBRANCH  94  95
ENDBRANCH  62  87
BRANCH  74  99
ATOM     99  C   UNL A   1      40.139  33.964  37.527  1.00  0.00     0.058 A 
ATOM    100  C   UNL A   1      40.903  35.134  37.668  1.00  0.00     0.135 A 
ATOM    101  C   UNL A   1      39.151  33.712  38.495  1.00  0.00     0.135 A 
ATOM    102  F   UNL A   1      41.864  35.424  36.777  1.00  0.00    -0.206 F 
ATOM    103  C   UNL A   1      40.710  36.006  38.736  1.00  0.00     0.059 A 
ATOM    104  C   UNL A   1      38.918  34.586  39.552  1.00  0.00     0.059 A 
ATOM    105  F   UNL A   1      38.382  32.615  38.405  1.00  0.00    -0.206 F 
ATOM    106  C   UNL A   1      39.711  35.726  39.672  1.00  0.00     0.060 A 
BRANCH 106 107
ATOM    107  S   UNL A   1      39.449  36.883  41.033  1.00  0.00     0.124 S 
ATOM    108  O   UNL A   1      40.814  37.296  41.338  1.00  0.00    -0.237 OA
ATOM    109  O   UNL A   1      38.602  37.901  40.417  1.00  0.00    -0.237 OA
ATOM    110  O   UNL A   1      38.797  36.068  42.054  1.00  0.00    -0.744 OA
ENDBRANCH 106 107
ENDBRANCH  74  99
ENDBRANCH  48  49
ENDBRANCH  41  43
ENDBRANCH  40  41
ENDBRANCH  39  40
ENDBRANCH  38  39
ENDBRANCH  37  38
ENDBRANCH  36  37
ENDBRANCH   1  36
TORSDOF 24
ENDMDL
MODEL 2
REMARK VINA RESULT:     -10.8      2.870      8.422
REMARK SMILES NC(=O)c1c(-c2ccc(Cl)cc2)csc1NC(=O)[C@H]1[C@@H](C(=O)OCCOCCOCCOC(=O)c2ccc(-c3c4nc(c(-c5c(F)cc(S(=O)(=O)[O-])cc5F)c5ccc([nH]5)c(-c5c(F)cc(S(=O)(=O)[O-])cc5F)c5nc(c(-c6c(F)cc(S(=O)(=O)[O-])cc6F)c6ccc3[nH]6)C=C5)C=C4)cc2)[C@@H]2CC[C@H]1O2
REMARK SMILES IDX 27 1 26 2 25 3 24 4 23 5 21 6 22 7 20 8 19 9 104 10 101 11
REMARK SMILES IDX 103 12 105 13 102 14 17 15 16 16 18 18 15 19 4 20 5 21 13 22
REMARK SMILES IDX 14 23 2 24 1 25 3 28 6 29 7 30 12 31 8 32 11 33 9 34 10 35
REMARK SMILES IDX 28 36 29 37 30 38 31 39 32 40 33 41 34 42 35 43 36 44 100 45
REMARK SMILES IDX 37 46 99 47 38 48 39 49 40 50 93 51 41 52 98 53 92 54 94 55
REMARK SMILES IDX 42 56 97 57 91 58 90 59 43 61 77 62 56 63 76 64 57 65 60 66
REMARK SMILES IDX 75 67 95 68 58 69 59 70 74 72 96 73 61 74 44 75 45 76 54 77
REMARK SMILES IDX 46 78 47 79 53 80 55 81 48 82 49 83 50 84 51 85 52 86 78 87
REMARK SMILES IDX 79 88 88 89 80 90 81 91 87 92 89 93 82 94 83 95 84 96 85 97
REMARK SMILES IDX 86 98 62 99 63 100 72 101 64 102 65 103 71 104 73 105 66 106
REMARK SMILES IDX 67 107 68 108 69 109 70 110
REMARK H PARENT 16 17 1 26 1 27 94 60 60 71
REMARK Flexibility Score: inf
ROOT
ATOM      1  C   UNL A   1      34.073  24.389  22.688  1.00  0.00     0.188 C 
ENDROOT
BRANCH   1   2
ATOM      2  O   UNL A   1      33.558  24.761  21.416  1.00  0.00    -0.376 OA
BRANCH   2   3
ATOM      3  C   UNL A   1      32.754  25.923  21.310  1.00  0.00     0.202 C 
BRANCH   3   4
ATOM      4  C   UNL A   1      31.510  26.065  22.199  1.00  0.00     0.261 C 
BRANCH   4   5
ATOM      5  O   UNL A   1      30.868  27.356  22.211  1.00  0.00    -0.463 OA
BRANCH   5   6
ATOM      6  C   UNL A   1      30.645  27.887  23.439  1.00  0.00     0.312 C 
ATOM      7  O   UNL A   1      29.574  28.366  23.797  1.00  0.00    -0.252 OA
BRANCH   6   8
ATOM      8  C   UNL A   1      31.821  27.815  24.393  1.00  0.00     0.143 C 
ATOM      9  C   UNL A   1      31.978  26.598  25.326  1.00  0.00     0.124 C 
ATOM     10  C   UNL A   1      32.595  27.271  26.525  1.00  0.00     0.132 C 
ATOM     11  C   UNL A   1      31.992  28.995  25.365  1.00  0.00     0.133 C 
ATOM     12  C   UNL A   1      33.918  28.002  26.286  1.00  0.00     0.035 C 
ATOM     13  O   UNL A   1      31.694  28.396  26.648  1.00  0.00    -0.373 OA
ATOM     14  C   UNL A   1      33.464  29.296  25.616  1.00  0.00     0.036 C 
BRANCH   9  15
ATOM     15  C   UNL A   1      30.717  25.728  25.488  1.00  0.00     0.231 C 
ATOM     16  N   UNL A   1      30.479  24.401  25.317  1.00  0.00    -0.317 N 
ATOM     17  H   UNL A   1      29.591  24.173  25.674  1.00  0.00     0.170 HD
ATOM     18  O   UNL A   1      29.724  26.347  25.929  1.00  0.00    -0.274 OA
BRANCH  16  19
ATOM     19  C   UNL A   1      31.086  23.262  24.797  1.00  0.00     0.108 A 
ATOM     20  C   UNL A   1      31.832  22.307  25.505  1.00  0.00     0.082 A 
ATOM     21  C   UNL A   1      32.388  21.311  24.597  1.00  0.00     0.007 A 
ATOM     22  C   UNL A   1      32.017  21.545  23.293  1.00  0.00     0.076 A 
ATOM     23  S   UNL A   1      30.829  22.722  23.224  1.00  0.00    -0.125 S 
BRANCH  20  24
ATOM     24  C   UNL A   1      31.961  22.361  26.963  1.00  0.00     0.252 C 
ATOM     25  N   UNL A   1      32.997  21.677  27.526  1.00  0.00    -0.365 N 
ATOM     26  H   UNL A   1      33.120  21.687  28.502  1.00  0.00     0.159 HD
ATOM     27  H   UNL A   1      33.623  21.174  26.956  1.00  0.00     0.159 HD
ATOM     28  O   UNL A   1      31.185  22.989  27.679  1.00  0.00    -0.269 OA
ENDBRANCH  20  24
BRANCH  21  29
ATOM     29  C   UNL A   1      33.065  20.050  24.843  1.00  0.00    -0.017 A 
ATOM     30  C   UNL A   1      34.451  19.933  24.674  1.00  0.00     0.010 A 
ATOM     31  C   UNL A   1      32.285  18.908  25.061  1.00  0.00     0.010 A 
ATOM     32  C   UNL A   1      35.049  18.672  24.712  1.00  0.00     0.021 A 
ATOM     33  C   UNL A   1      32.885  17.650  25.096  1.00  0.00     0.021 A 
ATOM     34  C   UNL A   1      34.263  17.537  24.914  1.00  0.00     0.041 A 
ATOM     35  Cl  UNL A   1      34.992  15.979  24.914  1.00  0.00    -0.084 Cl
ENDBRANCH  21  29
ENDBRANCH  16  19
ENDBRANCH   9  15
ENDBRANCH   6   8
ENDBRANCH   5   6
ENDBRANCH   4   5
ENDBRANCH   3   4
ENDBRANCH   2   3
ENDBRANCH   1   2
BRANCH   1  36
ATOM     36  C   UNL A   1      34.893  23.085  22.834  1.00  0.00     0.188 C 
BRANCH  36  37
ATOM     37  O   UNL A   1      35.916  23.198  23.801  1.00  0.00    -0.376 OA
BRANCH  37  38
ATOM     38  C   UNL A   1      37.024  22.333  23.703  1.00  0.00     0.202 C 
BRANCH  38  39
ATOM     39  C   UNL A   1      37.672  21.745  24.969  1.00  0.00     0.261 C 
BRANCH  39  40
ATOM     40  O   UNL A   1      38.020  22.646  26.030  1.00  0.00    -0.460 OA
BRANCH  40  41
ATOM     41  C   UNL A   1      39.339  22.816  26.297  1.00  0.00     0.338 C 
ATOM     42  O   UNL A   1      40.244  22.078  25.973  1.00  0.00    -0.246 OA
BRANCH  41  43
ATOM     43  C   UNL A   1      39.522  24.146  26.933  1.00  0.00     0.060 A 
ATOM     44  C   UNL A   1      40.302  25.115  26.288  1.00  0.00     0.016 A 
ATOM     45  C   UNL A   1      38.939  24.428  28.171  1.00  0.00     0.016 A 
ATOM     46  C   UNL A   1      40.524  26.359  26.895  1.00  0.00     0.010 A 
ATOM     47  C   UNL A   1      39.177  25.665  28.784  1.00  0.00     0.010 A 
ATOM     48  C   UNL A   1      39.994  26.630  28.164  1.00  0.00    -0.014 A 
BRANCH  48  49
ATOM     49  C   UNL A   1      40.418  27.837  28.926  1.00  0.00     0.031 A 
ATOM     50  C   UNL A   1      41.757  27.822  29.617  1.00  0.00     0.074 A 
ATOM     51  C   UNL A   1      39.633  28.927  29.023  1.00  0.00     0.049 A 
ATOM     52  N   UNL A   1      42.294  28.707  30.418  1.00  0.00    -0.248 NA
ATOM     53  C   UNL A   1      42.603  26.642  29.373  1.00  0.00     0.031 C 
ATOM     54  C   UNL A   1      38.332  29.093  28.378  1.00  0.00     0.029 A 
ATOM     55  N   UNL A   1      39.811  30.098  29.724  1.00  0.00    -0.354 N 
ATOM     56  C   UNL A   1      43.531  28.188  30.782  1.00  0.00     0.074 A 
ATOM     57  C   UNL A   1      43.653  26.897  30.139  1.00  0.00     0.031 C 
ATOM     58  C   UNL A   1      37.820  30.286  28.730  1.00  0.00     0.029 A 
ATOM     59  C   UNL A   1      38.735  30.953  29.656  1.00  0.00     0.049 A 
ATOM     60  H   UNL A   1      40.632  30.303  30.228  1.00  0.00     0.167 HD
ATOM     61  C   UNL A   1      44.484  28.737  31.574  1.00  0.00     0.037 A 
ATOM     62  C   UNL A   1      38.502  32.121  30.291  1.00  0.00     0.037 A 
ATOM     63  C   UNL A   1      44.360  30.019  32.221  1.00  0.00     0.049 A 
ATOM     64  C   UNL A   1      39.543  32.680  31.232  1.00  0.00     0.074 A 
ATOM     65  C   UNL A   1      45.276  30.664  33.034  1.00  0.00     0.029 A 
ATOM     66  N   UNL A   1      43.248  30.845  32.140  1.00  0.00    -0.354 N 
ATOM     67  N   UNL A   1      40.718  32.189  31.552  1.00  0.00    -0.248 NA
ATOM     68  C   UNL A   1      39.228  33.953  31.898  1.00  0.00     0.031 C 
ATOM     69  C   UNL A   1      44.696  31.852  33.490  1.00  0.00     0.029 A 
ATOM     70  C   UNL A   1      43.445  31.981  32.908  1.00  0.00     0.049 A 
ATOM     71  H   UNL A   1      42.438  30.652  31.614  1.00  0.00     0.167 HD
ATOM     72  C   UNL A   1      41.292  33.108  32.427  1.00  0.00     0.074 A 
ATOM     73  C   UNL A   1      40.341  34.190  32.578  1.00  0.00     0.031 C 
ATOM     74  C   UNL A   1      42.499  33.062  33.046  1.00  0.00     0.037 A 
BRANCH  61  75
ATOM     75  C   UNL A   1      45.740  27.940  31.810  1.00  0.00     0.058 A 
ATOM     76  C   UNL A   1      46.896  28.131  31.036  1.00  0.00     0.135 A 
ATOM     77  C   UNL A   1      45.800  26.996  32.848  1.00  0.00     0.135 A 
ATOM     78  F   UNL A   1      46.892  29.010  30.020  1.00  0.00    -0.206 F 
ATOM     79  C   UNL A   1      48.055  27.395  31.263  1.00  0.00     0.059 A 
ATOM     80  C   UNL A   1      46.957  26.270  33.114  1.00  0.00     0.059 A 
ATOM     81  F   UNL A   1      44.724  26.770  33.619  1.00  0.00    -0.206 F 
ATOM     82  C   UNL A   1      48.075  26.467  32.306  1.00  0.00     0.060 A 
BRANCH  82  83
ATOM     83  S   UNL A   1      49.587  25.522  32.587  1.00  0.00     0.124 S 
ATOM     84  O   UNL A   1      49.142  24.548  33.579  1.00  0.00    -0.237 OA
ATOM     85  O   UNL A   1      49.871  24.988  31.258  1.00  0.00    -0.237 OA
ATOM     86  O   UNL A   1      50.531  26.524  33.072  1.00  0.00    -0.744 OA
ENDBRANCH  82  83
ENDBRANCH  61  75
BRANCH  62  87
ATOM     87  C   UNL A   1      37.214  32.841  30.082  1.00  0.00     0.058 A 
ATOM     88  C   UNL A   1      37.086  33.835  29.099  1.00  0.00     0.135 A 
ATOM     89  C   UNL A   1      36.087  32.561  30.871  1.00  0.00     0.135 A 
ATOM     90  F   UNL A   1      38.138  34.155  28.330  1.00  0.00    -0.206 F 
ATOM     91  C   UNL A   1      35.896  34.533  28.916  1.00  0.00     0.059 A 
ATOM     92  C   UNL A   1      34.877  33.224  30.687  1.00  0.00     0.059 A 
ATOM     93  F   UNL A   1      36.153  31.619  31.826  1.00  0.00    -0.206 F 
ATOM     94  C   UNL A   1      34.795  34.217  29.712  1.00  0.00     0.060 A 
BRANCH  94  95
ATOM     95  S   UNL A   1      33.242  35.097  29.431  1.00  0.00     0.124 S 
ATOM     96  O   UNL A   1      32.601  34.252  28.432  1.00  0.00    -0.237 OA
ATOM     97  O   UNL A   1      32.641  35.082  30.760  1.00  0.00    -0.237 OA
ATOM     98  O   UNL A   1      33.679  36.409  28.963  1.00  0.00    -0.744 OA
ENDBRANCH  94  95
ENDBRANCH  62  87
BRANCH  74  99
ATOM     99  C   UNL A   1      42.895  34.232  33.909  1.00  0.00     0.058 A 
ATOM    100  C   UNL A   1      42.516  34.328  35.258  1.00  0.00     0.135 A 
ATOM    101  C   UNL A   1      43.718  35.248  33.391  1.00  0.00     0.135 A 
ATOM    102  F   UNL A   1      41.727  33.389  35.805  1.00  0.00    -0.206 F 
ATOM    103  C   UNL A   1      42.918  35.396  36.054  1.00  0.00     0.059 A 
ATOM    104  C   UNL A   1      44.159  36.308  34.178  1.00  0.00     0.059 A 
ATOM    105  F   UNL A   1      44.121  35.204  32.112  1.00  0.00    -0.206 F 
ATOM    106  C   UNL A   1      43.744  36.380  35.506  1.00  0.00     0.060 A 
BRANCH 106 107
ATOM    107  S   UNL A   1      44.286  37.742  36.560  1.00  0.00     0.124 S 
ATOM    108  O   UNL A   1      43.427  37.574  37.727  1.00  0.00    -0.237 OA
ATOM    109  O   UNL A   1      45.699  37.435  36.764  1.00  0.00    -0.237 OA
ATOM    110  O   UNL A   1      44.020  38.928  35.751  1.00  0.00    -0.744 OA
ENDBRANCH 106 107
ENDBRANCH  74  99
ENDBRANCH  48  49
ENDBRANCH  41  43
ENDBRANCH  40  41
ENDBRANCH  39  40
ENDBRANCH  38  39
ENDBRANCH  37  38
ENDBRANCH  36  37
ENDBRANCH   1  36
TORSDOF 24
ENDMDL
MODEL 3
REMARK VINA RESULT:     -10.1      4.709      8.784
REMARK SMILES NC(=O)c1c(-c2ccc(Cl)cc2)csc1NC(=O)[C@H]1[C@@H](C(=O)OCCOCCOCCOC(=O)c2ccc(-c3c4nc(c(-c5c(F)cc(S(=O)(=O)[O-])cc5F)c5ccc([nH]5)c(-c5c(F)cc(S(=O)(=O)[O-])cc5F)c5nc(c(-c6c(F)cc(S(=O)(=O)[O-])cc6F)c6ccc3[nH]6)C=C5)C=C4)cc2)[C@@H]2CC[C@H]1O2
REMARK SMILES IDX 27 1 26 2 25 3 24 4 23 5 21 6 22 7 20 8 19 9 104 10 101 11
REMARK SMILES IDX 103 12 105 13 102 14 17 15 16 16 18 18 15 19 4 20 5 21 13 22
REMARK SMILES IDX 14 23 2 24 1 25 3 28 6 29 7 30 12 31 8 32 11 33 9 34 10 35
REMARK SMILES IDX 28 36 29 37 30 38 31 39 32 40 33 41 34 42 35 43 36 44 100 45
REMARK SMILES IDX 37 46 99 47 38 48 39 49 40 50 93 51 41 52 98 53 92 54 94 55
REMARK SMILES IDX 42 56 97 57 91 58 90 59 43 61 77 62 56 63 76 64 57 65 60 66
REMARK SMILES IDX 75 67 95 68 58 69 59 70 74 72 96 73 61 74 44 75 45 76 54 77
REMARK SMILES IDX 46 78 47 79 53 80 55 81 48 82 49 83 50 84 51 85 52 86 78 87
REMARK SMILES IDX 79 88 88 89 80 90 81 91 87 92 89 93 82 94 83 95 84 96 85 97
REMARK SMILES IDX 86 98 62 99 63 100 72 101 64 102 65 103 71 104 73 105 66 106
REMARK SMILES IDX 67 107 68 108 69 109 70 110
REMARK H PARENT 16 17 1 26 1 27 94 60 60 71
REMARK Flexibility Score: inf
ROOT
ATOM      1  C   UNL A   1      34.106  24.964  23.057  1.00  0.00     0.188 C 
ENDROOT
BRANCH   1   2
ATOM      2  O   UNL A   1      34.018  25.625  21.802  1.00  0.00    -0.376 OA
BRANCH   2   3
ATOM      3  C   UNL A   1      32.821  26.300  21.461  1.00  0.00     0.202 C 
BRANCH   3   4
ATOM      4  C   UNL A   1      31.549  26.046  22.283  1.00  0.00     0.261 C 
BRANCH   4   5
ATOM      5  O   UNL A   1      30.620  27.144  22.393  1.00  0.00    -0.463 OA
BRANCH   5   6
ATOM      6  C   UNL A   1      30.434  27.628  23.645  1.00  0.00     0.312 C 
ATOM      7  O   UNL A   1      29.334  27.879  24.129  1.00  0.00    -0.252 OA
BRANCH   6   8
ATOM      8  C   UNL A   1      31.700  27.811  24.458  1.00  0.00     0.143 C 
ATOM      9  C   UNL A   1      32.092  26.756  25.513  1.00  0.00     0.124 C 
ATOM     10  C   UNL A   1      32.743  27.647  26.538  1.00  0.00     0.132 C 
ATOM     11  C   UNL A   1      31.827  29.124  25.248  1.00  0.00     0.133 C 
ATOM     12  C   UNL A   1      33.941  28.471  26.058  1.00  0.00     0.035 C 
ATOM     13  O   UNL A   1      31.734  28.680  26.622  1.00  0.00    -0.373 OA
ATOM     14  C   UNL A   1      33.272  29.607  25.289  1.00  0.00     0.036 C 
BRANCH   9  15
ATOM     15  C   UNL A   1      30.965  25.791  25.927  1.00  0.00     0.231 C 
ATOM     16  N   UNL A   1      30.753  24.466  25.709  1.00  0.00    -0.317 N 
ATOM     17  H   UNL A   1      30.006  24.152  26.268  1.00  0.00     0.170 HD
ATOM     18  O   UNL A   1      30.100  26.306  26.668  1.00  0.00    -0.274 OA
BRANCH  16  19
ATOM     19  C   UNL A   1      31.251  23.412  24.950  1.00  0.00     0.108 A 
ATOM     20  C   UNL A   1      32.083  22.372  25.393  1.00  0.00     0.082 A 
ATOM     21  C   UNL A   1      32.471  21.513  24.281  1.00  0.00     0.007 A 
ATOM     22  C   UNL A   1      31.903  21.923  23.096  1.00  0.00     0.076 A 
ATOM     23  S   UNL A   1      30.739  23.092  23.379  1.00  0.00    -0.125 S 
BRANCH  20  24
ATOM     24  C   UNL A   1      32.441  22.226  26.805  1.00  0.00     0.252 C 
ATOM     25  N   UNL A   1      32.993  21.041  27.192  1.00  0.00    -0.365 N 
ATOM     26  H   UNL A   1      33.249  20.901  28.132  1.00  0.00     0.159 HD
ATOM     27  H   UNL A   1      33.138  20.326  26.531  1.00  0.00     0.159 HD
ATOM     28  O   UNL A   1      32.266  23.116  27.634  1.00  0.00    -0.269 OA
ENDBRANCH  20  24
BRANCH  21  29
ATOM     29  C   UNL A   1      33.157  20.234  24.241  1.00  0.00    -0.017 A 
ATOM     30  C   UNL A   1      32.449  19.046  24.020  1.00  0.00     0.010 A 
ATOM     31  C   UNL A   1      34.504  20.189  24.622  1.00  0.00     0.010 A 
ATOM     32  C   UNL A   1      33.088  17.816  24.193  1.00  0.00     0.021 A 
ATOM     33  C   UNL A   1      35.138  18.960  24.795  1.00  0.00     0.021 A 
ATOM     34  C   UNL A   1      34.427  17.779  24.587  1.00  0.00     0.041 A 
ATOM     35  Cl  UNL A   1      35.202  16.266  24.845  1.00  0.00    -0.084 Cl
ENDBRANCH  21  29
ENDBRANCH  16  19
ENDBRANCH   9  15
ENDBRANCH   6   8
ENDBRANCH   5   6
ENDBRANCH   4   5
ENDBRANCH   3   4
ENDBRANCH   2   3
ENDBRANCH   1   2
BRANCH   1  36
ATOM     36  C   UNL A   1      34.942  23.667  23.188  1.00  0.00     0.188 C 
BRANCH  36  37
ATOM     37  O   UNL A   1      36.008  23.805  24.102  1.00  0.00    -0.376 OA
BRANCH  37  38
ATOM     38  C   UNL A   1      36.988  22.794  24.141  1.00  0.00     0.202 C 
BRANCH  38  39
ATOM     39  C   UNL A   1      37.522  22.271  25.486  1.00  0.00     0.261 C 
BRANCH  39  40
ATOM     40  O   UNL A   1      38.240  23.184  26.329  1.00  0.00    -0.460 OA
BRANCH  40  41
ATOM     41  C   UNL A   1      39.512  22.855  26.664  1.00  0.00     0.338 C 
ATOM     42  O   UNL A   1      40.024  21.760  26.577  1.00  0.00    -0.246 OA
BRANCH  41  43
ATOM     43  C   UNL A   1      40.240  24.100  27.023  1.00  0.00     0.060 A 
ATOM     44  C   UNL A   1      40.865  24.194  28.274  1.00  0.00     0.016 A 
ATOM     45  C   UNL A   1      40.290  25.176  26.133  1.00  0.00     0.016 A 
ATOM     46  C   UNL A   1      41.516  25.377  28.648  1.00  0.00     0.010 A 
ATOM     47  C   UNL A   1      40.927  26.363  26.517  1.00  0.00     0.010 A 
ATOM     48  C   UNL A   1      41.520  26.483  27.788  1.00  0.00    -0.014 A 
BRANCH  48  49
ATOM     49  C   UNL A   1      41.988  27.816  28.261  1.00  0.00     0.031 A 
ATOM     50  C   UNL A   1      43.470  28.089  28.301  1.00  0.00     0.074 A 
ATOM     51  C   UNL A   1      41.126  28.769  28.663  1.00  0.00     0.049 A 
ATOM     52  N   UNL A   1      44.115  29.126  28.767  1.00  0.00    -0.248 NA
ATOM     53  C   UNL A   1      44.340  27.041  27.741  1.00  0.00     0.031 C 
ATOM     54  C   UNL A   1      39.669  28.656  28.644  1.00  0.00     0.029 A 
ATOM     55  N   UNL A   1      41.358  30.020  29.189  1.00  0.00    -0.354 N 
ATOM     56  C   UNL A   1      45.464  28.855  28.569  1.00  0.00     0.074 A 
ATOM     57  C   UNL A   1      45.546  27.540  27.968  1.00  0.00     0.031 C 
ATOM     58  C   UNL A   1      39.138  29.781  29.156  1.00  0.00     0.029 A 
ATOM     59  C   UNL A   1      40.213  30.679  29.575  1.00  0.00     0.049 A 
ATOM     60  H   UNL A   1      42.259  30.406  29.281  1.00  0.00     0.167 HD
ATOM     61  C   UNL A   1      46.539  29.629  28.855  1.00  0.00     0.037 A 
ATOM     62  C   UNL A   1      40.053  31.853  30.220  1.00  0.00     0.037 A 
ATOM     63  C   UNL A   1      46.459  30.934  29.461  1.00  0.00     0.049 A 
ATOM     64  C   UNL A   1      41.268  32.667  30.601  1.00  0.00     0.074 A 
ATOM     65  C   UNL A   1      47.491  31.800  29.778  1.00  0.00     0.029 A 
ATOM     66  N   UNL A   1      45.282  31.557  29.851  1.00  0.00    -0.354 N 
ATOM     67  N   UNL A   1      42.537  32.408  30.390  1.00  0.00    -0.248 NA
ATOM     68  C   UNL A   1      41.028  33.936  31.307  1.00  0.00     0.031 C 
ATOM     69  C   UNL A   1      46.945  32.919  30.413  1.00  0.00     0.029 A 
ATOM     70  C   UNL A   1      45.566  32.785  30.429  1.00  0.00     0.049 A 
ATOM     71  H   UNL A   1      44.379  31.183  29.734  1.00  0.00     0.167 HD
ATOM     72  C   UNL A   1      43.241  33.494  30.906  1.00  0.00     0.074 A 
ATOM     73  C   UNL A   1      42.257  34.418  31.429  1.00  0.00     0.031 C 
ATOM     74  C   UNL A   1      44.581  33.707  30.939  1.00  0.00     0.037 A 
BRANCH  61  75
ATOM     75  C   UNL A   1      47.903  29.074  28.540  1.00  0.00     0.058 A 
ATOM     76  C   UNL A   1      48.642  28.343  29.484  1.00  0.00     0.135 A 
ATOM     77  C   UNL A   1      48.465  29.245  27.264  1.00  0.00     0.135 A 
ATOM     78  F   UNL A   1      48.162  28.162  30.726  1.00  0.00    -0.206 F 
ATOM     79  C   UNL A   1      49.900  27.828  29.185  1.00  0.00     0.059 A 
ATOM     80  C   UNL A   1      49.706  28.712  26.931  1.00  0.00     0.059 A 
ATOM     81  F   UNL A   1      47.803  29.936  26.321  1.00  0.00    -0.206 F 
ATOM     82  C   UNL A   1      50.423  28.017  27.905  1.00  0.00     0.060 A 
BRANCH  82  83
ATOM     83  S   UNL A   1      52.055  27.341  27.533  1.00  0.00     0.124 S 
ATOM     84  O   UNL A   1      52.508  28.237  26.474  1.00  0.00    -0.237 OA
ATOM     85  O   UNL A   1      52.745  27.474  28.813  1.00  0.00    -0.237 OA
ATOM     86  O   UNL A   1      51.770  25.972  27.117  1.00  0.00    -0.744 OA
ENDBRANCH  82  83
ENDBRANCH  61  75
BRANCH  62  87
ATOM     87  C   UNL A   1      38.686  32.331  30.575  1.00  0.00     0.058 A 
ATOM     88  C   UNL A   1      38.024  33.291  29.793  1.00  0.00     0.135 A 
ATOM     89  C   UNL A   1      38.019  31.848  31.712  1.00  0.00     0.135 A 
ATOM     90  F   UNL A   1      38.625  33.799  28.707  1.00  0.00    -0.206 F 
ATOM     91  C   UNL A   1      36.760  33.765  30.133  1.00  0.00     0.059 A 
ATOM     92  C   UNL A   1      36.743  32.284  32.055  1.00  0.00     0.059 A 
ATOM     93  F   UNL A   1      38.605  30.929  32.495  1.00  0.00    -0.206 F 
ATOM     94  C   UNL A   1      36.125  33.251  31.264  1.00  0.00     0.060 A 
BRANCH  94  95
ATOM     95  S   UNL A   1      34.465  33.839  31.666  1.00  0.00     0.124 S 
ATOM     96  O   UNL A   1      33.775  33.668  30.393  1.00  0.00    -0.237 OA
ATOM     97  O   UNL A   1      34.070  32.925  32.733  1.00  0.00    -0.237 OA
ATOM     98  O   UNL A   1      34.689  35.220  32.083  1.00  0.00    -0.744 OA
ENDBRANCH  94  95
ENDBRANCH  62  87
BRANCH  74  99
ATOM     99  C   UNL A   1      45.073  35.009  31.516  1.00  0.00     0.058 A 
ATOM    100  C   UNL A   1      45.244  36.158  30.727  1.00  0.00     0.135 A 
ATOM    101  C   UNL A   1      45.322  35.125  32.895  1.00  0.00     0.135 A 
ATOM    102  F   UNL A   1      45.027  36.106  29.403  1.00  0.00    -0.206 F 
ATOM    103  C   UNL A   1      45.665  37.365  31.278  1.00  0.00     0.059 A 
ATOM    104  C   UNL A   1      45.711  36.330  33.473  1.00  0.00     0.059 A 
ATOM    105  F   UNL A   1      45.164  34.063  33.701  1.00  0.00    -0.206 F 
ATOM    106  C   UNL A   1      45.893  37.442  32.654  1.00  0.00     0.060 A 
BRANCH 106 107
ATOM    107  S   UNL A   1      46.405  39.023  33.360  1.00  0.00     0.124 S 
ATOM    108  O   UNL A   1      45.744  38.995  34.660  1.00  0.00    -0.237 OA
ATOM    109  O   UNL A   1      47.859  38.897  33.385  1.00  0.00    -0.237 OA
ATOM    110  O   UNL A   1      45.884  40.005  32.413  1.00  0.00    -0.744 OA
ENDBRANCH 106 107
ENDBRANCH  74  99
ENDBRANCH  48  49
ENDBRANCH  41  43
ENDBRANCH  40  41
ENDBRANCH  39  40
ENDBRANCH  38  39
ENDBRANCH  37  38
ENDBRANCH  36  37
ENDBRANCH   1  36
TORSDOF 24
ENDMDL
