MODEL 1
REMARK VINA RESULT:     -10.4      0.000      0.000
REMARK SMILES COc1ccc(CCN2C(=O)C[C@@H](C(=O)OCCOCCOCCOC(=O)c3ccc(-c4c5nc(c(-c6c(F)cc(S(=O)(=O)[O-])cc6F)c6ccc([nH]6)c(-c6c(F)cc(S(=O)(=O)[O-])cc6F)c6nc(c(-c7c(F)cc(S(=O)(=O)[O-])cc7F)c7ccc4[nH]7)C=C6)C=C5)cc3)S/C2=[NH+]\c2ccc(F)cc2)cc1OC
REMARK SMILES IDX 20 1 19 2 18 3 17 4 16 5 14 6 15 7 13 8 9 9 10 10 95 11
REMARK SMILES IDX 11 12 12 13 94 14 96 15 8 17 7 18 6 19 3 20 4 21 105 22 5 23
REMARK SMILES IDX 104 24 2 25 1 26 106 27 107 28 97 29 98 30 103 31 99 32
REMARK SMILES IDX 102 33 100 34 101 35 21 36 22 37 23 38 24 39 25 40 26 41
REMARK SMILES IDX 27 42 28 43 29 44 93 45 30 46 92 47 31 48 32 49 33 50 86 51
REMARK SMILES IDX 34 52 91 53 85 54 87 55 35 56 90 57 84 58 83 59 36 61 70 62
REMARK SMILES IDX 49 63 69 64 50 65 53 66 68 67 88 68 51 69 52 70 67 72 89 73
REMARK SMILES IDX 54 74 37 75 38 76 47 77 39 78 40 79 46 80 48 81 41 82 42 83
REMARK SMILES IDX 43 84 44 85 45 86 71 87 72 88 81 89 73 90 74 91 80 92 82 93
REMARK SMILES IDX 75 94 76 95 77 96 78 97 79 98 55 99 56 100 65 101 57 102
REMARK SMILES IDX 58 103 64 104 66 105 59 106 60 107 61 108 62 109 63 110
REMARK H PARENT 96 16 87 60 53 71
REMARK Flexibility Score: inf
ROOT
ATOM      1  C   UNL A   1      41.860  22.466  27.812  1.00  0.00     0.188 C 
ENDROOT
BRANCH   1   2
ATOM      2  O   UNL A   1      40.919  23.050  26.919  1.00  0.00    -0.376 OA
BRANCH   2   3
ATOM      3  C   UNL A   1      39.540  22.806  27.098  1.00  0.00     0.202 C 
BRANCH   3   4
ATOM      4  C   UNL A   1      38.660  22.760  25.844  1.00  0.00     0.261 C 
BRANCH   4   5
ATOM      5  O   UNL A   1      37.250  22.976  26.044  1.00  0.00    -0.462 OA
BRANCH   5   6
ATOM      6  C   UNL A   1      36.398  22.210  25.302  1.00  0.00     0.320 C 
ATOM      7  O   UNL A   1      36.701  21.669  24.247  1.00  0.00    -0.251 OA
BRANCH   6   8
ATOM      8  C   UNL A   1      34.971  22.231  25.852  1.00  0.00     0.180 C 
ATOM      9  N   UNL A   1      32.161  22.907  25.180  1.00  0.00    -0.191 N 
ATOM     10  C   UNL A   1      32.677  21.621  25.228  1.00  0.00     0.311 C 
ATOM     11  C   UNL A   1      32.723  23.987  25.856  1.00  0.00     0.319 C 
ATOM     12  O   UNL A   1      32.011  20.619  25.471  1.00  0.00    -0.247 OA
ATOM     13  C   UNL A   1      34.107  21.539  24.836  1.00  0.00     0.155 C 
ATOM     14  S   UNL A   1      34.408  23.891  26.330  1.00  0.00    -0.022 SA
ATOM     15  N   UNL A   1      31.989  25.044  26.005  1.00  0.00    -0.235 N 
ATOM     16  H   UNL A   1      31.032  24.957  25.791  1.00  0.00     0.313 HD
BRANCH   9  17
ATOM     17  C   UNL A   1      30.831  22.990  24.572  1.00  0.00     0.251 C 
BRANCH  17  18
ATOM     18  C   UNL A   1      30.643  23.810  23.272  1.00  0.00     0.082 C 
BRANCH  18  19
ATOM     19  C   UNL A   1      30.658  25.332  23.286  1.00  0.00    -0.040 A 
ATOM     20  C   UNL A   1      30.556  28.137  22.856  1.00  0.00     0.160 A 
ATOM     21  C   UNL A   1      29.500  27.473  23.472  1.00  0.00     0.051 A 
ATOM     22  C   UNL A   1      31.705  27.423  22.503  1.00  0.00     0.160 A 
ATOM     23  C   UNL A   1      29.557  26.094  23.681  1.00  0.00     0.008 A 
ATOM     24  C   UNL A   1      31.737  26.028  22.715  1.00  0.00     0.054 A 
BRANCH  20  25
ATOM     25  O   UNL A   1      30.454  29.491  22.684  1.00  0.00    -0.493 OA
ATOM     26  C   UNL A   1      30.054  30.156  23.884  1.00  0.00     0.278 C 
ENDBRANCH  20  25
BRANCH  22  27
ATOM     27  O   UNL A   1      32.856  27.905  21.935  1.00  0.00    -0.493 OA
ATOM     28  C   UNL A   1      33.738  28.655  22.756  1.00  0.00     0.278 C 
ENDBRANCH  22  27
ENDBRANCH  18  19
ENDBRANCH  17  18
ENDBRANCH   9  17
BRANCH  15  29
ATOM     29  C   UNL A   1      32.430  26.298  26.444  1.00  0.00     0.125 A 
ATOM     30  C   UNL A   1      31.611  27.174  27.160  1.00  0.00     0.055 A 
ATOM     31  C   UNL A   1      33.675  26.766  25.989  1.00  0.00     0.055 A 
ATOM     32  C   UNL A   1      32.047  28.477  27.447  1.00  0.00     0.043 A 
ATOM     33  C   UNL A   1      34.121  28.054  26.284  1.00  0.00     0.043 A 
ATOM     34  C   UNL A   1      33.301  28.901  27.013  1.00  0.00     0.123 A 
ATOM     35  F   UNL A   1      33.730  30.132  27.317  1.00  0.00    -0.207 F 
ENDBRANCH  15  29
ENDBRANCH   6   8
ENDBRANCH   5   6
ENDBRANCH   4   5
ENDBRANCH   3   4
ENDBRANCH   2   3
ENDBRANCH   1   2
BRANCH   1  36
ATOM     36  C   UNL A   1      43.324  22.956  27.864  1.00  0.00     0.188 C 
BRANCH  36  37
ATOM     37  O   UNL A   1      44.095  22.560  26.739  1.00  0.00    -0.376 OA
BRANCH  37  38
ATOM     38  C   UNL A   1      44.701  23.612  26.008  1.00  0.00     0.202 C 
BRANCH  38  39
ATOM     39  C   UNL A   1      43.733  24.433  25.149  1.00  0.00     0.261 C 
BRANCH  39  40
ATOM     40  O   UNL A   1      43.475  25.772  25.605  1.00  0.00    -0.460 OA
BRANCH  40  41
ATOM     41  C   UNL A   1      42.183  26.126  25.790  1.00  0.00     0.338 C 
ATOM     42  O   UNL A   1      41.250  25.869  25.048  1.00  0.00    -0.246 OA
BRANCH  41  43
ATOM     43  C   UNL A   1      42.064  26.719  27.142  1.00  0.00     0.060 A 
ATOM     44  C   UNL A   1      41.023  26.304  27.982  1.00  0.00     0.016 A 
ATOM     45  C   UNL A   1      42.980  27.669  27.591  1.00  0.00     0.016 A 
ATOM     46  C   UNL A   1      40.854  26.882  29.244  1.00  0.00     0.010 A 
ATOM     47  C   UNL A   1      42.811  28.247  28.856  1.00  0.00     0.010 A 
ATOM     48  C   UNL A   1      41.725  27.888  29.676  1.00  0.00    -0.014 A 
BRANCH  48  49
ATOM     49  C   UNL A   1      41.428  28.671  30.905  1.00  0.00     0.031 A 
ATOM     50  C   UNL A   1      40.291  29.658  30.875  1.00  0.00     0.074 A 
ATOM     51  C   UNL A   1      42.151  28.520  32.031  1.00  0.00     0.049 A 
ATOM     52  N   UNL A   1      39.928  30.537  31.773  1.00  0.00    -0.248 NA
ATOM     53  C   UNL A   1      39.454  29.654  29.663  1.00  0.00     0.031 C 
ATOM     54  C   UNL A   1      43.241  27.563  32.218  1.00  0.00     0.029 A 
ATOM     55  N   UNL A   1      42.085  29.190  33.230  1.00  0.00    -0.354 N 
ATOM     56  C   UNL A   1      38.839  31.209  31.227  1.00  0.00     0.074 A 
ATOM     57  C   UNL A   1      38.615  30.649  29.911  1.00  0.00     0.031 C 
ATOM     58  C   UNL A   1      43.756  27.724  33.450  1.00  0.00     0.029 A 
ATOM     59  C   UNL A   1      43.064  28.822  34.124  1.00  0.00     0.049 A 
ATOM     60  H   UNL A   1      41.402  29.872  33.429  1.00  0.00     0.167 HD
ATOM     61  C   UNL A   1      38.093  32.199  31.772  1.00  0.00     0.037 A 
ATOM     62  C   UNL A   1      43.388  29.334  35.330  1.00  0.00     0.037 A 
ATOM     63  C   UNL A   1      38.311  32.748  33.086  1.00  0.00     0.049 A 
ATOM     64  C   UNL A   1      42.589  30.488  35.887  1.00  0.00     0.074 A 
ATOM     65  C   UNL A   1      37.593  33.738  33.734  1.00  0.00     0.029 A 
ATOM     66  N   UNL A   1      39.325  32.361  33.951  1.00  0.00    -0.354 N 
ATOM     67  N   UNL A   1      41.557  31.109  35.366  1.00  0.00    -0.248 NA
ATOM     68  C   UNL A   1      43.001  31.013  37.198  1.00  0.00     0.031 C 
ATOM     69  C   UNL A   1      38.206  33.991  34.965  1.00  0.00     0.029 A 
ATOM     70  C   UNL A   1      39.268  33.113  35.114  1.00  0.00     0.049 A 
ATOM     71  H   UNL A   1      39.987  31.657  33.766  1.00  0.00     0.167 HD
ATOM     72  C   UNL A   1      41.177  32.070  36.299  1.00  0.00     0.074 A 
ATOM     73  C   UNL A   1      42.083  31.944  37.421  1.00  0.00     0.031 C 
ATOM     74  C   UNL A   1      40.166  32.973  36.234  1.00  0.00     0.037 A 
BRANCH  61  75
ATOM     75  C   UNL A   1      36.985  32.780  30.935  1.00  0.00     0.058 A 
ATOM     76  C   UNL A   1      37.219  33.785  29.984  1.00  0.00     0.135 A 
ATOM     77  C   UNL A   1      35.672  32.294  31.063  1.00  0.00     0.135 A 
ATOM     78  F   UNL A   1      38.451  34.298  29.831  1.00  0.00    -0.206 F 
ATOM     79  C   UNL A   1      36.188  34.308  29.208  1.00  0.00     0.059 A 
ATOM     80  C   UNL A   1      34.632  32.779  30.276  1.00  0.00     0.059 A 
ATOM     81  F   UNL A   1      35.391  31.334  31.957  1.00  0.00    -0.206 F 
ATOM     82  C   UNL A   1      34.898  33.797  29.361  1.00  0.00     0.060 A 
BRANCH  82  83
ATOM     83  S   UNL A   1      33.574  34.480  28.342  1.00  0.00     0.124 S 
ATOM     84  O   UNL A   1      33.001  33.271  27.758  1.00  0.00    -0.237 OA
ATOM     85  O   UNL A   1      32.743  35.163  29.328  1.00  0.00    -0.237 OA
ATOM     86  O   UNL A   1      34.278  35.353  27.407  1.00  0.00    -0.744 OA
ENDBRANCH  82  83
ENDBRANCH  61  75
BRANCH  62  87
ATOM     87  C   UNL A   1      44.540  28.779  36.094  1.00  0.00     0.058 A 
ATOM     88  C   UNL A   1      44.381  27.675  36.945  1.00  0.00     0.135 A 
ATOM     89  C   UNL A   1      45.818  29.353  36.002  1.00  0.00     0.135 A 
ATOM     90  F   UNL A   1      43.175  27.101  37.082  1.00  0.00    -0.206 F 
ATOM     91  C   UNL A   1      45.441  27.169  37.691  1.00  0.00     0.059 A 
ATOM     92  C   UNL A   1      46.902  28.846  36.715  1.00  0.00     0.059 A 
ATOM     93  F   UNL A   1      46.027  30.409  35.201  1.00  0.00    -0.206 F 
ATOM     94  C   UNL A   1      46.700  27.759  37.566  1.00  0.00     0.060 A 
BRANCH  94  95
ATOM     95  S   UNL A   1      48.078  27.066  38.506  1.00  0.00     0.124 S 
ATOM     96  O   UNL A   1      47.987  25.652  38.161  1.00  0.00    -0.237 OA
ATOM     97  O   UNL A   1      49.219  27.786  37.950  1.00  0.00    -0.237 OA
ATOM     98  O   UNL A   1      47.745  27.401  39.888  1.00  0.00    -0.744 OA
ENDBRANCH  94  95
ENDBRANCH  62  87
BRANCH  74  99
ATOM     99  C   UNL A   1      39.943  33.868  37.426  1.00  0.00     0.058 A 
ATOM    100  C   UNL A   1      40.624  35.086  37.581  1.00  0.00     0.135 A 
ATOM    101  C   UNL A   1      38.989  33.526  38.399  1.00  0.00     0.135 A 
ATOM    102  F   UNL A   1      41.550  35.462  36.685  1.00  0.00    -0.206 F 
ATOM    103  C   UNL A   1      40.384  35.922  38.670  1.00  0.00     0.059 A 
ATOM    104  C   UNL A   1      38.710  34.361  39.478  1.00  0.00     0.059 A 
ATOM    105  F   UNL A   1      38.299  32.380  38.297  1.00  0.00    -0.206 F 
ATOM    106  C   UNL A   1      39.422  35.552  39.611  1.00  0.00     0.060 A 
BRANCH 106 107
ATOM    107  S   UNL A   1      39.096  36.660  40.999  1.00  0.00     0.124 S 
ATOM    108  O   UNL A   1      38.316  37.713  40.359  1.00  0.00    -0.237 OA
ATOM    109  O   UNL A   1      38.360  35.798  41.920  1.00  0.00    -0.237 OA
ATOM    110  O   UNL A   1      40.430  37.050  41.446  1.00  0.00    -0.744 OA
ENDBRANCH 106 107
ENDBRANCH  74  99
ENDBRANCH  48  49
ENDBRANCH  41  43
ENDBRANCH  40  41
ENDBRANCH  39  40
ENDBRANCH  38  39
ENDBRANCH  37  38
ENDBRANCH  36  37
ENDBRANCH   1  36
TORSDOF 26
ENDMDL
MODEL 2
REMARK VINA RESULT:     -10.3      1.992      3.434
REMARK SMILES COc1ccc(CCN2C(=O)C[C@@H](C(=O)OCCOCCOCCOC(=O)c3ccc(-c4c5nc(c(-c6c(F)cc(S(=O)(=O)[O-])cc6F)c6ccc([nH]6)c(-c6c(F)cc(S(=O)(=O)[O-])cc6F)c6nc(c(-c7c(F)cc(S(=O)(=O)[O-])cc7F)c7ccc4[nH]7)C=C6)C=C5)cc3)S/C2=[NH+]\c2ccc(F)cc2)cc1OC
REMARK SMILES IDX 20 1 19 2 18 3 17 4 16 5 14 6 15 7 13 8 9 9 10 10 95 11
REMARK SMILES IDX 11 12 12 13 94 14 96 15 8 17 7 18 6 19 3 20 4 21 105 22 5 23
REMARK SMILES IDX 104 24 2 25 1 26 106 27 107 28 97 29 98 30 103 31 99 32
REMARK SMILES IDX 102 33 100 34 101 35 21 36 22 37 23 38 24 39 25 40 26 41
REMARK SMILES IDX 27 42 28 43 29 44 93 45 30 46 92 47 31 48 32 49 33 50 86 51
REMARK SMILES IDX 34 52 91 53 85 54 87 55 35 56 90 57 84 58 83 59 36 61 70 62
REMARK SMILES IDX 49 63 69 64 50 65 53 66 68 67 88 68 51 69 52 70 67 72 89 73
REMARK SMILES IDX 54 74 37 75 38 76 47 77 39 78 40 79 46 80 48 81 41 82 42 83
REMARK SMILES IDX 43 84 44 85 45 86 71 87 72 88 81 89 73 90 74 91 80 92 82 93
REMARK SMILES IDX 75 94 76 95 77 96 78 97 79 98 55 99 56 100 65 101 57 102
REMARK SMILES IDX 58 103 64 104 66 105 59 106 60 107 61 108 62 109 63 110
REMARK H PARENT 96 16 87 60 53 71
REMARK Flexibility Score: inf
ROOT
ATOM      1  C   UNL A   1      41.703  20.974  27.697  1.00  0.00     0.188 C 
ENDROOT
BRANCH   1   2
ATOM      2  O   UNL A   1      40.553  20.266  27.247  1.00  0.00    -0.376 OA
BRANCH   2   3
ATOM      3  C   UNL A   1      39.880  20.693  26.082  1.00  0.00     0.202 C 
BRANCH   3   4
ATOM      4  C   UNL A   1      39.054  21.981  26.172  1.00  0.00     0.261 C 
BRANCH   4   5
ATOM      5  O   UNL A   1      37.651  21.864  25.868  1.00  0.00    -0.462 OA
BRANCH   5   6
ATOM      6  C   UNL A   1      36.971  23.025  25.638  1.00  0.00     0.320 C 
ATOM      7  O   UNL A   1      37.013  24.003  26.372  1.00  0.00    -0.251 OA
BRANCH   6   8
ATOM      8  C   UNL A   1      36.022  22.916  24.444  1.00  0.00     0.180 C 
ATOM      9  N   UNL A   1      33.175  23.100  23.629  1.00  0.00    -0.191 N 
ATOM     10  C   UNL A   1      34.130  24.077  23.398  1.00  0.00     0.311 C 
ATOM     11  C   UNL A   1      33.484  21.760  23.847  1.00  0.00     0.319 C 
ATOM     12  O   UNL A   1      34.086  24.880  22.470  1.00  0.00    -0.247 OA
ATOM     13  C   UNL A   1      35.171  24.154  24.454  1.00  0.00     0.155 C 
ATOM     14  S   UNL A   1      35.097  21.353  24.401  1.00  0.00    -0.022 SA
ATOM     15  N   UNL A   1      32.523  20.899  23.725  1.00  0.00    -0.235 N 
ATOM     16  H   UNL A   1      31.686  21.219  23.317  1.00  0.00     0.313 HD
BRANCH   9  17
ATOM     17  C   UNL A   1      31.802  23.538  23.369  1.00  0.00     0.251 C 
BRANCH  17  18
ATOM     18  C   UNL A   1      31.090  24.449  24.399  1.00  0.00     0.082 C 
BRANCH  18  19
ATOM     19  C   UNL A   1      30.617  25.847  24.027  1.00  0.00    -0.040 A 
ATOM     20  C   UNL A   1      29.772  28.304  22.881  1.00  0.00     0.160 A 
ATOM     21  C   UNL A   1      28.844  27.396  23.379  1.00  0.00     0.051 A 
ATOM     22  C   UNL A   1      31.137  28.029  23.004  1.00  0.00     0.160 A 
ATOM     23  C   UNL A   1      29.266  26.190  23.942  1.00  0.00     0.008 A 
ATOM     24  C   UNL A   1      31.541  26.801  23.567  1.00  0.00     0.054 A 
BRANCH  20  25
ATOM     25  O   UNL A   1      29.306  29.476  22.350  1.00  0.00    -0.493 OA
ATOM     26  C   UNL A   1      27.890  29.607  22.495  1.00  0.00     0.278 C 
ENDBRANCH  20  25
BRANCH  22  27
ATOM     27  O   UNL A   1      32.193  28.815  22.619  1.00  0.00    -0.493 OA
ATOM     28  C   UNL A   1      33.089  29.264  23.625  1.00  0.00     0.278 C 
ENDBRANCH  22  27
ENDBRANCH  18  19
ENDBRANCH  17  18
ENDBRANCH   9  17
BRANCH  15  29
ATOM     29  C   UNL A   1      32.565  19.556  24.118  1.00  0.00     0.125 A 
ATOM     30  C   UNL A   1      32.574  19.165  25.459  1.00  0.00     0.055 A 
ATOM     31  C   UNL A   1      32.795  18.579  23.135  1.00  0.00     0.055 A 
ATOM     32  C   UNL A   1      32.768  17.820  25.804  1.00  0.00     0.043 A 
ATOM     33  C   UNL A   1      32.973  17.236  23.470  1.00  0.00     0.043 A 
ATOM     34  C   UNL A   1      32.958  16.867  24.806  1.00  0.00     0.123 A 
ATOM     35  F   UNL A   1      33.110  15.578  25.135  1.00  0.00    -0.207 F 
ENDBRANCH  15  29
ENDBRANCH   6   8
ENDBRANCH   5   6
ENDBRANCH   4   5
ENDBRANCH   3   4
ENDBRANCH   2   3
ENDBRANCH   1   2
BRANCH   1  36
ATOM     36  C   UNL A   1      42.151  22.286  27.018  1.00  0.00     0.188 C 
BRANCH  36  37
ATOM     37  O   UNL A   1      43.265  22.126  26.153  1.00  0.00    -0.376 OA
BRANCH  37  38
ATOM     38  C   UNL A   1      44.106  23.258  26.017  1.00  0.00     0.202 C 
BRANCH  38  39
ATOM     39  C   UNL A   1      43.636  24.281  24.978  1.00  0.00     0.261 C 
BRANCH  39  40
ATOM     40  O   UNL A   1      43.145  25.527  25.504  1.00  0.00    -0.460 OA
BRANCH  40  41
ATOM     41  C   UNL A   1      44.053  26.378  26.031  1.00  0.00     0.338 C 
ATOM     42  O   UNL A   1      45.146  26.650  25.562  1.00  0.00    -0.246 OA
BRANCH  41  43
ATOM     43  C   UNL A   1      43.419  27.065  27.180  1.00  0.00     0.060 A 
ATOM     44  C   UNL A   1      43.641  28.435  27.366  1.00  0.00     0.016 A 
ATOM     45  C   UNL A   1      42.596  26.370  28.065  1.00  0.00     0.016 A 
ATOM     46  C   UNL A   1      43.099  29.100  28.469  1.00  0.00     0.010 A 
ATOM     47  C   UNL A   1      42.051  27.037  29.169  1.00  0.00     0.010 A 
ATOM     48  C   UNL A   1      42.330  28.397  29.403  1.00  0.00    -0.014 A 
BRANCH  48  49
ATOM     49  C   UNL A   1      41.940  29.027  30.692  1.00  0.00     0.031 A 
ATOM     50  C   UNL A   1      40.710  29.895  30.729  1.00  0.00     0.074 A 
ATOM     51  C   UNL A   1      42.660  28.842  31.815  1.00  0.00     0.049 A 
ATOM     52  N   UNL A   1      40.249  30.645  31.697  1.00  0.00    -0.248 NA
ATOM     53  C   UNL A   1      39.894  29.924  29.504  1.00  0.00     0.031 C 
ATOM     54  C   UNL A   1      43.838  27.985  31.936  1.00  0.00     0.029 A 
ATOM     55  N   UNL A   1      42.512  29.386  33.069  1.00  0.00    -0.354 N 
ATOM     56  C   UNL A   1      39.106  31.255  31.192  1.00  0.00     0.074 A 
ATOM     57  C   UNL A   1      38.955  30.803  29.825  1.00  0.00     0.031 C 
ATOM     58  C   UNL A   1      44.319  28.078  33.189  1.00  0.00     0.029 A 
ATOM     59  C   UNL A   1      43.512  29.033  33.946  1.00  0.00     0.049 A 
ATOM     60  H   UNL A   1      41.762  29.975  33.316  1.00  0.00     0.167 HD
ATOM     61  C   UNL A   1      38.256  32.110  31.810  1.00  0.00     0.037 A 
ATOM     62  C   UNL A   1      43.767  29.458  35.201  1.00  0.00     0.037 A 
ATOM     63  C   UNL A   1      38.402  32.550  33.174  1.00  0.00     0.049 A 
ATOM     64  C   UNL A   1      42.850  30.470  35.846  1.00  0.00     0.074 A 
ATOM     65  C   UNL A   1      37.579  33.399  33.895  1.00  0.00     0.029 A 
ATOM     66  N   UNL A   1      39.439  32.186  34.021  1.00  0.00    -0.354 N 
ATOM     67  N   UNL A   1      41.767  31.032  35.362  1.00  0.00    -0.248 NA
ATOM     68  C   UNL A   1      43.190  30.906  37.209  1.00  0.00     0.031 C 
ATOM     69  C   UNL A   1      38.149  33.594  35.157  1.00  0.00     0.029 A 
ATOM     70  C   UNL A   1      39.291  32.814  35.247  1.00  0.00     0.049 A 
ATOM     71  H   UNL A   1      40.170  31.571  33.786  1.00  0.00     0.167 HD
ATOM     72  C   UNL A   1      41.281  31.858  36.372  1.00  0.00     0.074 A 
ATOM     73  C   UNL A   1      42.180  31.716  37.497  1.00  0.00     0.031 C 
ATOM     74  C   UNL A   1      40.185  32.659  36.369  1.00  0.00     0.037 A 
BRANCH  61  75
ATOM     75  C   UNL A   1      37.107  32.656  31.007  1.00  0.00     0.058 A 
ATOM     76  C   UNL A   1      35.796  32.178  31.162  1.00  0.00     0.135 A 
ATOM     77  C   UNL A   1      37.317  33.702  30.091  1.00  0.00     0.135 A 
ATOM     78  F   UNL A   1      35.540  31.169  32.011  1.00  0.00    -0.206 F 
ATOM     79  C   UNL A   1      34.739  32.698  30.421  1.00  0.00     0.059 A 
ATOM     80  C   UNL A   1      36.269  34.258  29.363  1.00  0.00     0.059 A 
ATOM     81  F   UNL A   1      38.549  34.196  29.901  1.00  0.00    -0.206 F 
ATOM     82  C   UNL A   1      34.986  33.739  29.524  1.00  0.00     0.060 A 
BRANCH  82  83
ATOM     83  S   UNL A   1      33.603  34.406  28.577  1.00  0.00     0.124 S 
ATOM     84  O   UNL A   1      33.226  33.257  27.760  1.00  0.00    -0.237 OA
ATOM     85  O   UNL A   1      32.657  34.776  29.624  1.00  0.00    -0.237 OA
ATOM     86  O   UNL A   1      34.195  35.525  27.849  1.00  0.00    -0.744 OA
ENDBRANCH  82  83
ENDBRANCH  61  75
BRANCH  62  87
ATOM     87  C   UNL A   1      44.960  28.949  35.936  1.00  0.00     0.058 A 
ATOM     88  C   UNL A   1      46.212  29.566  35.800  1.00  0.00     0.135 A 
ATOM     89  C   UNL A   1      44.873  27.826  36.773  1.00  0.00     0.135 A 
ATOM     90  F   UNL A   1      46.352  30.633  34.997  1.00  0.00    -0.206 F 
ATOM     91  C   UNL A   1      47.340  29.079  36.453  1.00  0.00     0.059 A 
ATOM     92  C   UNL A   1      45.981  27.338  37.461  1.00  0.00     0.059 A 
ATOM     93  F   UNL A   1      43.699  27.199  36.942  1.00  0.00    -0.206 F 
ATOM     94  C   UNL A   1      47.214  27.965  37.286  1.00  0.00     0.060 A 
BRANCH  94  95
ATOM     95  S   UNL A   1      48.677  27.370  38.162  1.00  0.00     0.124 S 
ATOM     96  O   UNL A   1      48.700  28.247  39.326  1.00  0.00    -0.237 OA
ATOM     97  O   UNL A   1      48.331  25.976  38.420  1.00  0.00    -0.237 OA
ATOM     98  O   UNL A   1      49.754  27.574  37.197  1.00  0.00    -0.744 OA
ENDBRANCH  94  95
ENDBRANCH  62  87
BRANCH  74  99
ATOM     99  C   UNL A   1      39.858  33.410  37.634  1.00  0.00     0.058 A 
ATOM    100  C   UNL A   1      38.905  32.943  38.554  1.00  0.00     0.135 A 
ATOM    101  C   UNL A   1      40.553  34.587  37.958  1.00  0.00     0.135 A 
ATOM    102  F   UNL A   1      38.206  31.826  38.295  1.00  0.00    -0.206 F 
ATOM    103  C   UNL A   1      38.637  33.628  39.737  1.00  0.00     0.059 A 
ATOM    104  C   UNL A   1      40.324  35.270  39.150  1.00  0.00     0.059 A 
ATOM    105  F   UNL A   1      41.484  35.075  37.123  1.00  0.00    -0.206 F 
ATOM    106  C   UNL A   1      39.355  34.789  40.027  1.00  0.00     0.060 A 
BRANCH 106 107
ATOM    107  S   UNL A   1      39.022  35.648  41.580  1.00  0.00     0.124 S 
ATOM    108  O   UNL A   1      37.566  35.731  41.565  1.00  0.00    -0.237 OA
ATOM    109  O   UNL A   1      39.595  34.739  42.569  1.00  0.00    -0.237 OA
ATOM    110  O   UNL A   1      39.724  36.919  41.425  1.00  0.00    -0.744 OA
ENDBRANCH 106 107
ENDBRANCH  74  99
ENDBRANCH  48  49
ENDBRANCH  41  43
ENDBRANCH  40  41
ENDBRANCH  39  40
ENDBRANCH  38  39
ENDBRANCH  37  38
ENDBRANCH  36  37
ENDBRANCH   1  36
TORSDOF 26
ENDMDL
MODEL 3
REMARK VINA RESULT:     -10.0      5.757     13.723
REMARK SMILES COc1ccc(CCN2C(=O)C[C@@H](C(=O)OCCOCCOCCOC(=O)c3ccc(-c4c5nc(c(-c6c(F)cc(S(=O)(=O)[O-])cc6F)c6ccc([nH]6)c(-c6c(F)cc(S(=O)(=O)[O-])cc6F)c6nc(c(-c7c(F)cc(S(=O)(=O)[O-])cc7F)c7ccc4[nH]7)C=C6)C=C5)cc3)S/C2=[NH+]\c2ccc(F)cc2)cc1OC
REMARK SMILES IDX 20 1 19 2 18 3 17 4 16 5 14 6 15 7 13 8 9 9 10 10 95 11
REMARK SMILES IDX 11 12 12 13 94 14 96 15 8 17 7 18 6 19 3 20 4 21 105 22 5 23
REMARK SMILES IDX 104 24 2 25 1 26 106 27 107 28 97 29 98 30 103 31 99 32
REMARK SMILES IDX 102 33 100 34 101 35 21 36 22 37 23 38 24 39 25 40 26 41
REMARK SMILES IDX 27 42 28 43 29 44 93 45 30 46 92 47 31 48 32 49 33 50 86 51
REMARK SMILES IDX 34 52 91 53 85 54 87 55 35 56 90 57 84 58 83 59 36 61 70 62
REMARK SMILES IDX 49 63 69 64 50 65 53 66 68 67 88 68 51 69 52 70 67 72 89 73
REMARK SMILES IDX 54 74 37 75 38 76 47 77 39 78 40 79 46 80 48 81 41 82 42 83
REMARK SMILES IDX 43 84 44 85 45 86 71 87 72 88 81 89 73 90 74 91 80 92 82 93
REMARK SMILES IDX 75 94 76 95 77 96 78 97 79 98 55 99 56 100 65 101 57 102
REMARK SMILES IDX 58 103 64 104 66 105 59 106 60 107 61 108 62 109 63 110
REMARK H PARENT 96 16 87 60 53 71
REMARK Flexibility Score: inf
ROOT
ATOM      1  C   UNL A   1      34.835  34.344  29.864  1.00  0.00     0.188 C 
ENDROOT
BRANCH   1   2
ATOM      2  O   UNL A   1      33.697  34.371  30.718  1.00  0.00    -0.376 OA
BRANCH   2   3
ATOM      3  C   UNL A   1      33.660  35.268  31.806  1.00  0.00     0.202 C 
BRANCH   3   4
ATOM      4  C   UNL A   1      33.895  34.694  33.207  1.00  0.00     0.261 C 
BRANCH   4   5
ATOM      5  O   UNL A   1      34.792  33.570  33.296  1.00  0.00    -0.462 OA
BRANCH   5   6
ATOM      6  C   UNL A   1      36.097  33.845  33.592  1.00  0.00     0.320 C 
ATOM      7  O   UNL A   1      36.485  34.901  34.071  1.00  0.00    -0.251 OA
BRANCH   6   8
ATOM      8  C   UNL A   1      37.044  32.745  33.110  1.00  0.00     0.180 C 
ATOM      9  N   UNL A   1      39.653  31.437  33.642  1.00  0.00    -0.191 N 
ATOM     10  C   UNL A   1      38.417  30.901  33.966  1.00  0.00     0.311 C 
ATOM     11  C   UNL A   1      39.838  32.400  32.653  1.00  0.00     0.319 C 
ATOM     12  O   UNL A   1      38.190  29.698  34.059  1.00  0.00    -0.247 OA
ATOM     13  C   UNL A   1      37.398  31.922  34.316  1.00  0.00     0.155 C 
ATOM     14  S   UNL A   1      38.466  33.380  32.173  1.00  0.00    -0.022 SA
ATOM     15  N   UNL A   1      41.045  32.583  32.217  1.00  0.00    -0.235 N 
ATOM     16  H   UNL A   1      41.721  31.917  32.479  1.00  0.00     0.313 HD
BRANCH   9  17
ATOM     17  C   UNL A   1      40.785  30.726  34.241  1.00  0.00     0.251 C 
BRANCH  17  18
ATOM     18  C   UNL A   1      41.474  29.591  33.444  1.00  0.00     0.082 C 
BRANCH  18  19
ATOM     19  C   UNL A   1      42.237  28.479  34.148  1.00  0.00    -0.040 A 
ATOM     20  C   UNL A   1      43.298  26.124  35.329  1.00  0.00     0.160 A 
ATOM     21  C   UNL A   1      43.752  26.565  34.090  1.00  0.00     0.051 A 
ATOM     22  C   UNL A   1      42.355  26.886  36.026  1.00  0.00     0.160 A 
ATOM     23  C   UNL A   1      43.227  27.724  33.516  1.00  0.00     0.008 A 
ATOM     24  C   UNL A   1      41.831  28.048  35.423  1.00  0.00     0.054 A 
BRANCH  20  25
ATOM     25  O   UNL A   1      43.854  24.989  35.853  1.00  0.00    -0.493 OA
ATOM     26  C   UNL A   1      45.211  24.814  35.439  1.00  0.00     0.278 C 
ENDBRANCH  20  25
BRANCH  22  27
ATOM     27  O   UNL A   1      41.827  26.642  37.268  1.00  0.00    -0.493 OA
ATOM     28  C   UNL A   1      40.946  25.538  37.410  1.00  0.00     0.278 C 
ENDBRANCH  22  27
ENDBRANCH  18  19
ENDBRANCH  17  18
ENDBRANCH   9  17
BRANCH  15  29
ATOM     29  C   UNL A   1      41.476  33.640  31.406  1.00  0.00     0.125 A 
ATOM     30  C   UNL A   1      40.991  33.839  30.112  1.00  0.00     0.055 A 
ATOM     31  C   UNL A   1      42.567  34.413  31.839  1.00  0.00     0.055 A 
ATOM     32  C   UNL A   1      41.561  34.819  29.285  1.00  0.00     0.043 A 
ATOM     33  C   UNL A   1      43.128  35.399  31.027  1.00  0.00     0.043 A 
ATOM     34  C   UNL A   1      42.618  35.595  29.753  1.00  0.00     0.123 A 
ATOM     35  F   UNL A   1      43.139  36.552  28.975  1.00  0.00    -0.207 F 
ENDBRANCH  15  29
ENDBRANCH   6   8
ENDBRANCH   5   6
ENDBRANCH   4   5
ENDBRANCH   3   4
ENDBRANCH   2   3
ENDBRANCH   1   2
BRANCH   1  36
ATOM     36  C   UNL A   1      34.711  34.656  28.357  1.00  0.00     0.188 C 
BRANCH  36  37
ATOM     37  O   UNL A   1      34.741  33.499  27.534  1.00  0.00    -0.376 OA
BRANCH  37  38
ATOM     38  C   UNL A   1      35.535  32.426  28.010  1.00  0.00     0.202 C 
BRANCH  38  39
ATOM     39  C   UNL A   1      34.829  31.067  28.026  1.00  0.00     0.261 C 
BRANCH  39  40
ATOM     40  O   UNL A   1      35.654  29.936  28.356  1.00  0.00    -0.460 OA
BRANCH  40  41
ATOM     41  C   UNL A   1      36.286  29.958  29.551  1.00  0.00     0.338 C 
ATOM     42  O   UNL A   1      35.755  29.985  30.649  1.00  0.00    -0.246 OA
BRANCH  41  43
ATOM     43  C   UNL A   1      37.732  29.755  29.304  1.00  0.00     0.060 A 
ATOM     44  C   UNL A   1      38.188  29.600  27.989  1.00  0.00     0.016 A 
ATOM     45  C   UNL A   1      38.642  29.731  30.360  1.00  0.00     0.016 A 
ATOM     46  C   UNL A   1      39.539  29.355  27.728  1.00  0.00     0.010 A 
ATOM     47  C   UNL A   1      39.997  29.488  30.099  1.00  0.00     0.010 A 
ATOM     48  C   UNL A   1      40.450  29.259  28.786  1.00  0.00    -0.014 A 
BRANCH  48  49
ATOM     49  C   UNL A   1      41.836  28.774  28.550  1.00  0.00     0.031 A 
ATOM     50  C   UNL A   1      42.965  29.770  28.590  1.00  0.00     0.074 A 
ATOM     51  C   UNL A   1      42.099  27.477  28.301  1.00  0.00     0.049 A 
ATOM     52  N   UNL A   1      44.229  29.609  28.291  1.00  0.00    -0.248 NA
ATOM     53  C   UNL A   1      42.618  31.135  29.020  1.00  0.00     0.031 C 
ATOM     54  C   UNL A   1      41.112  26.399  28.288  1.00  0.00     0.029 A 
ATOM     55  N   UNL A   1      43.283  26.851  27.988  1.00  0.00    -0.354 N 
ATOM     56  C   UNL A   1      44.823  30.853  28.471  1.00  0.00     0.074 A 
ATOM     57  C   UNL A   1      43.777  31.764  28.884  1.00  0.00     0.031 C 
ATOM     58  C   UNL A   1      41.727  25.248  27.962  1.00  0.00     0.029 A 
ATOM     59  C   UNL A   1      43.141  25.513  27.700  1.00  0.00     0.049 A 
ATOM     60  H   UNL A   1      44.151  27.317  27.972  1.00  0.00     0.167 HD
ATOM     61  C   UNL A   1      46.121  31.205  28.310  1.00  0.00     0.037 A 
ATOM     62  C   UNL A   1      44.038  24.615  27.242  1.00  0.00     0.037 A 
ATOM     63  C   UNL A   1      47.163  30.294  27.909  1.00  0.00     0.049 A 
ATOM     64  C   UNL A   1      45.464  25.046  26.998  1.00  0.00     0.074 A 
ATOM     65  C   UNL A   1      48.513  30.553  27.740  1.00  0.00     0.029 A 
ATOM     66  N   UNL A   1      46.974  28.953  27.606  1.00  0.00    -0.354 N 
ATOM     67  N   UNL A   1      46.016  26.224  27.180  1.00  0.00    -0.248 NA
ATOM     68  C   UNL A   1      46.391  24.026  26.484  1.00  0.00     0.031 C 
ATOM     69  C   UNL A   1      49.129  29.385  27.280  1.00  0.00     0.029 A 
ATOM     70  C   UNL A   1      48.177  28.380  27.226  1.00  0.00     0.049 A 
ATOM     71  H   UNL A   1      46.113  28.479  27.656  1.00  0.00     0.167 HD
ATOM     72  C   UNL A   1      47.358  26.074  26.836  1.00  0.00     0.074 A 
ATOM     73  C   UNL A   1      47.537  24.693  26.445  1.00  0.00     0.031 C 
ATOM     74  C   UNL A   1      48.352  26.999  26.849  1.00  0.00     0.037 A 
BRANCH  61  75
ATOM     75  C   UNL A   1      46.487  32.647  28.537  1.00  0.00     0.058 A 
ATOM     76  C   UNL A   1      46.900  33.123  29.791  1.00  0.00     0.135 A 
ATOM     77  C   UNL A   1      46.459  33.560  27.468  1.00  0.00     0.135 A 
ATOM     78  F   UNL A   1      46.930  32.298  30.851  1.00  0.00    -0.206 F 
ATOM     79  C   UNL A   1      47.246  34.457  29.986  1.00  0.00     0.059 A 
ATOM     80  C   UNL A   1      46.831  34.891  27.633  1.00  0.00     0.059 A 
ATOM     81  F   UNL A   1      46.072  33.160  26.247  1.00  0.00    -0.206 F 
ATOM     82  C   UNL A   1      47.209  35.333  28.899  1.00  0.00     0.060 A 
BRANCH  82  83
ATOM     83  S   UNL A   1      47.669  37.058  29.167  1.00  0.00     0.124 S 
ATOM     84  O   UNL A   1      46.815  37.416  30.295  1.00  0.00    -0.237 OA
ATOM     85  O   UNL A   1      49.095  36.959  29.459  1.00  0.00    -0.237 OA
ATOM     86  O   UNL A   1      47.335  37.701  27.900  1.00  0.00    -0.744 OA
ENDBRANCH  82  83
ENDBRANCH  61  75
BRANCH  62  87
ATOM     87  C   UNL A   1      43.618  23.214  26.959  1.00  0.00     0.058 A 
ATOM     88  C   UNL A   1      43.362  22.309  28.000  1.00  0.00     0.135 A 
ATOM     89  C   UNL A   1      43.481  22.748  25.642  1.00  0.00     0.135 A 
ATOM     90  F   UNL A   1      43.497  22.700  29.277  1.00  0.00    -0.206 F 
ATOM     91  C   UNL A   1      43.004  20.989  27.748  1.00  0.00     0.059 A 
ATOM     92  C   UNL A   1      43.093  21.439  25.364  1.00  0.00     0.059 A 
ATOM     93  F   UNL A   1      43.710  23.572  24.608  1.00  0.00    -0.206 F 
ATOM     94  C   UNL A   1      42.867  20.564  26.426  1.00  0.00     0.060 A 
BRANCH  94  95
ATOM     95  S   UNL A   1      42.358  18.859  26.112  1.00  0.00     0.124 S 
ATOM     96  O   UNL A   1      42.550  18.249  27.423  1.00  0.00    -0.237 OA
ATOM     97  O   UNL A   1      40.973  19.029  25.684  1.00  0.00    -0.237 OA
ATOM     98  O   UNL A   1      43.281  18.418  25.070  1.00  0.00    -0.744 OA
ENDBRANCH  94  95
ENDBRANCH  62  87
BRANCH  74  99
ATOM     99  C   UNL A   1      49.740  26.545  26.478  1.00  0.00     0.058 A 
ATOM    100  C   UNL A   1      50.620  25.990  27.421  1.00  0.00     0.135 A 
ATOM    101  C   UNL A   1      50.174  26.612  25.143  1.00  0.00     0.135 A 
ATOM    102  F   UNL A   1      50.261  25.904  28.712  1.00  0.00    -0.206 F 
ATOM    103  C   UNL A   1      51.888  25.541  27.059  1.00  0.00     0.059 A 
ATOM    104  C   UNL A   1      51.425  26.140  24.753  1.00  0.00     0.059 A 
ATOM    105  F   UNL A   1      49.371  27.121  24.196  1.00  0.00    -0.206 F 
ATOM    106  C   UNL A   1      52.280  25.618  25.721  1.00  0.00     0.060 A 
BRANCH 106 107
ATOM    107  S   UNL A   1      53.913  25.001  25.259  1.00  0.00     0.124 S 
ATOM    108  O   UNL A   1      53.603  23.645  24.821  1.00  0.00    -0.237 OA
ATOM    109  O   UNL A   1      54.311  25.932  24.207  1.00  0.00    -0.237 OA
ATOM    110  O   UNL A   1      54.679  25.101  26.498  1.00  0.00    -0.744 OA
ENDBRANCH 106 107
ENDBRANCH  74  99
ENDBRANCH  48  49
ENDBRANCH  41  43
ENDBRANCH  40  41
ENDBRANCH  39  40
ENDBRANCH  38  39
ENDBRANCH  37  38
ENDBRANCH  36  37
ENDBRANCH   1  36
TORSDOF 26
ENDMDL
