MODEL 1
REMARK VINA RESULT:      -8.7      0.000      0.000
REMARK SMILES Cc1cc(N2CCOC[C@H]2C(=O)OCCOCCOCCOC(=O)c2ccc(-c3c4nc(c(-c5c(F)cc(S(=O)(=O)[O-])cc5F)c5ccc([nH]5)c(-c5c(F)cc(S(=O)(=O)[O-])cc5F)c5nc(c(-c6c(F)cc(S(=O)(=O)[O-])cc6F)c6ccc3[nH]6)C=C5)C=C4)cc2)ncc1[N+](=O)[O-]
REMARK SMILES IDX 18 1 17 2 16 3 15 4 14 5 13 6 11 7 12 8 10 9 5 10 6 11 7 12
REMARK SMILES IDX 9 13 8 14 4 15 1 16 2 17 3 18 93 19 92 20 91 21 94 22 95 23
REMARK SMILES IDX 96 24 19 25 20 26 21 27 22 28 23 29 24 30 25 31 26 32 90 33
REMARK SMILES IDX 27 34 89 35 28 36 29 37 30 38 83 39 31 40 88 41 82 42 84 43
REMARK SMILES IDX 32 44 87 45 81 46 80 47 33 49 67 50 46 51 66 52 47 53 50 54
REMARK SMILES IDX 65 55 85 56 48 57 49 58 64 60 86 61 51 62 34 63 35 64 44 65
REMARK SMILES IDX 36 66 37 67 43 68 45 69 38 70 39 71 40 72 41 73 42 74 68 75
REMARK SMILES IDX 69 76 78 77 70 78 71 79 77 80 79 81 72 82 73 83 74 84 75 85
REMARK SMILES IDX 76 86 52 87 53 88 62 89 54 90 55 91 61 92 63 93 56 94 57 95
REMARK SMILES IDX 58 96 59 97 60 98
REMARK H PARENT 84 48 50 59
REMARK Flexibility Score: inf
ROOT
ATOM      1  C   UNL A   1      32.874  35.297  30.645  1.00  0.00     0.188 C 
ENDROOT
BRANCH   1   2
ATOM      2  C   UNL A   1      33.701  35.746  31.864  1.00  0.00     0.188 C 
BRANCH   2   3
ATOM      3  O   UNL A   1      33.879  34.813  32.925  1.00  0.00    -0.376 OA
BRANCH   3   4
ATOM      4  C   UNL A   1      34.963  35.027  33.820  1.00  0.00     0.202 C 
BRANCH   4   5
ATOM      5  C   UNL A   1      36.085  33.999  33.719  1.00  0.00     0.261 C 
BRANCH   5   6
ATOM      6  O   UNL A   1      37.264  34.459  34.404  1.00  0.00    -0.462 OA
BRANCH   6   7
ATOM      7  C   UNL A   1      38.466  34.150  33.849  1.00  0.00     0.331 C 
ATOM      8  O   UNL A   1      38.987  34.793  32.942  1.00  0.00    -0.250 OA
BRANCH   7   9
ATOM      9  C   UNL A   1      39.105  32.878  34.418  1.00  0.00     0.220 C 
ATOM     10  N   UNL A   1      40.583  32.769  34.237  1.00  0.00    -0.339 N 
ATOM     11  C   UNL A   1      41.402  33.526  35.205  1.00  0.00     0.147 C 
ATOM     12  C   UNL A   1      40.888  33.357  36.638  1.00  0.00     0.181 C 
ATOM     13  C   UNL A   1      38.715  32.803  35.906  1.00  0.00     0.197 C 
ATOM     14  O   UNL A   1      39.494  33.690  36.731  1.00  0.00    -0.377 OA
BRANCH  10  15
ATOM     15  C   UNL A   1      41.079  31.512  33.898  1.00  0.00     0.130 A 
ATOM     16  C   UNL A   1      39.656  28.185  32.725  1.00  0.00     0.052 C 
ATOM     17  C   UNL A   1      40.653  29.229  33.133  1.00  0.00     0.032 A 
ATOM     18  C   UNL A   1      40.190  30.463  33.634  1.00  0.00     0.057 A 
ATOM     19  C   UNL A   1      42.033  29.077  33.005  1.00  0.00     0.290 A 
ATOM     20  C   UNL A   1      42.862  30.144  33.312  1.00  0.00     0.199 A 
ATOM     21  N   UNL A   1      42.409  31.351  33.737  1.00  0.00    -0.232 NA
BRANCH  19  22
ATOM     22  N   UNL A   1      42.660  27.852  32.552  1.00  0.00     0.064 N 
ATOM     23  O   UNL A   1      42.764  27.693  31.328  1.00  0.00    -0.258 OA
ATOM     24  O   UNL A   1      43.084  27.072  33.414  1.00  0.00    -0.258 OA
ENDBRANCH  19  22
ENDBRANCH  10  15
ENDBRANCH   7   9
ENDBRANCH   6   7
ENDBRANCH   5   6
ENDBRANCH   4   5
ENDBRANCH   3   4
ENDBRANCH   2   3
ENDBRANCH   1   2
BRANCH   1  25
ATOM     25  O   UNL A   1      33.387  35.604  29.352  1.00  0.00    -0.376 OA
BRANCH  25  26
ATOM     26  C   UNL A   1      33.352  34.560  28.384  1.00  0.00     0.202 C 
BRANCH  26  27
ATOM     27  C   UNL A   1      34.679  33.825  28.244  1.00  0.00     0.261 C 
BRANCH  27  28
ATOM     28  O   UNL A   1      34.470  32.416  28.441  1.00  0.00    -0.460 OA
BRANCH  28  29
ATOM     29  C   UNL A   1      34.941  31.951  29.612  1.00  0.00     0.338 C 
ATOM     30  O   UNL A   1      34.553  32.270  30.734  1.00  0.00    -0.246 OA
BRANCH  29  31
ATOM     31  C   UNL A   1      36.005  30.959  29.392  1.00  0.00     0.060 A 
ATOM     32  C   UNL A   1      36.484  30.182  30.448  1.00  0.00     0.016 A 
ATOM     33  C   UNL A   1      36.674  30.965  28.169  1.00  0.00     0.016 A 
ATOM     34  C   UNL A   1      37.715  29.530  30.327  1.00  0.00     0.010 A 
ATOM     35  C   UNL A   1      37.875  30.266  28.035  1.00  0.00     0.010 A 
ATOM     36  C   UNL A   1      38.457  29.620  29.141  1.00  0.00    -0.014 A 
BRANCH  36  37
ATOM     37  C   UNL A   1      39.904  29.248  29.099  1.00  0.00     0.031 A 
ATOM     38  C   UNL A   1      40.934  30.289  29.486  1.00  0.00     0.074 A 
ATOM     39  C   UNL A   1      40.329  28.009  28.785  1.00  0.00     0.049 A 
ATOM     40  N   UNL A   1      42.220  30.314  29.254  1.00  0.00    -0.248 NA
ATOM     41  C   UNL A   1      40.439  31.466  30.222  1.00  0.00     0.031 C 
ATOM     42  C   UNL A   1      39.476  26.856  28.504  1.00  0.00     0.029 A 
ATOM     43  N   UNL A   1      41.606  27.513  28.661  1.00  0.00    -0.354 N 
ATOM     44  C   UNL A   1      42.667  31.548  29.718  1.00  0.00     0.074 A 
ATOM     45  C   UNL A   1      41.522  32.229  30.281  1.00  0.00     0.031 C 
ATOM     46  C   UNL A   1      40.249  25.782  28.275  1.00  0.00     0.029 A 
ATOM     47  C   UNL A   1      41.651  26.190  28.291  1.00  0.00     0.049 A 
ATOM     48  H   UNL A   1      42.412  28.055  28.821  1.00  0.00     0.167 HD
ATOM     49  C   UNL A   1      43.915  32.070  29.662  1.00  0.00     0.037 A 
ATOM     50  C   UNL A   1      42.695  25.409  27.946  1.00  0.00     0.037 A 
ATOM     51  C   UNL A   1      45.071  31.346  29.202  1.00  0.00     0.049 A 
ATOM     52  C   UNL A   1      44.079  26.004  27.890  1.00  0.00     0.074 A 
ATOM     53  C   UNL A   1      46.380  31.786  29.093  1.00  0.00     0.029 A 
ATOM     54  N   UNL A   1      45.065  30.014  28.820  1.00  0.00    -0.354 N 
ATOM     55  N   UNL A   1      44.466  27.222  28.181  1.00  0.00    -0.248 NA
ATOM     56  C   UNL A   1      45.161  25.124  27.426  1.00  0.00     0.031 C 
ATOM     57  C   UNL A   1      47.163  30.724  28.627  1.00  0.00     0.029 A 
ATOM     58  C   UNL A   1      46.346  29.615  28.480  1.00  0.00     0.049 A 
ATOM     59  H   UNL A   1      44.268  29.438  28.793  1.00  0.00     0.167 HD
ATOM     60  C   UNL A   1      45.837  27.251  27.944  1.00  0.00     0.074 A 
ATOM     61  C   UNL A   1      46.215  25.923  27.507  1.00  0.00     0.031 C 
ATOM     62  C   UNL A   1      46.706  28.285  28.065  1.00  0.00     0.037 A 
BRANCH  49  63
ATOM     63  C   UNL A   1      44.098  33.509  30.053  1.00  0.00     0.058 A 
ATOM     64  C   UNL A   1      44.527  33.898  31.329  1.00  0.00     0.135 A 
ATOM     65  C   UNL A   1      43.899  34.516  29.093  1.00  0.00     0.135 A 
ATOM     66  F   UNL A   1      44.709  32.978  32.289  1.00  0.00    -0.206 F 
ATOM     67  C   UNL A   1      44.747  35.237  31.644  1.00  0.00     0.059 A 
ATOM     68  C   UNL A   1      44.134  35.858  29.378  1.00  0.00     0.059 A 
ATOM     69  F   UNL A   1      43.483  34.198  27.856  1.00  0.00    -0.206 F 
ATOM     70  C   UNL A   1      44.551  36.210  30.660  1.00  0.00     0.060 A 
BRANCH  70  71
ATOM     71  S   UNL A   1      44.875  37.939  31.065  1.00  0.00     0.124 S 
ATOM     72  O   UNL A   1      46.007  38.235  30.193  1.00  0.00    -0.237 OA
ATOM     73  O   UNL A   1      43.615  38.586  30.712  1.00  0.00    -0.237 OA
ATOM     74  O   UNL A   1      45.175  37.902  32.493  1.00  0.00    -0.744 OA
ENDBRANCH  70  71
ENDBRANCH  49  63
BRANCH  50  75
ATOM     75  C   UNL A   1      42.472  23.992  27.550  1.00  0.00     0.058 A 
ATOM     76  C   UNL A   1      42.206  23.645  26.217  1.00  0.00     0.135 A 
ATOM     77  C   UNL A   1      42.501  22.958  28.500  1.00  0.00     0.135 A 
ATOM     78  F   UNL A   1      42.149  24.599  25.275  1.00  0.00    -0.206 F 
ATOM     79  C   UNL A   1      41.961  22.328  25.840  1.00  0.00     0.059 A 
ATOM     80  C   UNL A   1      42.291  21.631  28.144  1.00  0.00     0.059 A 
ATOM     81  F   UNL A   1      42.758  23.235  29.787  1.00  0.00    -0.206 F 
ATOM     82  C   UNL A   1      42.007  21.326  26.813  1.00  0.00     0.060 A 
BRANCH  82  83
ATOM     83  S   UNL A   1      41.738  19.610  26.321  1.00  0.00     0.124 S 
ATOM     84  O   UNL A   1      40.307  19.607  26.043  1.00  0.00    -0.237 OA
ATOM     85  O   UNL A   1      42.615  19.476  25.161  1.00  0.00    -0.237 OA
ATOM     86  O   UNL A   1      42.157  18.860  27.502  1.00  0.00    -0.744 OA
ENDBRANCH  82  83
ENDBRANCH  50  75
BRANCH  62  87
ATOM     87  C   UNL A   1      48.151  28.008  27.766  1.00  0.00     0.058 A 
ATOM     88  C   UNL A   1      49.057  27.653  28.777  1.00  0.00     0.135 A 
ATOM     89  C   UNL A   1      48.629  28.077  26.448  1.00  0.00     0.135 A 
ATOM     90  F   UNL A   1      48.649  27.577  30.054  1.00  0.00    -0.206 F 
ATOM     91  C   UNL A   1      50.397  27.408  28.496  1.00  0.00     0.059 A 
ATOM     92  C   UNL A   1      49.959  27.815  26.141  1.00  0.00     0.059 A 
ATOM     93  F   UNL A   1      47.798  28.400  25.444  1.00  0.00    -0.206 F 
ATOM     94  C   UNL A   1      50.840  27.498  27.175  1.00  0.00     0.060 A 
BRANCH  94  95
ATOM     95  S   UNL A   1      52.581  27.178  26.817  1.00  0.00     0.124 S 
ATOM     96  O   UNL A   1      52.589  27.205  25.358  1.00  0.00    -0.237 OA
ATOM     97  O   UNL A   1      53.251  28.295  27.475  1.00  0.00    -0.237 OA
ATOM     98  O   UNL A   1      52.816  25.871  27.424  1.00  0.00    -0.744 OA
ENDBRANCH  94  95
ENDBRANCH  62  87
ENDBRANCH  36  37
ENDBRANCH  29  31
ENDBRANCH  28  29
ENDBRANCH  27  28
ENDBRANCH  26  27
ENDBRANCH  25  26
ENDBRANCH   1  25
TORSDOF 22
ENDMDL
MODEL 2
REMARK VINA RESULT:      -8.4      4.500     11.048
REMARK SMILES Cc1cc(N2CCOC[C@H]2C(=O)OCCOCCOCCOC(=O)c2ccc(-c3c4nc(c(-c5c(F)cc(S(=O)(=O)[O-])cc5F)c5ccc([nH]5)c(-c5c(F)cc(S(=O)(=O)[O-])cc5F)c5nc(c(-c6c(F)cc(S(=O)(=O)[O-])cc6F)c6ccc3[nH]6)C=C5)C=C4)cc2)ncc1[N+](=O)[O-]
REMARK SMILES IDX 18 1 17 2 16 3 15 4 14 5 13 6 11 7 12 8 10 9 5 10 6 11 7 12
REMARK SMILES IDX 9 13 8 14 4 15 1 16 2 17 3 18 93 19 92 20 91 21 94 22 95 23
REMARK SMILES IDX 96 24 19 25 20 26 21 27 22 28 23 29 24 30 25 31 26 32 90 33
REMARK SMILES IDX 27 34 89 35 28 36 29 37 30 38 83 39 31 40 88 41 82 42 84 43
REMARK SMILES IDX 32 44 87 45 81 46 80 47 33 49 67 50 46 51 66 52 47 53 50 54
REMARK SMILES IDX 65 55 85 56 48 57 49 58 64 60 86 61 51 62 34 63 35 64 44 65
REMARK SMILES IDX 36 66 37 67 43 68 45 69 38 70 39 71 40 72 41 73 42 74 68 75
REMARK SMILES IDX 69 76 78 77 70 78 71 79 77 80 79 81 72 82 73 83 74 84 75 85
REMARK SMILES IDX 76 86 52 87 53 88 62 89 54 90 55 91 61 92 63 93 56 94 57 95
REMARK SMILES IDX 58 96 59 97 60 98
REMARK H PARENT 84 48 50 59
REMARK Flexibility Score: inf
ROOT
ATOM      1  C   UNL A   1      35.338  33.173  28.095  1.00  0.00     0.188 C 
ENDROOT
BRANCH   1   2
ATOM      2  C   UNL A   1      35.187  31.681  27.741  1.00  0.00     0.188 C 
BRANCH   2   3
ATOM      3  O   UNL A   1      33.882  31.115  27.801  1.00  0.00    -0.376 OA
BRANCH   3   4
ATOM      4  C   UNL A   1      33.561  30.090  26.869  1.00  0.00     0.202 C 
BRANCH   4   5
ATOM      5  C   UNL A   1      34.330  28.787  27.066  1.00  0.00     0.261 C 
BRANCH   5   6
ATOM      6  O   UNL A   1      33.476  27.651  26.837  1.00  0.00    -0.462 OA
BRANCH   6   7
ATOM      7  C   UNL A   1      33.226  27.312  25.544  1.00  0.00     0.331 C 
ATOM      8  O   UNL A   1      34.087  26.927  24.758  1.00  0.00    -0.250 OA
BRANCH   7   9
ATOM      9  C   UNL A   1      31.765  27.507  25.122  1.00  0.00     0.220 C 
ATOM     10  N   UNL A   1      31.486  27.298  23.671  1.00  0.00    -0.339 N 
ATOM     11  C   UNL A   1      31.345  25.892  23.243  1.00  0.00     0.147 C 
ATOM     12  C   UNL A   1      30.478  25.087  24.214  1.00  0.00     0.181 C 
ATOM     13  C   UNL A   1      30.913  26.568  25.997  1.00  0.00     0.197 C 
ATOM     14  O   UNL A   1      30.967  25.198  25.560  1.00  0.00    -0.377 OA
BRANCH  10  15
ATOM     15  C   UNL A   1      30.597  28.190  23.072  1.00  0.00     0.130 A 
ATOM     16  C   UNL A   1      26.862  28.897  23.197  1.00  0.00     0.052 C 
ATOM     17  C   UNL A   1      28.310  29.018  22.824  1.00  0.00     0.032 A 
ATOM     18  C   UNL A   1      29.221  28.043  23.281  1.00  0.00     0.057 A 
ATOM     19  C   UNL A   1      28.837  30.075  22.082  1.00  0.00     0.290 A 
ATOM     20  C   UNL A   1      30.205  30.147  21.884  1.00  0.00     0.199 A 
ATOM     21  N   UNL A   1      31.085  29.237  22.376  1.00  0.00    -0.232 NA
BRANCH  19  22
ATOM     22  N   UNL A   1      28.021  31.125  21.505  1.00  0.00     0.064 N 
ATOM     23  O   UNL A   1      27.535  30.908  20.386  1.00  0.00    -0.258 OA
ATOM     24  O   UNL A   1      27.833  32.142  22.183  1.00  0.00    -0.258 OA
ENDBRANCH  19  22
ENDBRANCH  10  15
ENDBRANCH   7   9
ENDBRANCH   6   7
ENDBRANCH   5   6
ENDBRANCH   4   5
ENDBRANCH   3   4
ENDBRANCH   2   3
ENDBRANCH   1   2
BRANCH   1  25
ATOM     25  O   UNL A   1      35.553  33.506  29.463  1.00  0.00    -0.376 OA
BRANCH  25  26
ATOM     26  C   UNL A   1      34.618  32.986  30.403  1.00  0.00     0.202 C 
BRANCH  26  27
ATOM     27  C   UNL A   1      35.277  32.380  31.635  1.00  0.00     0.261 C 
BRANCH  27  28
ATOM     28  O   UNL A   1      36.191  31.346  31.230  1.00  0.00    -0.460 OA
BRANCH  28  29
ATOM     29  C   UNL A   1      37.436  31.493  31.716  1.00  0.00     0.338 C 
ATOM     30  O   UNL A   1      37.777  32.232  32.638  1.00  0.00    -0.246 OA
BRANCH  29  31
ATOM     31  C   UNL A   1      38.383  30.620  31.005  1.00  0.00     0.060 A 
ATOM     32  C   UNL A   1      39.326  29.869  31.710  1.00  0.00     0.016 A 
ATOM     33  C   UNL A   1      38.467  30.724  29.618  1.00  0.00     0.016 A 
ATOM     34  C   UNL A   1      40.438  29.349  31.041  1.00  0.00     0.010 A 
ATOM     35  C   UNL A   1      39.550  30.154  28.946  1.00  0.00     0.010 A 
ATOM     36  C   UNL A   1      40.597  29.543  29.661  1.00  0.00    -0.014 A 
BRANCH  36  37
ATOM     37  C   UNL A   1      41.915  29.321  28.991  1.00  0.00     0.031 A 
ATOM     38  C   UNL A   1      42.181  27.980  28.339  1.00  0.00     0.074 A 
ATOM     39  C   UNL A   1      42.854  30.282  28.894  1.00  0.00     0.049 A 
ATOM     40  N   UNL A   1      43.315  27.446  27.967  1.00  0.00    -0.248 NA
ATOM     41  C   UNL A   1      41.009  27.123  28.087  1.00  0.00     0.031 C 
ATOM     42  C   UNL A   1      42.719  31.661  29.357  1.00  0.00     0.029 A 
ATOM     43  N   UNL A   1      44.118  30.236  28.354  1.00  0.00    -0.354 N 
ATOM     44  C   UNL A   1      43.007  26.159  27.538  1.00  0.00     0.074 A 
ATOM     45  C   UNL A   1      41.574  26.003  27.659  1.00  0.00     0.031 C 
ATOM     46  C   UNL A   1      43.838  32.339  29.051  1.00  0.00     0.029 A 
ATOM     47  C   UNL A   1      44.809  31.419  28.465  1.00  0.00     0.049 A 
ATOM     48  H   UNL A   1      44.493  29.431  27.929  1.00  0.00     0.167 HD
ATOM     49  C   UNL A   1      43.847  25.191  27.100  1.00  0.00     0.037 A 
ATOM     50  C   UNL A   1      46.094  31.716  28.183  1.00  0.00     0.037 A 
ATOM     51  C   UNL A   1      45.255  25.387  26.877  1.00  0.00     0.049 A 
ATOM     52  C   UNL A   1      47.016  30.628  27.695  1.00  0.00     0.074 A 
ATOM     53  C   UNL A   1      46.198  24.467  26.448  1.00  0.00     0.029 A 
ATOM     54  N   UNL A   1      45.915  26.597  27.021  1.00  0.00    -0.354 N 
ATOM     55  N   UNL A   1      46.748  29.370  27.443  1.00  0.00    -0.248 NA
ATOM     56  C   UNL A   1      48.424  30.996  27.485  1.00  0.00     0.031 C 
ATOM     57  C   UNL A   1      47.433  25.119  26.349  1.00  0.00     0.029 A 
ATOM     58  C   UNL A   1      47.249  26.450  26.683  1.00  0.00     0.049 A 
ATOM     59  H   UNL A   1      45.496  27.436  27.319  1.00  0.00     0.167 HD
ATOM     60  C   UNL A   1      47.950  28.800  27.037  1.00  0.00     0.074 A 
ATOM     61  C   UNL A   1      48.942  29.854  27.056  1.00  0.00     0.031 C 
ATOM     62  C   UNL A   1      48.216  27.516  26.691  1.00  0.00     0.037 A 
BRANCH  49  63
ATOM     63  C   UNL A   1      43.287  23.812  26.886  1.00  0.00     0.058 A 
ATOM     64  C   UNL A   1      43.057  23.280  25.610  1.00  0.00     0.135 A 
ATOM     65  C   UNL A   1      43.040  22.987  27.996  1.00  0.00     0.135 A 
ATOM     66  F   UNL A   1      43.255  24.035  24.518  1.00  0.00    -0.206 F 
ATOM     67  C   UNL A   1      42.595  21.977  25.440  1.00  0.00     0.059 A 
ATOM     68  C   UNL A   1      42.599  21.675  27.849  1.00  0.00     0.059 A 
ATOM     69  F   UNL A   1      43.238  23.450  29.240  1.00  0.00    -0.206 F 
ATOM     70  C   UNL A   1      42.373  21.180  26.566  1.00  0.00     0.060 A 
BRANCH  70  71
ATOM     71  S   UNL A   1      41.811  19.480  26.336  1.00  0.00     0.124 S 
ATOM     72  O   UNL A   1      42.573  19.079  25.158  1.00  0.00    -0.237 OA
ATOM     73  O   UNL A   1      42.203  18.847  27.591  1.00  0.00    -0.237 OA
ATOM     74  O   UNL A   1      40.372  19.623  26.134  1.00  0.00    -0.744 OA
ENDBRANCH  70  71
ENDBRANCH  49  63
BRANCH  50  75
ATOM     75  C   UNL A   1      46.616  33.089  28.424  1.00  0.00     0.058 A 
ATOM     76  C   UNL A   1      47.159  33.450  29.665  1.00  0.00     0.135 A 
ATOM     77  C   UNL A   1      46.563  34.072  27.423  1.00  0.00     0.135 A 
ATOM     78  F   UNL A   1      47.216  32.550  30.660  1.00  0.00    -0.206 F 
ATOM     79  C   UNL A   1      47.619  34.740  29.914  1.00  0.00     0.059 A 
ATOM     80  C   UNL A   1      47.044  35.359  27.636  1.00  0.00     0.059 A 
ATOM     81  F   UNL A   1      46.059  33.778  26.216  1.00  0.00    -0.206 F 
ATOM     82  C   UNL A   1      47.558  35.688  28.891  1.00  0.00     0.060 A 
BRANCH  82  83
ATOM     83  S   UNL A   1      48.197  37.350  29.193  1.00  0.00     0.124 S 
ATOM     84  O   UNL A   1      48.044  37.462  30.638  1.00  0.00    -0.237 OA
ATOM     85  O   UNL A   1      49.567  37.252  28.700  1.00  0.00    -0.237 OA
ATOM     86  O   UNL A   1      47.311  38.193  28.394  1.00  0.00    -0.744 OA
ENDBRANCH  82  83
ENDBRANCH  50  75
BRANCH  62  87
ATOM     87  C   UNL A   1      49.619  27.195  26.261  1.00  0.00     0.058 A 
ATOM     88  C   UNL A   1      50.005  27.244  24.913  1.00  0.00     0.135 A 
ATOM     89  C   UNL A   1      50.592  26.856  27.214  1.00  0.00     0.135 A 
ATOM     90  F   UNL A   1      49.109  27.560  23.965  1.00  0.00    -0.206 F 
ATOM     91  C   UNL A   1      51.303  26.936  24.520  1.00  0.00     0.059 A 
ATOM     92  C   UNL A   1      51.901  26.565  26.845  1.00  0.00     0.059 A 
ATOM     93  F   UNL A   1      50.275  26.808  28.517  1.00  0.00    -0.206 F 
ATOM     94  C   UNL A   1      52.243  26.591  25.493  1.00  0.00     0.060 A 
BRANCH  94  95
ATOM     95  S   UNL A   1      53.927  26.193  24.976  1.00  0.00     0.124 S 
ATOM     96  O   UNL A   1      54.164  27.202  23.950  1.00  0.00    -0.237 OA
ATOM     97  O   UNL A   1      54.685  26.355  26.212  1.00  0.00    -0.237 OA
ATOM     98  O   UNL A   1      53.816  24.819  24.494  1.00  0.00    -0.744 OA
ENDBRANCH  94  95
ENDBRANCH  62  87
ENDBRANCH  36  37
ENDBRANCH  29  31
ENDBRANCH  28  29
ENDBRANCH  27  28
ENDBRANCH  26  27
ENDBRANCH  25  26
ENDBRANCH   1  25
TORSDOF 22
ENDMDL
MODEL 3
REMARK VINA RESULT:      -8.0      3.526     10.295
REMARK SMILES Cc1cc(N2CCOC[C@H]2C(=O)OCCOCCOCCOC(=O)c2ccc(-c3c4nc(c(-c5c(F)cc(S(=O)(=O)[O-])cc5F)c5ccc([nH]5)c(-c5c(F)cc(S(=O)(=O)[O-])cc5F)c5nc(c(-c6c(F)cc(S(=O)(=O)[O-])cc6F)c6ccc3[nH]6)C=C5)C=C4)cc2)ncc1[N+](=O)[O-]
REMARK SMILES IDX 18 1 17 2 16 3 15 4 14 5 13 6 11 7 12 8 10 9 5 10 6 11 7 12
REMARK SMILES IDX 9 13 8 14 4 15 1 16 2 17 3 18 93 19 92 20 91 21 94 22 95 23
REMARK SMILES IDX 96 24 19 25 20 26 21 27 22 28 23 29 24 30 25 31 26 32 90 33
REMARK SMILES IDX 27 34 89 35 28 36 29 37 30 38 83 39 31 40 88 41 82 42 84 43
REMARK SMILES IDX 32 44 87 45 81 46 80 47 33 49 67 50 46 51 66 52 47 53 50 54
REMARK SMILES IDX 65 55 85 56 48 57 49 58 64 60 86 61 51 62 34 63 35 64 44 65
REMARK SMILES IDX 36 66 37 67 43 68 45 69 38 70 39 71 40 72 41 73 42 74 68 75
REMARK SMILES IDX 69 76 78 77 70 78 71 79 77 80 79 81 72 82 73 83 74 84 75 85
REMARK SMILES IDX 76 86 52 87 53 88 62 89 54 90 55 91 61 92 63 93 56 94 57 95
REMARK SMILES IDX 58 96 59 97 60 98
REMARK H PARENT 84 48 50 59
REMARK Flexibility Score: inf
ROOT
ATOM      1  C   UNL A   1      34.322  33.368  28.427  1.00  0.00     0.188 C 
ENDROOT
BRANCH   1   2
ATOM      2  C   UNL A   1      34.509  31.908  27.972  1.00  0.00     0.188 C 
BRANCH   2   3
ATOM      3  O   UNL A   1      33.353  31.194  27.546  1.00  0.00    -0.376 OA
BRANCH   3   4
ATOM      4  C   UNL A   1      33.515  29.827  27.189  1.00  0.00     0.202 C 
BRANCH   4   5
ATOM      5  C   UNL A   1      33.150  29.500  25.744  1.00  0.00     0.261 C 
BRANCH   5   6
ATOM      6  O   UNL A   1      33.405  28.113  25.453  1.00  0.00    -0.462 OA
BRANCH   6   7
ATOM      7  C   UNL A   1      32.911  27.622  24.287  1.00  0.00     0.331 C 
ATOM      8  O   UNL A   1      32.285  28.293  23.470  1.00  0.00    -0.250 OA
BRANCH   7   9
ATOM      9  C   UNL A   1      33.152  26.120  24.092  1.00  0.00     0.220 C 
ATOM     10  N   UNL A   1      33.328  25.333  25.349  1.00  0.00    -0.339 N 
ATOM     11  C   UNL A   1      32.083  24.967  26.054  1.00  0.00     0.147 C 
ATOM     12  C   UNL A   1      31.013  24.454  25.086  1.00  0.00     0.181 C 
ATOM     13  C   UNL A   1      31.980  25.579  23.252  1.00  0.00     0.197 C 
ATOM     14  O   UNL A   1      30.780  25.394  24.025  1.00  0.00    -0.377 OA
BRANCH  10  15
ATOM     15  C   UNL A   1      34.311  24.345  25.334  1.00  0.00     0.130 A 
ATOM     16  C   UNL A   1      36.739  22.879  22.800  1.00  0.00     0.052 C 
ATOM     17  C   UNL A   1      36.025  23.115  24.098  1.00  0.00     0.032 A 
ATOM     18  C   UNL A   1      34.920  23.992  24.124  1.00  0.00     0.057 A 
ATOM     19  C   UNL A   1      36.415  22.555  25.314  1.00  0.00     0.290 A 
ATOM     20  C   UNL A   1      35.752  22.923  26.472  1.00  0.00     0.199 A 
ATOM     21  N   UNL A   1      34.726  23.812  26.502  1.00  0.00    -0.232 NA
BRANCH  19  22
ATOM     22  N   UNL A   1      37.499  21.601  25.438  1.00  0.00     0.064 N 
ATOM     23  O   UNL A   1      37.384  20.535  24.818  1.00  0.00    -0.258 OA
ATOM     24  O   UNL A   1      38.480  21.933  26.115  1.00  0.00    -0.258 OA
ENDBRANCH  19  22
ENDBRANCH  10  15
ENDBRANCH   7   9
ENDBRANCH   6   7
ENDBRANCH   5   6
ENDBRANCH   4   5
ENDBRANCH   3   4
ENDBRANCH   2   3
ENDBRANCH   1   2
BRANCH   1  25
ATOM     25  O   UNL A   1      35.229  33.874  29.402  1.00  0.00    -0.376 OA
BRANCH  25  26
ATOM     26  C   UNL A   1      34.937  33.574  30.764  1.00  0.00     0.202 C 
BRANCH  26  27
ATOM     27  C   UNL A   1      36.179  33.267  31.591  1.00  0.00     0.261 C 
BRANCH  27  28
ATOM     28  O   UNL A   1      37.007  32.330  30.882  1.00  0.00    -0.460 OA
BRANCH  28  29
ATOM     29  C   UNL A   1      37.042  31.103  31.432  1.00  0.00     0.338 C 
ATOM     30  O   UNL A   1      36.344  30.699  32.360  1.00  0.00    -0.246 OA
BRANCH  29  31
ATOM     31  C   UNL A   1      38.038  30.254  30.759  1.00  0.00     0.060 A 
ATOM     32  C   UNL A   1      38.974  29.530  31.501  1.00  0.00     0.016 A 
ATOM     33  C   UNL A   1      38.171  30.357  29.376  1.00  0.00     0.016 A 
ATOM     34  C   UNL A   1      40.123  29.038  30.875  1.00  0.00     0.010 A 
ATOM     35  C   UNL A   1      39.293  29.815  28.746  1.00  0.00     0.010 A 
ATOM     36  C   UNL A   1      40.328  29.234  29.501  1.00  0.00    -0.014 A 
BRANCH  36  37
ATOM     37  C   UNL A   1      41.674  29.045  28.881  1.00  0.00     0.031 A 
ATOM     38  C   UNL A   1      42.005  27.707  28.253  1.00  0.00     0.074 A 
ATOM     39  C   UNL A   1      42.587  30.033  28.806  1.00  0.00     0.049 A 
ATOM     40  N   UNL A   1      43.167  27.204  27.928  1.00  0.00    -0.248 NA
ATOM     41  C   UNL A   1      40.869  26.811  27.970  1.00  0.00     0.031 C 
ATOM     42  C   UNL A   1      42.394  31.412  29.249  1.00  0.00     0.029 A 
ATOM     43  N   UNL A   1      43.870  30.020  28.313  1.00  0.00    -0.354 N 
ATOM     44  C   UNL A   1      42.914  25.903  27.503  1.00  0.00     0.074 A 
ATOM     45  C   UNL A   1      41.483  25.705  27.574  1.00  0.00     0.031 C 
ATOM     46  C   UNL A   1      43.503  32.121  28.976  1.00  0.00     0.029 A 
ATOM     47  C   UNL A   1      44.522  31.225  28.435  1.00  0.00     0.049 A 
ATOM     48  H   UNL A   1      44.285  29.223  27.911  1.00  0.00     0.167 HD
ATOM     49  C   UNL A   1      43.797  24.957  27.106  1.00  0.00     0.037 A 
ATOM     50  C   UNL A   1      45.806  31.559  28.196  1.00  0.00     0.037 A 
ATOM     51  C   UNL A   1      45.207  25.194  26.931  1.00  0.00     0.049 A 
ATOM     52  C   UNL A   1      46.777  30.495  27.753  1.00  0.00     0.074 A 
ATOM     53  C   UNL A   1      46.191  24.299  26.546  1.00  0.00     0.029 A 
ATOM     54  N   UNL A   1      45.823  26.425  27.085  1.00  0.00    -0.354 N 
ATOM     55  N   UNL A   1      46.557  29.226  27.506  1.00  0.00    -0.248 NA
ATOM     56  C   UNL A   1      48.180  30.903  27.589  1.00  0.00     0.031 C 
ATOM     57  C   UNL A   1      47.409  24.988  26.484  1.00  0.00     0.029 A 
ATOM     58  C   UNL A   1      47.173  26.316  26.797  1.00  0.00     0.049 A 
ATOM     59  H   UNL A   1      45.369  27.254  27.359  1.00  0.00     0.167 HD
ATOM     60  C   UNL A   1      47.790  28.689  27.149  1.00  0.00     0.074 A 
ATOM     61  C   UNL A   1      48.747  29.774  27.192  1.00  0.00     0.031 C 
ATOM     62  C   UNL A   1      48.107  27.411  26.827  1.00  0.00     0.037 A 
BRANCH  49  63
ATOM     63  C   UNL A   1      43.288  23.560  26.887  1.00  0.00     0.058 A 
ATOM     64  C   UNL A   1      43.045  23.035  25.611  1.00  0.00     0.135 A 
ATOM     65  C   UNL A   1      43.103  22.711  27.992  1.00  0.00     0.135 A 
ATOM     66  F   UNL A   1      43.184  23.812  24.524  1.00  0.00    -0.206 F 
ATOM     67  C   UNL A   1      42.632  21.717  25.435  1.00  0.00     0.059 A 
ATOM     68  C   UNL A   1      42.712  21.384  27.838  1.00  0.00     0.059 A 
ATOM     69  F   UNL A   1      43.316  23.166  29.237  1.00  0.00    -0.206 F 
ATOM     70  C   UNL A   1      42.471  20.898  26.555  1.00  0.00     0.060 A 
BRANCH  70  71
ATOM     71  S   UNL A   1      41.971  19.180  26.316  1.00  0.00     0.124 S 
ATOM     72  O   UNL A   1      42.962  18.721  25.346  1.00  0.00    -0.237 OA
ATOM     73  O   UNL A   1      42.097  18.626  27.661  1.00  0.00    -0.237 OA
ATOM     74  O   UNL A   1      40.605  19.290  25.814  1.00  0.00    -0.744 OA
ENDBRANCH  70  71
ENDBRANCH  49  63
BRANCH  50  75
ATOM     75  C   UNL A   1      46.277  32.949  28.440  1.00  0.00     0.058 A 
ATOM     76  C   UNL A   1      46.252  33.912  27.420  1.00  0.00     0.135 A 
ATOM     77  C   UNL A   1      46.782  33.336  29.692  1.00  0.00     0.135 A 
ATOM     78  F   UNL A   1      45.797  33.586  26.201  1.00  0.00    -0.206 F 
ATOM     79  C   UNL A   1      46.723  35.206  27.627  1.00  0.00     0.059 A 
ATOM     80  C   UNL A   1      47.228  34.631  29.932  1.00  0.00     0.059 A 
ATOM     81  F   UNL A   1      46.822  32.455  30.703  1.00  0.00    -0.206 F 
ATOM     82  C   UNL A   1      47.208  35.556  28.888  1.00  0.00     0.060 A 
BRANCH  82  83
ATOM     83  S   UNL A   1      47.775  37.246  29.174  1.00  0.00     0.124 S 
ATOM     84  O   UNL A   1      46.777  37.733  30.117  1.00  0.00    -0.237 OA
ATOM     85  O   UNL A   1      49.116  37.039  29.712  1.00  0.00    -0.237 OA
ATOM     86  O   UNL A   1      47.730  37.838  27.839  1.00  0.00    -0.744 OA
ENDBRANCH  82  83
ENDBRANCH  50  75
BRANCH  62  87
ATOM     87  C   UNL A   1      49.533  27.128  26.451  1.00  0.00     0.058 A 
ATOM     88  C   UNL A   1      49.992  27.285  25.134  1.00  0.00     0.135 A 
ATOM     89  C   UNL A   1      50.455  26.718  27.426  1.00  0.00     0.135 A 
ATOM     90  F   UNL A   1      49.146  27.672  24.166  1.00  0.00    -0.206 F 
ATOM     91  C   UNL A   1      51.311  27.013  24.790  1.00  0.00     0.059 A 
ATOM     92  C   UNL A   1      51.784  26.461  27.108  1.00  0.00     0.059 A 
ATOM     93  F   UNL A   1      50.067  26.567  28.702  1.00  0.00    -0.206 F 
ATOM     94  C   UNL A   1      52.199  26.594  25.783  1.00  0.00     0.060 A 
BRANCH  94  95
ATOM     95  S   UNL A   1      53.911  26.243  25.329  1.00  0.00     0.124 S 
ATOM     96  O   UNL A   1      54.450  25.739  26.588  1.00  0.00    -0.237 OA
ATOM     97  O   UNL A   1      53.761  25.256  24.265  1.00  0.00    -0.237 OA
ATOM     98  O   UNL A   1      54.421  27.542  24.902  1.00  0.00    -0.744 OA
ENDBRANCH  94  95
ENDBRANCH  62  87
ENDBRANCH  36  37
ENDBRANCH  29  31
ENDBRANCH  28  29
ENDBRANCH  27  28
ENDBRANCH  26  27
ENDBRANCH  25  26
ENDBRANCH   1  25
TORSDOF 22
ENDMDL
