MODEL 1
REMARK VINA RESULT:     -11.8      0.000      0.000
REMARK SMILES O=C(OCCOCCOCCOC(=O)[C@H]1Cc2c([nH]c3ccccc23)[C@H](c2c[nH]c3ccccc23)[NH2+]1)c1ccc(-c2c3nc(c(-c4c(F)cc(S(=O)(=O)[O-])cc4F)c4ccc([nH]4)c(-c4c(F)cc(S(=O)(=O)[O-])cc4F)c4nc(c(-c5c(F)cc(S(=O)(=O)[O-])cc5F)c5ccc2[nH]5)C=C4)C=C3)cc1
REMARK SMILES IDX 7 1 6 2 5 3 4 4 3 5 2 6 1 7 37 8 38 9 102 10 39 11 101 12
REMARK SMILES IDX 40 13 41 14 42 15 95 16 43 17 100 18 94 19 96 20 44 21 99 22
REMARK SMILES IDX 93 23 92 24 45 26 79 27 58 28 78 29 59 30 62 31 77 32 97 33
REMARK SMILES IDX 60 34 61 35 76 37 98 38 63 39 46 40 47 41 56 42 48 43 49 44
REMARK SMILES IDX 55 45 57 46 50 47 51 48 52 49 53 50 54 51 80 52 81 53 90 54
REMARK SMILES IDX 82 55 83 56 89 57 91 58 84 59 85 60 86 61 87 62 88 63 64 64
REMARK SMILES IDX 65 65 74 66 66 67 67 68 73 69 75 70 68 71 69 72 70 73 71 74
REMARK SMILES IDX 72 75 8 76 9 77 10 78 11 79 12 80 13 81 14 82 15 83 16 84
REMARK SMILES IDX 36 85 17 86 26 87 18 90 25 91 19 92 20 93 24 94 21 96 23 97
REMARK SMILES IDX 22 98 27 99 28 100 35 101 29 102 30 103 34 104 31 106 33 107
REMARK SMILES IDX 32 108
REMARK H PARENT 96 25 62 36 36 88 36 89 19 95 29 105
REMARK Flexibility Score: inf
ROOT
ATOM      1  C   UNL A   1      43.556  20.948  25.763  1.00  0.00     0.188 C 
ENDROOT
BRANCH   1   2
ATOM      2  O   UNL A   1      43.423  21.846  24.662  1.00  0.00    -0.376 OA
BRANCH   2   3
ATOM      3  C   UNL A   1      43.592  23.231  24.979  1.00  0.00     0.202 C 
BRANCH   3   4
ATOM      4  C   UNL A   1      42.974  23.694  26.307  1.00  0.00     0.261 C 
BRANCH   4   5
ATOM      5  O   UNL A   1      41.754  24.430  26.140  1.00  0.00    -0.460 OA
BRANCH   5   6
ATOM      6  C   UNL A   1      41.606  25.776  26.215  1.00  0.00     0.338 C 
ATOM      7  O   UNL A   1      41.711  26.438  25.184  1.00  0.00    -0.246 OA
BRANCH   6   8
ATOM      8  C   UNL A   1      41.323  26.499  27.493  1.00  0.00     0.060 A 
ATOM      9  C   UNL A   1      40.312  26.180  28.405  1.00  0.00     0.016 A 
ATOM     10  C   UNL A   1      42.202  27.522  27.840  1.00  0.00     0.016 A 
ATOM     11  C   UNL A   1      40.125  26.874  29.597  1.00  0.00     0.010 A 
ATOM     12  C   UNL A   1      42.052  28.185  29.062  1.00  0.00     0.010 A 
ATOM     13  C   UNL A   1      41.016  27.863  29.964  1.00  0.00    -0.014 A 
BRANCH  13  14
ATOM     14  C   UNL A   1      40.820  28.661  31.204  1.00  0.00     0.031 A 
ATOM     15  C   UNL A   1      39.835  29.788  31.115  1.00  0.00     0.074 A 
ATOM     16  C   UNL A   1      41.474  28.411  32.363  1.00  0.00     0.049 A 
ATOM     17  N   UNL A   1      39.639  30.790  31.923  1.00  0.00    -0.248 NA
ATOM     18  C   UNL A   1      38.938  29.780  29.940  1.00  0.00     0.031 C 
ATOM     19  C   UNL A   1      42.308  27.247  32.656  1.00  0.00     0.029 A 
ATOM     20  N   UNL A   1      41.582  29.161  33.513  1.00  0.00    -0.354 N 
ATOM     21  C   UNL A   1      38.605  31.519  31.355  1.00  0.00     0.074 A 
ATOM     22  C   UNL A   1      38.291  30.921  30.081  1.00  0.00     0.031 C 
ATOM     23  C   UNL A   1      42.942  27.417  33.828  1.00  0.00     0.029 A 
ATOM     24  C   UNL A   1      42.562  28.703  34.376  1.00  0.00     0.049 A 
ATOM     25  H   UNL A   1      41.017  29.945  33.704  1.00  0.00     0.167 HD
ATOM     26  C   UNL A   1      37.926  32.555  31.892  1.00  0.00     0.037 A 
ATOM     27  C   UNL A   1      43.118  29.282  35.457  1.00  0.00     0.037 A 
ATOM     28  C   UNL A   1      38.230  33.089  33.188  1.00  0.00     0.049 A 
ATOM     29  C   UNL A   1      42.504  30.563  35.931  1.00  0.00     0.074 A 
ATOM     30  C   UNL A   1      37.593  34.102  33.873  1.00  0.00     0.029 A 
ATOM     31  N   UNL A   1      39.270  32.639  33.993  1.00  0.00    -0.354 N 
ATOM     32  N   UNL A   1      41.531  31.253  35.388  1.00  0.00    -0.248 NA
ATOM     33  C   UNL A   1      43.009  31.106  37.196  1.00  0.00     0.031 C 
ATOM     34  C   UNL A   1      38.286  34.307  35.071  1.00  0.00     0.029 A 
ATOM     35  C   UNL A   1      39.319  33.383  35.155  1.00  0.00     0.049 A 
ATOM     36  H   UNL A   1      39.881  31.900  33.768  1.00  0.00     0.167 HD
ATOM     37  C   UNL A   1      41.250  32.271  36.282  1.00  0.00     0.074 A 
ATOM     38  C   UNL A   1      42.188  32.130  37.380  1.00  0.00     0.031 C 
ATOM     39  C   UNL A   1      40.274  33.209  36.222  1.00  0.00     0.037 A 
BRANCH  26  40
ATOM     40  C   UNL A   1      36.812  33.139  31.077  1.00  0.00     0.058 A 
ATOM     41  C   UNL A   1      35.465  32.820  31.324  1.00  0.00     0.135 A 
ATOM     42  C   UNL A   1      37.095  33.997  30.005  1.00  0.00     0.135 A 
ATOM     43  F   UNL A   1      35.140  31.973  32.314  1.00  0.00    -0.206 F 
ATOM     44  C   UNL A   1      34.443  33.304  30.516  1.00  0.00     0.059 A 
ATOM     45  C   UNL A   1      36.086  34.518  29.202  1.00  0.00     0.059 A 
ATOM     46  F   UNL A   1      38.366  34.317  29.713  1.00  0.00    -0.206 F 
ATOM     47  C   UNL A   1      34.764  34.154  29.456  1.00  0.00     0.060 A 
BRANCH  47  48
ATOM     48  S   UNL A   1      33.424  34.775  28.420  1.00  0.00     0.124 S 
ATOM     49  O   UNL A   1      32.525  35.346  29.416  1.00  0.00    -0.237 OA
ATOM     50  O   UNL A   1      34.112  35.731  27.563  1.00  0.00    -0.237 OA
ATOM     51  O   UNL A   1      32.933  33.572  27.748  1.00  0.00    -0.744 OA
ENDBRANCH  47  48
ENDBRANCH  26  40
BRANCH  27  52
ATOM     52  C   UNL A   1      44.291  28.694  36.165  1.00  0.00     0.058 A 
ATOM     53  C   UNL A   1      45.607  29.100  35.902  1.00  0.00     0.135 A 
ATOM     54  C   UNL A   1      44.119  27.657  37.093  1.00  0.00     0.135 A 
ATOM     55  F   UNL A   1      45.842  30.046  34.982  1.00  0.00    -0.206 F 
ATOM     56  C   UNL A   1      46.698  28.519  36.553  1.00  0.00     0.059 A 
ATOM     57  C   UNL A   1      45.185  27.076  37.771  1.00  0.00     0.059 A 
ATOM     58  F   UNL A   1      42.897  27.174  37.346  1.00  0.00    -0.206 F 
ATOM     59  C   UNL A   1      46.476  27.511  37.493  1.00  0.00     0.060 A 
BRANCH  59  60
ATOM     60  S   UNL A   1      47.866  26.787  38.396  1.00  0.00     0.124 S 
ATOM     61  O   UNL A   1      48.701  26.298  37.305  1.00  0.00    -0.237 OA
ATOM     62  O   UNL A   1      48.387  27.928  39.140  1.00  0.00    -0.237 OA
ATOM     63  O   UNL A   1      47.220  25.759  39.209  1.00  0.00    -0.744 OA
ENDBRANCH  59  60
ENDBRANCH  27  52
BRANCH  39  64
ATOM     64  C   UNL A   1      40.143  34.117  37.402  1.00  0.00     0.058 A 
ATOM     65  C   UNL A   1      40.878  35.306  37.497  1.00  0.00     0.135 A 
ATOM     66  C   UNL A   1      39.211  33.822  38.409  1.00  0.00     0.135 A 
ATOM     67  F   UNL A   1      41.794  35.613  36.565  1.00  0.00    -0.206 F 
ATOM     68  C   UNL A   1      40.695  36.176  38.562  1.00  0.00     0.059 A 
ATOM     69  C   UNL A   1      38.988  34.694  39.464  1.00  0.00     0.059 A 
ATOM     70  F   UNL A   1      38.485  32.694  38.353  1.00  0.00    -0.206 F 
ATOM     71  C   UNL A   1      39.739  35.867  39.532  1.00  0.00     0.060 A 
BRANCH  71  72
ATOM     72  S   UNL A   1      39.459  37.045  40.866  1.00  0.00     0.124 S 
ATOM     73  O   UNL A   1      40.767  37.680  40.976  1.00  0.00    -0.237 OA
ATOM     74  O   UNL A   1      38.392  37.879  40.322  1.00  0.00    -0.237 OA
ATOM     75  O   UNL A   1      39.073  36.200  41.992  1.00  0.00    -0.744 OA
ENDBRANCH  71  72
ENDBRANCH  39  64
ENDBRANCH  13  14
ENDBRANCH   6   8
ENDBRANCH   5   6
ENDBRANCH   4   5
ENDBRANCH   3   4
ENDBRANCH   2   3
ENDBRANCH   1   2
BRANCH   1  76
ATOM     76  C   UNL A   1      42.451  19.890  25.793  1.00  0.00     0.188 C 
BRANCH  76  77
ATOM     77  O   UNL A   1      41.354  20.117  26.670  1.00  0.00    -0.376 OA
BRANCH  77  78
ATOM     78  C   UNL A   1      40.052  20.162  26.098  1.00  0.00     0.202 C 
BRANCH  78  79
ATOM     79  C   UNL A   1      39.285  21.500  26.040  1.00  0.00     0.261 C 
BRANCH  79  80
ATOM     80  O   UNL A   1      37.891  21.464  25.668  1.00  0.00    -0.459 OA
BRANCH  80  81
ATOM     81  C   UNL A   1      37.304  22.687  25.711  1.00  0.00     0.365 C 
ATOM     82  O   UNL A   1      37.936  23.717  25.959  1.00  0.00    -0.245 OA
BRANCH  81  83
ATOM     83  C   UNL A   1      35.768  22.727  25.566  1.00  0.00     0.298 C 
ATOM     84  C   UNL A   1      35.003  24.076  25.678  1.00  0.00     0.115 C 
ATOM     85  N   UNL A   1      35.489  21.923  24.342  1.00  0.00    -0.323 N 
ATOM     86  C   UNL A   1      33.579  23.897  25.195  1.00  0.00    -0.006 A 
ATOM     87  C   UNL A   1      34.083  21.584  24.146  1.00  0.00     0.264 C 
ATOM     88  H   UNL A   1      36.020  21.055  24.402  1.00  0.00     0.347 HD
ATOM     89  H   UNL A   1      35.759  22.504  23.547  1.00  0.00     0.347 HD
ATOM     90  C   UNL A   1      33.233  22.766  24.476  1.00  0.00     0.083 A 
ATOM     91  C   UNL A   1      32.419  24.747  25.196  1.00  0.00     0.003 A 
ATOM     92  N   UNL A   1      31.962  22.927  24.002  1.00  0.00    -0.353 N 
ATOM     93  C   UNL A   1      31.491  24.172  24.326  1.00  0.00     0.046 A 
ATOM     94  C   UNL A   1      32.065  25.982  25.769  1.00  0.00     0.010 A 
ATOM     95  H   UNL A   1      31.458  22.246  23.501  1.00  0.00     0.166 HD
ATOM     96  C   UNL A   1      30.330  24.823  23.884  1.00  0.00     0.026 A 
ATOM     97  C   UNL A   1      30.915  26.662  25.325  1.00  0.00     0.001 A 
ATOM     98  C   UNL A   1      30.083  26.106  24.362  1.00  0.00     0.002 A 
BRANCH  87  99
ATOM     99  C   UNL A   1      33.621  20.336  24.869  1.00  0.00     0.041 A 
ATOM    100  C   UNL A   1      33.233  20.374  26.203  1.00  0.00     0.093 A 
ATOM    101  C   UNL A   1      33.481  18.950  24.472  1.00  0.00     0.009 A 
ATOM    102  N   UNL A   1      32.991  19.107  26.642  1.00  0.00    -0.361 N 
ATOM    103  C   UNL A   1      33.188  18.211  25.623  1.00  0.00     0.046 A 
ATOM    104  C   UNL A   1      33.577  18.214  23.271  1.00  0.00     0.011 A 
ATOM    105  H   UNL A   1      32.714  18.871  27.556  1.00  0.00     0.166 HD
ATOM    106  C   UNL A   1      33.101  16.811  25.638  1.00  0.00     0.026 A 
ATOM    107  C   UNL A   1      33.510  16.818  23.259  1.00  0.00     0.001 A 
ATOM    108  C   UNL A   1      33.293  16.125  24.437  1.00  0.00     0.002 A 
ENDBRANCH  87  99
ENDBRANCH  81  83
ENDBRANCH  80  81
ENDBRANCH  79  80
ENDBRANCH  78  79
ENDBRANCH  77  78
ENDBRANCH  76  77
ENDBRANCH   1  76
TORSDOF 21
ENDMDL
MODEL 2
REMARK VINA RESULT:     -11.6      2.381      9.255
REMARK SMILES O=C(OCCOCCOCCOC(=O)[C@H]1Cc2c([nH]c3ccccc23)[C@H](c2c[nH]c3ccccc23)[NH2+]1)c1ccc(-c2c3nc(c(-c4c(F)cc(S(=O)(=O)[O-])cc4F)c4ccc([nH]4)c(-c4c(F)cc(S(=O)(=O)[O-])cc4F)c4nc(c(-c5c(F)cc(S(=O)(=O)[O-])cc5F)c5ccc2[nH]5)C=C4)C=C3)cc1
REMARK SMILES IDX 7 1 6 2 5 3 4 4 3 5 2 6 1 7 37 8 38 9 102 10 39 11 101 12
REMARK SMILES IDX 40 13 41 14 42 15 95 16 43 17 100 18 94 19 96 20 44 21 99 22
REMARK SMILES IDX 93 23 92 24 45 26 79 27 58 28 78 29 59 30 62 31 77 32 97 33
REMARK SMILES IDX 60 34 61 35 76 37 98 38 63 39 46 40 47 41 56 42 48 43 49 44
REMARK SMILES IDX 55 45 57 46 50 47 51 48 52 49 53 50 54 51 80 52 81 53 90 54
REMARK SMILES IDX 82 55 83 56 89 57 91 58 84 59 85 60 86 61 87 62 88 63 64 64
REMARK SMILES IDX 65 65 74 66 66 67 67 68 73 69 75 70 68 71 69 72 70 73 71 74
REMARK SMILES IDX 72 75 8 76 9 77 10 78 11 79 12 80 13 81 14 82 15 83 16 84
REMARK SMILES IDX 36 85 17 86 26 87 18 90 25 91 19 92 20 93 24 94 21 96 23 97
REMARK SMILES IDX 22 98 27 99 28 100 35 101 29 102 30 103 34 104 31 106 33 107
REMARK SMILES IDX 32 108
REMARK H PARENT 96 25 62 36 36 88 36 89 19 95 29 105
REMARK Flexibility Score: inf
ROOT
ATOM      1  C   UNL A   1      36.634  21.937  25.176  1.00  0.00     0.188 C 
ENDROOT
BRANCH   1   2
ATOM      2  O   UNL A   1      36.625  23.284  25.650  1.00  0.00    -0.376 OA
BRANCH   2   3
ATOM      3  C   UNL A   1      37.887  23.779  26.107  1.00  0.00     0.202 C 
BRANCH   3   4
ATOM      4  C   UNL A   1      38.939  22.713  26.454  1.00  0.00     0.261 C 
BRANCH   4   5
ATOM      5  O   UNL A   1      39.971  23.197  27.324  1.00  0.00    -0.460 OA
BRANCH   5   6
ATOM      6  C   UNL A   1      40.760  24.282  27.118  1.00  0.00     0.338 C 
ATOM      7  O   UNL A   1      41.461  24.316  26.108  1.00  0.00    -0.246 OA
BRANCH   6   8
ATOM      8  C   UNL A   1      40.821  25.440  28.061  1.00  0.00     0.060 A 
ATOM      9  C   UNL A   1      41.931  26.264  28.271  1.00  0.00     0.016 A 
ATOM     10  C   UNL A   1      39.639  25.773  28.718  1.00  0.00     0.016 A 
ATOM     11  C   UNL A   1      41.909  27.352  29.140  1.00  0.00     0.010 A 
ATOM     12  C   UNL A   1      39.597  26.897  29.549  1.00  0.00     0.010 A 
ATOM     13  C   UNL A   1      40.730  27.709  29.764  1.00  0.00    -0.014 A 
BRANCH  13  14
ATOM     14  C   UNL A   1      40.680  28.833  30.739  1.00  0.00     0.031 A 
ATOM     15  C   UNL A   1      41.526  28.677  31.968  1.00  0.00     0.074 A 
ATOM     16  C   UNL A   1      39.929  29.944  30.559  1.00  0.00     0.049 A 
ATOM     17  N   UNL A   1      41.502  29.345  33.085  1.00  0.00    -0.248 NA
ATOM     18  C   UNL A   1      42.550  27.612  31.926  1.00  0.00     0.031 C 
ATOM     19  C   UNL A   1      39.213  30.320  29.341  1.00  0.00     0.029 A 
ATOM     20  N   UNL A   1      39.596  30.955  31.432  1.00  0.00    -0.354 N 
ATOM     21  C   UNL A   1      42.501  28.783  33.866  1.00  0.00     0.074 A 
ATOM     22  C   UNL A   1      43.033  27.648  33.154  1.00  0.00     0.031 C 
ATOM     23  C   UNL A   1      38.429  31.385  29.577  1.00  0.00     0.029 A 
ATOM     24  C   UNL A   1      38.583  31.772  30.964  1.00  0.00     0.049 A 
ATOM     25  H   UNL A   1      40.035  31.084  32.305  1.00  0.00     0.167 HD
ATOM     26  C   UNL A   1      42.981  29.227  35.048  1.00  0.00     0.037 A 
ATOM     27  C   UNL A   1      37.837  32.696  31.600  1.00  0.00     0.037 A 
ATOM     28  C   UNL A   1      42.463  30.393  35.702  1.00  0.00     0.049 A 
ATOM     29  C   UNL A   1      38.231  33.036  33.004  1.00  0.00     0.074 A 
ATOM     30  C   UNL A   1      42.888  30.983  36.875  1.00  0.00     0.029 A 
ATOM     31  N   UNL A   1      41.397  31.148  35.226  1.00  0.00    -0.354 N 
ATOM     32  N   UNL A   1      39.171  32.497  33.742  1.00  0.00    -0.248 NA
ATOM     33  C   UNL A   1      37.519  34.150  33.637  1.00  0.00     0.031 C 
ATOM     34  C   UNL A   1      42.038  32.061  37.141  1.00  0.00     0.029 A 
ATOM     35  C   UNL A   1      41.122  32.177  36.104  1.00  0.00     0.049 A 
ATOM     36  H   UNL A   1      40.911  30.973  34.388  1.00  0.00     0.167 HD
ATOM     37  C   UNL A   1      39.220  33.255  34.899  1.00  0.00     0.074 A 
ATOM     38  C   UNL A   1      38.182  34.263  34.778  1.00  0.00     0.031 C 
ATOM     39  C   UNL A   1      40.075  33.156  35.944  1.00  0.00     0.037 A 
BRANCH  26  40
ATOM     40  C   UNL A   1      44.105  28.450  35.664  1.00  0.00     0.058 A 
ATOM     41  C   UNL A   1      45.449  28.701  35.335  1.00  0.00     0.135 A 
ATOM     42  C   UNL A   1      43.835  27.412  36.567  1.00  0.00     0.135 A 
ATOM     43  F   UNL A   1      45.762  29.658  34.447  1.00  0.00    -0.206 F 
ATOM     44  C   UNL A   1      46.481  27.925  35.851  1.00  0.00     0.059 A 
ATOM     45  C   UNL A   1      44.854  26.644  37.120  1.00  0.00     0.059 A 
ATOM     46  F   UNL A   1      42.568  27.118  36.900  1.00  0.00    -0.206 F 
ATOM     47  C   UNL A   1      46.172  26.899  36.745  1.00  0.00     0.060 A 
BRANCH  47  48
ATOM     48  S   UNL A   1      47.525  25.906  37.408  1.00  0.00     0.124 S 
ATOM     49  O   UNL A   1      46.938  24.572  37.405  1.00  0.00    -0.237 OA
ATOM     50  O   UNL A   1      48.585  26.136  36.435  1.00  0.00    -0.237 OA
ATOM     51  O   UNL A   1      47.754  26.488  38.730  1.00  0.00    -0.744 OA
ENDBRANCH  47  48
ENDBRANCH  26  40
BRANCH  27  52
ATOM     52  C   UNL A   1      36.668  33.361  30.957  1.00  0.00     0.058 A 
ATOM     53  C   UNL A   1      35.346  33.064  31.313  1.00  0.00     0.135 A 
ATOM     54  C   UNL A   1      36.855  34.282  29.916  1.00  0.00     0.135 A 
ATOM     55  F   UNL A   1      35.100  32.147  32.260  1.00  0.00    -0.206 F 
ATOM     56  C   UNL A   1      34.260  33.674  30.680  1.00  0.00     0.059 A 
ATOM     57  C   UNL A   1      35.793  34.921  29.285  1.00  0.00     0.059 A 
ATOM     58  F   UNL A   1      38.087  34.567  29.479  1.00  0.00    -0.206 F 
ATOM     59  C   UNL A   1      34.494  34.609  29.671  1.00  0.00     0.060 A 
BRANCH  59  60
ATOM     60  S   UNL A   1      33.109  35.461  28.881  1.00  0.00     0.124 S 
ATOM     61  O   UNL A   1      32.393  35.990  30.036  1.00  0.00    -0.237 OA
ATOM     62  O   UNL A   1      33.782  36.445  28.039  1.00  0.00    -0.237 OA
ATOM     63  O   UNL A   1      32.437  34.383  28.159  1.00  0.00    -0.744 OA
ENDBRANCH  59  60
ENDBRANCH  27  52
BRANCH  39  64
ATOM     64  C   UNL A   1      39.954  34.197  37.010  1.00  0.00     0.058 A 
ATOM     65  C   UNL A   1      40.703  35.380  36.967  1.00  0.00     0.135 A 
ATOM     66  C   UNL A   1      39.018  34.033  38.043  1.00  0.00     0.135 A 
ATOM     67  F   UNL A   1      41.623  35.566  36.008  1.00  0.00    -0.206 F 
ATOM     68  C   UNL A   1      40.530  36.371  37.923  1.00  0.00     0.059 A 
ATOM     69  C   UNL A   1      38.805  35.025  38.989  1.00  0.00     0.059 A 
ATOM     70  F   UNL A   1      38.279  32.914  38.117  1.00  0.00    -0.206 F 
ATOM     71  C   UNL A   1      39.570  36.188  38.922  1.00  0.00     0.060 A 
BRANCH  71  72
ATOM     72  S   UNL A   1      39.303  37.517  40.109  1.00  0.00     0.124 S 
ATOM     73  O   UNL A   1      39.009  36.768  41.325  1.00  0.00    -0.237 OA
ATOM     74  O   UNL A   1      40.585  38.213  40.086  1.00  0.00    -0.237 OA
ATOM     75  O   UNL A   1      38.182  38.260  39.541  1.00  0.00    -0.744 OA
ENDBRANCH  71  72
ENDBRANCH  39  64
ENDBRANCH  13  14
ENDBRANCH   6   8
ENDBRANCH   5   6
ENDBRANCH   4   5
ENDBRANCH   3   4
ENDBRANCH   2   3
ENDBRANCH   1   2
BRANCH   1  76
ATOM     76  C   UNL A   1      35.265  21.487  24.662  1.00  0.00     0.188 C 
BRANCH  76  77
ATOM     77  O   UNL A   1      34.226  22.457  24.641  1.00  0.00    -0.376 OA
BRANCH  77  78
ATOM     78  C   UNL A   1      33.880  23.024  23.382  1.00  0.00     0.202 C 
BRANCH  78  79
ATOM     79  C   UNL A   1      32.436  22.890  22.851  1.00  0.00     0.261 C 
BRANCH  79  80
ATOM     80  O   UNL A   1      31.686  24.102  22.621  1.00  0.00    -0.459 OA
BRANCH  80  81
ATOM     81  C   UNL A   1      31.235  24.665  23.770  1.00  0.00     0.365 C 
ATOM     82  O   UNL A   1      30.732  24.001  24.680  1.00  0.00    -0.245 OA
BRANCH  81  83
ATOM     83  C   UNL A   1      31.253  26.206  23.843  1.00  0.00     0.298 C 
ATOM     84  C   UNL A   1      30.421  27.050  22.836  1.00  0.00     0.115 C 
ATOM     85  N   UNL A   1      31.031  26.514  25.285  1.00  0.00    -0.323 N 
ATOM     86  C   UNL A   1      30.357  28.489  23.306  1.00  0.00    -0.006 A 
ATOM     87  C   UNL A   1      31.278  27.904  25.654  1.00  0.00     0.264 C 
ATOM     88  H   UNL A   1      31.653  25.923  25.836  1.00  0.00     0.347 HD
ATOM     89  H   UNL A   1      30.043  26.337  25.470  1.00  0.00     0.347 HD
ATOM     90  C   UNL A   1      30.724  28.806  24.602  1.00  0.00     0.083 A 
ATOM     91  C   UNL A   1      29.850  29.700  22.720  1.00  0.00     0.003 A 
ATOM     92  N   UNL A   1      30.405  30.114  24.833  1.00  0.00    -0.353 N 
ATOM     93  C   UNL A   1      29.764  30.645  23.745  1.00  0.00     0.046 A 
ATOM     94  C   UNL A   1      29.375  30.096  21.456  1.00  0.00     0.010 A 
ATOM     95  H   UNL A   1      30.607  30.604  25.663  1.00  0.00     0.166 HD
ATOM     96  C   UNL A   1      29.101  31.874  23.617  1.00  0.00     0.026 A 
ATOM     97  C   UNL A   1      28.688  31.316  21.312  1.00  0.00     0.001 A 
ATOM     98  C   UNL A   1      28.516  32.173  22.392  1.00  0.00     0.002 A 
BRANCH  87  99
ATOM     99  C   UNL A   1      32.721  28.232  25.978  1.00  0.00     0.041 A 
ATOM    100  C   UNL A   1      33.750  27.350  25.668  1.00  0.00     0.093 A 
ATOM    101  C   UNL A   1      33.366  29.360  26.615  1.00  0.00     0.009 A 
ATOM    102  N   UNL A   1      34.921  27.824  26.176  1.00  0.00    -0.361 N 
ATOM    103  C   UNL A   1      34.710  29.021  26.809  1.00  0.00     0.046 A 
ATOM    104  C   UNL A   1      32.978  30.639  27.071  1.00  0.00     0.011 A 
ATOM    105  H   UNL A   1      35.792  27.372  26.100  1.00  0.00     0.166 HD
ATOM    106  C   UNL A   1      35.615  29.832  27.511  1.00  0.00     0.026 A 
ATOM    107  C   UNL A   1      33.855  31.460  27.786  1.00  0.00     0.001 A 
ATOM    108  C   UNL A   1      35.156  31.049  28.018  1.00  0.00     0.002 A 
ENDBRANCH  87  99
ENDBRANCH  81  83
ENDBRANCH  80  81
ENDBRANCH  79  80
ENDBRANCH  78  79
ENDBRANCH  77  78
ENDBRANCH  76  77
ENDBRANCH   1  76
TORSDOF 21
ENDMDL
MODEL 3
REMARK VINA RESULT:     -11.4      1.277      3.624
REMARK SMILES O=C(OCCOCCOCCOC(=O)[C@H]1Cc2c([nH]c3ccccc23)[C@H](c2c[nH]c3ccccc23)[NH2+]1)c1ccc(-c2c3nc(c(-c4c(F)cc(S(=O)(=O)[O-])cc4F)c4ccc([nH]4)c(-c4c(F)cc(S(=O)(=O)[O-])cc4F)c4nc(c(-c5c(F)cc(S(=O)(=O)[O-])cc5F)c5ccc2[nH]5)C=C4)C=C3)cc1
REMARK SMILES IDX 7 1 6 2 5 3 4 4 3 5 2 6 1 7 37 8 38 9 102 10 39 11 101 12
REMARK SMILES IDX 40 13 41 14 42 15 95 16 43 17 100 18 94 19 96 20 44 21 99 22
REMARK SMILES IDX 93 23 92 24 45 26 79 27 58 28 78 29 59 30 62 31 77 32 97 33
REMARK SMILES IDX 60 34 61 35 76 37 98 38 63 39 46 40 47 41 56 42 48 43 49 44
REMARK SMILES IDX 55 45 57 46 50 47 51 48 52 49 53 50 54 51 80 52 81 53 90 54
REMARK SMILES IDX 82 55 83 56 89 57 91 58 84 59 85 60 86 61 87 62 88 63 64 64
REMARK SMILES IDX 65 65 74 66 66 67 67 68 73 69 75 70 68 71 69 72 70 73 71 74
REMARK SMILES IDX 72 75 8 76 9 77 10 78 11 79 12 80 13 81 14 82 15 83 16 84
REMARK SMILES IDX 36 85 17 86 26 87 18 90 25 91 19 92 20 93 24 94 21 96 23 97
REMARK SMILES IDX 22 98 27 99 28 100 35 101 29 102 30 103 34 104 31 106 33 107
REMARK SMILES IDX 32 108
REMARK H PARENT 96 25 62 36 36 88 36 89 19 95 29 105
REMARK Flexibility Score: inf
ROOT
ATOM      1  C   UNL A   1      42.749  23.698  28.163  1.00  0.00     0.188 C 
ENDROOT
BRANCH   1   2
ATOM      2  O   UNL A   1      44.130  24.053  28.096  1.00  0.00    -0.376 OA
BRANCH   2   3
ATOM      3  C   UNL A   1      44.621  24.350  26.785  1.00  0.00     0.202 C 
BRANCH   3   4
ATOM      4  C   UNL A   1      43.561  24.755  25.749  1.00  0.00     0.261 C 
BRANCH   4   5
ATOM      5  O   UNL A   1      43.773  26.064  25.202  1.00  0.00    -0.460 OA
BRANCH   5   6
ATOM      6  C   UNL A   1      42.993  27.157  25.395  1.00  0.00     0.338 C 
ATOM      7  O   UNL A   1      42.632  27.803  24.413  1.00  0.00    -0.246 OA
BRANCH   6   8
ATOM      8  C   UNL A   1      42.549  27.618  26.746  1.00  0.00     0.060 A 
ATOM      9  C   UNL A   1      41.542  27.033  27.519  1.00  0.00     0.016 A 
ATOM     10  C   UNL A   1      43.267  28.669  27.314  1.00  0.00     0.016 A 
ATOM     11  C   UNL A   1      41.203  27.492  28.789  1.00  0.00     0.010 A 
ATOM     12  C   UNL A   1      42.966  29.097  28.610  1.00  0.00     0.010 A 
ATOM     13  C   UNL A   1      41.935  28.507  29.371  1.00  0.00    -0.014 A 
BRANCH  13  14
ATOM     14  C   UNL A   1      41.570  29.058  30.704  1.00  0.00     0.031 A 
ATOM     15  C   UNL A   1      40.439  30.043  30.723  1.00  0.00     0.074 A 
ATOM     16  C   UNL A   1      42.199  28.714  31.852  1.00  0.00     0.049 A 
ATOM     17  N   UNL A   1      40.064  30.864  31.661  1.00  0.00    -0.248 NA
ATOM     18  C   UNL A   1      39.607  30.105  29.503  1.00  0.00     0.031 C 
ATOM     19  C   UNL A   1      43.177  27.640  32.018  1.00  0.00     0.029 A 
ATOM     20  N   UNL A   1      42.145  29.274  33.109  1.00  0.00    -0.354 N 
ATOM     21  C   UNL A   1      38.963  31.530  31.144  1.00  0.00     0.074 A 
ATOM     22  C   UNL A   1      38.797  31.111  29.774  1.00  0.00     0.031 C 
ATOM     23  C   UNL A   1      43.726  27.701  33.242  1.00  0.00     0.029 A 
ATOM     24  C   UNL A   1      43.141  28.817  33.955  1.00  0.00     0.049 A 
ATOM     25  H   UNL A   1      41.466  29.933  33.380  1.00  0.00     0.167 HD
ATOM     26  C   UNL A   1      38.119  32.364  31.788  1.00  0.00     0.037 A 
ATOM     27  C   UNL A   1      43.558  29.282  35.149  1.00  0.00     0.037 A 
ATOM     28  C   UNL A   1      38.284  32.716  33.167  1.00  0.00     0.049 A 
ATOM     29  C   UNL A   1      42.745  30.374  35.772  1.00  0.00     0.074 A 
ATOM     30  C   UNL A   1      37.477  33.510  33.957  1.00  0.00     0.029 A 
ATOM     31  N   UNL A   1      39.339  32.285  33.963  1.00  0.00    -0.354 N 
ATOM     32  N   UNL A   1      41.709  31.007  35.277  1.00  0.00    -0.248 NA
ATOM     33  C   UNL A   1      43.108  30.768  37.137  1.00  0.00     0.031 C 
ATOM     34  C   UNL A   1      38.078  33.608  35.216  1.00  0.00     0.029 A 
ATOM     35  C   UNL A   1      39.227  32.830  35.226  1.00  0.00     0.049 A 
ATOM     36  H   UNL A   1      40.059  31.682  33.668  1.00  0.00     0.167 HD
ATOM     37  C   UNL A   1      41.244  31.819  36.297  1.00  0.00     0.074 A 
ATOM     38  C   UNL A   1      42.142  31.628  37.421  1.00  0.00     0.031 C 
ATOM     39  C   UNL A   1      40.148  32.614  36.316  1.00  0.00     0.037 A 
BRANCH  26  40
ATOM     40  C   UNL A   1      36.971  32.918  30.998  1.00  0.00     0.058 A 
ATOM     41  C   UNL A   1      37.142  33.965  30.075  1.00  0.00     0.135 A 
ATOM     42  C   UNL A   1      35.673  32.425  31.196  1.00  0.00     0.135 A 
ATOM     43  F   UNL A   1      38.357  34.501  29.875  1.00  0.00    -0.206 F 
ATOM     44  C   UNL A   1      36.062  34.526  29.404  1.00  0.00     0.059 A 
ATOM     45  C   UNL A   1      34.582  32.951  30.512  1.00  0.00     0.059 A 
ATOM     46  F   UNL A   1      35.453  31.439  32.080  1.00  0.00    -0.206 F 
ATOM     47  C   UNL A   1      34.785  34.010  29.629  1.00  0.00     0.060 A 
BRANCH  47  48
ATOM     48  S   UNL A   1      33.395  34.749  28.745  1.00  0.00     0.124 S 
ATOM     49  O   UNL A   1      34.034  35.886  28.094  1.00  0.00    -0.237 OA
ATOM     50  O   UNL A   1      32.976  33.666  27.866  1.00  0.00    -0.237 OA
ATOM     51  O   UNL A   1      32.456  35.085  29.815  1.00  0.00    -0.744 OA
ENDBRANCH  47  48
ENDBRANCH  26  40
BRANCH  27  52
ATOM     52  C   UNL A   1      44.769  28.750  35.835  1.00  0.00     0.058 A 
ATOM     53  C   UNL A   1      44.705  27.709  36.771  1.00  0.00     0.135 A 
ATOM     54  C   UNL A   1      46.029  29.321  35.604  1.00  0.00     0.135 A 
ATOM     55  F   UNL A   1      43.521  27.162  37.080  1.00  0.00    -0.206 F 
ATOM     56  C   UNL A   1      45.846  27.240  37.428  1.00  0.00     0.059 A 
ATOM     57  C   UNL A   1      47.184  28.859  36.226  1.00  0.00     0.059 A 
ATOM     58  F   UNL A   1      46.157  30.360  34.771  1.00  0.00    -0.206 F 
ATOM     59  C   UNL A   1      47.084  27.818  37.142  1.00  0.00     0.060 A 
BRANCH  59  60
ATOM     60  S   UNL A   1      48.585  27.187  37.930  1.00  0.00     0.124 S 
ATOM     61  O   UNL A   1      48.031  26.346  38.985  1.00  0.00    -0.237 OA
ATOM     62  O   UNL A   1      49.247  26.488  36.834  1.00  0.00    -0.237 OA
ATOM     63  O   UNL A   1      49.251  28.408  38.378  1.00  0.00    -0.744 OA
ENDBRANCH  59  60
ENDBRANCH  27  52
BRANCH  39  64
ATOM     64  C   UNL A   1      39.834  33.292  37.611  1.00  0.00     0.058 A 
ATOM     65  C   UNL A   1      40.457  34.491  37.980  1.00  0.00     0.135 A 
ATOM     66  C   UNL A   1      38.840  32.767  38.450  1.00  0.00     0.135 A 
ATOM     67  F   UNL A   1      41.427  35.015  37.214  1.00  0.00    -0.206 F 
ATOM     68  C   UNL A   1      40.106  35.149  39.150  1.00  0.00     0.059 A 
ATOM     69  C   UNL A   1      38.449  33.425  39.607  1.00  0.00     0.059 A 
ATOM     70  F   UNL A   1      38.217  31.621  38.130  1.00  0.00    -0.206 F 
ATOM     71  C   UNL A   1      39.092  34.614  39.949  1.00  0.00     0.060 A 
BRANCH  71  72
ATOM     72  S   UNL A   1      38.594  35.521  41.424  1.00  0.00     0.124 S 
ATOM     73  O   UNL A   1      37.191  35.138  41.543  1.00  0.00    -0.237 OA
ATOM     74  O   UNL A   1      39.489  34.977  42.439  1.00  0.00    -0.237 OA
ATOM     75  O   UNL A   1      38.836  36.915  41.064  1.00  0.00    -0.744 OA
ENDBRANCH  71  72
ENDBRANCH  39  64
ENDBRANCH  13  14
ENDBRANCH   6   8
ENDBRANCH   5   6
ENDBRANCH   4   5
ENDBRANCH   3   4
ENDBRANCH   2   3
ENDBRANCH   1   2
BRANCH   1  76
ATOM     76  C   UNL A   1      42.512  22.211  27.890  1.00  0.00     0.188 C 
BRANCH  76  77
ATOM     77  O   UNL A   1      41.954  21.861  26.629  1.00  0.00    -0.376 OA
BRANCH  77  78
ATOM     78  C   UNL A   1      40.764  21.082  26.630  1.00  0.00     0.202 C 
BRANCH  78  79
ATOM     79  C   UNL A   1      39.388  21.782  26.585  1.00  0.00     0.261 C 
BRANCH  79  80
ATOM     80  O   UNL A   1      38.827  22.085  25.290  1.00  0.00    -0.459 OA
BRANCH  80  81
ATOM     81  C   UNL A   1      37.639  22.737  25.373  1.00  0.00     0.365 C 
ATOM     82  O   UNL A   1      37.533  23.861  25.870  1.00  0.00    -0.245 OA
BRANCH  81  83
ATOM     83  C   UNL A   1      36.383  21.953  24.936  1.00  0.00     0.298 C 
ATOM     84  C   UNL A   1      36.381  20.399  24.957  1.00  0.00     0.115 C 
ATOM     85  N   UNL A   1      35.261  22.612  25.663  1.00  0.00    -0.323 N 
ATOM     86  C   UNL A   1      34.965  19.888  24.792  1.00  0.00    -0.006 A 
ATOM     87  C   UNL A   1      33.930  22.225  25.205  1.00  0.00     0.264 C 
ATOM     88  H   UNL A   1      35.355  23.621  25.548  1.00  0.00     0.347 HD
ATOM     89  H   UNL A   1      35.331  22.312  26.636  1.00  0.00     0.347 HD
ATOM     90  C   UNL A   1      33.898  20.754  24.952  1.00  0.00     0.083 A 
ATOM     91  C   UNL A   1      34.400  18.578  24.611  1.00  0.00     0.003 A 
ATOM     92  N   UNL A   1      32.743  20.025  24.940  1.00  0.00    -0.353 N 
ATOM     93  C   UNL A   1      33.029  18.688  24.854  1.00  0.00     0.046 A 
ATOM     94  C   UNL A   1      34.892  17.286  24.348  1.00  0.00     0.010 A 
ATOM     95  H   UNL A   1      31.836  20.406  24.986  1.00  0.00     0.166 HD
ATOM     96  C   UNL A   1      32.174  17.586  25.001  1.00  0.00     0.026 A 
ATOM     97  C   UNL A   1      34.055  16.165  24.511  1.00  0.00     0.001 A 
ATOM     98  C   UNL A   1      32.723  16.315  24.876  1.00  0.00     0.002 A 
BRANCH  87  99
ATOM     99  C   UNL A   1      33.408  23.014  24.023  1.00  0.00     0.041 A 
ATOM    100  C   UNL A   1      32.812  22.382  22.937  1.00  0.00     0.093 A 
ATOM    101  C   UNL A   1      33.386  24.425  23.700  1.00  0.00     0.009 A 
ATOM    102  N   UNL A   1      32.551  23.299  21.965  1.00  0.00    -0.361 N 
ATOM    103  C   UNL A   1      32.942  24.547  22.378  1.00  0.00     0.046 A 
ATOM    104  C   UNL A   1      33.699  25.633  24.361  1.00  0.00     0.011 A 
ATOM    105  H   UNL A   1      32.142  23.096  21.093  1.00  0.00     0.166 HD
ATOM    106  C   UNL A   1      32.908  25.767  21.687  1.00  0.00     0.026 A 
ATOM    107  C   UNL A   1      33.689  26.860  23.692  1.00  0.00     0.001 A 
ATOM    108  C   UNL A   1      33.314  26.920  22.361  1.00  0.00     0.002 A 
ENDBRANCH  87  99
ENDBRANCH  81  83
ENDBRANCH  80  81
ENDBRANCH  79  80
ENDBRANCH  78  79
ENDBRANCH  77  78
ENDBRANCH  76  77
ENDBRANCH   1  76
TORSDOF 21
ENDMDL
