MODEL 1
REMARK VINA RESULT:     -10.1      0.000      0.000
REMARK SMILES CC(C)CN(C)c1cc2c(cc1Cl)C=C(C(=O)OCCOCCOCCOC(=O)c1ccc(-c3c4nc(c(-c5c(F)cc(S(=O)(=O)[O-])cc5F)c5ccc([nH]5)c(-c5c(F)cc(S(=O)(=O)[O-])cc5F)c5nc(c(-c6c(F)cc(S(=O)(=O)[O-])cc6F)c6ccc3[nH]6)C=C5)C=C4)cc1)[C@@H](C(F)(F)F)O2
REMARK SMILES IDX 22 1 21 2 20 3 19 4 18 5 16 6 17 7 15 8 7 9 8 10 12 11 9 12
REMARK SMILES IDX 11 13 13 14 10 15 101 16 14 17 96 18 5 19 6 20 4 21 2 22
REMARK SMILES IDX 1 23 3 24 97 25 98 26 99 27 100 28 23 29 24 30 25 31 26 32
REMARK SMILES IDX 27 33 28 34 29 35 30 36 31 37 95 38 32 39 94 40 33 41 34 42
REMARK SMILES IDX 35 43 88 44 36 45 93 46 87 47 89 48 37 49 92 50 86 51 85 52
REMARK SMILES IDX 38 54 72 55 51 56 71 57 52 58 55 59 70 60 90 61 53 62 54 63
REMARK SMILES IDX 69 65 91 66 56 67 39 68 40 69 49 70 41 71 42 72 48 73 50 74
REMARK SMILES IDX 43 75 44 76 45 77 46 78 47 79 73 80 74 81 83 82 75 83 76 84
REMARK SMILES IDX 82 85 84 86 77 87 78 88 79 89 80 90 81 91 57 92 58 93 67 94
REMARK SMILES IDX 59 95 60 96 66 97 68 98 61 99 62 100 63 101 64 102 65 103
REMARK H PARENT 89 53 55 64
REMARK Flexibility Score: inf
ROOT
ATOM      1  C   UNL A   1      32.473  31.772  27.605  1.00  0.00     0.188 C 
ENDROOT
BRANCH   1   2
ATOM      2  O   UNL A   1      31.814  31.698  26.364  1.00  0.00    -0.376 OA
BRANCH   2   3
ATOM      3  C   UNL A   1      31.451  30.440  25.824  1.00  0.00     0.202 C 
BRANCH   3   4
ATOM      4  C   UNL A   1      31.919  29.076  26.374  1.00  0.00     0.261 C 
BRANCH   4   5
ATOM      5  O   UNL A   1      33.167  28.556  25.901  1.00  0.00    -0.460 OA
BRANCH   5   6
ATOM      6  C   UNL A   1      33.105  27.891  24.725  1.00  0.00     0.338 C 
ATOM      7  O   UNL A   1      33.142  28.389  23.612  1.00  0.00    -0.246 OA
BRANCH   6   8
ATOM      8  C   UNL A   1      33.129  26.435  24.960  1.00  0.00     0.087 C 
ATOM      9  C   UNL A   1      34.562  21.608  24.973  1.00  0.00     0.059 A 
ATOM     10  C   UNL A   1      33.356  22.272  25.288  1.00  0.00     0.074 A 
ATOM     11  C   UNL A   1      35.666  22.418  24.624  1.00  0.00     0.065 A 
ATOM     12  C   UNL A   1      33.266  23.673  25.264  1.00  0.00     0.130 A 
ATOM     13  C   UNL A   1      35.612  23.807  24.733  1.00  0.00     0.034 A 
ATOM     14  Cl  UNL A   1      37.110  21.779  23.915  1.00  0.00    -0.082 Cl
ATOM     15  C   UNL A   1      34.409  24.435  25.038  1.00  0.00     0.019 A 
ATOM     16  O   UNL A   1      32.035  24.243  25.467  1.00  0.00    -0.475 OA
ATOM     17  C   UNL A   1      34.344  25.881  25.014  1.00  0.00     0.027 C 
ATOM     18  C   UNL A   1      31.856  25.638  25.054  1.00  0.00     0.316 C 
BRANCH   9  19
ATOM     19  N   UNL A   1      34.639  20.211  24.960  1.00  0.00    -0.373 N 
ATOM     20  C   UNL A   1      35.980  19.641  25.007  1.00  0.00     0.143 C 
BRANCH  19  21
ATOM     21  C   UNL A   1      33.577  19.427  24.291  1.00  0.00     0.119 C 
BRANCH  21  22
ATOM     22  C   UNL A   1      33.741  17.900  24.453  1.00  0.00     0.002 C 
ATOM     23  C   UNL A   1      32.772  17.327  25.492  1.00  0.00     0.009 C 
ATOM     24  C   UNL A   1      33.538  17.153  23.132  1.00  0.00     0.009 C 
ENDBRANCH  21  22
ENDBRANCH  19  21
ENDBRANCH   9  19
BRANCH  18  25
ATOM     25  C   UNL A   1      31.060  25.718  23.744  1.00  0.00     0.430 C 
ATOM     26  F   UNL A   1      31.857  25.536  22.664  1.00  0.00    -0.167 F 
ATOM     27  F   UNL A   1      30.109  24.751  23.688  1.00  0.00    -0.167 F 
ATOM     28  F   UNL A   1      30.435  26.907  23.592  1.00  0.00    -0.167 F 
ENDBRANCH  18  25
ENDBRANCH   6   8
ENDBRANCH   5   6
ENDBRANCH   4   5
ENDBRANCH   3   4
ENDBRANCH   2   3
ENDBRANCH   1   2
BRANCH   1  29
ATOM     29  C   UNL A   1      33.423  32.984  27.733  1.00  0.00     0.188 C 
BRANCH  29  30
ATOM     30  O   UNL A   1      34.528  32.929  28.624  1.00  0.00    -0.376 OA
BRANCH  30  31
ATOM     31  C   UNL A   1      35.742  33.577  28.255  1.00  0.00     0.202 C 
BRANCH  31  32
ATOM     32  C   UNL A   1      37.083  33.212  28.918  1.00  0.00     0.261 C 
BRANCH  32  33
ATOM     33  O   UNL A   1      37.011  32.690  30.253  1.00  0.00    -0.460 OA
BRANCH  33  34
ATOM     34  C   UNL A   1      36.926  31.334  30.355  1.00  0.00     0.338 C 
ATOM     35  O   UNL A   1      35.941  30.679  30.612  1.00  0.00    -0.246 OA
BRANCH  34  36
ATOM     36  C   UNL A   1      38.204  30.748  29.887  1.00  0.00     0.060 A 
ATOM     37  C   UNL A   1      38.323  30.236  28.596  1.00  0.00     0.016 A 
ATOM     38  C   UNL A   1      39.296  30.711  30.769  1.00  0.00     0.016 A 
ATOM     39  C   UNL A   1      39.545  29.700  28.183  1.00  0.00     0.010 A 
ATOM     40  C   UNL A   1      40.510  30.153  30.360  1.00  0.00     0.010 A 
ATOM     41  C   UNL A   1      40.651  29.664  29.055  1.00  0.00    -0.014 A 
BRANCH  41  42
ATOM     42  C   UNL A   1      41.986  29.272  28.536  1.00  0.00     0.031 A 
ATOM     43  C   UNL A   1      43.127  30.243  28.454  1.00  0.00     0.074 A 
ATOM     44  C   UNL A   1      42.157  27.993  28.149  1.00  0.00     0.049 A 
ATOM     45  N   UNL A   1      44.372  30.016  28.119  1.00  0.00    -0.248 NA
ATOM     46  C   UNL A   1      42.840  31.647  28.783  1.00  0.00     0.031 C 
ATOM     47  C   UNL A   1      41.110  26.970  28.157  1.00  0.00     0.029 A 
ATOM     48  N   UNL A   1      43.268  27.329  27.694  1.00  0.00    -0.354 N 
ATOM     49  C   UNL A   1      45.030  31.234  28.232  1.00  0.00     0.074 A 
ATOM     50  C   UNL A   1      44.030  32.212  28.610  1.00  0.00     0.031 C 
ATOM     51  C   UNL A   1      41.637  25.800  27.769  1.00  0.00     0.029 A 
ATOM     52  C   UNL A   1      43.049  25.993  27.457  1.00  0.00     0.049 A 
ATOM     53  H   UNL A   1      44.137  27.768  27.551  1.00  0.00     0.167 HD
ATOM     54  C   UNL A   1      46.349  31.499  28.062  1.00  0.00     0.037 A 
ATOM     55  C   UNL A   1      43.893  25.027  27.044  1.00  0.00     0.037 A 
ATOM     56  C   UNL A   1      47.333  30.519  27.666  1.00  0.00     0.049 A 
ATOM     57  C   UNL A   1      45.338  25.368  26.800  1.00  0.00     0.074 A 
ATOM     58  C   UNL A   1      48.696  30.694  27.487  1.00  0.00     0.029 A 
ATOM     59  N   UNL A   1      47.065  29.187  27.382  1.00  0.00    -0.354 N 
ATOM     60  N   UNL A   1      45.956  26.511  26.977  1.00  0.00    -0.248 NA
ATOM     61  C   UNL A   1      46.202  24.287  26.306  1.00  0.00     0.031 C 
ATOM     62  C   UNL A   1      49.243  29.486  27.047  1.00  0.00     0.029 A 
ATOM     63  C   UNL A   1      48.232  28.538  27.004  1.00  0.00     0.049 A 
ATOM     64  H   UNL A   1      46.178  28.765  27.438  1.00  0.00     0.167 HD
ATOM     65  C   UNL A   1      47.286  26.279  26.641  1.00  0.00     0.074 A 
ATOM     66  C   UNL A   1      47.385  24.883  26.269  1.00  0.00     0.031 C 
ATOM     67  C   UNL A   1      48.328  27.147  26.640  1.00  0.00     0.037 A 
BRANCH  54  68
ATOM     68  C   UNL A   1      46.833  32.900  28.329  1.00  0.00     0.058 A 
ATOM     69  C   UNL A   1      47.378  33.252  29.574  1.00  0.00     0.135 A 
ATOM     70  C   UNL A   1      46.867  33.862  27.305  1.00  0.00     0.135 A 
ATOM     71  F   UNL A   1      47.365  32.375  30.590  1.00  0.00    -0.206 F 
ATOM     72  C   UNL A   1      47.934  34.507  29.797  1.00  0.00     0.059 A 
ATOM     73  C   UNL A   1      47.440  35.116  27.499  1.00  0.00     0.059 A 
ATOM     74  F   UNL A   1      46.365  33.577  26.093  1.00  0.00    -0.206 F 
ATOM     75  C   UNL A   1      47.970  35.430  28.750  1.00  0.00     0.060 A 
BRANCH  75  76
ATOM     76  S   UNL A   1      48.735  37.037  29.052  1.00  0.00     0.124 S 
ATOM     77  O   UNL A   1      49.596  36.742  30.194  1.00  0.00    -0.237 OA
ATOM     78  O   UNL A   1      49.422  37.295  27.791  1.00  0.00    -0.237 OA
ATOM     79  O   UNL A   1      47.599  37.910  29.335  1.00  0.00    -0.744 OA
ENDBRANCH  75  76
ENDBRANCH  54  68
BRANCH  55  80
ATOM     80  C   UNL A   1      43.400  23.636  26.867  1.00  0.00     0.058 A 
ATOM     81  C   UNL A   1      43.206  22.794  27.972  1.00  0.00     0.135 A 
ATOM     82  C   UNL A   1      43.114  23.118  25.594  1.00  0.00     0.135 A 
ATOM     83  F   UNL A   1      43.469  23.242  29.210  1.00  0.00    -0.206 F 
ATOM     84  C   UNL A   1      42.770  21.482  27.822  1.00  0.00     0.059 A 
ATOM     85  C   UNL A   1      42.649  21.820  25.420  1.00  0.00     0.059 A 
ATOM     86  F   UNL A   1      43.266  23.888  24.505  1.00  0.00    -0.206 F 
ATOM     87  C   UNL A   1      42.493  21.005  26.540  1.00  0.00     0.060 A 
BRANCH  87  88
ATOM     88  S   UNL A   1      41.908  19.307  26.360  1.00  0.00     0.124 S 
ATOM     89  O   UNL A   1      40.523  19.515  25.952  1.00  0.00    -0.237 OA
ATOM     90  O   UNL A   1      42.804  18.784  25.334  1.00  0.00    -0.237 OA
ATOM     91  O   UNL A   1      42.095  18.744  27.694  1.00  0.00    -0.744 OA
ENDBRANCH  87  88
ENDBRANCH  55  80
BRANCH  67  92
ATOM     92  C   UNL A   1      49.679  26.615  26.240  1.00  0.00     0.058 A 
ATOM     93  C   UNL A   1      50.172  26.763  24.935  1.00  0.00     0.135 A 
ATOM     94  C   UNL A   1      50.518  26.006  27.190  1.00  0.00     0.135 A 
ATOM     95  F   UNL A   1      49.410  27.328  23.985  1.00  0.00    -0.206 F 
ATOM     96  C   UNL A   1      51.439  26.313  24.579  1.00  0.00     0.059 A 
ATOM     97  C   UNL A   1      51.801  25.577  26.864  1.00  0.00     0.059 A 
ATOM     98  F   UNL A   1      50.100  25.845  28.456  1.00  0.00    -0.206 F 
ATOM     99  C   UNL A   1      52.250  25.727  25.554  1.00  0.00     0.060 A 
BRANCH  99 100
ATOM    100  S   UNL A   1      53.909  25.192  25.085  1.00  0.00     0.124 S 
ATOM    101  O   UNL A   1      53.718  23.755  24.913  1.00  0.00    -0.237 OA
ATOM    102  O   UNL A   1      54.145  25.951  23.861  1.00  0.00    -0.237 OA
ATOM    103  O   UNL A   1      54.731  25.581  26.227  1.00  0.00    -0.744 OA
ENDBRANCH  99 100
ENDBRANCH  67  92
ENDBRANCH  41  42
ENDBRANCH  34  36
ENDBRANCH  33  34
ENDBRANCH  32  33
ENDBRANCH  31  32
ENDBRANCH  30  31
ENDBRANCH  29  30
ENDBRANCH   1  29
TORSDOF 24
ENDMDL
MODEL 2
REMARK VINA RESULT:      -9.8      2.939      9.229
REMARK SMILES CC(C)CN(C)c1cc2c(cc1Cl)C=C(C(=O)OCCOCCOCCOC(=O)c1ccc(-c3c4nc(c(-c5c(F)cc(S(=O)(=O)[O-])cc5F)c5ccc([nH]5)c(-c5c(F)cc(S(=O)(=O)[O-])cc5F)c5nc(c(-c6c(F)cc(S(=O)(=O)[O-])cc6F)c6ccc3[nH]6)C=C5)C=C4)cc1)[C@@H](C(F)(F)F)O2
REMARK SMILES IDX 22 1 21 2 20 3 19 4 18 5 16 6 17 7 15 8 7 9 8 10 12 11 9 12
REMARK SMILES IDX 11 13 13 14 10 15 101 16 14 17 96 18 5 19 6 20 4 21 2 22
REMARK SMILES IDX 1 23 3 24 97 25 98 26 99 27 100 28 23 29 24 30 25 31 26 32
REMARK SMILES IDX 27 33 28 34 29 35 30 36 31 37 95 38 32 39 94 40 33 41 34 42
REMARK SMILES IDX 35 43 88 44 36 45 93 46 87 47 89 48 37 49 92 50 86 51 85 52
REMARK SMILES IDX 38 54 72 55 51 56 71 57 52 58 55 59 70 60 90 61 53 62 54 63
REMARK SMILES IDX 69 65 91 66 56 67 39 68 40 69 49 70 41 71 42 72 48 73 50 74
REMARK SMILES IDX 43 75 44 76 45 77 46 78 47 79 73 80 74 81 83 82 75 83 76 84
REMARK SMILES IDX 82 85 84 86 77 87 78 88 79 89 80 90 81 91 57 92 58 93 67 94
REMARK SMILES IDX 59 95 60 96 66 97 68 98 61 99 62 100 63 101 64 102 65 103
REMARK H PARENT 89 53 55 64
REMARK Flexibility Score: inf
ROOT
ATOM      1  C   UNL A   1      35.647  24.103  25.711  1.00  0.00     0.188 C 
ENDROOT
BRANCH   1   2
ATOM      2  O   UNL A   1      36.459  23.708  24.632  1.00  0.00    -0.376 OA
BRANCH   2   3
ATOM      3  C   UNL A   1      36.236  22.464  23.991  1.00  0.00     0.202 C 
BRANCH   3   4
ATOM      4  C   UNL A   1      35.415  21.300  24.586  1.00  0.00     0.261 C 
BRANCH   4   5
ATOM      5  O   UNL A   1      34.061  21.565  24.970  1.00  0.00    -0.460 OA
BRANCH   5   6
ATOM      6  C   UNL A   1      33.135  21.334  24.012  1.00  0.00     0.338 C 
ATOM      7  O   UNL A   1      32.874  20.255  23.506  1.00  0.00    -0.246 OA
BRANCH   6   8
ATOM      8  C   UNL A   1      32.358  22.559  23.746  1.00  0.00     0.087 C 
ATOM      9  C   UNL A   1      31.154  27.346  22.750  1.00  0.00     0.059 A 
ATOM     10  C   UNL A   1      30.418  26.222  23.185  1.00  0.00     0.074 A 
ATOM     11  C   UNL A   1      32.521  27.142  22.457  1.00  0.00     0.065 A 
ATOM     12  C   UNL A   1      31.019  24.959  23.309  1.00  0.00     0.130 A 
ATOM     13  C   UNL A   1      33.080  25.864  22.451  1.00  0.00     0.034 A 
ATOM     14  Cl  UNL A   1      33.633  28.446  22.217  1.00  0.00    -0.082 Cl
ATOM     15  C   UNL A   1      32.335  24.776  22.891  1.00  0.00     0.019 A 
ATOM     16  O   UNL A   1      30.274  23.941  23.848  1.00  0.00    -0.475 OA
ATOM     17  C   UNL A   1      32.976  23.483  23.003  1.00  0.00     0.027 C 
ATOM     18  C   UNL A   1      30.992  22.763  24.345  1.00  0.00     0.316 C 
BRANCH   9  19
ATOM     19  N   UNL A   1      30.562  28.611  22.662  1.00  0.00    -0.373 N 
ATOM     20  C   UNL A   1      31.246  29.690  23.365  1.00  0.00     0.143 C 
BRANCH  19  21
ATOM     21  C   UNL A   1      29.097  28.720  22.484  1.00  0.00     0.119 C 
BRANCH  21  22
ATOM     22  C   UNL A   1      28.586  30.177  22.453  1.00  0.00     0.002 C 
ATOM     23  C   UNL A   1      28.035  30.563  21.077  1.00  0.00     0.009 C 
ATOM     24  C   UNL A   1      27.499  30.431  23.502  1.00  0.00     0.009 C 
ENDBRANCH  21  22
ENDBRANCH  19  21
ENDBRANCH   9  19
BRANCH  18  25
ATOM     25  C   UNL A   1      31.061  22.778  25.879  1.00  0.00     0.430 C 
ATOM     26  F   UNL A   1      29.830  22.684  26.434  1.00  0.00    -0.167 F 
ATOM     27  F   UNL A   1      31.777  21.725  26.348  1.00  0.00    -0.167 F 
ATOM     28  F   UNL A   1      31.638  23.902  26.357  1.00  0.00    -0.167 F 
ENDBRANCH  18  25
ENDBRANCH   6   8
ENDBRANCH   5   6
ENDBRANCH   4   5
ENDBRANCH   3   4
ENDBRANCH   2   3
ENDBRANCH   1   2
BRANCH   1  29
ATOM     29  C   UNL A   1      34.779  25.346  25.412  1.00  0.00     0.188 C 
BRANCH  29  30
ATOM     30  O   UNL A   1      33.856  25.818  26.383  1.00  0.00    -0.376 OA
BRANCH  30  31
ATOM     31  C   UNL A   1      33.087  26.981  26.093  1.00  0.00     0.202 C 
BRANCH  31  32
ATOM     32  C   UNL A   1      33.396  28.337  26.758  1.00  0.00     0.261 C 
BRANCH  32  33
ATOM     33  O   UNL A   1      34.775  28.734  26.780  1.00  0.00    -0.460 OA
BRANCH  33  34
ATOM     34  C   UNL A   1      35.104  29.681  27.703  1.00  0.00     0.338 C 
ATOM     35  O   UNL A   1      34.349  30.418  28.298  1.00  0.00    -0.246 OA
BRANCH  34  36
ATOM     36  C   UNL A   1      36.540  29.531  28.037  1.00  0.00     0.060 A 
ATOM     37  C   UNL A   1      36.941  29.219  29.334  1.00  0.00     0.016 A 
ATOM     38  C   UNL A   1      37.494  29.713  27.023  1.00  0.00     0.016 A 
ATOM     39  C   UNL A   1      38.303  29.074  29.613  1.00  0.00     0.010 A 
ATOM     40  C   UNL A   1      38.856  29.590  27.310  1.00  0.00     0.010 A 
ATOM     41  C   UNL A   1      39.270  29.247  28.604  1.00  0.00    -0.014 A 
BRANCH  41  42
ATOM     42  C   UNL A   1      40.687  28.898  28.875  1.00  0.00     0.031 A 
ATOM     43  C   UNL A   1      41.237  27.526  28.611  1.00  0.00     0.074 A 
ATOM     44  C   UNL A   1      41.490  29.867  29.356  1.00  0.00     0.049 A 
ATOM     45  N   UNL A   1      42.475  27.110  28.703  1.00  0.00    -0.248 NA
ATOM     46  C   UNL A   1      40.283  26.488  28.196  1.00  0.00     0.031 C 
ATOM     47  C   UNL A   1      41.057  31.229  29.677  1.00  0.00     0.029 A 
ATOM     48  N   UNL A   1      42.832  29.869  29.641  1.00  0.00    -0.354 N 
ATOM     49  C   UNL A   1      42.460  25.774  28.323  1.00  0.00     0.074 A 
ATOM     50  C   UNL A   1      41.077  25.433  28.055  1.00  0.00     0.031 C 
ATOM     51  C   UNL A   1      42.119  31.944  30.074  1.00  0.00     0.029 A 
ATOM     52  C   UNL A   1      43.302  31.090  30.064  1.00  0.00     0.049 A 
ATOM     53  H   UNL A   1      43.403  29.071  29.551  1.00  0.00     0.167 HD
ATOM     54  C   UNL A   1      43.509  24.925  28.185  1.00  0.00     0.037 A 
ATOM     55  C   UNL A   1      44.546  31.482  30.396  1.00  0.00     0.037 A 
ATOM     56  C   UNL A   1      44.880  25.271  28.474  1.00  0.00     0.049 A 
ATOM     57  C   UNL A   1      45.679  30.496  30.297  1.00  0.00     0.074 A 
ATOM     58  C   UNL A   1      46.011  24.479  28.346  1.00  0.00     0.029 A 
ATOM     59  N   UNL A   1      45.312  26.500  28.953  1.00  0.00    -0.354 N 
ATOM     60  N   UNL A   1      45.657  29.256  29.870  1.00  0.00    -0.248 NA
ATOM     61  C   UNL A   1      47.007  30.965  30.716  1.00  0.00     0.031 C 
ATOM     62  C   UNL A   1      47.115  25.210  28.794  1.00  0.00     0.029 A 
ATOM     63  C   UNL A   1      46.685  26.478  29.149  1.00  0.00     0.049 A 
ATOM     64  H   UNL A   1      44.729  27.274  29.128  1.00  0.00     0.167 HD
ATOM     65  C   UNL A   1      46.971  28.805  29.947  1.00  0.00     0.074 A 
ATOM     66  C   UNL A   1      47.764  29.911  30.441  1.00  0.00     0.031 C 
ATOM     67  C   UNL A   1      47.472  27.584  29.637  1.00  0.00     0.037 A 
BRANCH  54  68
ATOM     68  C   UNL A   1      43.237  23.535  27.671  1.00  0.00     0.058 A 
ATOM     69  C   UNL A   1      42.762  22.529  28.526  1.00  0.00     0.135 A 
ATOM     70  C   UNL A   1      43.333  23.238  26.301  1.00  0.00     0.135 A 
ATOM     71  F   UNL A   1      42.656  22.755  29.845  1.00  0.00    -0.206 F 
ATOM     72  C   UNL A   1      42.397  21.276  28.043  1.00  0.00     0.059 A 
ATOM     73  C   UNL A   1      42.951  22.000  25.793  1.00  0.00     0.059 A 
ATOM     74  F   UNL A   1      43.776  24.166  25.438  1.00  0.00    -0.206 F 
ATOM     75  C   UNL A   1      42.486  21.024  26.673  1.00  0.00     0.060 A 
BRANCH  75  76
ATOM     76  S   UNL A   1      41.966  19.404  26.066  1.00  0.00     0.124 S 
ATOM     77  O   UNL A   1      40.547  19.630  25.808  1.00  0.00    -0.237 OA
ATOM     78  O   UNL A   1      42.805  19.233  24.885  1.00  0.00    -0.237 OA
ATOM     79  O   UNL A   1      42.264  18.509  27.180  1.00  0.00    -0.744 OA
ENDBRANCH  75  76
ENDBRANCH  54  68
BRANCH  55  80
ATOM     80  C   UNL A   1      44.795  32.884  30.824  1.00  0.00     0.058 A 
ATOM     81  C   UNL A   1      44.691  33.254  32.173  1.00  0.00     0.135 A 
ATOM     82  C   UNL A   1      45.141  33.880  29.898  1.00  0.00     0.135 A 
ATOM     83  F   UNL A   1      44.359  32.338  33.096  1.00  0.00    -0.206 F 
ATOM     84  C   UNL A   1      44.895  34.566  32.586  1.00  0.00     0.059 A 
ATOM     85  C   UNL A   1      45.380  35.192  30.290  1.00  0.00     0.059 A 
ATOM     86  F   UNL A   1      45.272  33.574  28.597  1.00  0.00    -0.206 F 
ATOM     87  C   UNL A   1      45.240  35.528  31.636  1.00  0.00     0.060 A 
BRANCH  87  88
ATOM     88  S   UNL A   1      45.523  37.223  32.189  1.00  0.00     0.124 S 
ATOM     89  O   UNL A   1      45.901  37.018  33.583  1.00  0.00    -0.237 OA
ATOM     90  O   UNL A   1      46.591  37.659  31.296  1.00  0.00    -0.237 OA
ATOM     91  O   UNL A   1      44.231  37.867  31.974  1.00  0.00    -0.744 OA
ENDBRANCH  87  88
ENDBRANCH  55  80
BRANCH  67  92
ATOM     92  C   UNL A   1      48.954  27.374  29.803  1.00  0.00     0.058 A 
ATOM     93  C   UNL A   1      49.862  27.690  28.780  1.00  0.00     0.135 A 
ATOM     94  C   UNL A   1      49.478  26.913  31.023  1.00  0.00     0.135 A 
ATOM     95  F   UNL A   1      49.415  28.124  27.591  1.00  0.00    -0.206 F 
ATOM     96  C   UNL A   1      51.234  27.539  28.953  1.00  0.00     0.059 A 
ATOM     97  C   UNL A   1      50.849  26.785  31.228  1.00  0.00     0.059 A 
ATOM     98  F   UNL A   1      48.656  26.604  32.039  1.00  0.00    -0.206 F 
ATOM     99  C   UNL A   1      51.719  27.093  30.184  1.00  0.00     0.060 A 
BRANCH  99 100
ATOM    100  S   UNL A   1      53.505  26.949  30.405  1.00  0.00     0.124 S 
ATOM    101  O   UNL A   1      53.597  25.850  31.360  1.00  0.00    -0.237 OA
ATOM    102  O   UNL A   1      53.961  26.651  29.050  1.00  0.00    -0.237 OA
ATOM    103  O   UNL A   1      53.894  28.259  30.918  1.00  0.00    -0.744 OA
ENDBRANCH  99 100
ENDBRANCH  67  92
ENDBRANCH  41  42
ENDBRANCH  34  36
ENDBRANCH  33  34
ENDBRANCH  32  33
ENDBRANCH  31  32
ENDBRANCH  30  31
ENDBRANCH  29  30
ENDBRANCH   1  29
TORSDOF 24
ENDMDL
MODEL 3
REMARK VINA RESULT:      -9.6      5.017      9.879
REMARK SMILES CC(C)CN(C)c1cc2c(cc1Cl)C=C(C(=O)OCCOCCOCCOC(=O)c1ccc(-c3c4nc(c(-c5c(F)cc(S(=O)(=O)[O-])cc5F)c5ccc([nH]5)c(-c5c(F)cc(S(=O)(=O)[O-])cc5F)c5nc(c(-c6c(F)cc(S(=O)(=O)[O-])cc6F)c6ccc3[nH]6)C=C5)C=C4)cc1)[C@@H](C(F)(F)F)O2
REMARK SMILES IDX 22 1 21 2 20 3 19 4 18 5 16 6 17 7 15 8 7 9 8 10 12 11 9 12
REMARK SMILES IDX 11 13 13 14 10 15 101 16 14 17 96 18 5 19 6 20 4 21 2 22
REMARK SMILES IDX 1 23 3 24 97 25 98 26 99 27 100 28 23 29 24 30 25 31 26 32
REMARK SMILES IDX 27 33 28 34 29 35 30 36 31 37 95 38 32 39 94 40 33 41 34 42
REMARK SMILES IDX 35 43 88 44 36 45 93 46 87 47 89 48 37 49 92 50 86 51 85 52
REMARK SMILES IDX 38 54 72 55 51 56 71 57 52 58 55 59 70 60 90 61 53 62 54 63
REMARK SMILES IDX 69 65 91 66 56 67 39 68 40 69 49 70 41 71 42 72 48 73 50 74
REMARK SMILES IDX 43 75 44 76 45 77 46 78 47 79 73 80 74 81 83 82 75 83 76 84
REMARK SMILES IDX 82 85 84 86 77 87 78 88 79 89 80 90 81 91 57 92 58 93 67 94
REMARK SMILES IDX 59 95 60 96 66 97 68 98 61 99 62 100 63 101 64 102 65 103
REMARK H PARENT 89 53 55 64
REMARK Flexibility Score: inf
ROOT
ATOM      1  C   UNL A   1      35.681  24.392  25.841  1.00  0.00     0.188 C 
ENDROOT
BRANCH   1   2
ATOM      2  O   UNL A   1      36.500  23.977  24.774  1.00  0.00    -0.376 OA
BRANCH   2   3
ATOM      3  C   UNL A   1      36.199  22.787  24.066  1.00  0.00     0.202 C 
BRANCH   3   4
ATOM      4  C   UNL A   1      35.282  21.660  24.587  1.00  0.00     0.261 C 
BRANCH   4   5
ATOM      5  O   UNL A   1      33.910  21.979  24.844  1.00  0.00    -0.460 OA
BRANCH   5   6
ATOM      6  C   UNL A   1      33.063  21.756  23.814  1.00  0.00     0.338 C 
ATOM      7  O   UNL A   1      32.890  20.694  23.239  1.00  0.00    -0.246 OA
BRANCH   6   8
ATOM      8  C   UNL A   1      32.247  22.958  23.554  1.00  0.00     0.087 C 
ATOM      9  C   UNL A   1      30.886  27.726  22.683  1.00  0.00     0.059 A 
ATOM     10  C   UNL A   1      30.178  26.554  23.032  1.00  0.00     0.074 A 
ATOM     11  C   UNL A   1      32.274  27.592  22.458  1.00  0.00     0.065 A 
ATOM     12  C   UNL A   1      30.828  25.315  23.140  1.00  0.00     0.130 A 
ATOM     13  C   UNL A   1      32.889  26.342  22.432  1.00  0.00     0.034 A 
ATOM     14  Cl  UNL A   1      33.337  28.952  22.332  1.00  0.00    -0.082 Cl
ATOM     15  C   UNL A   1      32.171  25.205  22.787  1.00  0.00     0.019 A 
ATOM     16  O   UNL A   1      30.102  24.243  23.596  1.00  0.00    -0.475 OA
ATOM     17  C   UNL A   1      32.862  23.937  22.884  1.00  0.00     0.027 C 
ATOM     18  C   UNL A   1      30.844  23.078  24.085  1.00  0.00     0.316 C 
BRANCH   9  19
ATOM     19  N   UNL A   1      30.243  28.967  22.613  1.00  0.00    -0.373 N 
ATOM     20  C   UNL A   1      30.627  29.828  21.501  1.00  0.00     0.143 C 
BRANCH  19  21
ATOM     21  C   UNL A   1      29.769  29.614  23.857  1.00  0.00     0.119 C 
BRANCH  21  22
ATOM     22  C   UNL A   1      29.258  31.056  23.647  1.00  0.00     0.002 C 
ATOM     23  C   UNL A   1      27.730  31.141  23.717  1.00  0.00     0.009 C 
ATOM     24  C   UNL A   1      29.848  32.034  24.669  1.00  0.00     0.009 C 
ENDBRANCH  21  22
ENDBRANCH  19  21
ENDBRANCH   9  19
BRANCH  18  25
ATOM     25  C   UNL A   1      30.831  23.031  25.619  1.00  0.00     0.430 C 
ATOM     26  F   UNL A   1      29.864  23.828  26.134  1.00  0.00    -0.167 F 
ATOM     27  F   UNL A   1      30.576  21.777  26.070  1.00  0.00    -0.167 F 
ATOM     28  F   UNL A   1      32.008  23.421  26.156  1.00  0.00    -0.167 F 
ENDBRANCH  18  25
ENDBRANCH   6   8
ENDBRANCH   5   6
ENDBRANCH   4   5
ENDBRANCH   3   4
ENDBRANCH   2   3
ENDBRANCH   1   2
BRANCH   1  29
ATOM     29  C   UNL A   1      34.598  25.415  25.432  1.00  0.00     0.188 C 
BRANCH  29  30
ATOM     30  O   UNL A   1      33.668  25.888  26.396  1.00  0.00    -0.376 OA
BRANCH  30  31
ATOM     31  C   UNL A   1      32.699  26.854  26.000  1.00  0.00     0.202 C 
BRANCH  31  32
ATOM     32  C   UNL A   1      32.902  28.356  26.278  1.00  0.00     0.261 C 
BRANCH  32  33
ATOM     33  O   UNL A   1      34.260  28.815  26.335  1.00  0.00    -0.460 OA
BRANCH  33  34
ATOM     34  C   UNL A   1      34.469  29.961  27.042  1.00  0.00     0.338 C 
ATOM     35  O   UNL A   1      33.707  30.894  27.167  1.00  0.00    -0.246 OA
BRANCH  34  36
ATOM     36  C   UNL A   1      35.715  29.805  27.829  1.00  0.00     0.060 A 
ATOM     37  C   UNL A   1      35.666  29.482  29.183  1.00  0.00     0.016 A 
ATOM     38  C   UNL A   1      36.949  29.995  27.188  1.00  0.00     0.016 A 
ATOM     39  C   UNL A   1      36.860  29.332  29.894  1.00  0.00     0.010 A 
ATOM     40  C   UNL A   1      38.141  29.867  27.907  1.00  0.00     0.010 A 
ATOM     41  C   UNL A   1      38.106  29.512  29.262  1.00  0.00    -0.014 A 
BRANCH  41  42
ATOM     42  C   UNL A   1      39.355  29.159  29.982  1.00  0.00     0.031 A 
ATOM     43  C   UNL A   1      40.265  28.062  29.512  1.00  0.00     0.074 A 
ATOM     44  C   UNL A   1      39.669  29.873  31.080  1.00  0.00     0.049 A 
ATOM     45  N   UNL A   1      41.436  27.713  29.981  1.00  0.00    -0.248 NA
ATOM     46  C   UNL A   1      39.806  27.248  28.376  1.00  0.00     0.031 C 
ATOM     47  C   UNL A   1      38.844  30.943  31.646  1.00  0.00     0.029 A 
ATOM     48  N   UNL A   1      40.764  29.826  31.905  1.00  0.00    -0.354 N 
ATOM     49  C   UNL A   1      41.876  26.667  29.179  1.00  0.00     0.074 A 
ATOM     50  C   UNL A   1      40.816  26.399  28.228  1.00  0.00     0.031 C 
ATOM     51  C   UNL A   1      39.481  31.478  32.697  1.00  0.00     0.029 A 
ATOM     52  C   UNL A   1      40.743  30.774  32.900  1.00  0.00     0.049 A 
ATOM     53  H   UNL A   1      41.494  29.175  31.794  1.00  0.00     0.167 HD
ATOM     54  C   UNL A   1      43.065  26.016  29.220  1.00  0.00     0.037 A 
ATOM     55  C   UNL A   1      41.643  31.055  33.862  1.00  0.00     0.037 A 
ATOM     56  C   UNL A   1      44.106  26.280  30.186  1.00  0.00     0.049 A 
ATOM     57  C   UNL A   1      42.924  30.268  33.922  1.00  0.00     0.074 A 
ATOM     58  C   UNL A   1      45.351  25.680  30.292  1.00  0.00     0.029 A 
ATOM     59  N   UNL A   1      44.027  27.210  31.213  1.00  0.00    -0.354 N 
ATOM     60  N   UNL A   1      43.352  29.328  33.114  1.00  0.00    -0.248 NA
ATOM     61  C   UNL A   1      43.848  30.585  35.020  1.00  0.00     0.031 C 
ATOM     62  C   UNL A   1      46.003  26.210  31.409  1.00  0.00     0.029 A 
ATOM     63  C   UNL A   1      45.189  27.181  31.970  1.00  0.00     0.049 A 
ATOM     64  H   UNL A   1      43.259  27.803  31.380  1.00  0.00     0.167 HD
ATOM     65  C   UNL A   1      44.606  28.959  33.592  1.00  0.00     0.074 A 
ATOM     66  C   UNL A   1      44.874  29.791  34.747  1.00  0.00     0.031 C 
ATOM     67  C   UNL A   1      45.455  28.015  33.116  1.00  0.00     0.037 A 
BRANCH  54  68
ATOM     68  C   UNL A   1      43.337  24.965  28.177  1.00  0.00     0.058 A 
ATOM     69  C   UNL A   1      44.048  25.274  27.007  1.00  0.00     0.135 A 
ATOM     70  C   UNL A   1      42.994  23.620  28.397  1.00  0.00     0.135 A 
ATOM     71  F   UNL A   1      44.395  26.543  26.742  1.00  0.00    -0.206 F 
ATOM     72  C   UNL A   1      44.406  24.291  26.091  1.00  0.00     0.059 A 
ATOM     73  C   UNL A   1      43.362  22.616  27.505  1.00  0.00     0.059 A 
ATOM     74  F   UNL A   1      42.318  23.267  29.502  1.00  0.00    -0.206 F 
ATOM     75  C   UNL A   1      44.067  22.962  26.353  1.00  0.00     0.060 A 
BRANCH  75  76
ATOM     76  S   UNL A   1      44.581  21.699  25.170  1.00  0.00     0.124 S 
ATOM     77  O   UNL A   1      46.007  21.587  25.460  1.00  0.00    -0.237 OA
ATOM     78  O   UNL A   1      43.763  20.556  25.562  1.00  0.00    -0.237 OA
ATOM     79  O   UNL A   1      44.251  22.288  23.875  1.00  0.00    -0.744 OA
ENDBRANCH  75  76
ENDBRANCH  54  68
BRANCH  55  80
ATOM     80  C   UNL A   1      41.379  32.153  34.829  1.00  0.00     0.058 A 
ATOM     81  C   UNL A   1      40.666  31.913  36.013  1.00  0.00     0.135 A 
ATOM     82  C   UNL A   1      41.833  33.459  34.593  1.00  0.00     0.135 A 
ATOM     83  F   UNL A   1      40.208  30.681  36.283  1.00  0.00    -0.206 F 
ATOM     84  C   UNL A   1      40.389  32.934  36.916  1.00  0.00     0.059 A 
ATOM     85  C   UNL A   1      41.595  34.491  35.494  1.00  0.00     0.059 A 
ATOM     86  F   UNL A   1      42.535  33.738  33.483  1.00  0.00    -0.206 F 
ATOM     87  C   UNL A   1      40.860  34.220  36.647  1.00  0.00     0.060 A 
BRANCH  87  88
ATOM     88  S   UNL A   1      40.511  35.532  37.837  1.00  0.00     0.124 S 
ATOM     89  O   UNL A   1      39.401  34.958  38.590  1.00  0.00    -0.237 OA
ATOM     90  O   UNL A   1      41.779  35.638  38.552  1.00  0.00    -0.237 OA
ATOM     91  O   UNL A   1      40.178  36.674  36.991  1.00  0.00    -0.744 OA
ENDBRANCH  87  88
ENDBRANCH  55  80
BRANCH  67  92
ATOM     92  C   UNL A   1      46.769  27.835  33.829  1.00  0.00     0.058 A 
ATOM     93  C   UNL A   1      46.920  26.908  34.871  1.00  0.00     0.135 A 
ATOM     94  C   UNL A   1      47.907  28.552  33.422  1.00  0.00     0.135 A 
ATOM     95  F   UNL A   1      45.864  26.203  35.307  1.00  0.00    -0.206 F 
ATOM     96  C   UNL A   1      48.147  26.710  35.497  1.00  0.00     0.059 A 
ATOM     97  C   UNL A   1      49.151  28.347  34.012  1.00  0.00     0.059 A 
ATOM     98  F   UNL A   1      47.823  29.447  32.424  1.00  0.00    -0.206 F 
ATOM     99  C   UNL A   1      49.259  27.429  35.055  1.00  0.00     0.060 A 
BRANCH  99 100
ATOM    100  S   UNL A   1      50.852  27.124  35.848  1.00  0.00     0.124 S 
ATOM    101  O   UNL A   1      50.898  28.193  36.841  1.00  0.00    -0.237 OA
ATOM    102  O   UNL A   1      50.681  25.774  36.378  1.00  0.00    -0.237 OA
ATOM    103  O   UNL A   1      51.809  27.245  34.753  1.00  0.00    -0.744 OA
ENDBRANCH  99 100
ENDBRANCH  67  92
ENDBRANCH  41  42
ENDBRANCH  34  36
ENDBRANCH  33  34
ENDBRANCH  32  33
ENDBRANCH  31  32
ENDBRANCH  30  31
ENDBRANCH  29  30
ENDBRANCH   1  29
TORSDOF 24
ENDMDL
