MODEL 1
REMARK VINA RESULT:      -8.6      0.000      0.000
REMARK SMILES O=C(Cn1cnc2c(S)ncnc21)OCCOCCOCCOC(=O)c1ccc(-c2c3nc(c(-c4c(F)cc(S(=O)(=O)[O-])cc4F)c4ccc([nH]4)c(-c4c(F)cc(S(=O)(=O)[O-])cc4F)c4nc(c(-c5c(F)cc(S(=O)(=O)[O-])cc5F)c5ccc2[nH]5)C=C4)C=C3)cc1
REMARK SMILES IDX 19 1 18 2 17 3 16 4 15 5 14 6 2 7 1 8 3 9 4 10 5 11 13 12
REMARK SMILES IDX 6 13 7 14 12 15 8 16 11 17 10 18 9 19 20 21 21 22 22 23
REMARK SMILES IDX 23 24 24 25 25 26 26 27 27 28 91 29 28 30 90 31 29 32 30 33
REMARK SMILES IDX 31 34 84 35 32 36 89 37 83 38 85 39 33 40 88 41 82 42 81 43
REMARK SMILES IDX 34 45 68 46 47 47 67 48 48 49 51 50 66 51 86 52 49 53 50 54
REMARK SMILES IDX 65 56 87 57 52 58 35 59 36 60 45 61 37 62 38 63 44 64 46 65
REMARK SMILES IDX 39 66 40 67 41 68 42 69 43 70 69 71 70 72 79 73 71 74 72 75
REMARK SMILES IDX 78 76 80 77 73 78 74 79 75 80 76 81 77 82 53 83 54 84 63 85
REMARK SMILES IDX 55 86 56 87 62 88 64 89 57 90 58 91 59 92 60 93 61 94
REMARK H PARENT 9 20 85 44 51 55
REMARK Flexibility Score: inf
ROOT
ATOM      1  C   UNL A   1      34.405  32.985  31.065  1.00  0.00     0.188 C 
ENDROOT
BRANCH   1   2
ATOM      2  C   UNL A   1      35.733  32.630  31.762  1.00  0.00     0.188 C 
BRANCH   2   3
ATOM      3  O   UNL A   1      35.634  32.389  33.154  1.00  0.00    -0.376 OA
BRANCH   3   4
ATOM      4  C   UNL A   1      35.217  33.480  33.961  1.00  0.00     0.202 C 
BRANCH   4   5
ATOM      5  C   UNL A   1      36.241  34.598  34.156  1.00  0.00     0.261 C 
BRANCH   5   6
ATOM      6  O   UNL A   1      37.592  34.328  33.709  1.00  0.00    -0.462 OA
BRANCH   6   7
ATOM      7  C   UNL A   1      38.751  34.521  34.371  1.00  0.00     0.326 C 
ATOM      8  O   UNL A   1      38.872  35.491  35.119  1.00  0.00    -0.250 OA
BRANCH   7   9
ATOM      9  C   UNL A   1      39.910  33.608  34.125  1.00  0.00     0.247 C 
BRANCH   9  10
ATOM     10  N   UNL A   1      41.047  34.198  33.459  1.00  0.00    -0.304 N 
ATOM     11  C   UNL A   1      42.107  34.861  34.009  1.00  0.00     0.202 A 
ATOM     12  C   UNL A   1      41.181  34.259  32.098  1.00  0.00     0.164 A 
ATOM     13  N   UNL A   1      42.935  35.304  33.087  1.00  0.00    -0.232 NA
ATOM     14  C   UNL A   1      42.356  34.961  31.881  1.00  0.00     0.140 A 
ATOM     15  N   UNL A   1      40.339  33.766  31.178  1.00  0.00    -0.217 NA
ATOM     16  C   UNL A   1      42.681  35.182  30.542  1.00  0.00     0.124 A 
ATOM     17  C   UNL A   1      40.760  34.045  29.929  1.00  0.00     0.225 A 
ATOM     18  N   UNL A   1      41.867  34.722  29.560  1.00  0.00    -0.228 NA
BRANCH  16  19
ATOM     19  S   UNL A   1      44.117  36.094  30.098  1.00  0.00    -0.121 SA
ATOM     20  H   UNL A   1      45.147  35.742  30.913  1.00  0.00     0.110 HD
ENDBRANCH  16  19
ENDBRANCH   9  10
ENDBRANCH   7   9
ENDBRANCH   6   7
ENDBRANCH   5   6
ENDBRANCH   4   5
ENDBRANCH   3   4
ENDBRANCH   2   3
ENDBRANCH   1   2
BRANCH   1  21
ATOM     21  O   UNL A   1      34.218  34.276  30.498  1.00  0.00    -0.376 OA
BRANCH  21  22
ATOM     22  C   UNL A   1      34.083  34.444  29.089  1.00  0.00     0.202 C 
BRANCH  22  23
ATOM     23  C   UNL A   1      33.799  33.230  28.212  1.00  0.00     0.261 C 
BRANCH  23  24
ATOM     24  O   UNL A   1      34.989  32.705  27.625  1.00  0.00    -0.460 OA
BRANCH  24  25
ATOM     25  C   UNL A   1      35.086  31.359  27.644  1.00  0.00     0.338 C 
ATOM     26  O   UNL A   1      34.417  30.570  27.002  1.00  0.00    -0.246 OA
BRANCH  25  27
ATOM     27  C   UNL A   1      36.114  30.940  28.610  1.00  0.00     0.060 A 
ATOM     28  C   UNL A   1      37.168  31.834  28.819  1.00  0.00     0.016 A 
ATOM     29  C   UNL A   1      36.150  29.633  29.115  1.00  0.00     0.016 A 
ATOM     30  C   UNL A   1      38.349  31.359  29.349  1.00  0.00     0.010 A 
ATOM     31  C   UNL A   1      37.335  29.156  29.644  1.00  0.00     0.010 A 
ATOM     32  C   UNL A   1      38.446  30.001  29.660  1.00  0.00    -0.014 A 
BRANCH  32  33
ATOM     33  C   UNL A   1      39.786  29.468  29.837  1.00  0.00     0.031 A 
ATOM     34  C   UNL A   1      40.293  29.369  31.218  1.00  0.00     0.074 A 
ATOM     35  C   UNL A   1      40.495  29.027  28.778  1.00  0.00     0.049 A 
ATOM     36  N   UNL A   1      41.334  29.939  31.731  1.00  0.00    -0.248 NA
ATOM     37  C   UNL A   1      39.508  28.565  32.166  1.00  0.00     0.031 C 
ATOM     38  C   UNL A   1      39.997  28.803  27.415  1.00  0.00     0.029 A 
ATOM     39  N   UNL A   1      41.779  28.575  28.723  1.00  0.00    -0.354 N 
ATOM     40  C   UNL A   1      41.468  29.386  32.998  1.00  0.00     0.074 A 
ATOM     41  C   UNL A   1      40.251  28.659  33.267  1.00  0.00     0.031 C 
ATOM     42  C   UNL A   1      40.897  28.061  26.736  1.00  0.00     0.029 A 
ATOM     43  C   UNL A   1      42.069  27.857  27.570  1.00  0.00     0.049 A 
ATOM     44  H   UNL A   1      42.440  28.741  29.433  1.00  0.00     0.167 HD
ATOM     45  C   UNL A   1      42.663  29.337  33.640  1.00  0.00     0.037 A 
ATOM     46  C   UNL A   1      43.152  27.072  27.356  1.00  0.00     0.037 A 
ATOM     47  C   UNL A   1      43.614  30.285  33.131  1.00  0.00     0.049 A 
ATOM     48  C   UNL A   1      44.212  27.494  28.309  1.00  0.00     0.074 A 
ATOM     49  C   UNL A   1      43.629  31.656  32.966  1.00  0.00     0.029 A 
ATOM     50  N   UNL A   1      44.680  29.809  32.407  1.00  0.00    -0.354 N 
ATOM     51  N   UNL A   1      44.848  28.632  28.263  1.00  0.00    -0.248 NA
ATOM     52  C   UNL A   1      44.355  26.753  29.555  1.00  0.00     0.031 C 
ATOM     53  C   UNL A   1      44.433  31.895  31.815  1.00  0.00     0.029 A 
ATOM     54  C   UNL A   1      44.866  30.655  31.343  1.00  0.00     0.049 A 
ATOM     55  H   UNL A   1      45.212  29.007  32.613  1.00  0.00     0.167 HD
ATOM     56  C   UNL A   1      45.141  28.932  29.584  1.00  0.00     0.074 A 
ATOM     57  C   UNL A   1      44.938  27.686  30.309  1.00  0.00     0.031 C 
ATOM     58  C   UNL A   1      45.247  30.222  30.015  1.00  0.00     0.037 A 
BRANCH  45  59
ATOM     59  C   UNL A   1      43.056  28.164  34.493  1.00  0.00     0.058 A 
ATOM     60  C   UNL A   1      43.421  28.352  35.837  1.00  0.00     0.135 A 
ATOM     61  C   UNL A   1      43.335  26.890  33.945  1.00  0.00     0.135 A 
ATOM     62  F   UNL A   1      43.238  29.541  36.432  1.00  0.00    -0.206 F 
ATOM     63  C   UNL A   1      44.046  27.350  36.580  1.00  0.00     0.059 A 
ATOM     64  C   UNL A   1      43.904  25.861  34.681  1.00  0.00     0.059 A 
ATOM     65  F   UNL A   1      43.152  26.628  32.642  1.00  0.00    -0.206 F 
ATOM     66  C   UNL A   1      44.291  26.112  35.987  1.00  0.00     0.060 A 
BRANCH  66  67
ATOM     67  S   UNL A   1      45.185  24.845  36.904  1.00  0.00     0.124 S 
ATOM     68  O   UNL A   1      44.744  25.116  38.266  1.00  0.00    -0.237 OA
ATOM     69  O   UNL A   1      44.684  23.615  36.300  1.00  0.00    -0.237 OA
ATOM     70  O   UNL A   1      46.583  25.151  36.614  1.00  0.00    -0.744 OA
ENDBRANCH  66  67
ENDBRANCH  45  59
BRANCH  46  71
ATOM     71  C   UNL A   1      43.219  25.798  26.590  1.00  0.00     0.058 A 
ATOM     72  C   UNL A   1      44.056  25.678  25.466  1.00  0.00     0.135 A 
ATOM     73  C   UNL A   1      42.676  24.594  27.086  1.00  0.00     0.135 A 
ATOM     74  F   UNL A   1      44.640  26.764  24.938  1.00  0.00    -0.206 F 
ATOM     75  C   UNL A   1      44.374  24.438  24.902  1.00  0.00     0.059 A 
ATOM     76  C   UNL A   1      42.957  23.352  26.524  1.00  0.00     0.059 A 
ATOM     77  F   UNL A   1      41.923  24.570  28.196  1.00  0.00    -0.206 F 
ATOM     78  C   UNL A   1      43.832  23.277  25.451  1.00  0.00     0.060 A 
BRANCH  78  79
ATOM     79  S   UNL A   1      44.374  21.667  24.837  1.00  0.00     0.124 S 
ATOM     80  O   UNL A   1      43.252  20.811  25.204  1.00  0.00    -0.237 OA
ATOM     81  O   UNL A   1      44.542  21.926  23.411  1.00  0.00    -0.237 OA
ATOM     82  O   UNL A   1      45.612  21.422  25.572  1.00  0.00    -0.744 OA
ENDBRANCH  78  79
ENDBRANCH  46  71
BRANCH  58  83
ATOM     83  C   UNL A   1      45.477  31.303  28.992  1.00  0.00     0.058 A 
ATOM     84  C   UNL A   1      44.446  32.004  28.344  1.00  0.00     0.135 A 
ATOM     85  C   UNL A   1      46.790  31.757  28.792  1.00  0.00     0.135 A 
ATOM     86  F   UNL A   1      43.159  31.694  28.562  1.00  0.00    -0.206 F 
ATOM     87  C   UNL A   1      44.714  33.094  27.513  1.00  0.00     0.059 A 
ATOM     88  C   UNL A   1      47.077  32.859  27.991  1.00  0.00     0.059 A 
ATOM     89  F   UNL A   1      47.812  31.165  29.433  1.00  0.00    -0.206 F 
ATOM     90  C   UNL A   1      46.032  33.520  27.349  1.00  0.00     0.060 A 
BRANCH  90  91
ATOM     91  S   UNL A   1      46.361  35.006  26.374  1.00  0.00     0.124 S 
ATOM     92  O   UNL A   1      46.420  34.476  25.017  1.00  0.00    -0.237 OA
ATOM     93  O   UNL A   1      45.207  35.848  26.678  1.00  0.00    -0.237 OA
ATOM     94  O   UNL A   1      47.630  35.492  26.911  1.00  0.00    -0.744 OA
ENDBRANCH  90  91
ENDBRANCH  58  83
ENDBRANCH  32  33
ENDBRANCH  25  27
ENDBRANCH  24  25
ENDBRANCH  23  24
ENDBRANCH  22  23
ENDBRANCH  21  22
ENDBRANCH   1  21
TORSDOF 22
ENDMDL
MODEL 2
REMARK VINA RESULT:      -8.5      4.341      8.967
REMARK SMILES O=C(Cn1cnc2c(S)ncnc21)OCCOCCOCCOC(=O)c1ccc(-c2c3nc(c(-c4c(F)cc(S(=O)(=O)[O-])cc4F)c4ccc([nH]4)c(-c4c(F)cc(S(=O)(=O)[O-])cc4F)c4nc(c(-c5c(F)cc(S(=O)(=O)[O-])cc5F)c5ccc2[nH]5)C=C4)C=C3)cc1
REMARK SMILES IDX 19 1 18 2 17 3 16 4 15 5 14 6 2 7 1 8 3 9 4 10 5 11 13 12
REMARK SMILES IDX 6 13 7 14 12 15 8 16 11 17 10 18 9 19 20 21 21 22 22 23
REMARK SMILES IDX 23 24 24 25 25 26 26 27 27 28 91 29 28 30 90 31 29 32 30 33
REMARK SMILES IDX 31 34 84 35 32 36 89 37 83 38 85 39 33 40 88 41 82 42 81 43
REMARK SMILES IDX 34 45 68 46 47 47 67 48 48 49 51 50 66 51 86 52 49 53 50 54
REMARK SMILES IDX 65 56 87 57 52 58 35 59 36 60 45 61 37 62 38 63 44 64 46 65
REMARK SMILES IDX 39 66 40 67 41 68 42 69 43 70 69 71 70 72 79 73 71 74 72 75
REMARK SMILES IDX 78 76 80 77 73 78 74 79 75 80 76 81 77 82 53 83 54 84 63 85
REMARK SMILES IDX 55 86 56 87 62 88 64 89 57 90 58 91 59 92 60 93 61 94
REMARK H PARENT 9 20 85 44 51 55
REMARK Flexibility Score: inf
ROOT
ATOM      1  C   UNL A   1      34.964  35.162  34.192  1.00  0.00     0.188 C 
ENDROOT
BRANCH   1   2
ATOM      2  C   UNL A   1      35.119  33.637  34.026  1.00  0.00     0.188 C 
BRANCH   2   3
ATOM      3  O   UNL A   1      36.170  33.056  34.777  1.00  0.00    -0.376 OA
BRANCH   3   4
ATOM      4  C   UNL A   1      36.673  33.817  35.864  1.00  0.00     0.202 C 
BRANCH   4   5
ATOM      5  C   UNL A   1      36.991  33.034  37.138  1.00  0.00     0.261 C 
BRANCH   5   6
ATOM      6  O   UNL A   1      35.973  33.026  38.169  1.00  0.00    -0.462 OA
BRANCH   6   7
ATOM      7  C   UNL A   1      35.967  32.357  39.339  1.00  0.00     0.326 C 
ATOM      8  O   UNL A   1      35.053  31.571  39.588  1.00  0.00    -0.250 OA
BRANCH   7   9
ATOM      9  C   UNL A   1      37.020  32.639  40.364  1.00  0.00     0.247 C 
BRANCH   9  10
ATOM     10  N   UNL A   1      36.779  32.098  41.681  1.00  0.00    -0.304 N 
ATOM     11  C   UNL A   1      35.699  32.286  42.494  1.00  0.00     0.202 A 
ATOM     12  C   UNL A   1      37.694  31.352  42.373  1.00  0.00     0.164 A 
ATOM     13  N   UNL A   1      35.845  31.670  43.648  1.00  0.00    -0.232 NA
ATOM     14  C   UNL A   1      37.104  31.103  43.601  1.00  0.00     0.140 A 
ATOM     15  N   UNL A   1      38.911  30.970  41.956  1.00  0.00    -0.217 NA
ATOM     16  C   UNL A   1      37.884  30.378  44.503  1.00  0.00     0.124 A 
ATOM     17  C   UNL A   1      39.563  30.282  42.913  1.00  0.00     0.225 A 
ATOM     18  N   UNL A   1      39.128  29.971  44.152  1.00  0.00    -0.228 NA
BRANCH  16  19
ATOM     19  S   UNL A   1      37.296  30.015  46.120  1.00  0.00    -0.121 SA
ATOM     20  H   UNL A   1      38.077  30.646  47.038  1.00  0.00     0.110 HD
ENDBRANCH  16  19
ENDBRANCH   9  10
ENDBRANCH   7   9
ENDBRANCH   6   7
ENDBRANCH   5   6
ENDBRANCH   4   5
ENDBRANCH   3   4
ENDBRANCH   2   3
ENDBRANCH   1   2
BRANCH   1  21
ATOM     21  O   UNL A   1      34.564  35.965  33.088  1.00  0.00    -0.376 OA
BRANCH  21  22
ATOM     22  C   UNL A   1      33.197  36.322  32.901  1.00  0.00     0.202 C 
BRANCH  22  23
ATOM     23  C   UNL A   1      32.724  36.791  31.530  1.00  0.00     0.261 C 
BRANCH  23  24
ATOM     24  O   UNL A   1      33.691  36.530  30.514  1.00  0.00    -0.460 OA
BRANCH  24  25
ATOM     25  C   UNL A   1      33.235  35.815  29.464  1.00  0.00     0.338 C 
ATOM     26  O   UNL A   1      32.257  36.062  28.782  1.00  0.00    -0.246 OA
BRANCH  25  27
ATOM     27  C   UNL A   1      34.074  34.624  29.261  1.00  0.00     0.060 A 
ATOM     28  C   UNL A   1      34.332  33.848  30.395  1.00  0.00     0.016 A 
ATOM     29  C   UNL A   1      34.755  34.408  28.055  1.00  0.00     0.016 A 
ATOM     30  C   UNL A   1      35.419  32.999  30.388  1.00  0.00     0.010 A 
ATOM     31  C   UNL A   1      35.846  33.559  28.048  1.00  0.00     0.010 A 
ATOM     32  C   UNL A   1      36.220  32.944  29.244  1.00  0.00    -0.014 A 
BRANCH  32  33
ATOM     33  C   UNL A   1      37.541  32.361  29.403  1.00  0.00     0.031 A 
ATOM     34  C   UNL A   1      37.681  30.923  29.106  1.00  0.00     0.074 A 
ATOM     35  C   UNL A   1      38.594  33.130  29.744  1.00  0.00     0.049 A 
ATOM     36  N   UNL A   1      38.062  29.976  29.899  1.00  0.00    -0.248 NA
ATOM     37  C   UNL A   1      37.300  30.475  27.758  1.00  0.00     0.031 C 
ATOM     38  C   UNL A   1      38.641  34.596  29.778  1.00  0.00     0.029 A 
ATOM     39  N   UNL A   1      39.879  32.767  30.019  1.00  0.00    -0.354 N 
ATOM     40  C   UNL A   1      38.191  28.852  29.092  1.00  0.00     0.074 A 
ATOM     41  C   UNL A   1      37.580  29.175  27.826  1.00  0.00     0.031 C 
ATOM     42  C   UNL A   1      39.929  34.993  29.842  1.00  0.00     0.029 A 
ATOM     43  C   UNL A   1      40.780  33.822  29.965  1.00  0.00     0.049 A 
ATOM     44  H   UNL A   1      40.144  31.844  30.235  1.00  0.00     0.167 HD
ATOM     45  C   UNL A   1      39.016  27.824  29.417  1.00  0.00     0.037 A 
ATOM     46  C   UNL A   1      42.131  33.731  29.926  1.00  0.00     0.037 A 
ATOM     47  C   UNL A   1      39.347  27.787  30.813  1.00  0.00     0.049 A 
ATOM     48  C   UNL A   1      42.511  32.397  30.461  1.00  0.00     0.074 A 
ATOM     49  C   UNL A   1      38.617  27.721  31.984  1.00  0.00     0.029 A 
ATOM     50  N   UNL A   1      40.625  28.120  31.187  1.00  0.00    -0.354 N 
ATOM     51  N   UNL A   1      42.377  32.025  31.705  1.00  0.00    -0.248 NA
ATOM     52  C   UNL A   1      42.758  31.319  29.514  1.00  0.00     0.031 C 
ATOM     53  C   UNL A   1      39.381  28.434  32.953  1.00  0.00     0.029 A 
ATOM     54  C   UNL A   1      40.536  28.893  32.318  1.00  0.00     0.049 A 
ATOM     55  H   UNL A   1      41.454  27.855  30.727  1.00  0.00     0.167 HD
ATOM     56  C   UNL A   1      42.135  30.662  31.646  1.00  0.00     0.074 A 
ATOM     57  C   UNL A   1      42.517  30.267  30.298  1.00  0.00     0.031 C 
ATOM     58  C   UNL A   1      41.387  30.031  32.597  1.00  0.00     0.037 A 
BRANCH  45  59
ATOM     59  C   UNL A   1      39.798  27.076  28.372  1.00  0.00     0.058 A 
ATOM     60  C   UNL A   1      39.746  25.674  28.314  1.00  0.00     0.135 A 
ATOM     61  C   UNL A   1      40.803  27.696  27.594  1.00  0.00     0.135 A 
ATOM     62  F   UNL A   1      38.856  24.994  29.053  1.00  0.00    -0.206 F 
ATOM     63  C   UNL A   1      40.651  24.933  27.553  1.00  0.00     0.059 A 
ATOM     64  C   UNL A   1      41.676  26.982  26.786  1.00  0.00     0.059 A 
ATOM     65  F   UNL A   1      41.036  29.015  27.663  1.00  0.00    -0.206 F 
ATOM     66  C   UNL A   1      41.618  25.598  26.802  1.00  0.00     0.060 A 
BRANCH  66  67
ATOM     67  S   UNL A   1      42.852  24.650  25.894  1.00  0.00     0.124 S 
ATOM     68  O   UNL A   1      42.268  23.316  25.931  1.00  0.00    -0.237 OA
ATOM     69  O   UNL A   1      42.856  25.312  24.593  1.00  0.00    -0.237 OA
ATOM     70  O   UNL A   1      44.063  24.839  26.687  1.00  0.00    -0.744 OA
ENDBRANCH  66  67
ENDBRANCH  45  59
BRANCH  46  71
ATOM     71  C   UNL A   1      43.084  34.601  29.185  1.00  0.00     0.058 A 
ATOM     72  C   UNL A   1      43.665  35.722  29.804  1.00  0.00     0.135 A 
ATOM     73  C   UNL A   1      43.650  34.215  27.952  1.00  0.00     0.135 A 
ATOM     74  F   UNL A   1      43.212  36.151  30.992  1.00  0.00    -0.206 F 
ATOM     75  C   UNL A   1      44.769  36.387  29.260  1.00  0.00     0.059 A 
ATOM     76  C   UNL A   1      44.732  34.877  27.378  1.00  0.00     0.059 A 
ATOM     77  F   UNL A   1      43.232  33.120  27.301  1.00  0.00    -0.206 F 
ATOM     78  C   UNL A   1      45.308  35.944  28.053  1.00  0.00     0.060 A 
BRANCH  78  79
ATOM     79  S   UNL A   1      46.834  36.686  27.435  1.00  0.00     0.124 S 
ATOM     80  O   UNL A   1      47.823  35.670  27.776  1.00  0.00    -0.237 OA
ATOM     81  O   UNL A   1      46.542  36.844  26.014  1.00  0.00    -0.237 OA
ATOM     82  O   UNL A   1      46.935  37.933  28.190  1.00  0.00    -0.744 OA
ENDBRANCH  78  79
ENDBRANCH  46  71
BRANCH  58  83
ATOM     83  C   UNL A   1      41.189  30.713  33.924  1.00  0.00     0.058 A 
ATOM     84  C   UNL A   1      42.028  30.529  35.035  1.00  0.00     0.135 A 
ATOM     85  C   UNL A   1      40.212  31.717  34.013  1.00  0.00     0.135 A 
ATOM     86  F   UNL A   1      43.048  29.658  34.992  1.00  0.00    -0.206 F 
ATOM     87  C   UNL A   1      41.884  31.294  36.194  1.00  0.00     0.059 A 
ATOM     88  C   UNL A   1      40.069  32.511  35.148  1.00  0.00     0.059 A 
ATOM     89  F   UNL A   1      39.419  31.980  32.960  1.00  0.00    -0.206 F 
ATOM     90  C   UNL A   1      40.907  32.289  36.239  1.00  0.00     0.060 A 
BRANCH  90  91
ATOM     91  S   UNL A   1      40.807  33.360  37.691  1.00  0.00     0.124 S 
ATOM     92  O   UNL A   1      40.030  34.487  37.189  1.00  0.00    -0.237 OA
ATOM     93  O   UNL A   1      40.133  32.509  38.668  1.00  0.00    -0.237 OA
ATOM     94  O   UNL A   1      42.206  33.652  37.996  1.00  0.00    -0.744 OA
ENDBRANCH  90  91
ENDBRANCH  58  83
ENDBRANCH  32  33
ENDBRANCH  25  27
ENDBRANCH  24  25
ENDBRANCH  23  24
ENDBRANCH  22  23
ENDBRANCH  21  22
ENDBRANCH   1  21
TORSDOF 22
ENDMDL
MODEL 3
REMARK VINA RESULT:      -8.4      3.837      6.792
REMARK SMILES O=C(Cn1cnc2c(S)ncnc21)OCCOCCOCCOC(=O)c1ccc(-c2c3nc(c(-c4c(F)cc(S(=O)(=O)[O-])cc4F)c4ccc([nH]4)c(-c4c(F)cc(S(=O)(=O)[O-])cc4F)c4nc(c(-c5c(F)cc(S(=O)(=O)[O-])cc5F)c5ccc2[nH]5)C=C4)C=C3)cc1
REMARK SMILES IDX 19 1 18 2 17 3 16 4 15 5 14 6 2 7 1 8 3 9 4 10 5 11 13 12
REMARK SMILES IDX 6 13 7 14 12 15 8 16 11 17 10 18 9 19 20 21 21 22 22 23
REMARK SMILES IDX 23 24 24 25 25 26 26 27 27 28 91 29 28 30 90 31 29 32 30 33
REMARK SMILES IDX 31 34 84 35 32 36 89 37 83 38 85 39 33 40 88 41 82 42 81 43
REMARK SMILES IDX 34 45 68 46 47 47 67 48 48 49 51 50 66 51 86 52 49 53 50 54
REMARK SMILES IDX 65 56 87 57 52 58 35 59 36 60 45 61 37 62 38 63 44 64 46 65
REMARK SMILES IDX 39 66 40 67 41 68 42 69 43 70 69 71 70 72 79 73 71 74 72 75
REMARK SMILES IDX 78 76 80 77 73 78 74 79 75 80 76 81 77 82 53 83 54 84 63 85
REMARK SMILES IDX 55 86 56 87 62 88 64 89 57 90 58 91 59 92 60 93 61 94
REMARK H PARENT 9 20 85 44 51 55
REMARK Flexibility Score: inf
ROOT
ATOM      1  C   UNL A   1      33.264  31.315  27.642  1.00  0.00     0.188 C 
ENDROOT
BRANCH   1   2
ATOM      2  C   UNL A   1      32.646  30.483  26.502  1.00  0.00     0.188 C 
BRANCH   2   3
ATOM      3  O   UNL A   1      33.215  29.198  26.320  1.00  0.00    -0.376 OA
BRANCH   3   4
ATOM      4  C   UNL A   1      32.806  28.477  25.168  1.00  0.00     0.202 C 
BRANCH   4   5
ATOM      5  C   UNL A   1      32.033  29.277  24.119  1.00  0.00     0.261 C 
BRANCH   5   6
ATOM      6  O   UNL A   1      30.595  29.105  24.098  1.00  0.00    -0.462 OA
BRANCH   6   7
ATOM      7  C   UNL A   1      29.833  28.502  23.163  1.00  0.00     0.326 C 
ATOM      8  O   UNL A   1      29.505  29.122  22.151  1.00  0.00    -0.250 OA
BRANCH   7   9
ATOM      9  C   UNL A   1      29.319  27.117  23.399  1.00  0.00     0.247 C 
BRANCH   9  10
ATOM     10  N   UNL A   1      30.314  26.123  23.727  1.00  0.00    -0.304 N 
ATOM     11  C   UNL A   1      30.509  25.472  24.911  1.00  0.00     0.202 A 
ATOM     12  C   UNL A   1      31.314  25.742  22.874  1.00  0.00     0.164 A 
ATOM     13  N   UNL A   1      31.546  24.663  24.856  1.00  0.00    -0.232 NA
ATOM     14  C   UNL A   1      32.081  24.841  23.595  1.00  0.00     0.140 A 
ATOM     15  N   UNL A   1      31.519  26.172  21.620  1.00  0.00    -0.217 NA
ATOM     16  C   UNL A   1      33.200  24.340  22.928  1.00  0.00     0.124 A 
ATOM     17  C   UNL A   1      32.626  25.620  21.087  1.00  0.00     0.225 A 
ATOM     18  N   UNL A   1      33.472  24.741  21.662  1.00  0.00    -0.228 NA
BRANCH  16  19
ATOM     19  S   UNL A   1      34.299  23.219  23.720  1.00  0.00    -0.121 SA
ATOM     20  H   UNL A   1      35.302  22.887  22.864  1.00  0.00     0.110 HD
ENDBRANCH  16  19
ENDBRANCH   9  10
ENDBRANCH   7   9
ENDBRANCH   6   7
ENDBRANCH   5   6
ENDBRANCH   4   5
ENDBRANCH   3   4
ENDBRANCH   2   3
ENDBRANCH   1   2
BRANCH   1  21
ATOM     21  O   UNL A   1      34.065  32.452  27.345  1.00  0.00    -0.376 OA
BRANCH  21  22
ATOM     22  C   UNL A   1      33.752  33.731  27.891  1.00  0.00     0.202 C 
BRANCH  22  23
ATOM     23  C   UNL A   1      33.825  33.941  29.399  1.00  0.00     0.261 C 
BRANCH  23  24
ATOM     24  O   UNL A   1      35.095  33.566  29.930  1.00  0.00    -0.460 OA
BRANCH  24  25
ATOM     25  C   UNL A   1      35.098  32.417  30.639  1.00  0.00     0.338 C 
ATOM     26  O   UNL A   1      34.404  32.152  31.603  1.00  0.00    -0.246 OA
BRANCH  25  27
ATOM     27  C   UNL A   1      36.120  31.501  30.109  1.00  0.00     0.060 A 
ATOM     28  C   UNL A   1      36.300  30.304  30.808  1.00  0.00     0.016 A 
ATOM     29  C   UNL A   1      37.010  31.903  29.103  1.00  0.00     0.016 A 
ATOM     30  C   UNL A   1      37.483  29.613  30.652  1.00  0.00     0.010 A 
ATOM     31  C   UNL A   1      38.197  31.212  28.949  1.00  0.00     0.010 A 
ATOM     32  C   UNL A   1      38.457  30.135  29.797  1.00  0.00    -0.014 A 
BRANCH  32  33
ATOM     33  C   UNL A   1      39.805  29.615  29.953  1.00  0.00     0.031 A 
ATOM     34  C   UNL A   1      40.310  29.458  31.330  1.00  0.00     0.074 A 
ATOM     35  C   UNL A   1      40.523  29.236  28.877  1.00  0.00     0.049 A 
ATOM     36  N   UNL A   1      41.341  30.019  31.872  1.00  0.00    -0.248 NA
ATOM     37  C   UNL A   1      39.535  28.599  32.236  1.00  0.00     0.031 C 
ATOM     38  C   UNL A   1      40.032  29.068  27.503  1.00  0.00     0.029 A 
ATOM     39  N   UNL A   1      41.814  28.806  28.804  1.00  0.00    -0.354 N 
ATOM     40  C   UNL A   1      41.480  29.409  33.112  1.00  0.00     0.074 A 
ATOM     41  C   UNL A   1      40.274  28.652  33.343  1.00  0.00     0.031 C 
ATOM     42  C   UNL A   1      40.945  28.374  26.793  1.00  0.00     0.029 A 
ATOM     43  C   UNL A   1      42.118  28.148  27.620  1.00  0.00     0.049 A 
ATOM     44  H   UNL A   1      42.471  28.949  29.523  1.00  0.00     0.167 HD
ATOM     45  C   UNL A   1      42.675  29.349  33.755  1.00  0.00     0.037 A 
ATOM     46  C   UNL A   1      43.213  27.391  27.372  1.00  0.00     0.037 A 
ATOM     47  C   UNL A   1      43.612  30.333  33.293  1.00  0.00     0.049 A 
ATOM     48  C   UNL A   1      44.264  27.783  28.347  1.00  0.00     0.074 A 
ATOM     49  C   UNL A   1      43.606  31.711  33.194  1.00  0.00     0.029 A 
ATOM     50  N   UNL A   1      44.687  29.909  32.552  1.00  0.00    -0.354 N 
ATOM     51  N   UNL A   1      44.883  28.932  28.357  1.00  0.00    -0.248 NA
ATOM     52  C   UNL A   1      44.415  26.987  29.557  1.00  0.00     0.031 C 
ATOM     53  C   UNL A   1      44.409  32.017  32.058  1.00  0.00     0.029 A 
ATOM     54  C   UNL A   1      44.863  30.807  31.529  1.00  0.00     0.049 A 
ATOM     55  H   UNL A   1      45.231  29.106  32.721  1.00  0.00     0.167 HD
ATOM     56  C   UNL A   1      45.168  29.173  29.692  1.00  0.00     0.074 A 
ATOM     57  C   UNL A   1      44.983  27.891  30.356  1.00  0.00     0.031 C 
ATOM     58  C   UNL A   1      45.253  30.443  30.183  1.00  0.00     0.037 A 
BRANCH  45  59
ATOM     59  C   UNL A   1      43.084  28.142  34.553  1.00  0.00     0.058 A 
ATOM     60  C   UNL A   1      43.404  28.266  35.915  1.00  0.00     0.135 A 
ATOM     61  C   UNL A   1      43.421  26.911  33.943  1.00  0.00     0.135 A 
ATOM     62  F   UNL A   1      43.163  29.413  36.570  1.00  0.00    -0.206 F 
ATOM     63  C   UNL A   1      44.041  27.244  36.620  1.00  0.00     0.059 A 
ATOM     64  C   UNL A   1      44.004  25.862  34.638  1.00  0.00     0.059 A 
ATOM     65  F   UNL A   1      43.284  26.718  32.623  1.00  0.00    -0.206 F 
ATOM     66  C   UNL A   1      44.346  26.051  35.967  1.00  0.00     0.060 A 
BRANCH  66  67
ATOM     67  S   UNL A   1      45.256  24.764  36.838  1.00  0.00     0.124 S 
ATOM     68  O   UNL A   1      46.633  25.159  36.570  1.00  0.00    -0.237 OA
ATOM     69  O   UNL A   1      44.795  24.934  38.212  1.00  0.00    -0.237 OA
ATOM     70  O   UNL A   1      44.806  23.539  36.182  1.00  0.00    -0.744 OA
ENDBRANCH  66  67
ENDBRANCH  45  59
BRANCH  46  71
ATOM     71  C   UNL A   1      43.302  26.155  26.547  1.00  0.00     0.058 A 
ATOM     72  C   UNL A   1      44.295  26.019  25.561  1.00  0.00     0.135 A 
ATOM     73  C   UNL A   1      42.594  24.980  26.876  1.00  0.00     0.135 A 
ATOM     74  F   UNL A   1      45.039  27.076  25.198  1.00  0.00    -0.206 F 
ATOM     75  C   UNL A   1      44.601  24.787  24.975  1.00  0.00     0.059 A 
ATOM     76  C   UNL A   1      42.863  23.748  26.287  1.00  0.00     0.059 A 
ATOM     77  F   UNL A   1      41.675  24.966  27.853  1.00  0.00    -0.206 F 
ATOM     78  C   UNL A   1      43.890  23.651  25.360  1.00  0.00     0.060 A 
BRANCH  78  79
ATOM     79  S   UNL A   1      44.395  22.032  24.737  1.00  0.00     0.124 S 
ATOM     80  O   UNL A   1      43.362  21.162  25.285  1.00  0.00    -0.237 OA
ATOM     81  O   UNL A   1      44.360  22.238  23.292  1.00  0.00    -0.237 OA
ATOM     82  O   UNL A   1      45.729  21.852  25.304  1.00  0.00    -0.744 OA
ENDBRANCH  78  79
ENDBRANCH  46  71
BRANCH  58  83
ATOM     83  C   UNL A   1      45.469  31.575  29.214  1.00  0.00     0.058 A 
ATOM     84  C   UNL A   1      46.729  32.102  28.888  1.00  0.00     0.135 A 
ATOM     85  C   UNL A   1      44.369  32.022  28.463  1.00  0.00     0.135 A 
ATOM     86  F   UNL A   1      47.840  31.654  29.491  1.00  0.00    -0.206 F 
ATOM     87  C   UNL A   1      46.885  33.052  27.877  1.00  0.00     0.059 A 
ATOM     88  C   UNL A   1      44.506  32.947  27.432  1.00  0.00     0.059 A 
ATOM     89  F   UNL A   1      43.148  31.510  28.688  1.00  0.00    -0.206 F 
ATOM     90  C   UNL A   1      45.769  33.463  27.148  1.00  0.00     0.060 A 
BRANCH  90  91
ATOM     91  S   UNL A   1      45.994  34.597  25.758  1.00  0.00     0.124 S 
ATOM     92  O   UNL A   1      44.948  34.166  24.838  1.00  0.00    -0.237 OA
ATOM     93  O   UNL A   1      45.795  35.904  26.379  1.00  0.00    -0.237 OA
ATOM     94  O   UNL A   1      47.362  34.330  25.319  1.00  0.00    -0.744 OA
ENDBRANCH  90  91
ENDBRANCH  58  83
ENDBRANCH  32  33
ENDBRANCH  25  27
ENDBRANCH  24  25
ENDBRANCH  23  24
ENDBRANCH  22  23
ENDBRANCH  21  22
ENDBRANCH   1  21
TORSDOF 22
ENDMDL
