MODEL 1
REMARK VINA RESULT:      -9.5      0.000      0.000
REMARK SMILES C[C@@H](C(=O)OCCOCCOCCOC(=O)c1ccc(-c2c3nc(c(-c4c(F)cc(S(=O)(=O)[O-])cc4F)c4ccc([nH]4)c(-c4c(F)cc(S(=O)(=O)[O-])cc4F)c4nc(c(-c5c(F)cc(S(=O)(=O)[O-])cc5F)c5ccc2[nH]5)C=C4)C=C3)cc1)c1ccc(-c2cccc(OC(=O)Nc3ccccc3)c2)c(F)c1
REMARK SMILES IDX 9 1 8 2 7 3 6 4 5 5 3 6 4 7 2 8 1 9 83 10 84 11 105 12 85 13
REMARK SMILES IDX 103 14 86 15 104 16 87 17 88 18 102 19 89 20 91 21 90 22
REMARK SMILES IDX 92 23 93 24 94 25 95 26 96 28 97 29 101 30 98 31 100 32
REMARK SMILES IDX 99 33 10 34 11 35 12 36 13 37 14 38 15 39 16 40 17 41 18 42
REMARK SMILES IDX 82 43 19 44 81 45 20 46 21 47 22 48 75 49 23 50 80 51 74 52
REMARK SMILES IDX 76 53 24 54 79 55 73 56 72 57 25 59 59 60 38 61 58 62 39 63
REMARK SMILES IDX 42 64 57 65 77 66 40 67 41 68 56 70 78 71 43 72 26 73 27 74
REMARK SMILES IDX 36 75 28 76 29 77 35 78 37 79 30 80 31 81 32 82 33 83 34 84
REMARK SMILES IDX 60 85 61 86 70 87 62 88 63 89 69 90 71 91 64 92 65 93 66 94
REMARK SMILES IDX 67 95 68 96 44 97 45 98 54 99 46 100 47 101 53 102 55 103
REMARK SMILES IDX 48 104 49 105 50 106 51 107 52 108
REMARK H PARENT 95 27 76 58 42 69
REMARK Flexibility Score: inf
ROOT
ATOM      1  C   UNL A   1      45.575  24.449  25.451  1.00  0.00     0.188 C 
ENDROOT
BRANCH   1   2
ATOM      2  O   UNL A   1      45.456  23.655  24.273  1.00  0.00    -0.376 OA
BRANCH   2   3
ATOM      3  C   UNL A   1      44.316  22.806  24.140  1.00  0.00     0.202 C 
BRANCH   3   4
ATOM      4  C   UNL A   1      43.683  22.240  25.421  1.00  0.00     0.261 C 
BRANCH   4   5
ATOM      5  O   UNL A   1      42.614  21.304  25.170  1.00  0.00    -0.463 OA
BRANCH   5   6
ATOM      6  C   UNL A   1      41.819  21.007  26.231  1.00  0.00     0.313 C 
ATOM      7  O   UNL A   1      41.633  19.866  26.641  1.00  0.00    -0.252 OA
BRANCH   6   8
ATOM      8  C   UNL A   1      41.222  22.244  26.919  1.00  0.00     0.126 C 
ATOM      9  C   UNL A   1      41.430  22.244  28.441  1.00  0.00     0.025 C 
BRANCH   8  10
ATOM     10  C   UNL A   1      39.818  22.637  26.438  1.00  0.00    -0.031 A 
ATOM     11  C   UNL A   1      39.283  23.901  26.736  1.00  0.00     0.005 A 
ATOM     12  C   UNL A   1      38.953  21.710  25.834  1.00  0.00     0.044 A 
ATOM     13  C   UNL A   1      37.932  24.201  26.496  1.00  0.00     0.012 A 
ATOM     14  C   UNL A   1      37.605  22.018  25.598  1.00  0.00     0.131 A 
ATOM     15  C   UNL A   1      37.051  23.248  25.960  1.00  0.00     0.018 A 
ATOM     16  F   UNL A   1      36.839  21.069  25.035  1.00  0.00    -0.206 F 
BRANCH  15  17
ATOM     17  C   UNL A   1      35.605  23.528  25.868  1.00  0.00    -0.012 A 
ATOM     18  C   UNL A   1      34.724  23.080  26.861  1.00  0.00     0.009 A 
ATOM     19  C   UNL A   1      35.051  24.180  24.748  1.00  0.00     0.056 A 
ATOM     20  C   UNL A   1      33.349  23.285  26.753  1.00  0.00     0.004 A 
ATOM     21  C   UNL A   1      33.669  24.336  24.629  1.00  0.00     0.133 A 
ATOM     22  C   UNL A   1      32.815  23.908  25.638  1.00  0.00     0.047 A 
BRANCH  21  23
ATOM     23  O   UNL A   1      33.004  24.882  23.511  1.00  0.00    -0.410 OA
BRANCH  23  24
ATOM     24  C   UNL A   1      33.438  25.990  22.804  1.00  0.00     0.417 C 
ATOM     25  O   UNL A   1      33.856  25.989  21.647  1.00  0.00    -0.224 OA
ATOM     26  N   UNL A   1      33.279  27.186  23.460  1.00  0.00    -0.291 N 
ATOM     27  H   UNL A   1      33.537  27.977  22.934  1.00  0.00     0.173 HD
BRANCH  26  28
ATOM     28  C   UNL A   1      32.811  27.473  24.754  1.00  0.00     0.044 A 
ATOM     29  C   UNL A   1      33.777  27.827  25.706  1.00  0.00     0.026 A 
ATOM     30  C   UNL A   1      31.471  27.420  25.143  1.00  0.00     0.026 A 
ATOM     31  C   UNL A   1      33.406  28.164  27.010  1.00  0.00     0.002 A 
ATOM     32  C   UNL A   1      31.101  27.744  26.453  1.00  0.00     0.002 A 
ATOM     33  C   UNL A   1      32.066  28.123  27.384  1.00  0.00     0.000 A 
ENDBRANCH  26  28
ENDBRANCH  23  24
ENDBRANCH  21  23
ENDBRANCH  15  17
ENDBRANCH   8  10
ENDBRANCH   6   8
ENDBRANCH   5   6
ENDBRANCH   4   5
ENDBRANCH   3   4
ENDBRANCH   2   3
ENDBRANCH   1   2
BRANCH   1  34
ATOM     34  C   UNL A   1      45.129  25.919  25.384  1.00  0.00     0.188 C 
BRANCH  34  35
ATOM     35  O   UNL A   1      43.731  26.097  25.278  1.00  0.00    -0.376 OA
BRANCH  35  36
ATOM     36  C   UNL A   1      43.254  27.349  24.814  1.00  0.00     0.202 C 
BRANCH  36  37
ATOM     37  C   UNL A   1      42.311  28.148  25.729  1.00  0.00     0.261 C 
BRANCH  37  38
ATOM     38  O   UNL A   1      41.236  27.416  26.339  1.00  0.00    -0.460 OA
BRANCH  38  39
ATOM     39  C   UNL A   1      41.463  26.881  27.563  1.00  0.00     0.338 C 
ATOM     40  O   UNL A   1      41.669  25.710  27.821  1.00  0.00    -0.246 OA
BRANCH  39  41
ATOM     41  C   UNL A   1      41.646  28.014  28.502  1.00  0.00     0.060 A 
ATOM     42  C   UNL A   1      40.698  29.048  28.528  1.00  0.00     0.016 A 
ATOM     43  C   UNL A   1      42.732  28.031  29.378  1.00  0.00     0.016 A 
ATOM     44  C   UNL A   1      40.847  30.111  29.423  1.00  0.00     0.010 A 
ATOM     45  C   UNL A   1      42.895  29.107  30.254  1.00  0.00     0.010 A 
ATOM     46  C   UNL A   1      41.967  30.164  30.265  1.00  0.00    -0.014 A 
BRANCH  46  47
ATOM     47  C   UNL A   1      42.286  31.408  31.011  1.00  0.00     0.031 A 
ATOM     48  C   UNL A   1      43.237  32.385  30.374  1.00  0.00     0.074 A 
ATOM     49  C   UNL A   1      41.781  31.645  32.236  1.00  0.00     0.049 A 
ATOM     50  N   UNL A   1      43.683  33.527  30.829  1.00  0.00    -0.248 NA
ATOM     51  C   UNL A   1      43.781  32.007  29.059  1.00  0.00     0.031 C 
ATOM     52  C   UNL A   1      40.868  30.759  32.953  1.00  0.00     0.029 A 
ATOM     53  N   UNL A   1      41.952  32.710  33.089  1.00  0.00    -0.354 N 
ATOM     54  C   UNL A   1      44.599  33.975  29.884  1.00  0.00     0.074 A 
ATOM     55  C   UNL A   1      44.635  32.992  28.824  1.00  0.00     0.031 C 
ATOM     56  C   UNL A   1      40.517  31.341  34.115  1.00  0.00     0.029 A 
ATOM     57  C   UNL A   1      41.189  32.635  34.235  1.00  0.00     0.049 A 
ATOM     58  H   UNL A   1      42.563  33.458  32.899  1.00  0.00     0.167 HD
ATOM     59  C   UNL A   1      45.360  35.095  29.913  1.00  0.00     0.037 A 
ATOM     60  C   UNL A   1      41.020  33.534  35.229  1.00  0.00     0.037 A 
ATOM     61  C   UNL A   1      45.306  36.073  30.966  1.00  0.00     0.049 A 
ATOM     62  C   UNL A   1      41.804  34.827  35.179  1.00  0.00     0.074 A 
ATOM     63  C   UNL A   1      46.029  37.245  31.089  1.00  0.00     0.029 A 
ATOM     64  N   UNL A   1      44.479  35.994  32.077  1.00  0.00    -0.354 N 
ATOM     65  N   UNL A   1      42.623  35.264  34.251  1.00  0.00    -0.248 NA
ATOM     66  C   UNL A   1      41.648  35.744  36.319  1.00  0.00     0.031 C 
ATOM     67  C   UNL A   1      45.678  37.849  32.301  1.00  0.00     0.029 A 
ATOM     68  C   UNL A   1      44.693  37.084  32.904  1.00  0.00     0.049 A 
ATOM     69  H   UNL A   1      43.836  35.269  32.253  1.00  0.00     0.167 HD
ATOM     70  C   UNL A   1      43.077  36.504  34.696  1.00  0.00     0.074 A 
ATOM     71  C   UNL A   1      42.398  36.772  35.945  1.00  0.00     0.031 C 
ATOM     72  C   UNL A   1      43.996  37.333  34.141  1.00  0.00     0.037 A 
BRANCH  59  73
ATOM     73  C   UNL A   1      46.361  35.286  28.809  1.00  0.00     0.058 A 
ATOM     74  C   UNL A   1      46.041  35.943  27.611  1.00  0.00     0.135 A 
ATOM     75  C   UNL A   1      47.676  34.819  28.967  1.00  0.00     0.135 A 
ATOM     76  F   UNL A   1      44.792  36.388  27.397  1.00  0.00    -0.206 F 
ATOM     77  C   UNL A   1      46.984  36.113  26.601  1.00  0.00     0.059 A 
ATOM     78  C   UNL A   1      48.642  35.002  27.983  1.00  0.00     0.059 A 
ATOM     79  F   UNL A   1      48.035  34.175  30.090  1.00  0.00    -0.206 F 
ATOM     80  C   UNL A   1      48.283  35.639  26.797  1.00  0.00     0.060 A 
BRANCH  80  81
ATOM     81  S   UNL A   1      49.499  35.877  25.484  1.00  0.00     0.124 S 
ATOM     82  O   UNL A   1      49.489  34.567  24.839  1.00  0.00    -0.237 OA
ATOM     83  O   UNL A   1      48.914  36.967  24.711  1.00  0.00    -0.237 OA
ATOM     84  O   UNL A   1      50.722  36.210  26.208  1.00  0.00    -0.744 OA
ENDBRANCH  80  81
ENDBRANCH  59  73
BRANCH  60  85
ATOM     85  C   UNL A   1      39.996  33.316  36.299  1.00  0.00     0.058 A 
ATOM     86  C   UNL A   1      40.367  32.757  37.538  1.00  0.00     0.135 A 
ATOM     87  C   UNL A   1      38.647  33.658  36.136  1.00  0.00     0.135 A 
ATOM     88  F   UNL A   1      41.639  32.382  37.751  1.00  0.00    -0.206 F 
ATOM     89  C   UNL A   1      39.453  32.553  38.565  1.00  0.00     0.059 A 
ATOM     90  C   UNL A   1      37.714  33.487  37.158  1.00  0.00     0.059 A 
ATOM     91  F   UNL A   1      38.224  34.192  34.979  1.00  0.00    -0.206 F 
ATOM     92  C   UNL A   1      38.126  32.926  38.367  1.00  0.00     0.060 A 
BRANCH  92  93
ATOM     93  S   UNL A   1      36.956  32.701  39.724  1.00  0.00     0.124 S 
ATOM     94  O   UNL A   1      37.295  31.359  40.184  1.00  0.00    -0.237 OA
ATOM     95  O   UNL A   1      37.314  33.793  40.623  1.00  0.00    -0.237 OA
ATOM     96  O   UNL A   1      35.657  32.836  39.071  1.00  0.00    -0.744 OA
ENDBRANCH  92  93
ENDBRANCH  60  85
BRANCH  72  97
ATOM     97  C   UNL A   1      44.332  38.600  34.885  1.00  0.00     0.058 A 
ATOM     98  C   UNL A   1      43.810  39.841  34.487  1.00  0.00     0.135 A 
ATOM     99  C   UNL A   1      45.126  38.564  36.043  1.00  0.00     0.135 A 
ATOM    100  F   UNL A   1      43.044  39.932  33.388  1.00  0.00    -0.206 F 
ATOM    101  C   UNL A   1      44.086  41.007  35.193  1.00  0.00     0.059 A 
ATOM    102  C   UNL A   1      45.390  39.714  36.783  1.00  0.00     0.059 A 
ATOM    103  F   UNL A   1      45.638  37.402  36.477  1.00  0.00    -0.206 F 
ATOM    104  C   UNL A   1      44.875  40.933  36.342  1.00  0.00     0.060 A 
BRANCH 104 105
ATOM    105  S   UNL A   1      45.196  42.449  37.267  1.00  0.00     0.124 S 
ATOM    106  O   UNL A   1      43.972  42.579  38.051  1.00  0.00    -0.237 OA
ATOM    107  O   UNL A   1      46.399  42.107  38.021  1.00  0.00    -0.237 OA
ATOM    108  O   UNL A   1      45.383  43.452  36.223  1.00  0.00    -0.744 OA
ENDBRANCH 104 105
ENDBRANCH  72  97
ENDBRANCH  46  47
ENDBRANCH  39  41
ENDBRANCH  38  39
ENDBRANCH  37  38
ENDBRANCH  36  37
ENDBRANCH  35  36
ENDBRANCH  34  35
ENDBRANCH   1  34
TORSDOF 25
ENDMDL
MODEL 2
REMARK VINA RESULT:      -9.4      8.719     14.519
REMARK SMILES C[C@@H](C(=O)OCCOCCOCCOC(=O)c1ccc(-c2c3nc(c(-c4c(F)cc(S(=O)(=O)[O-])cc4F)c4ccc([nH]4)c(-c4c(F)cc(S(=O)(=O)[O-])cc4F)c4nc(c(-c5c(F)cc(S(=O)(=O)[O-])cc5F)c5ccc2[nH]5)C=C4)C=C3)cc1)c1ccc(-c2cccc(OC(=O)Nc3ccccc3)c2)c(F)c1
REMARK SMILES IDX 9 1 8 2 7 3 6 4 5 5 3 6 4 7 2 8 1 9 83 10 84 11 105 12 85 13
REMARK SMILES IDX 103 14 86 15 104 16 87 17 88 18 102 19 89 20 91 21 90 22
REMARK SMILES IDX 92 23 93 24 94 25 95 26 96 28 97 29 101 30 98 31 100 32
REMARK SMILES IDX 99 33 10 34 11 35 12 36 13 37 14 38 15 39 16 40 17 41 18 42
REMARK SMILES IDX 82 43 19 44 81 45 20 46 21 47 22 48 75 49 23 50 80 51 74 52
REMARK SMILES IDX 76 53 24 54 79 55 73 56 72 57 25 59 59 60 38 61 58 62 39 63
REMARK SMILES IDX 42 64 57 65 77 66 40 67 41 68 56 70 78 71 43 72 26 73 27 74
REMARK SMILES IDX 36 75 28 76 29 77 35 78 37 79 30 80 31 81 32 82 33 83 34 84
REMARK SMILES IDX 60 85 61 86 70 87 62 88 63 89 69 90 71 91 64 92 65 93 66 94
REMARK SMILES IDX 67 95 68 96 44 97 45 98 54 99 46 100 47 101 53 102 55 103
REMARK SMILES IDX 48 104 49 105 50 106 51 107 52 108
REMARK H PARENT 95 27 76 58 42 69
REMARK Flexibility Score: inf
ROOT
ATOM      1  C   UNL A   1      45.784  21.727  40.799  1.00  0.00     0.188 C 
ENDROOT
BRANCH   1   2
ATOM      2  O   UNL A   1      44.891  20.651  41.076  1.00  0.00    -0.376 OA
BRANCH   2   3
ATOM      3  C   UNL A   1      44.446  20.468  42.419  1.00  0.00     0.202 C 
BRANCH   3   4
ATOM      4  C   UNL A   1      44.947  19.233  43.184  1.00  0.00     0.261 C 
BRANCH   4   5
ATOM      5  O   UNL A   1      46.303  19.360  43.659  1.00  0.00    -0.463 OA
BRANCH   5   6
ATOM      6  C   UNL A   1      47.145  18.344  43.338  1.00  0.00     0.313 C 
ATOM      7  O   UNL A   1      48.039  17.943  44.078  1.00  0.00    -0.252 OA
BRANCH   6   8
ATOM      8  C   UNL A   1      46.835  17.690  41.983  1.00  0.00     0.126 C 
ATOM      9  C   UNL A   1      46.492  16.197  42.100  1.00  0.00     0.025 C 
BRANCH   8  10
ATOM     10  C   UNL A   1      47.797  18.066  40.848  1.00  0.00    -0.031 A 
ATOM     11  C   UNL A   1      49.186  18.079  41.056  1.00  0.00     0.005 A 
ATOM     12  C   UNL A   1      47.337  18.567  39.619  1.00  0.00     0.044 A 
ATOM     13  C   UNL A   1      50.066  18.621  40.106  1.00  0.00     0.012 A 
ATOM     14  C   UNL A   1      48.223  19.108  38.676  1.00  0.00     0.131 A 
ATOM     15  C   UNL A   1      49.598  19.190  38.911  1.00  0.00     0.018 A 
ATOM     16  F   UNL A   1      47.701  19.586  37.534  1.00  0.00    -0.206 F 
BRANCH  15  17
ATOM     17  C   UNL A   1      50.519  19.900  38.003  1.00  0.00    -0.012 A 
ATOM     18  C   UNL A   1      50.956  21.198  38.297  1.00  0.00     0.009 A 
ATOM     19  C   UNL A   1      50.926  19.335  36.777  1.00  0.00     0.056 A 
ATOM     20  C   UNL A   1      51.778  21.901  37.417  1.00  0.00     0.004 A 
ATOM     21  C   UNL A   1      51.708  20.068  35.883  1.00  0.00     0.133 A 
ATOM     22  C   UNL A   1      52.154  21.343  36.206  1.00  0.00     0.047 A 
BRANCH  21  23
ATOM     23  O   UNL A   1      52.089  19.641  34.593  1.00  0.00    -0.410 OA
BRANCH  23  24
ATOM     24  C   UNL A   1      52.183  20.470  33.488  1.00  0.00     0.417 C 
ATOM     25  O   UNL A   1      53.201  20.680  32.830  1.00  0.00    -0.224 OA
ATOM     26  N   UNL A   1      50.991  21.006  33.071  1.00  0.00    -0.291 N 
ATOM     27  H   UNL A   1      51.052  21.551  32.253  1.00  0.00     0.173 HD
BRANCH  26  28
ATOM     28  C   UNL A   1      49.697  20.911  33.611  1.00  0.00     0.044 A 
ATOM     29  C   UNL A   1      49.235  22.021  34.332  1.00  0.00     0.026 A 
ATOM     30  C   UNL A   1      48.863  19.798  33.484  1.00  0.00     0.026 A 
ATOM     31  C   UNL A   1      47.949  22.035  34.878  1.00  0.00     0.002 A 
ATOM     32  C   UNL A   1      47.580  19.807  34.043  1.00  0.00     0.002 A 
ATOM     33  C   UNL A   1      47.121  20.927  34.732  1.00  0.00     0.000 A 
ENDBRANCH  26  28
ENDBRANCH  23  24
ENDBRANCH  21  23
ENDBRANCH  15  17
ENDBRANCH   8  10
ENDBRANCH   6   8
ENDBRANCH   5   6
ENDBRANCH   4   5
ENDBRANCH   3   4
ENDBRANCH   2   3
ENDBRANCH   1   2
BRANCH   1  34
ATOM     34  C   UNL A   1      45.723  22.382  39.409  1.00  0.00     0.188 C 
BRANCH  34  35
ATOM     35  O   UNL A   1      45.164  23.680  39.403  1.00  0.00    -0.376 OA
BRANCH  35  36
ATOM     36  C   UNL A   1      45.931  24.734  39.959  1.00  0.00     0.202 C 
BRANCH  36  37
ATOM     37  C   UNL A   1      47.309  25.030  39.343  1.00  0.00     0.261 C 
BRANCH  37  38
ATOM     38  O   UNL A   1      47.353  26.048  38.330  1.00  0.00    -0.460 OA
BRANCH  38  39
ATOM     39  C   UNL A   1      47.008  27.306  38.696  1.00  0.00     0.338 C 
ATOM     40  O   UNL A   1      47.558  27.999  39.532  1.00  0.00    -0.246 OA
BRANCH  39  41
ATOM     41  C   UNL A   1      45.985  27.772  37.731  1.00  0.00     0.060 A 
ATOM     42  C   UNL A   1      46.306  28.796  36.826  1.00  0.00     0.016 A 
ATOM     43  C   UNL A   1      44.726  27.171  37.697  1.00  0.00     0.016 A 
ATOM     44  C   UNL A   1      45.357  29.229  35.895  1.00  0.00     0.010 A 
ATOM     45  C   UNL A   1      43.769  27.624  36.785  1.00  0.00     0.010 A 
ATOM     46  C   UNL A   1      44.071  28.671  35.896  1.00  0.00    -0.014 A 
BRANCH  46  47
ATOM     47  C   UNL A   1      42.977  29.305  35.117  1.00  0.00     0.031 A 
ATOM     48  C   UNL A   1      42.239  30.454  35.749  1.00  0.00     0.074 A 
ATOM     49  C   UNL A   1      42.621  28.850  33.902  1.00  0.00     0.049 A 
ATOM     50  N   UNL A   1      41.242  31.159  35.282  1.00  0.00    -0.248 NA
ATOM     51  C   UNL A   1      42.666  30.840  37.104  1.00  0.00     0.031 C 
ATOM     52  C   UNL A   1      43.254  27.733  33.205  1.00  0.00     0.029 A 
ATOM     53  N   UNL A   1      41.648  29.278  33.029  1.00  0.00    -0.354 N 
ATOM     54  C   UNL A   1      40.887  32.031  36.304  1.00  0.00     0.074 A 
ATOM     55  C   UNL A   1      41.784  31.780  37.410  1.00  0.00     0.031 C 
ATOM     56  C   UNL A   1      42.689  27.598  31.992  1.00  0.00     0.029 A 
ATOM     57  C   UNL A   1      41.643  28.608  31.825  1.00  0.00     0.049 A 
ATOM     58  H   UNL A   1      41.012  29.998  33.245  1.00  0.00     0.167 HD
ATOM     59  C   UNL A   1      39.886  32.942  36.325  1.00  0.00     0.037 A 
ATOM     60  C   UNL A   1      40.914  28.826  30.709  1.00  0.00     0.037 A 
ATOM     61  C   UNL A   1      39.008  33.194  35.212  1.00  0.00     0.049 A 
ATOM     62  C   UNL A   1      39.874  29.925  30.726  1.00  0.00     0.074 A 
ATOM     63  C   UNL A   1      37.966  34.098  35.127  1.00  0.00     0.029 A 
ATOM     64  N   UNL A   1      39.073  32.539  33.991  1.00  0.00    -0.354 N 
ATOM     65  N   UNL A   1      39.588  30.781  31.679  1.00  0.00    -0.248 NA
ATOM     66  C   UNL A   1      39.050  30.080  29.517  1.00  0.00     0.031 C 
ATOM     67  C   UNL A   1      37.366  33.955  33.872  1.00  0.00     0.029 A 
ATOM     68  C   UNL A   1      38.071  33.003  33.154  1.00  0.00     0.049 A 
ATOM     69  H   UNL A   1      39.731  31.847  33.755  1.00  0.00     0.167 HD
ATOM     70  C   UNL A   1      38.554  31.573  31.184  1.00  0.00     0.074 A 
ATOM     71  C   UNL A   1      38.306  31.133  29.828  1.00  0.00     0.031 C 
ATOM     72  C   UNL A   1      37.851  32.554  31.803  1.00  0.00     0.037 A 
BRANCH  59  73
ATOM     73  C   UNL A   1      39.644  33.683  37.610  1.00  0.00     0.058 A 
ATOM     74  C   UNL A   1      38.692  33.262  38.550  1.00  0.00     0.135 A 
ATOM     75  C   UNL A   1      40.401  34.827  37.912  1.00  0.00     0.135 A 
ATOM     76  F   UNL A   1      37.923  32.189  38.301  1.00  0.00    -0.206 F 
ATOM     77  C   UNL A   1      38.484  33.961  39.736  1.00  0.00     0.059 A 
ATOM     78  C   UNL A   1      40.230  35.525  39.103  1.00  0.00     0.059 A 
ATOM     79  F   UNL A   1      41.320  35.280  37.044  1.00  0.00    -0.206 F 
ATOM     80  C   UNL A   1      39.259  35.091  40.004  1.00  0.00     0.060 A 
BRANCH  80  81
ATOM     81  S   UNL A   1      38.988  35.980  41.551  1.00  0.00     0.124 S 
ATOM     82  O   UNL A   1      38.882  37.358  41.080  1.00  0.00    -0.237 OA
ATOM     83  O   UNL A   1      37.751  35.383  42.042  1.00  0.00    -0.237 OA
ATOM     84  O   UNL A   1      40.182  35.676  42.334  1.00  0.00    -0.744 OA
ENDBRANCH  80  81
ENDBRANCH  59  73
BRANCH  60  85
ATOM     85  C   UNL A   1      41.200  28.081  29.443  1.00  0.00     0.058 A 
ATOM     86  C   UNL A   1      42.231  28.505  28.582  1.00  0.00     0.135 A 
ATOM     87  C   UNL A   1      40.482  26.939  29.060  1.00  0.00     0.135 A 
ATOM     88  F   UNL A   1      42.941  29.606  28.877  1.00  0.00    -0.206 F 
ATOM     89  C   UNL A   1      42.542  27.832  27.406  1.00  0.00     0.059 A 
ATOM     90  C   UNL A   1      40.789  26.232  27.899  1.00  0.00     0.059 A 
ATOM     91  F   UNL A   1      39.484  26.482  29.832  1.00  0.00    -0.206 F 
ATOM     92  C   UNL A   1      41.817  26.690  27.074  1.00  0.00     0.060 A 
BRANCH  92  93
ATOM     93  S   UNL A   1      42.259  25.796  25.569  1.00  0.00     0.124 S 
ATOM     94  O   UNL A   1      40.946  25.433  25.047  1.00  0.00    -0.237 OA
ATOM     95  O   UNL A   1      42.989  26.808  24.813  1.00  0.00    -0.237 OA
ATOM     96  O   UNL A   1      43.071  24.688  26.065  1.00  0.00    -0.744 OA
ENDBRANCH  92  93
ENDBRANCH  60  85
BRANCH  72  97
ATOM     97  C   UNL A   1      36.737  33.208  31.026  1.00  0.00     0.058 A 
ATOM     98  C   UNL A   1      37.002  34.174  30.042  1.00  0.00     0.135 A 
ATOM     99  C   UNL A   1      35.401  32.819  31.218  1.00  0.00     0.135 A 
ATOM    100  F   UNL A   1      38.261  34.582  29.816  1.00  0.00    -0.206 F 
ATOM    101  C   UNL A   1      35.981  34.753  29.296  1.00  0.00     0.059 A 
ATOM    102  C   UNL A   1      34.366  33.363  30.462  1.00  0.00     0.059 A 
ATOM    103  F   UNL A   1      35.092  31.888  32.135  1.00  0.00    -0.206 F 
ATOM    104  C   UNL A   1      34.666  34.339  29.512  1.00  0.00     0.060 A 
BRANCH 104 105
ATOM    105  S   UNL A   1      33.355  35.074  28.513  1.00  0.00     0.124 S 
ATOM    106  O   UNL A   1      32.599  35.814  29.518  1.00  0.00    -0.237 OA
ATOM    107  O   UNL A   1      34.106  35.886  27.559  1.00  0.00    -0.237 OA
ATOM    108  O   UNL A   1      32.673  33.917  27.940  1.00  0.00    -0.744 OA
ENDBRANCH 104 105
ENDBRANCH  72  97
ENDBRANCH  46  47
ENDBRANCH  39  41
ENDBRANCH  38  39
ENDBRANCH  37  38
ENDBRANCH  36  37
ENDBRANCH  35  36
ENDBRANCH  34  35
ENDBRANCH   1  34
TORSDOF 25
ENDMDL
MODEL 3
REMARK VINA RESULT:      -9.2      5.219     12.261
REMARK SMILES C[C@@H](C(=O)OCCOCCOCCOC(=O)c1ccc(-c2c3nc(c(-c4c(F)cc(S(=O)(=O)[O-])cc4F)c4ccc([nH]4)c(-c4c(F)cc(S(=O)(=O)[O-])cc4F)c4nc(c(-c5c(F)cc(S(=O)(=O)[O-])cc5F)c5ccc2[nH]5)C=C4)C=C3)cc1)c1ccc(-c2cccc(OC(=O)Nc3ccccc3)c2)c(F)c1
REMARK SMILES IDX 9 1 8 2 7 3 6 4 5 5 3 6 4 7 2 8 1 9 83 10 84 11 105 12 85 13
REMARK SMILES IDX 103 14 86 15 104 16 87 17 88 18 102 19 89 20 91 21 90 22
REMARK SMILES IDX 92 23 93 24 94 25 95 26 96 28 97 29 101 30 98 31 100 32
REMARK SMILES IDX 99 33 10 34 11 35 12 36 13 37 14 38 15 39 16 40 17 41 18 42
REMARK SMILES IDX 82 43 19 44 81 45 20 46 21 47 22 48 75 49 23 50 80 51 74 52
REMARK SMILES IDX 76 53 24 54 79 55 73 56 72 57 25 59 59 60 38 61 58 62 39 63
REMARK SMILES IDX 42 64 57 65 77 66 40 67 41 68 56 70 78 71 43 72 26 73 27 74
REMARK SMILES IDX 36 75 28 76 29 77 35 78 37 79 30 80 31 81 32 82 33 83 34 84
REMARK SMILES IDX 60 85 61 86 70 87 62 88 63 89 69 90 71 91 64 92 65 93 66 94
REMARK SMILES IDX 67 95 68 96 44 97 45 98 54 99 46 100 47 101 53 102 55 103
REMARK SMILES IDX 48 104 49 105 50 106 51 107 52 108
REMARK H PARENT 95 27 76 58 42 69
REMARK Flexibility Score: inf
ROOT
ATOM      1  C   UNL A   1      36.033  34.414  34.120  1.00  0.00     0.188 C 
ENDROOT
BRANCH   1   2
ATOM      2  O   UNL A   1      35.093  35.482  34.037  1.00  0.00    -0.376 OA
BRANCH   2   3
ATOM      3  C   UNL A   1      33.789  35.200  33.530  1.00  0.00     0.202 C 
BRANCH   3   4
ATOM      4  C   UNL A   1      33.437  35.703  32.121  1.00  0.00     0.261 C 
BRANCH   4   5
ATOM      5  O   UNL A   1      34.142  35.011  31.070  1.00  0.00    -0.463 OA
BRANCH   5   6
ATOM      6  C   UNL A   1      33.434  34.767  29.936  1.00  0.00     0.313 C 
ATOM      7  O   UNL A   1      32.240  35.025  29.813  1.00  0.00    -0.252 OA
BRANCH   6   8
ATOM      8  C   UNL A   1      34.282  34.197  28.790  1.00  0.00     0.126 C 
ATOM      9  C   UNL A   1      34.826  35.282  27.848  1.00  0.00     0.025 C 
BRANCH   8  10
ATOM     10  C   UNL A   1      33.695  32.954  28.107  1.00  0.00    -0.031 A 
ATOM     11  C   UNL A   1      34.450  31.777  27.982  1.00  0.00     0.005 A 
ATOM     12  C   UNL A   1      32.460  32.988  27.437  1.00  0.00     0.044 A 
ATOM     13  C   UNL A   1      34.018  30.709  27.179  1.00  0.00     0.012 A 
ATOM     14  C   UNL A   1      32.037  31.917  26.636  1.00  0.00     0.131 A 
ATOM     15  C   UNL A   1      32.819  30.775  26.452  1.00  0.00     0.018 A 
ATOM     16  F   UNL A   1      30.853  32.036  26.013  1.00  0.00    -0.206 F 
BRANCH  15  17
ATOM     17  C   UNL A   1      32.464  29.714  25.489  1.00  0.00    -0.012 A 
ATOM     18  C   UNL A   1      31.162  29.617  24.980  1.00  0.00     0.009 A 
ATOM     19  C   UNL A   1      33.390  28.721  25.111  1.00  0.00     0.056 A 
ATOM     20  C   UNL A   1      30.799  28.583  24.117  1.00  0.00     0.004 A 
ATOM     21  C   UNL A   1      33.001  27.665  24.286  1.00  0.00     0.133 A 
ATOM     22  C   UNL A   1      31.713  27.601  23.770  1.00  0.00     0.047 A 
BRANCH  21  23
ATOM     23  O   UNL A   1      33.814  26.569  23.927  1.00  0.00    -0.410 OA
BRANCH  23  24
ATOM     24  C   UNL A   1      33.524  25.678  22.907  1.00  0.00     0.417 C 
ATOM     25  O   UNL A   1      33.749  25.855  21.711  1.00  0.00    -0.224 OA
ATOM     26  N   UNL A   1      33.034  24.467  23.327  1.00  0.00    -0.291 N 
ATOM     27  H   UNL A   1      32.881  23.816  22.605  1.00  0.00     0.173 HD
BRANCH  26  28
ATOM     28  C   UNL A   1      32.713  23.997  24.613  1.00  0.00     0.044 A 
ATOM     29  C   UNL A   1      33.790  23.678  25.451  1.00  0.00     0.026 A 
ATOM     30  C   UNL A   1      31.413  23.825  25.093  1.00  0.00     0.026 A 
ATOM     31  C   UNL A   1      33.573  23.236  26.758  1.00  0.00     0.002 A 
ATOM     32  C   UNL A   1      31.195  23.368  26.398  1.00  0.00     0.002 A 
ATOM     33  C   UNL A   1      32.274  23.082  27.232  1.00  0.00     0.000 A 
ENDBRANCH  26  28
ENDBRANCH  23  24
ENDBRANCH  21  23
ENDBRANCH  15  17
ENDBRANCH   8  10
ENDBRANCH   6   8
ENDBRANCH   5   6
ENDBRANCH   4   5
ENDBRANCH   3   4
ENDBRANCH   2   3
ENDBRANCH   1   2
BRANCH   1  34
ATOM     34  C   UNL A   1      35.741  33.127  33.330  1.00  0.00     0.188 C 
BRANCH  34  35
ATOM     35  O   UNL A   1      36.724  32.800  32.369  1.00  0.00    -0.376 OA
BRANCH  35  36
ATOM     36  C   UNL A   1      36.329  32.017  31.256  1.00  0.00     0.202 C 
BRANCH  36  37
ATOM     37  C   UNL A   1      37.216  32.045  30.000  1.00  0.00     0.261 C 
BRANCH  37  38
ATOM     38  O   UNL A   1      37.171  30.883  29.157  1.00  0.00    -0.460 OA
BRANCH  38  39
ATOM     39  C   UNL A   1      37.451  29.687  29.730  1.00  0.00     0.338 C 
ATOM     40  O   UNL A   1      36.683  28.980  30.355  1.00  0.00    -0.246 OA
BRANCH  39  41
ATOM     41  C   UNL A   1      38.799  29.288  29.259  1.00  0.00     0.060 A 
ATOM     42  C   UNL A   1      39.667  28.623  30.140  1.00  0.00     0.016 A 
ATOM     43  C   UNL A   1      39.186  29.537  27.943  1.00  0.00     0.016 A 
ATOM     44  C   UNL A   1      40.933  28.221  29.702  1.00  0.00     0.010 A 
ATOM     45  C   UNL A   1      40.461  29.160  27.514  1.00  0.00     0.010 A 
ATOM     46  C   UNL A   1      41.350  28.522  28.398  1.00  0.00    -0.014 A 
BRANCH  46  47
ATOM     47  C   UNL A   1      42.774  28.358  28.009  1.00  0.00     0.031 A 
ATOM     48  C   UNL A   1      43.715  29.498  28.293  1.00  0.00     0.074 A 
ATOM     49  C   UNL A   1      43.212  27.250  27.385  1.00  0.00     0.049 A 
ATOM     50  N   UNL A   1      44.992  29.604  28.036  1.00  0.00    -0.248 NA
ATOM     51  C   UNL A   1      43.127  30.690  28.926  1.00  0.00     0.031 C 
ATOM     52  C   UNL A   1      42.384  26.096  27.045  1.00  0.00     0.029 A 
ATOM     53  N   UNL A   1      44.466  26.903  26.938  1.00  0.00    -0.354 N 
ATOM     54  C   UNL A   1      45.347  30.891  28.423  1.00  0.00     0.074 A 
ATOM     55  C   UNL A   1      44.157  31.523  28.947  1.00  0.00     0.031 C 
ATOM     56  C   UNL A   1      43.162  25.148  26.491  1.00  0.00     0.029 A 
ATOM     57  C   UNL A   1      44.542  25.628  26.422  1.00  0.00     0.049 A 
ATOM     58  H   UNL A   1      45.239  27.512  26.983  1.00  0.00     0.167 HD
ATOM     59  C   UNL A   1      46.554  31.497  28.327  1.00  0.00     0.037 A 
ATOM     60  C   UNL A   1      45.613  24.923  25.996  1.00  0.00     0.037 A 
ATOM     61  C   UNL A   1      47.736  30.853  27.816  1.00  0.00     0.049 A 
ATOM     62  C   UNL A   1      46.970  25.593  26.001  1.00  0.00     0.074 A 
ATOM     63  C   UNL A   1      49.009  31.376  27.681  1.00  0.00     0.029 A 
ATOM     64  N   UNL A   1      47.788  29.545  27.360  1.00  0.00    -0.354 N 
ATOM     65  N   UNL A   1      47.302  26.790  26.424  1.00  0.00    -0.248 NA
ATOM     66  C   UNL A   1      48.096  24.817  25.459  1.00  0.00     0.031 C 
ATOM     67  C   UNL A   1      49.821  30.399  27.094  1.00  0.00     0.029 A 
ATOM     68  C   UNL A   1      49.067  29.250  26.918  1.00  0.00     0.049 A 
ATOM     69  H   UNL A   1      47.029  28.918  27.350  1.00  0.00     0.167 HD
ATOM     70  C   UNL A   1      48.672  26.908  26.199  1.00  0.00     0.074 A 
ATOM     71  C   UNL A   1      49.116  25.641  25.658  1.00  0.00     0.031 C 
ATOM     72  C   UNL A   1      49.487  27.976  26.391  1.00  0.00     0.037 A 
BRANCH  59  73
ATOM     73  C   UNL A   1      46.640  32.946  28.717  1.00  0.00     0.058 A 
ATOM     74  C   UNL A   1      47.005  33.354  30.009  1.00  0.00     0.135 A 
ATOM     75  C   UNL A   1      46.373  33.945  27.766  1.00  0.00     0.135 A 
ATOM     76  F   UNL A   1      47.247  32.441  30.964  1.00  0.00    -0.206 F 
ATOM     77  C   UNL A   1      47.081  34.702  30.351  1.00  0.00     0.059 A 
ATOM     78  C   UNL A   1      46.471  35.297  28.077  1.00  0.00     0.059 A 
ATOM     79  F   UNL A   1      46.012  33.610  26.517  1.00  0.00    -0.206 F 
ATOM     80  C   UNL A   1      46.813  35.666  29.377  1.00  0.00     0.060 A 
BRANCH  80  81
ATOM     81  S   UNL A   1      46.928  37.409  29.830  1.00  0.00     0.124 S 
ATOM     82  O   UNL A   1      48.233  37.454  30.483  1.00  0.00    -0.237 OA
ATOM     83  O   UNL A   1      46.846  38.075  28.534  1.00  0.00    -0.237 OA
ATOM     84  O   UNL A   1      45.780  37.610  30.709  1.00  0.00    -0.744 OA
ENDBRANCH  80  81
ENDBRANCH  59  73
BRANCH  60  85
ATOM     85  C   UNL A   1      45.489  23.476  25.636  1.00  0.00     0.058 A 
ATOM     86  C   UNL A   1      45.226  22.512  26.629  1.00  0.00     0.135 A 
ATOM     87  C   UNL A   1      45.614  23.012  24.319  1.00  0.00     0.135 A 
ATOM     88  F   UNL A   1      45.120  22.886  27.915  1.00  0.00    -0.206 F 
ATOM     89  C   UNL A   1      45.085  21.161  26.337  1.00  0.00     0.059 A 
ATOM     90  C   UNL A   1      45.455  21.665  23.994  1.00  0.00     0.059 A 
ATOM     91  F   UNL A   1      45.869  23.875  23.323  1.00  0.00    -0.206 F 
ATOM     92  C   UNL A   1      45.197  20.746  25.012  1.00  0.00     0.060 A 
BRANCH  92  93
ATOM     93  S   UNL A   1      44.967  18.995  24.635  1.00  0.00     0.124 S 
ATOM     94  O   UNL A   1      46.194  18.416  25.170  1.00  0.00    -0.237 OA
ATOM     95  O   UNL A   1      43.743  18.682  25.364  1.00  0.00    -0.237 OA
ATOM     96  O   UNL A   1      44.842  18.980  23.180  1.00  0.00    -0.744 OA
ENDBRANCH  92  93
ENDBRANCH  60  85
BRANCH  72  97
ATOM     97  C   UNL A   1      50.935  27.827  26.002  1.00  0.00     0.058 A 
ATOM     98  C   UNL A   1      51.912  27.476  26.947  1.00  0.00     0.135 A 
ATOM     99  C   UNL A   1      51.338  27.969  24.664  1.00  0.00     0.135 A 
ATOM    100  F   UNL A   1      51.582  27.326  28.240  1.00  0.00    -0.206 F 
ATOM    101  C   UNL A   1      53.244  27.300  26.585  1.00  0.00     0.059 A 
ATOM    102  C   UNL A   1      52.659  27.768  24.274  1.00  0.00     0.059 A 
ATOM    103  F   UNL A   1      50.442  28.288  23.717  1.00  0.00    -0.206 F 
ATOM    104  C   UNL A   1      53.607  27.446  25.245  1.00  0.00     0.060 A 
BRANCH 104 105
ATOM    105  S   UNL A   1      55.332  27.180  24.786  1.00  0.00     0.124 S 
ATOM    106  O   UNL A   1      55.722  28.510  24.327  1.00  0.00    -0.237 OA
ATOM    107  O   UNL A   1      55.929  26.745  26.045  1.00  0.00    -0.237 OA
ATOM    108  O   UNL A   1      55.255  26.155  23.749  1.00  0.00    -0.744 OA
ENDBRANCH 104 105
ENDBRANCH  72  97
ENDBRANCH  46  47
ENDBRANCH  39  41
ENDBRANCH  38  39
ENDBRANCH  37  38
ENDBRANCH  36  37
ENDBRANCH  35  36
ENDBRANCH  34  35
ENDBRANCH   1  34
TORSDOF 25
ENDMDL
