MODEL 1
REMARK VINA RESULT:      -9.0      0.000      0.000
REMARK SMILES O=C(OCCOCCOCCOC(=O)c1ccc(S(=O)(=O)Cc2cccs2)c(F)c1)c1ccc(-c2c3nc(c(-c4c(F)cc(S(=O)(=O)[O-])cc4F)c4ccc([nH]4)c(-c4c(F)cc(S(=O)(=O)[O-])cc4F)c4nc(c(-c5c(F)cc(S(=O)(=O)[O-])cc5F)c5ccc2[nH]5)C=C4)C=C3)cc1
REMARK SMILES IDX 7 1 6 2 5 3 4 4 3 5 2 6 1 7 31 8 32 9 96 10 33 11 95 12
REMARK SMILES IDX 34 13 35 14 36 15 89 16 37 17 94 18 88 19 90 20 38 21 93 22
REMARK SMILES IDX 87 23 86 24 39 26 73 27 52 28 72 29 53 30 56 31 71 32 91 33
REMARK SMILES IDX 54 34 55 35 70 37 92 38 57 39 40 40 41 41 50 42 42 43 43 44
REMARK SMILES IDX 49 45 51 46 44 47 45 48 46 49 47 50 48 51 74 52 75 53 84 54
REMARK SMILES IDX 76 55 77 56 83 57 85 58 78 59 79 60 80 61 81 62 82 63 58 64
REMARK SMILES IDX 59 65 68 66 60 67 61 68 67 69 69 70 62 71 63 72 64 73 65 74
REMARK SMILES IDX 66 75 8 76 9 77 10 78 11 79 12 80 13 81 14 82 15 83 16 84
REMARK SMILES IDX 30 85 17 86 28 87 18 88 29 89 19 90 20 91 21 92 22 93 23 94
REMARK SMILES IDX 24 95 27 96 25 97 26 98
REMARK H PARENT 90 25 56 36
REMARK Flexibility Score: inf
ROOT
ATOM      1  C   UNL A   1      43.087  19.185  25.412  1.00  0.00     0.188 C 
ENDROOT
BRANCH   1   2
ATOM      2  O   UNL A   1      41.922  18.458  25.811  1.00  0.00    -0.376 OA
BRANCH   2   3
ATOM      3  C   UNL A   1      40.783  19.282  26.094  1.00  0.00     0.202 C 
BRANCH   3   4
ATOM      4  C   UNL A   1      41.061  20.561  26.906  1.00  0.00     0.261 C 
BRANCH   4   5
ATOM      5  O   UNL A   1      40.856  21.776  26.167  1.00  0.00    -0.460 OA
BRANCH   5   6
ATOM      6  C   UNL A   1      39.863  22.692  26.300  1.00  0.00     0.338 C 
ATOM      7  O   UNL A   1      38.751  22.404  25.858  1.00  0.00    -0.246 OA
BRANCH   6   8
ATOM      8  C   UNL A   1      40.041  24.048  26.913  1.00  0.00     0.060 A 
ATOM      9  C   UNL A   1      40.962  25.010  26.493  1.00  0.00     0.016 A 
ATOM     10  C   UNL A   1      39.173  24.398  27.960  1.00  0.00     0.016 A 
ATOM     11  C   UNL A   1      41.090  26.238  27.126  1.00  0.00     0.010 A 
ATOM     12  C   UNL A   1      39.272  25.645  28.588  1.00  0.00     0.010 A 
ATOM     13  C   UNL A   1      40.264  26.553  28.192  1.00  0.00    -0.014 A 
BRANCH  13  14
ATOM     14  C   UNL A   1      40.600  27.724  29.021  1.00  0.00     0.031 A 
ATOM     15  C   UNL A   1      41.830  27.628  29.867  1.00  0.00     0.074 A 
ATOM     16  C   UNL A   1      39.909  28.875  28.936  1.00  0.00     0.049 A 
ATOM     17  N   UNL A   1      42.253  28.423  30.806  1.00  0.00    -0.248 NA
ATOM     18  C   UNL A   1      42.732  26.495  29.583  1.00  0.00     0.031 C 
ATOM     19  C   UNL A   1      38.857  29.163  27.962  1.00  0.00     0.029 A 
ATOM     20  N   UNL A   1      39.960  30.004  29.711  1.00  0.00    -0.354 N 
ATOM     21  C   UNL A   1      43.465  27.892  31.225  1.00  0.00     0.074 A 
ATOM     22  C   UNL A   1      43.697  26.685  30.468  1.00  0.00     0.031 C 
ATOM     23  C   UNL A   1      38.277  30.334  28.274  1.00  0.00     0.029 A 
ATOM     24  C   UNL A   1      38.887  30.841  29.494  1.00  0.00     0.049 A 
ATOM     25  H   UNL A   1      40.682  30.197  30.351  1.00  0.00     0.167 HD
ATOM     26  C   UNL A   1      44.306  28.393  32.154  1.00  0.00     0.037 A 
ATOM     27  C   UNL A   1      38.402  31.841  30.255  1.00  0.00     0.037 A 
ATOM     28  C   UNL A   1      44.017  29.598  32.883  1.00  0.00     0.049 A 
ATOM     29  C   UNL A   1      39.189  32.233  31.464  1.00  0.00     0.074 A 
ATOM     30  C   UNL A   1      44.769  30.214  33.862  1.00  0.00     0.029 A 
ATOM     31  N   UNL A   1      42.863  30.356  32.716  1.00  0.00    -0.354 N 
ATOM     32  N   UNL A   1      40.311  31.712  31.904  1.00  0.00    -0.248 NA
ATOM     33  C   UNL A   1      38.690  33.363  32.252  1.00  0.00     0.031 C 
ATOM     34  C   UNL A   1      44.037  31.306  34.337  1.00  0.00     0.029 A 
ATOM     35  C   UNL A   1      42.860  31.412  33.607  1.00  0.00     0.049 A 
ATOM     36  H   UNL A   1      42.154  30.167  32.061  1.00  0.00     0.167 HD
ATOM     37  C   UNL A   1      40.690  32.489  32.986  1.00  0.00     0.074 A 
ATOM     38  C   UNL A   1      39.654  33.493  33.157  1.00  0.00     0.031 C 
ATOM     39  C   UNL A   1      41.813  32.400  33.738  1.00  0.00     0.037 A 
BRANCH  26  40
ATOM     40  C   UNL A   1      45.545  27.605  32.464  1.00  0.00     0.058 A 
ATOM     41  C   UNL A   1      45.487  26.532  33.365  1.00  0.00     0.135 A 
ATOM     42  C   UNL A   1      46.781  27.878  31.851  1.00  0.00     0.135 A 
ATOM     43  F   UNL A   1      44.329  26.214  33.964  1.00  0.00    -0.206 F 
ATOM     44  C   UNL A   1      46.605  25.755  33.647  1.00  0.00     0.059 A 
ATOM     45  C   UNL A   1      47.906  27.095  32.098  1.00  0.00     0.059 A 
ATOM     46  F   UNL A   1      46.887  28.871  30.953  1.00  0.00    -0.206 F 
ATOM     47  C   UNL A   1      47.809  26.038  33.003  1.00  0.00     0.060 A 
BRANCH  47  48
ATOM     48  S   UNL A   1      49.226  24.964  33.318  1.00  0.00     0.124 S 
ATOM     49  O   UNL A   1      49.746  24.751  31.972  1.00  0.00    -0.237 OA
ATOM     50  O   UNL A   1      50.047  25.791  34.196  1.00  0.00    -0.237 OA
ATOM     51  O   UNL A   1      48.627  23.794  33.955  1.00  0.00    -0.744 OA
ENDBRANCH  47  48
ENDBRANCH  26  40
BRANCH  27  52
ATOM     52  C   UNL A   1      37.103  32.469  29.903  1.00  0.00     0.058 A 
ATOM     53  C   UNL A   1      37.044  33.537  28.993  1.00  0.00     0.135 A 
ATOM     54  C   UNL A   1      35.920  32.102  30.553  1.00  0.00     0.135 A 
ATOM     55  F   UNL A   1      38.127  33.874  28.280  1.00  0.00    -0.206 F 
ATOM     56  C   UNL A   1      35.880  34.279  28.808  1.00  0.00     0.059 A 
ATOM     57  C   UNL A   1      34.733  32.807  30.360  1.00  0.00     0.059 A 
ATOM     58  F   UNL A   1      35.917  31.067  31.405  1.00  0.00    -0.206 F 
ATOM     59  C   UNL A   1      34.734  33.920  29.516  1.00  0.00     0.060 A 
BRANCH  59  60
ATOM     60  S   UNL A   1      33.248  34.935  29.345  1.00  0.00     0.124 S 
ATOM     61  O   UNL A   1      33.818  36.200  28.891  1.00  0.00    -0.237 OA
ATOM     62  O   UNL A   1      32.469  34.195  28.359  1.00  0.00    -0.237 OA
ATOM     63  O   UNL A   1      32.694  34.947  30.695  1.00  0.00    -0.744 OA
ENDBRANCH  59  60
ENDBRANCH  27  52
BRANCH  39  64
ATOM     64  C   UNL A   1      42.028  33.450  34.783  1.00  0.00     0.058 A 
ATOM     65  C   UNL A   1      42.693  34.638  34.442  1.00  0.00     0.135 A 
ATOM     66  C   UNL A   1      41.730  33.212  36.131  1.00  0.00     0.135 A 
ATOM     67  F   UNL A   1      42.995  34.903  33.160  1.00  0.00    -0.206 F 
ATOM     68  C   UNL A   1      43.113  35.531  35.415  1.00  0.00     0.059 A 
ATOM     69  C   UNL A   1      42.116  34.109  37.120  1.00  0.00     0.059 A 
ATOM     70  F   UNL A   1      41.077  32.098  36.494  1.00  0.00    -0.206 F 
ATOM     71  C   UNL A   1      42.837  35.247  36.753  1.00  0.00     0.060 A 
BRANCH  71  72
ATOM     72  S   UNL A   1      43.466  36.379  38.007  1.00  0.00     0.124 S 
ATOM     73  O   UNL A   1      44.279  37.287  37.206  1.00  0.00    -0.237 OA
ATOM     74  O   UNL A   1      42.237  36.943  38.555  1.00  0.00    -0.237 OA
ATOM     75  O   UNL A   1      44.206  35.505  38.912  1.00  0.00    -0.744 OA
ENDBRANCH  71  72
ENDBRANCH  39  64
ENDBRANCH  13  14
ENDBRANCH   6   8
ENDBRANCH   5   6
ENDBRANCH   4   5
ENDBRANCH   3   4
ENDBRANCH   2   3
ENDBRANCH   1   2
BRANCH   1  76
ATOM     76  C   UNL A   1      44.398  18.472  25.756  1.00  0.00     0.188 C 
BRANCH  76  77
ATOM     77  O   UNL A   1      45.593  19.067  25.261  1.00  0.00    -0.376 OA
BRANCH  77  78
ATOM     78  C   UNL A   1      45.440  20.083  24.276  1.00  0.00     0.202 C 
BRANCH  78  79
ATOM     79  C   UNL A   1      45.830  21.522  24.651  1.00  0.00     0.261 C 
BRANCH  79  80
ATOM     80  O   UNL A   1      44.741  22.459  24.783  1.00  0.00    -0.460 OA
BRANCH  80  81
ATOM     81  C   UNL A   1      44.519  22.893  26.049  1.00  0.00     0.338 C 
ATOM     82  O   UNL A   1      43.937  22.283  26.936  1.00  0.00    -0.246 OA
BRANCH  81  83
ATOM     83  C   UNL A   1      45.009  24.273  26.262  1.00  0.00     0.063 A 
ATOM     84  C   UNL A   1      44.717  25.213  25.266  1.00  0.00     0.017 A 
ATOM     85  C   UNL A   1      45.626  24.687  27.448  1.00  0.00     0.056 A 
ATOM     86  C   UNL A   1      45.026  26.561  25.462  1.00  0.00     0.024 A 
ATOM     87  C   UNL A   1      45.933  26.041  27.637  1.00  0.00     0.142 A 
ATOM     88  C   UNL A   1      45.636  26.977  26.655  1.00  0.00     0.103 A 
ATOM     89  F   UNL A   1      46.510  26.402  28.788  1.00  0.00    -0.206 F 
BRANCH  88  90
ATOM     90  S   UNL A   1      46.013  28.697  26.831  1.00  0.00     0.186 S 
ATOM     91  O   UNL A   1      45.453  29.342  25.667  1.00  0.00    -0.223 OA
ATOM     92  O   UNL A   1      45.567  29.068  28.169  1.00  0.00    -0.223 OA
BRANCH  90  93
ATOM     93  C   UNL A   1      47.744  29.000  26.749  1.00  0.00     0.188 C 
BRANCH  93  94
ATOM     94  C   UNL A   1      48.569  27.918  26.131  1.00  0.00     0.020 A 
ATOM     95  C   UNL A   1      48.729  27.497  24.825  1.00  0.00     0.016 A 
ATOM     96  S   UNL A   1      49.510  26.956  27.208  1.00  0.00    -0.148 S 
ATOM     97  C   UNL A   1      49.665  26.429  24.707  1.00  0.00     0.012 A 
ATOM     98  C   UNL A   1      50.152  26.030  25.928  1.00  0.00     0.065 A 
ENDBRANCH  93  94
ENDBRANCH  90  93
ENDBRANCH  88  90
ENDBRANCH  81  83
ENDBRANCH  80  81
ENDBRANCH  79  80
ENDBRANCH  78  79
ENDBRANCH  77  78
ENDBRANCH  76  77
ENDBRANCH   1  76
TORSDOF 23
ENDMDL
MODEL 2
REMARK VINA RESULT:      -8.8      4.223     10.721
REMARK SMILES O=C(OCCOCCOCCOC(=O)c1ccc(S(=O)(=O)Cc2cccs2)c(F)c1)c1ccc(-c2c3nc(c(-c4c(F)cc(S(=O)(=O)[O-])cc4F)c4ccc([nH]4)c(-c4c(F)cc(S(=O)(=O)[O-])cc4F)c4nc(c(-c5c(F)cc(S(=O)(=O)[O-])cc5F)c5ccc2[nH]5)C=C4)C=C3)cc1
REMARK SMILES IDX 7 1 6 2 5 3 4 4 3 5 2 6 1 7 31 8 32 9 96 10 33 11 95 12
REMARK SMILES IDX 34 13 35 14 36 15 89 16 37 17 94 18 88 19 90 20 38 21 93 22
REMARK SMILES IDX 87 23 86 24 39 26 73 27 52 28 72 29 53 30 56 31 71 32 91 33
REMARK SMILES IDX 54 34 55 35 70 37 92 38 57 39 40 40 41 41 50 42 42 43 43 44
REMARK SMILES IDX 49 45 51 46 44 47 45 48 46 49 47 50 48 51 74 52 75 53 84 54
REMARK SMILES IDX 76 55 77 56 83 57 85 58 78 59 79 60 80 61 81 62 82 63 58 64
REMARK SMILES IDX 59 65 68 66 60 67 61 68 67 69 69 70 62 71 63 72 64 73 65 74
REMARK SMILES IDX 66 75 8 76 9 77 10 78 11 79 12 80 13 81 14 82 15 83 16 84
REMARK SMILES IDX 30 85 17 86 28 87 18 88 29 89 19 90 20 91 21 92 22 93 23 94
REMARK SMILES IDX 24 95 27 96 25 97 26 98
REMARK H PARENT 90 25 56 36
REMARK Flexibility Score: inf
ROOT
ATOM      1  C   UNL A   1      42.476  21.721  26.735  1.00  0.00     0.188 C 
ENDROOT
BRANCH   1   2
ATOM      2  O   UNL A   1      42.763  21.878  25.343  1.00  0.00    -0.376 OA
BRANCH   2   3
ATOM      3  C   UNL A   1      43.291  23.164  24.993  1.00  0.00     0.202 C 
BRANCH   3   4
ATOM      4  C   UNL A   1      42.678  24.369  25.730  1.00  0.00     0.261 C 
BRANCH   4   5
ATOM      5  O   UNL A   1      42.885  25.626  25.066  1.00  0.00    -0.460 OA
BRANCH   5   6
ATOM      6  C   UNL A   1      42.504  26.867  25.462  1.00  0.00     0.338 C 
ATOM      7  O   UNL A   1      42.363  27.729  24.595  1.00  0.00    -0.246 OA
BRANCH   6   8
ATOM      8  C   UNL A   1      42.285  27.268  26.889  1.00  0.00     0.060 A 
ATOM      9  C   UNL A   1      41.307  26.742  27.736  1.00  0.00     0.016 A 
ATOM     10  C   UNL A   1      43.170  28.213  27.433  1.00  0.00     0.016 A 
ATOM     11  C   UNL A   1      41.144  27.182  29.041  1.00  0.00     0.010 A 
ATOM     12  C   UNL A   1      43.036  28.644  28.758  1.00  0.00     0.010 A 
ATOM     13  C   UNL A   1      41.990  28.152  29.552  1.00  0.00    -0.014 A 
BRANCH  13  14
ATOM     14  C   UNL A   1      41.629  28.802  30.824  1.00  0.00     0.031 A 
ATOM     15  C   UNL A   1      40.513  29.798  30.786  1.00  0.00     0.074 A 
ATOM     16  C   UNL A   1      42.186  28.435  31.992  1.00  0.00     0.049 A 
ATOM     17  N   UNL A   1      40.115  30.632  31.703  1.00  0.00    -0.248 NA
ATOM     18  C   UNL A   1      39.705  29.828  29.551  1.00  0.00     0.031 C 
ATOM     19  C   UNL A   1      43.093  27.304  32.181  1.00  0.00     0.029 A 
ATOM     20  N   UNL A   1      42.105  29.005  33.236  1.00  0.00    -0.354 N 
ATOM     21  C   UNL A   1      39.015  31.282  31.161  1.00  0.00     0.074 A 
ATOM     22  C   UNL A   1      38.826  30.779  29.822  1.00  0.00     0.031 C 
ATOM     23  C   UNL A   1      43.582  27.335  33.432  1.00  0.00     0.029 A 
ATOM     24  C   UNL A   1      43.058  28.515  34.103  1.00  0.00     0.049 A 
ATOM     25  H   UNL A   1      41.440  29.687  33.484  1.00  0.00     0.167 HD
ATOM     26  C   UNL A   1      38.233  32.209  31.755  1.00  0.00     0.037 A 
ATOM     27  C   UNL A   1      43.518  29.027  35.260  1.00  0.00     0.037 A 
ATOM     28  C   UNL A   1      38.475  32.678  33.091  1.00  0.00     0.049 A 
ATOM     29  C   UNL A   1      42.830  30.239  35.802  1.00  0.00     0.074 A 
ATOM     30  C   UNL A   1      37.774  33.621  33.814  1.00  0.00     0.029 A 
ATOM     31  N   UNL A   1      39.522  32.241  33.897  1.00  0.00    -0.354 N 
ATOM     32  N   UNL A   1      41.821  30.898  35.282  1.00  0.00    -0.248 NA
ATOM     33  C   UNL A   1      43.295  30.753  37.093  1.00  0.00     0.031 C 
ATOM     34  C   UNL A   1      38.439  33.807  35.030  1.00  0.00     0.029 A 
ATOM     35  C   UNL A   1      39.514  32.930  35.094  1.00  0.00     0.049 A 
ATOM     36  H   UNL A   1      40.172  31.546  33.649  1.00  0.00     0.167 HD
ATOM     37  C   UNL A   1      41.484  31.868  36.210  1.00  0.00     0.074 A 
ATOM     38  C   UNL A   1      42.425  31.734  37.309  1.00  0.00     0.031 C 
ATOM     39  C   UNL A   1      40.463  32.758  36.171  1.00  0.00     0.037 A 
BRANCH  26  40
ATOM     40  C   UNL A   1      37.120  32.800  30.940  1.00  0.00     0.058 A 
ATOM     41  C   UNL A   1      35.789  32.451  31.212  1.00  0.00     0.135 A 
ATOM     42  C   UNL A   1      37.355  33.737  29.918  1.00  0.00     0.135 A 
ATOM     43  F   UNL A   1      35.506  31.577  32.189  1.00  0.00    -0.206 F 
ATOM     44  C   UNL A   1      34.730  33.008  30.503  1.00  0.00     0.059 A 
ATOM     45  C   UNL A   1      36.307  34.328  29.215  1.00  0.00     0.059 A 
ATOM     46  F   UNL A   1      38.606  34.136  29.639  1.00  0.00    -0.206 F 
ATOM     47  C   UNL A   1      34.997  33.952  29.512  1.00  0.00     0.060 A 
BRANCH  47  48
ATOM     48  S   UNL A   1      33.603  34.727  28.665  1.00  0.00     0.124 S 
ATOM     49  O   UNL A   1      32.595  34.762  29.718  1.00  0.00    -0.237 OA
ATOM     50  O   UNL A   1      34.163  36.016  28.273  1.00  0.00    -0.237 OA
ATOM     51  O   UNL A   1      33.329  33.812  27.560  1.00  0.00    -0.744 OA
ENDBRANCH  47  48
ENDBRANCH  26  40
BRANCH  27  52
ATOM     52  C   UNL A   1      44.702  28.415  35.916  1.00  0.00     0.058 A 
ATOM     53  C   UNL A   1      44.547  27.411  36.886  1.00  0.00     0.135 A 
ATOM     54  C   UNL A   1      45.993  28.897  35.680  1.00  0.00     0.135 A 
ATOM     55  F   UNL A   1      43.346  26.853  37.090  1.00  0.00    -0.206 F 
ATOM     56  C   UNL A   1      45.615  26.973  37.664  1.00  0.00     0.059 A 
ATOM     57  C   UNL A   1      47.086  28.452  36.423  1.00  0.00     0.059 A 
ATOM     58  F   UNL A   1      46.199  29.831  34.740  1.00  0.00    -0.206 F 
ATOM     59  C   UNL A   1      46.879  27.518  37.441  1.00  0.00     0.060 A 
BRANCH  59  60
ATOM     60  S   UNL A   1      48.247  27.017  38.509  1.00  0.00     0.124 S 
ATOM     61  O   UNL A   1      47.613  25.980  39.318  1.00  0.00    -0.237 OA
ATOM     62  O   UNL A   1      49.247  26.558  37.552  1.00  0.00    -0.237 OA
ATOM     63  O   UNL A   1      48.585  28.246  39.220  1.00  0.00    -0.744 OA
ENDBRANCH  59  60
ENDBRANCH  27  52
BRANCH  39  64
ATOM     64  C   UNL A   1      40.257  33.625  37.373  1.00  0.00     0.058 A 
ATOM     65  C   UNL A   1      39.260  33.291  38.302  1.00  0.00     0.135 A 
ATOM     66  C   UNL A   1      40.921  34.851  37.514  1.00  0.00     0.135 A 
ATOM     67  F   UNL A   1      38.601  32.125  38.202  1.00  0.00    -0.206 F 
ATOM     68  C   UNL A   1      38.882  34.176  39.300  1.00  0.00     0.059 A 
ATOM     69  C   UNL A   1      40.578  35.741  38.525  1.00  0.00     0.059 A 
ATOM     70  F   UNL A   1      41.894  35.196  36.657  1.00  0.00    -0.206 F 
ATOM     71  C   UNL A   1      39.533  35.407  39.390  1.00  0.00     0.060 A 
BRANCH  71  72
ATOM     72  S   UNL A   1      38.969  36.577  40.640  1.00  0.00     0.124 S 
ATOM     73  O   UNL A   1      38.466  37.671  39.817  1.00  0.00    -0.237 OA
ATOM     74  O   UNL A   1      37.960  35.801  41.352  1.00  0.00    -0.237 OA
ATOM     75  O   UNL A   1      40.180  36.868  41.402  1.00  0.00    -0.744 OA
ENDBRANCH  71  72
ENDBRANCH  39  64
ENDBRANCH  13  14
ENDBRANCH   6   8
ENDBRANCH   5   6
ENDBRANCH   4   5
ENDBRANCH   3   4
ENDBRANCH   2   3
ENDBRANCH   1   2
BRANCH   1  76
ATOM     76  C   UNL A   1      41.124  21.057  27.008  1.00  0.00     0.188 C 
BRANCH  76  77
ATOM     77  O   UNL A   1      40.043  21.450  26.169  1.00  0.00    -0.376 OA
BRANCH  77  78
ATOM     78  C   UNL A   1      39.299  22.591  26.577  1.00  0.00     0.202 C 
BRANCH  78  79
ATOM     79  C   UNL A   1      38.258  23.166  25.603  1.00  0.00     0.261 C 
BRANCH  79  80
ATOM     80  O   UNL A   1      37.508  22.202  24.835  1.00  0.00    -0.460 OA
BRANCH  80  81
ATOM     81  C   UNL A   1      36.648  22.741  23.935  1.00  0.00     0.338 C 
ATOM     82  O   UNL A   1      36.923  23.132  22.809  1.00  0.00    -0.246 OA
BRANCH  81  83
ATOM     83  C   UNL A   1      35.282  22.887  24.487  1.00  0.00     0.063 A 
ATOM     84  C   UNL A   1      35.101  23.837  25.499  1.00  0.00     0.017 A 
ATOM     85  C   UNL A   1      34.173  22.217  23.957  1.00  0.00     0.056 A 
ATOM     86  C   UNL A   1      33.818  24.127  25.969  1.00  0.00     0.024 A 
ATOM     87  C   UNL A   1      32.889  22.513  24.434  1.00  0.00     0.142 A 
ATOM     88  C   UNL A   1      32.706  23.462  25.431  1.00  0.00     0.103 A 
ATOM     89  F   UNL A   1      31.851  21.863  23.896  1.00  0.00    -0.206 F 
BRANCH  88  90
ATOM     90  S   UNL A   1      31.110  23.867  26.082  1.00  0.00     0.186 S 
ATOM     91  O   UNL A   1      30.363  22.631  26.081  1.00  0.00    -0.223 OA
ATOM     92  O   UNL A   1      31.359  24.581  27.329  1.00  0.00    -0.223 OA
BRANCH  90  93
ATOM     93  C   UNL A   1      30.225  24.952  25.019  1.00  0.00     0.188 C 
BRANCH  93  94
ATOM     94  C   UNL A   1      31.034  25.647  23.972  1.00  0.00     0.020 A 
ATOM     95  C   UNL A   1      31.348  25.323  22.666  1.00  0.00     0.016 A 
ATOM     96  S   UNL A   1      31.765  27.140  24.428  1.00  0.00    -0.148 S 
ATOM     97  C   UNL A   1      32.135  26.326  22.029  1.00  0.00     0.012 A 
ATOM     98  C   UNL A   1      32.444  27.359  22.880  1.00  0.00     0.065 A 
ENDBRANCH  93  94
ENDBRANCH  90  93
ENDBRANCH  88  90
ENDBRANCH  81  83
ENDBRANCH  80  81
ENDBRANCH  79  80
ENDBRANCH  78  79
ENDBRANCH  77  78
ENDBRANCH  76  77
ENDBRANCH   1  76
TORSDOF 23
ENDMDL
MODEL 3
REMARK VINA RESULT:      -8.3      3.689      6.119
REMARK SMILES O=C(OCCOCCOCCOC(=O)c1ccc(S(=O)(=O)Cc2cccs2)c(F)c1)c1ccc(-c2c3nc(c(-c4c(F)cc(S(=O)(=O)[O-])cc4F)c4ccc([nH]4)c(-c4c(F)cc(S(=O)(=O)[O-])cc4F)c4nc(c(-c5c(F)cc(S(=O)(=O)[O-])cc5F)c5ccc2[nH]5)C=C4)C=C3)cc1
REMARK SMILES IDX 7 1 6 2 5 3 4 4 3 5 2 6 1 7 31 8 32 9 96 10 33 11 95 12
REMARK SMILES IDX 34 13 35 14 36 15 89 16 37 17 94 18 88 19 90 20 38 21 93 22
REMARK SMILES IDX 87 23 86 24 39 26 73 27 52 28 72 29 53 30 56 31 71 32 91 33
REMARK SMILES IDX 54 34 55 35 70 37 92 38 57 39 40 40 41 41 50 42 42 43 43 44
REMARK SMILES IDX 49 45 51 46 44 47 45 48 46 49 47 50 48 51 74 52 75 53 84 54
REMARK SMILES IDX 76 55 77 56 83 57 85 58 78 59 79 60 80 61 81 62 82 63 58 64
REMARK SMILES IDX 59 65 68 66 60 67 61 68 67 69 69 70 62 71 63 72 64 73 65 74
REMARK SMILES IDX 66 75 8 76 9 77 10 78 11 79 12 80 13 81 14 82 15 83 16 84
REMARK SMILES IDX 30 85 17 86 28 87 18 88 29 89 19 90 20 91 21 92 22 93 23 94
REMARK SMILES IDX 24 95 27 96 25 97 26 98
REMARK H PARENT 90 25 56 36
REMARK Flexibility Score: inf
ROOT
ATOM      1  C   UNL A   1      45.940  20.519  24.713  1.00  0.00     0.188 C 
ENDROOT
BRANCH   1   2
ATOM      2  O   UNL A   1      46.343  21.515  25.657  1.00  0.00    -0.376 OA
BRANCH   2   3
ATOM      3  C   UNL A   1      45.261  22.291  26.190  1.00  0.00     0.202 C 
BRANCH   3   4
ATOM      4  C   UNL A   1      44.354  22.983  25.156  1.00  0.00     0.261 C 
BRANCH   4   5
ATOM      5  O   UNL A   1      43.917  24.294  25.549  1.00  0.00    -0.460 OA
BRANCH   5   6
ATOM      6  C   UNL A   1      42.712  24.673  26.046  1.00  0.00     0.338 C 
ATOM      7  O   UNL A   1      41.703  24.341  25.425  1.00  0.00    -0.246 OA
BRANCH   6   8
ATOM      8  C   UNL A   1      42.531  25.505  27.280  1.00  0.00     0.060 A 
ATOM      9  C   UNL A   1      41.514  25.343  28.222  1.00  0.00     0.016 A 
ATOM     10  C   UNL A   1      43.496  26.494  27.535  1.00  0.00     0.016 A 
ATOM     11  C   UNL A   1      41.392  26.169  29.330  1.00  0.00     0.010 A 
ATOM     12  C   UNL A   1      43.402  27.315  28.663  1.00  0.00     0.010 A 
ATOM     13  C   UNL A   1      42.319  27.175  29.544  1.00  0.00    -0.014 A 
BRANCH  13  14
ATOM     14  C   UNL A   1      42.018  28.208  30.551  1.00  0.00     0.031 A 
ATOM     15  C   UNL A   1      42.786  28.152  31.834  1.00  0.00     0.074 A 
ATOM     16  C   UNL A   1      41.183  29.229  30.291  1.00  0.00     0.049 A 
ATOM     17  N   UNL A   1      42.601  28.813  32.939  1.00  0.00    -0.248 NA
ATOM     18  C   UNL A   1      43.954  27.250  31.858  1.00  0.00     0.031 C 
ATOM     19  C   UNL A   1      40.581  29.524  28.991  1.00  0.00     0.029 A 
ATOM     20  N   UNL A   1      40.660  30.186  31.121  1.00  0.00    -0.354 N 
ATOM     21  C   UNL A   1      43.623  28.413  33.787  1.00  0.00     0.074 A 
ATOM     22  C   UNL A   1      44.407  27.422  33.089  1.00  0.00     0.031 C 
ATOM     23  C   UNL A   1      39.678  30.508  29.137  1.00  0.00     0.029 A 
ATOM     24  C   UNL A   1      39.610  30.868  30.545  1.00  0.00     0.049 A 
ATOM     25  H   UNL A   1      40.997  30.368  32.028  1.00  0.00     0.167 HD
ATOM     26  C   UNL A   1      43.879  28.858  35.036  1.00  0.00     0.037 A 
ATOM     27  C   UNL A   1      38.647  31.617  31.116  1.00  0.00     0.037 A 
ATOM     28  C   UNL A   1      43.057  29.842  35.685  1.00  0.00     0.049 A 
ATOM     29  C   UNL A   1      38.766  31.894  32.580  1.00  0.00     0.074 A 
ATOM     30  C   UNL A   1      43.187  30.375  36.950  1.00  0.00     0.029 A 
ATOM     31  N   UNL A   1      41.932  30.425  35.110  1.00  0.00    -0.354 N 
ATOM     32  N   UNL A   1      39.698  31.486  33.410  1.00  0.00    -0.248 NA
ATOM     33  C   UNL A   1      37.750  32.762  33.182  1.00  0.00     0.031 C 
ATOM     34  C   UNL A   1      42.101  31.228  37.167  1.00  0.00     0.029 A 
ATOM     35  C   UNL A   1      41.331  31.280  36.013  1.00  0.00     0.049 A 
ATOM     36  H   UNL A   1      41.613  30.252  34.196  1.00  0.00     0.167 HD
ATOM     37  C   UNL A   1      39.420  32.095  34.621  1.00  0.00     0.074 A 
ATOM     38  C   UNL A   1      38.208  32.872  34.425  1.00  0.00     0.031 C 
ATOM     39  C   UNL A   1      40.129  32.047  35.774  1.00  0.00     0.037 A 
BRANCH  26  40
ATOM     40  C   UNL A   1      45.028  28.233  35.773  1.00  0.00     0.058 A 
ATOM     41  C   UNL A   1      44.829  27.061  36.518  1.00  0.00     0.135 A 
ATOM     42  C   UNL A   1      46.330  28.761  35.719  1.00  0.00     0.135 A 
ATOM     43  F   UNL A   1      43.611  26.503  36.588  1.00  0.00    -0.206 F 
ATOM     44  C   UNL A   1      45.876  26.433  37.182  1.00  0.00     0.059 A 
ATOM     45  C   UNL A   1      47.399  28.131  36.352  1.00  0.00     0.059 A 
ATOM     46  F   UNL A   1      46.586  29.859  34.990  1.00  0.00    -0.206 F 
ATOM     47  C   UNL A   1      47.161  26.970  37.087  1.00  0.00     0.060 A 
BRANCH  47  48
ATOM     48  S   UNL A   1      48.521  26.090  37.885  1.00  0.00     0.124 S 
ATOM     49  O   UNL A   1      47.848  24.907  38.406  1.00  0.00    -0.237 OA
ATOM     50  O   UNL A   1      49.434  25.865  36.769  1.00  0.00    -0.237 OA
ATOM     51  O   UNL A   1      48.995  27.040  38.888  1.00  0.00    -0.744 OA
ENDBRANCH  47  48
ENDBRANCH  26  40
BRANCH  27  52
ATOM     52  C   UNL A   1      37.498  32.084  30.300  1.00  0.00     0.058 A 
ATOM     53  C   UNL A   1      37.569  33.291  29.583  1.00  0.00     0.135 A 
ATOM     54  C   UNL A   1      36.274  31.408  30.314  1.00  0.00     0.135 A 
ATOM     55  F   UNL A   1      38.738  33.934  29.465  1.00  0.00    -0.206 F 
ATOM     56  C   UNL A   1      36.445  33.856  28.988  1.00  0.00     0.059 A 
ATOM     57  C   UNL A   1      35.141  31.937  29.697  1.00  0.00     0.059 A 
ATOM     58  F   UNL A   1      36.164  30.235  30.955  1.00  0.00    -0.206 F 
ATOM     59  C   UNL A   1      35.228  33.182  29.071  1.00  0.00     0.060 A 
BRANCH  59  60
ATOM     60  S   UNL A   1      33.751  33.957  28.376  1.00  0.00     0.124 S 
ATOM     61  O   UNL A   1      33.049  34.374  29.587  1.00  0.00    -0.237 OA
ATOM     62  O   UNL A   1      34.308  35.029  27.560  1.00  0.00    -0.237 OA
ATOM     63  O   UNL A   1      33.122  32.871  27.631  1.00  0.00    -0.744 OA
ENDBRANCH  59  60
ENDBRANCH  27  52
BRANCH  39  64
ATOM     64  C   UNL A   1      39.660  32.902  36.909  1.00  0.00     0.058 A 
ATOM     65  C   UNL A   1      40.361  34.076  37.225  1.00  0.00     0.135 A 
ATOM     66  C   UNL A   1      38.638  32.480  37.770  1.00  0.00     0.135 A 
ATOM     67  F   UNL A   1      41.346  34.514  36.425  1.00  0.00    -0.206 F 
ATOM     68  C   UNL A   1      40.105  34.774  38.395  1.00  0.00     0.059 A 
ATOM     69  C   UNL A   1      38.345  33.181  38.934  1.00  0.00     0.059 A 
ATOM     70  F   UNL A   1      37.932  31.374  37.491  1.00  0.00    -0.206 F 
ATOM     71  C   UNL A   1      39.109  34.306  39.253  1.00  0.00     0.060 A 
BRANCH  71  72
ATOM     72  S   UNL A   1      38.850  35.179  40.809  1.00  0.00     0.124 S 
ATOM     73  O   UNL A   1      37.769  34.404  41.407  1.00  0.00    -0.237 OA
ATOM     74  O   UNL A   1      40.154  35.052  41.452  1.00  0.00    -0.237 OA
ATOM     75  O   UNL A   1      38.495  36.529  40.384  1.00  0.00    -0.744 OA
ENDBRANCH  71  72
ENDBRANCH  39  64
ENDBRANCH  13  14
ENDBRANCH   6   8
ENDBRANCH   5   6
ENDBRANCH   4   5
ENDBRANCH   3   4
ENDBRANCH   2   3
ENDBRANCH   1   2
BRANCH   1  76
ATOM     76  C   UNL A   1      46.167  19.086  25.205  1.00  0.00     0.188 C 
BRANCH  76  77
ATOM     77  O   UNL A   1      45.024  18.238  25.236  1.00  0.00    -0.376 OA
BRANCH  77  78
ATOM     78  C   UNL A   1      43.759  18.863  25.053  1.00  0.00     0.202 C 
BRANCH  78  79
ATOM     79  C   UNL A   1      42.681  18.649  26.129  1.00  0.00     0.261 C 
BRANCH  79  80
ATOM     80  O   UNL A   1      41.402  19.266  25.875  1.00  0.00    -0.460 OA
BRANCH  80  81
ATOM     81  C   UNL A   1      41.257  20.507  26.403  1.00  0.00     0.338 C 
ATOM     82  O   UNL A   1      42.110  21.146  27.003  1.00  0.00    -0.246 OA
BRANCH  81  83
ATOM     83  C   UNL A   1      39.881  21.026  26.242  1.00  0.00     0.063 A 
ATOM     84  C   UNL A   1      39.642  22.340  26.661  1.00  0.00     0.017 A 
ATOM     85  C   UNL A   1      38.871  20.312  25.586  1.00  0.00     0.056 A 
ATOM     86  C   UNL A   1      38.406  22.942  26.413  1.00  0.00     0.024 A 
ATOM     87  C   UNL A   1      37.634  20.923  25.341  1.00  0.00     0.142 A 
ATOM     88  C   UNL A   1      37.397  22.229  25.747  1.00  0.00     0.103 A 
ATOM     89  F   UNL A   1      36.697  20.215  24.701  1.00  0.00    -0.206 F 
BRANCH  88  90
ATOM     90  S   UNL A   1      35.851  23.047  25.479  1.00  0.00     0.186 S 
ATOM     91  O   UNL A   1      34.881  22.318  26.261  1.00  0.00    -0.223 OA
ATOM     92  O   UNL A   1      36.098  24.461  25.737  1.00  0.00    -0.223 OA
BRANCH  90  93
ATOM     93  C   UNL A   1      35.314  22.901  23.811  1.00  0.00     0.188 C 
BRANCH  93  94
ATOM     94  C   UNL A   1      33.871  23.199  23.559  1.00  0.00     0.020 A 
ATOM     95  C   UNL A   1      33.186  24.379  23.342  1.00  0.00     0.016 A 
ATOM     96  S   UNL A   1      32.795  21.852  23.549  1.00  0.00    -0.148 S 
ATOM     97  C   UNL A   1      31.795  24.168  23.111  1.00  0.00     0.012 A 
ATOM     98  C   UNL A   1      31.450  22.841  23.209  1.00  0.00     0.065 A 
ENDBRANCH  93  94
ENDBRANCH  90  93
ENDBRANCH  88  90
ENDBRANCH  81  83
ENDBRANCH  80  81
ENDBRANCH  79  80
ENDBRANCH  78  79
ENDBRANCH  77  78
ENDBRANCH  76  77
ENDBRANCH   1  76
TORSDOF 23
ENDMDL
