MODEL 1
REMARK VINA RESULT:     -13.2      0.000      0.000
REMARK SMILES Cc1c(CC(=O)OCCOCCOCCOC(=O)c2ccc(-c3c4nc(c(-c5c(F)cc(S(=O)(=O)[O-])cc5F)c5ccc([nH]5)c(-c5c(F)cc(S(=O)(=O)[O-])cc5F)c5nc(c(-c6c(F)cc(S(=O)(=O)[O-])cc6F)c6ccc3[nH]6)C=C5)C=C4)cc2)cccc1-c1ccn(C(F)F)c(=O)c1
REMARK SMILES IDX 11 1 10 2 9 3 8 4 7 5 5 6 6 7 4 8 3 9 1 10 2 11 88 12 85 13
REMARK SMILES IDX 87 14 86 15 89 16 90 17 98 18 91 19 96 20 92 21 97 22 93 23
REMARK SMILES IDX 94 24 95 25 12 26 13 27 14 28 15 29 16 30 17 31 18 32 19 33
REMARK SMILES IDX 20 34 84 35 21 36 83 37 22 38 23 39 24 40 77 41 25 42 82 43
REMARK SMILES IDX 76 44 78 45 26 46 81 47 75 48 74 49 27 51 61 52 40 53 60 54
REMARK SMILES IDX 41 55 44 56 59 57 79 58 42 59 43 60 58 62 80 63 45 64 28 65
REMARK SMILES IDX 29 66 38 67 30 68 31 69 37 70 39 71 32 72 33 73 34 74 35 75
REMARK SMILES IDX 36 76 62 77 63 78 72 79 64 80 65 81 71 82 73 83 66 84 67 85
REMARK SMILES IDX 68 86 69 87 70 88 46 89 47 90 56 91 48 92 49 93 55 94 57 95
REMARK SMILES IDX 50 96 51 97 52 98 53 99 54 100
REMARK H PARENT 78 50 44 61
REMARK Flexibility Score: inf
ROOT
ATOM      1  C   UNL A   1      32.670  29.167  24.312  1.00  0.00     0.188 C 
ENDROOT
BRANCH   1   2
ATOM      2  O   UNL A   1      33.422  27.946  24.516  1.00  0.00    -0.376 OA
BRANCH   2   3
ATOM      3  C   UNL A   1      32.874  26.627  24.712  1.00  0.00     0.202 C 
BRANCH   3   4
ATOM      4  C   UNL A   1      32.325  25.926  26.197  1.00  0.00     0.261 C 
BRANCH   4   5
ATOM      5  O   UNL A   1      30.986  24.895  26.520  1.00  0.00    -0.463 OA
BRANCH   5   6
ATOM      6  C   UNL A   1      30.663  23.506  26.730  1.00  0.00     0.310 C 
ATOM      7  O   UNL A   1      30.126  22.952  27.696  1.00  0.00    -0.252 OA
BRANCH   6   8
ATOM      8  C   UNL A   1      30.892  22.479  25.686  1.00  0.00     0.158 C 
BRANCH   8   9
ATOM      9  C   UNL A   1      32.112  22.640  24.898  1.00  0.00    -0.033 A 
ATOM     10  C   UNL A   1      33.478  21.629  26.800  1.00  0.00     0.045 C 
ATOM     11  C   UNL A   1      33.357  22.309  25.444  1.00  0.00    -0.039 A 
ATOM     12  C   UNL A   1      34.470  22.554  24.636  1.00  0.00    -0.015 A 
ATOM     13  C   UNL A   1      31.955  23.131  23.599  1.00  0.00     0.004 A 
ATOM     14  C   UNL A   1      34.323  23.103  23.349  1.00  0.00     0.009 A 
ATOM     15  C   UNL A   1      33.066  23.377  22.825  1.00  0.00     0.001 A 
BRANCH  12  16
ATOM     16  C   UNL A   1      35.794  22.207  25.144  1.00  0.00    -0.011 A 
ATOM     17  C   UNL A   1      36.649  23.199  25.754  1.00  0.00     0.027 A 
ATOM     18  C   UNL A   1      36.268  20.990  24.841  1.00  0.00     0.080 A 
ATOM     19  C   UNL A   1      37.938  22.924  25.964  1.00  0.00     0.095 A 
ATOM     20  C   UNL A   1      37.674  20.643  25.157  1.00  0.00     0.255 A 
ATOM     21  N   UNL A   1      38.451  21.676  25.659  1.00  0.00    -0.258 N 
ATOM     22  O   UNL A   1      38.054  19.495  24.950  1.00  0.00    -0.269 OA
BRANCH  21  23
ATOM     23  C   UNL A   1      39.835  21.387  25.908  1.00  0.00     0.451 C 
ATOM     24  F   UNL A   1      40.603  22.471  25.637  1.00  0.00    -0.185 F 
ATOM     25  F   UNL A   1      40.048  21.028  27.194  1.00  0.00    -0.185 F 
ENDBRANCH  21  23
ENDBRANCH  12  16
ENDBRANCH   8   9
ENDBRANCH   6   8
ENDBRANCH   5   6
ENDBRANCH   4   5
ENDBRANCH   3   4
ENDBRANCH   2   3
ENDBRANCH   1   2
BRANCH   1  26
ATOM     26  C   UNL A   1      31.810  29.862  25.381  1.00  0.00     0.188 C 
BRANCH  26  27
ATOM     27  O   UNL A   1      32.256  29.560  26.692  1.00  0.00    -0.376 OA
BRANCH  27  28
ATOM     28  C   UNL A   1      33.617  29.865  26.969  1.00  0.00     0.202 C 
BRANCH  28  29
ATOM     29  C   UNL A   1      33.879  31.302  27.483  1.00  0.00     0.261 C 
BRANCH  29  30
ATOM     30  O   UNL A   1      35.267  31.560  27.824  1.00  0.00    -0.460 OA
BRANCH  30  31
ATOM     31  C   UNL A   1      35.680  31.362  29.141  1.00  0.00     0.338 C 
ATOM     32  O   UNL A   1      35.136  31.888  30.067  1.00  0.00    -0.246 OA
BRANCH  31  33
ATOM     33  C   UNL A   1      36.669  30.222  29.226  1.00  0.00     0.060 A 
ATOM     34  C   UNL A   1      36.931  29.296  30.246  1.00  0.00     0.016 A 
ATOM     35  C   UNL A   1      37.464  30.092  28.151  1.00  0.00     0.016 A 
ATOM     36  C   UNL A   1      38.112  28.403  30.240  1.00  0.00     0.010 A 
ATOM     37  C   UNL A   1      38.644  29.375  28.290  1.00  0.00     0.010 A 
ATOM     38  C   UNL A   1      39.103  28.447  29.251  1.00  0.00    -0.014 A 
BRANCH  38  39
ATOM     39  C   UNL A   1      40.614  27.723  29.231  1.00  0.00     0.031 A 
ATOM     40  C   UNL A   1      41.258  26.164  28.812  1.00  0.00     0.074 A 
ATOM     41  C   UNL A   1      41.596  28.541  29.677  1.00  0.00     0.049 A 
ATOM     42  N   UNL A   1      42.464  25.736  29.157  1.00  0.00    -0.248 NA
ATOM     43  C   UNL A   1      40.627  24.969  28.103  1.00  0.00     0.031 C 
ATOM     44  C   UNL A   1      43.039  28.379  29.542  1.00  0.00     0.029 A 
ATOM     45  N   UNL A   1      41.459  29.656  30.508  1.00  0.00    -0.354 N 
ATOM     46  C   UNL A   1      42.688  24.474  28.591  1.00  0.00     0.074 A 
ATOM     47  C   UNL A   1      41.445  23.946  28.229  1.00  0.00     0.031 C 
ATOM     48  C   UNL A   1      43.644  29.122  30.477  1.00  0.00     0.029 A 
ATOM     49  C   UNL A   1      42.611  29.705  31.310  1.00  0.00     0.049 A 
ATOM     50  H   UNL A   1      40.702  30.284  30.527  1.00  0.00     0.167 HD
ATOM     51  C   UNL A   1      43.898  23.930  28.301  1.00  0.00     0.037 A 
ATOM     52  C   UNL A   1      42.487  29.585  32.661  1.00  0.00     0.037 A 
ATOM     53  C   UNL A   1      44.873  24.476  29.207  1.00  0.00     0.049 A 
ATOM     54  C   UNL A   1      43.111  28.310  33.197  1.00  0.00     0.074 A 
ATOM     55  C   UNL A   1      45.794  25.499  29.156  1.00  0.00     0.029 A 
ATOM     56  N   UNL A   1      44.664  24.202  30.549  1.00  0.00    -0.354 N 
ATOM     57  N   UNL A   1      43.907  27.524  32.517  1.00  0.00    -0.248 NA
ATOM     58  C   UNL A   1      42.832  27.784  34.535  1.00  0.00     0.031 C 
ATOM     59  C   UNL A   1      45.933  25.994  30.496  1.00  0.00     0.029 A 
ATOM     60  C   UNL A   1      45.156  25.219  31.345  1.00  0.00     0.049 A 
ATOM     61  H   UNL A   1      44.225  23.390  30.891  1.00  0.00     0.167 HD
ATOM     62  C   UNL A   1      44.115  26.371  33.226  1.00  0.00     0.074 A 
ATOM     63  C   UNL A   1      43.471  26.604  34.507  1.00  0.00     0.031 C 
ATOM     64  C   UNL A   1      44.733  25.260  32.737  1.00  0.00     0.037 A 
BRANCH  51  65
ATOM     65  C   UNL A   1      44.106  22.895  27.181  1.00  0.00     0.058 A 
ATOM     66  C   UNL A   1      43.474  21.639  27.221  1.00  0.00     0.135 A 
ATOM     67  C   UNL A   1      45.028  23.031  26.097  1.00  0.00     0.135 A 
ATOM     68  F   UNL A   1      42.633  21.337  28.220  1.00  0.00    -0.206 F 
ATOM     69  C   UNL A   1      43.715  20.626  26.269  1.00  0.00     0.059 A 
ATOM     70  C   UNL A   1      45.220  22.074  25.095  1.00  0.00     0.059 A 
ATOM     71  F   UNL A   1      45.871  24.068  25.991  1.00  0.00    -0.206 F 
ATOM     72  C   UNL A   1      44.587  20.854  25.207  1.00  0.00     0.060 A 
BRANCH  72  73
ATOM     73  S   UNL A   1      44.966  19.540  24.024  1.00  0.00     0.124 S 
ATOM     74  O   UNL A   1      44.510  20.130  22.769  1.00  0.00    -0.237 OA
ATOM     75  O   UNL A   1      46.408  19.385  24.170  1.00  0.00    -0.237 OA
ATOM     76  O   UNL A   1      44.171  18.410  24.502  1.00  0.00    -0.744 OA
ENDBRANCH  72  73
ENDBRANCH  51  65
BRANCH  52  77
ATOM     77  C   UNL A   1      41.301  30.344  33.171  1.00  0.00     0.058 A 
ATOM     78  C   UNL A   1      40.155  29.579  33.494  1.00  0.00     0.135 A 
ATOM     79  C   UNL A   1      41.364  31.637  33.709  1.00  0.00     0.135 A 
ATOM     80  F   UNL A   1      40.023  28.333  33.007  1.00  0.00    -0.206 F 
ATOM     81  C   UNL A   1      39.215  29.998  34.428  1.00  0.00     0.059 A 
ATOM     82  C   UNL A   1      40.405  32.096  34.627  1.00  0.00     0.059 A 
ATOM     83  F   UNL A   1      42.426  32.420  33.473  1.00  0.00    -0.206 F 
ATOM     84  C   UNL A   1      39.376  31.240  35.030  1.00  0.00     0.060 A 
BRANCH  84  85
ATOM     85  S   UNL A   1      38.327  31.613  36.459  1.00  0.00     0.124 S 
ATOM     86  O   UNL A   1      39.288  32.150  37.415  1.00  0.00    -0.237 OA
ATOM     87  O   UNL A   1      37.395  32.584  35.888  1.00  0.00    -0.237 OA
ATOM     88  O   UNL A   1      37.756  30.316  36.799  1.00  0.00    -0.744 OA
ENDBRANCH  84  85
ENDBRANCH  52  77
BRANCH  64  89
ATOM     89  C   UNL A   1      44.964  24.079  33.625  1.00  0.00     0.058 A 
ATOM     90  C   UNL A   1      46.129  24.016  34.401  1.00  0.00     0.135 A 
ATOM     91  C   UNL A   1      44.129  22.947  33.619  1.00  0.00     0.135 A 
ATOM     92  F   UNL A   1      46.965  25.065  34.455  1.00  0.00    -0.206 F 
ATOM     93  C   UNL A   1      46.467  22.875  35.121  1.00  0.00     0.059 A 
ATOM     94  C   UNL A   1      44.464  21.782  34.304  1.00  0.00     0.059 A 
ATOM     95  F   UNL A   1      42.976  22.946  32.930  1.00  0.00    -0.206 F 
ATOM     96  C   UNL A   1      45.637  21.758  35.055  1.00  0.00     0.060 A 
BRANCH  96  97
ATOM     97  S   UNL A   1      46.119  20.243  35.907  1.00  0.00     0.124 S 
ATOM     98  O   UNL A   1      45.323  19.221  35.233  1.00  0.00    -0.237 OA
ATOM     99  O   UNL A   1      47.552  20.203  35.640  1.00  0.00    -0.237 OA
ATOM    100  O   UNL A   1      45.739  20.508  37.291  1.00  0.00    -0.744 OA
ENDBRANCH  96  97
ENDBRANCH  64  89
ENDBRANCH  38  39
ENDBRANCH  31  33
ENDBRANCH  30  31
ENDBRANCH  29  30
ENDBRANCH  28  29
ENDBRANCH  27  28
ENDBRANCH  26  27
ENDBRANCH   1  26
TORSDOF 23
ENDMDL
MODEL 2
REMARK VINA RESULT:     -12.0      1.714      2.369
REMARK SMILES Cc1c(CC(=O)OCCOCCOCCOC(=O)c2ccc(-c3c4nc(c(-c5c(F)cc(S(=O)(=O)[O-])cc5F)c5ccc([nH]5)c(-c5c(F)cc(S(=O)(=O)[O-])cc5F)c5nc(c(-c6c(F)cc(S(=O)(=O)[O-])cc6F)c6ccc3[nH]6)C=C5)C=C4)cc2)cccc1-c1ccn(C(F)F)c(=O)c1
REMARK SMILES IDX 11 1 10 2 9 3 8 4 7 5 5 6 6 7 4 8 3 9 1 10 2 11 88 12 85 13
REMARK SMILES IDX 87 14 86 15 89 16 90 17 98 18 91 19 96 20 92 21 97 22 93 23
REMARK SMILES IDX 94 24 95 25 12 26 13 27 14 28 15 29 16 30 17 31 18 32 19 33
REMARK SMILES IDX 20 34 84 35 21 36 83 37 22 38 23 39 24 40 77 41 25 42 82 43
REMARK SMILES IDX 76 44 78 45 26 46 81 47 75 48 74 49 27 51 61 52 40 53 60 54
REMARK SMILES IDX 41 55 44 56 59 57 79 58 42 59 43 60 58 62 80 63 45 64 28 65
REMARK SMILES IDX 29 66 38 67 30 68 31 69 37 70 39 71 32 72 33 73 34 74 35 75
REMARK SMILES IDX 36 76 62 77 63 78 72 79 64 80 65 81 71 82 73 83 66 84 67 85
REMARK SMILES IDX 68 86 69 87 70 88 46 89 47 90 56 91 48 92 49 93 55 94 57 95
REMARK SMILES IDX 50 96 51 97 52 98 53 99 54 100
REMARK H PARENT 78 50 44 61
REMARK Flexibility Score: inf
ROOT
ATOM      1  C   UNL A   1      32.564  29.181  24.416  1.00  0.00     0.188 C 
ENDROOT
BRANCH   1   2
ATOM      2  O   UNL A   1      33.300  27.933  24.368  1.00  0.00    -0.376 OA
BRANCH   2   3
ATOM      3  C   UNL A   1      32.767  26.616  24.610  1.00  0.00     0.202 C 
BRANCH   3   4
ATOM      4  C   UNL A   1      31.140  26.203  25.038  1.00  0.00     0.261 C 
BRANCH   4   5
ATOM      5  O   UNL A   1      30.493  24.757  25.709  1.00  0.00    -0.463 OA
BRANCH   5   6
ATOM      6  C   UNL A   1      30.900  23.558  26.397  1.00  0.00     0.310 C 
ATOM      7  O   UNL A   1      30.859  23.280  27.600  1.00  0.00    -0.252 OA
BRANCH   6   8
ATOM      8  C   UNL A   1      31.402  22.367  25.671  1.00  0.00     0.158 C 
BRANCH   8   9
ATOM      9  C   UNL A   1      32.543  22.600  24.788  1.00  0.00    -0.033 A 
ATOM     10  C   UNL A   1      34.139  22.020  26.691  1.00  0.00     0.045 C 
ATOM     11  C   UNL A   1      33.850  22.511  25.281  1.00  0.00    -0.039 A 
ATOM     12  C   UNL A   1      34.871  22.809  24.376  1.00  0.00    -0.015 A 
ATOM     13  C   UNL A   1      32.249  22.907  23.456  1.00  0.00     0.004 A 
ATOM     14  C   UNL A   1      34.580  23.175  23.049  1.00  0.00     0.009 A 
ATOM     15  C   UNL A   1      33.270  23.209  22.586  1.00  0.00     0.001 A 
BRANCH  12  16
ATOM     16  C   UNL A   1      36.256  22.710  24.826  1.00  0.00    -0.011 A 
ATOM     17  C   UNL A   1      36.976  21.459  24.775  1.00  0.00     0.027 A 
ATOM     18  C   UNL A   1      36.768  23.767  25.475  1.00  0.00     0.080 A 
ATOM     19  C   UNL A   1      38.132  21.332  25.430  1.00  0.00     0.095 A 
ATOM     20  C   UNL A   1      38.097  23.664  26.125  1.00  0.00     0.255 A 
ATOM     21  N   UNL A   1      38.680  22.406  26.106  1.00  0.00    -0.258 N 
ATOM     22  O   UNL A   1      38.578  24.671  26.633  1.00  0.00    -0.269 OA
BRANCH  21  23
ATOM     23  C   UNL A   1      39.934  22.262  26.790  1.00  0.00     0.451 C 
ATOM     24  F   UNL A   1      40.102  20.984  27.210  1.00  0.00    -0.185 F 
ATOM     25  F   UNL A   1      40.979  22.587  25.994  1.00  0.00    -0.185 F 
ENDBRANCH  21  23
ENDBRANCH  12  16
ENDBRANCH   8   9
ENDBRANCH   6   8
ENDBRANCH   5   6
ENDBRANCH   4   5
ENDBRANCH   3   4
ENDBRANCH   2   3
ENDBRANCH   1   2
BRANCH   1  26
ATOM     26  C   UNL A   1      31.711  29.655  25.603  1.00  0.00     0.188 C 
BRANCH  26  27
ATOM     27  O   UNL A   1      32.291  29.292  26.845  1.00  0.00    -0.376 OA
BRANCH  27  28
ATOM     28  C   UNL A   1      33.474  29.992  27.206  1.00  0.00     0.202 C 
BRANCH  28  29
ATOM     29  C   UNL A   1      33.275  31.489  27.551  1.00  0.00     0.261 C 
BRANCH  29  30
ATOM     30  O   UNL A   1      34.486  32.155  27.997  1.00  0.00    -0.460 OA
BRANCH  30  31
ATOM     31  C   UNL A   1      34.833  32.081  29.345  1.00  0.00     0.338 C 
ATOM     32  O   UNL A   1      34.166  32.577  30.204  1.00  0.00    -0.246 OA
BRANCH  31  33
ATOM     33  C   UNL A   1      35.952  31.087  29.556  1.00  0.00     0.060 A 
ATOM     34  C   UNL A   1      36.326  30.337  30.680  1.00  0.00     0.016 A 
ATOM     35  C   UNL A   1      36.752  30.914  28.491  1.00  0.00     0.016 A 
ATOM     36  C   UNL A   1      37.606  29.597  30.766  1.00  0.00     0.010 A 
ATOM     37  C   UNL A   1      38.010  30.365  28.698  1.00  0.00     0.010 A 
ATOM     38  C   UNL A   1      38.580  29.630  29.760  1.00  0.00    -0.014 A 
BRANCH  38  39
ATOM     39  C   UNL A   1      40.168  29.093  29.803  1.00  0.00     0.031 A 
ATOM     40  C   UNL A   1      41.017  27.639  29.372  1.00  0.00     0.074 A 
ATOM     41  C   UNL A   1      41.018  30.004  30.330  1.00  0.00     0.049 A 
ATOM     42  N   UNL A   1      42.246  27.345  29.772  1.00  0.00    -0.248 NA
ATOM     43  C   UNL A   1      40.574  26.405  28.591  1.00  0.00     0.031 C 
ATOM     44  C   UNL A   1      42.475  30.022  30.272  1.00  0.00     0.029 A 
ATOM     45  N   UNL A   1      40.703  31.062  31.186  1.00  0.00    -0.354 N 
ATOM     46  C   UNL A   1      42.652  26.142  29.181  1.00  0.00     0.074 A 
ATOM     47  C   UNL A   1      41.503  25.483  28.732  1.00  0.00     0.031 C 
ATOM     48  C   UNL A   1      42.935  30.795  31.264  1.00  0.00     0.029 A 
ATOM     49  C   UNL A   1      41.797  31.219  32.053  1.00  0.00     0.049 A 
ATOM     50  H   UNL A   1      39.875  31.595  31.182  1.00  0.00     0.167 HD
ATOM     51  C   UNL A   1      43.932  25.758  28.942  1.00  0.00     0.037 A 
ATOM     52  C   UNL A   1      41.617  31.033  33.392  1.00  0.00     0.037 A 
ATOM     53  C   UNL A   1      44.784  26.381  29.919  1.00  0.00     0.049 A 
ATOM     54  C   UNL A   1      42.362  29.823  33.922  1.00  0.00     0.074 A 
ATOM     55  C   UNL A   1      45.576  27.509  29.953  1.00  0.00     0.029 A 
ATOM     56  N   UNL A   1      44.540  26.034  31.238  1.00  0.00    -0.354 N 
ATOM     57  N   UNL A   1      43.282  29.164  33.263  1.00  0.00    -0.248 NA
ATOM     58  C   UNL A   1      42.078  29.216  35.224  1.00  0.00     0.031 C 
ATOM     59  C   UNL A   1      45.583  27.965  31.314  1.00  0.00     0.029 A 
ATOM     60  C   UNL A   1      44.862  27.071  32.093  1.00  0.00     0.049 A 
ATOM     61  H   UNL A   1      44.186  25.162  31.529  1.00  0.00     0.167 HD
ATOM     62  C   UNL A   1      43.591  28.018  33.947  1.00  0.00     0.074 A 
ATOM     63  C   UNL A   1      42.857  28.123  35.196  1.00  0.00     0.031 C 
ATOM     64  C   UNL A   1      44.364  27.008  33.459  1.00  0.00     0.037 A 
BRANCH  51  65
ATOM     65  C   UNL A   1      44.324  24.799  27.804  1.00  0.00     0.058 A 
ATOM     66  C   UNL A   1      44.155  25.160  26.455  1.00  0.00     0.135 A 
ATOM     67  C   UNL A   1      44.752  23.446  27.979  1.00  0.00     0.135 A 
ATOM     68  F   UNL A   1      43.691  26.376  26.133  1.00  0.00    -0.206 F 
ATOM     69  C   UNL A   1      44.407  24.275  25.385  1.00  0.00     0.059 A 
ATOM     70  C   UNL A   1      45.087  22.580  26.935  1.00  0.00     0.059 A 
ATOM     71  F   UNL A   1      44.785  22.849  29.179  1.00  0.00    -0.206 F 
ATOM     72  C   UNL A   1      44.877  22.988  25.634  1.00  0.00     0.060 A 
BRANCH  72  73
ATOM     73  S   UNL A   1      45.129  21.819  24.279  1.00  0.00     0.124 S 
ATOM     74  O   UNL A   1      46.584  21.714  24.244  1.00  0.00    -0.237 OA
ATOM     75  O   UNL A   1      44.415  20.635  24.741  1.00  0.00    -0.237 OA
ATOM     76  O   UNL A   1      44.528  22.493  23.129  1.00  0.00    -0.744 OA
ENDBRANCH  72  73
ENDBRANCH  51  65
BRANCH  52  77
ATOM     77  C   UNL A   1      40.322  31.625  33.857  1.00  0.00     0.058 A 
ATOM     78  C   UNL A   1      40.253  33.038  33.891  1.00  0.00     0.135 A 
ATOM     79  C   UNL A   1      39.101  30.937  33.874  1.00  0.00     0.135 A 
ATOM     80  F   UNL A   1      41.384  33.764  33.885  1.00  0.00    -0.206 F 
ATOM     81  C   UNL A   1      39.053  33.732  33.775  1.00  0.00     0.059 A 
ATOM     82  C   UNL A   1      37.875  31.618  33.794  1.00  0.00     0.059 A 
ATOM     83  F   UNL A   1      39.076  29.597  33.819  1.00  0.00    -0.206 F 
ATOM     84  C   UNL A   1      37.870  33.010  33.674  1.00  0.00     0.060 A 
BRANCH  84  85
ATOM     85  S   UNL A   1      36.377  33.924  33.206  1.00  0.00     0.124 S 
ATOM     86  O   UNL A   1      36.295  34.936  34.253  1.00  0.00    -0.237 OA
ATOM     87  O   UNL A   1      36.744  34.417  31.879  1.00  0.00    -0.237 OA
ATOM     88  O   UNL A   1      35.339  32.900  33.234  1.00  0.00    -0.744 OA
ENDBRANCH  84  85
ENDBRANCH  52  77
BRANCH  64  89
ATOM     89  C   UNL A   1      44.690  25.830  34.321  1.00  0.00     0.058 A 
ATOM     90  C   UNL A   1      45.971  25.715  34.878  1.00  0.00     0.135 A 
ATOM     91  C   UNL A   1      43.810  24.746  34.494  1.00  0.00     0.135 A 
ATOM     92  F   UNL A   1      46.856  26.717  34.754  1.00  0.00    -0.206 F 
ATOM     93  C   UNL A   1      46.374  24.569  35.554  1.00  0.00     0.059 A 
ATOM     94  C   UNL A   1      44.202  23.575  35.137  1.00  0.00     0.059 A 
ATOM     95  F   UNL A   1      42.554  24.799  34.022  1.00  0.00    -0.206 F 
ATOM     96  C   UNL A   1      45.489  23.498  35.667  1.00  0.00     0.060 A 
BRANCH  96  97
ATOM     97  S   UNL A   1      46.037  21.973  36.457  1.00  0.00     0.124 S 
ATOM     98  O   UNL A   1      47.442  21.890  36.066  1.00  0.00    -0.237 OA
ATOM     99  O   UNL A   1      45.792  22.270  37.864  1.00  0.00    -0.237 OA
ATOM    100  O   UNL A   1      45.170  20.962  35.861  1.00  0.00    -0.744 OA
ENDBRANCH  96  97
ENDBRANCH  64  89
ENDBRANCH  38  39
ENDBRANCH  31  33
ENDBRANCH  30  31
ENDBRANCH  29  30
ENDBRANCH  28  29
ENDBRANCH  27  28
ENDBRANCH  26  27
ENDBRANCH   1  26
TORSDOF 23
ENDMDL
MODEL 3
REMARK VINA RESULT:     -11.8      3.125      4.599
REMARK SMILES Cc1c(CC(=O)OCCOCCOCCOC(=O)c2ccc(-c3c4nc(c(-c5c(F)cc(S(=O)(=O)[O-])cc5F)c5ccc([nH]5)c(-c5c(F)cc(S(=O)(=O)[O-])cc5F)c5nc(c(-c6c(F)cc(S(=O)(=O)[O-])cc6F)c6ccc3[nH]6)C=C5)C=C4)cc2)cccc1-c1ccn(C(F)F)c(=O)c1
REMARK SMILES IDX 11 1 10 2 9 3 8 4 7 5 5 6 6 7 4 8 3 9 1 10 2 11 88 12 85 13
REMARK SMILES IDX 87 14 86 15 89 16 90 17 98 18 91 19 96 20 92 21 97 22 93 23
REMARK SMILES IDX 94 24 95 25 12 26 13 27 14 28 15 29 16 30 17 31 18 32 19 33
REMARK SMILES IDX 20 34 84 35 21 36 83 37 22 38 23 39 24 40 77 41 25 42 82 43
REMARK SMILES IDX 76 44 78 45 26 46 81 47 75 48 74 49 27 51 61 52 40 53 60 54
REMARK SMILES IDX 41 55 44 56 59 57 79 58 42 59 43 60 58 62 80 63 45 64 28 65
REMARK SMILES IDX 29 66 38 67 30 68 31 69 37 70 39 71 32 72 33 73 34 74 35 75
REMARK SMILES IDX 36 76 62 77 63 78 72 79 64 80 65 81 71 82 73 83 66 84 67 85
REMARK SMILES IDX 68 86 69 87 70 88 46 89 47 90 56 91 48 92 49 93 55 94 57 95
REMARK SMILES IDX 50 96 51 97 52 98 53 99 54 100
REMARK H PARENT 78 50 44 61
REMARK Flexibility Score: inf
ROOT
ATOM      1  C   UNL A   1      33.624  29.150  24.102  1.00  0.00     0.188 C 
ENDROOT
BRANCH   1   2
ATOM      2  O   UNL A   1      34.242  27.906  23.691  1.00  0.00    -0.376 OA
BRANCH   2   3
ATOM      3  C   UNL A   1      33.652  26.593  23.765  1.00  0.00     0.202 C 
BRANCH   3   4
ATOM      4  C   UNL A   1      34.467  25.068  23.673  1.00  0.00     0.261 C 
BRANCH   4   5
ATOM      5  O   UNL A   1      33.847  23.479  23.445  1.00  0.00    -0.463 OA
BRANCH   5   6
ATOM      6  C   UNL A   1      33.199  22.413  24.166  1.00  0.00     0.310 C 
ATOM      7  O   UNL A   1      33.666  21.362  24.620  1.00  0.00    -0.252 OA
BRANCH   6   8
ATOM      8  C   UNL A   1      31.769  22.478  24.550  1.00  0.00     0.158 C 
BRANCH   8   9
ATOM      9  C   UNL A   1      31.304  23.777  25.033  1.00  0.00    -0.033 A 
ATOM     10  C   UNL A   1      30.278  24.262  22.749  1.00  0.00     0.045 C 
ATOM     11  C   UNL A   1      30.659  24.666  24.165  1.00  0.00    -0.039 A 
ATOM     12  C   UNL A   1      30.305  25.905  24.703  1.00  0.00    -0.015 A 
ATOM     13  C   UNL A   1      31.538  24.062  26.382  1.00  0.00     0.004 A 
ATOM     14  C   UNL A   1      30.590  26.221  26.045  1.00  0.00     0.009 A 
ATOM     15  C   UNL A   1      31.193  25.294  26.887  1.00  0.00     0.001 A 
BRANCH  12  16
ATOM     16  C   UNL A   1      29.609  26.865  23.852  1.00  0.00    -0.011 A 
ATOM     17  C   UNL A   1      30.333  27.760  22.979  1.00  0.00     0.027 A 
ATOM     18  C   UNL A   1      28.293  27.027  24.058  1.00  0.00     0.080 A 
ATOM     19  C   UNL A   1      29.702  28.794  22.420  1.00  0.00     0.095 A 
ATOM     20  C   UNL A   1      27.565  28.117  23.365  1.00  0.00     0.255 A 
ATOM     21  N   UNL A   1      28.347  28.984  22.617  1.00  0.00    -0.258 N 
ATOM     22  O   UNL A   1      26.348  28.186  23.504  1.00  0.00    -0.269 OA
BRANCH  21  23
ATOM     23  C   UNL A   1      27.676  30.089  21.994  1.00  0.00     0.451 C 
ATOM     24  F   UNL A   1      27.596  31.139  22.848  1.00  0.00    -0.185 F 
ATOM     25  F   UNL A   1      28.320  30.500  20.877  1.00  0.00    -0.185 F 
ENDBRANCH  21  23
ENDBRANCH  12  16
ENDBRANCH   8   9
ENDBRANCH   6   8
ENDBRANCH   5   6
ENDBRANCH   4   5
ENDBRANCH   3   4
ENDBRANCH   2   3
ENDBRANCH   1   2
BRANCH   1  26
ATOM     26  C   UNL A   1      32.474  29.270  25.116  1.00  0.00     0.188 C 
BRANCH  26  27
ATOM     27  O   UNL A   1      32.858  28.812  26.402  1.00  0.00    -0.376 OA
BRANCH  27  28
ATOM     28  C   UNL A   1      34.074  29.344  26.911  1.00  0.00     0.202 C 
BRANCH  28  29
ATOM     29  C   UNL A   1      33.989  30.797  27.439  1.00  0.00     0.261 C 
BRANCH  29  30
ATOM     30  O   UNL A   1      35.282  31.422  27.650  1.00  0.00    -0.460 OA
BRANCH  30  31
ATOM     31  C   UNL A   1      35.874  31.326  28.909  1.00  0.00     0.338 C 
ATOM     32  O   UNL A   1      35.478  31.947  29.850  1.00  0.00    -0.246 OA
BRANCH  31  33
ATOM     33  C   UNL A   1      36.844  30.166  28.957  1.00  0.00     0.060 A 
ATOM     34  C   UNL A   1      37.035  29.157  29.911  1.00  0.00     0.016 A 
ATOM     35  C   UNL A   1      37.696  30.109  27.921  1.00  0.00     0.016 A 
ATOM     36  C   UNL A   1      38.204  28.248  29.900  1.00  0.00     0.010 A 
ATOM     37  C   UNL A   1      38.858  29.364  28.068  1.00  0.00     0.010 A 
ATOM     38  C   UNL A   1      39.249  28.354  28.975  1.00  0.00    -0.014 A 
BRANCH  38  39
ATOM     39  C   UNL A   1      40.751  27.609  28.981  1.00  0.00     0.031 A 
ATOM     40  C   UNL A   1      41.376  26.034  28.594  1.00  0.00     0.074 A 
ATOM     41  C   UNL A   1      41.740  28.420  29.423  1.00  0.00     0.049 A 
ATOM     42  N   UNL A   1      42.573  25.595  28.958  1.00  0.00    -0.248 NA
ATOM     43  C   UNL A   1      40.735  24.836  27.899  1.00  0.00     0.031 C 
ATOM     44  C   UNL A   1      43.181  28.236  29.304  1.00  0.00     0.029 A 
ATOM     45  N   UNL A   1      41.611  29.551  30.233  1.00  0.00    -0.354 N 
ATOM     46  C   UNL A   1      42.784  24.321  28.415  1.00  0.00     0.074 A 
ATOM     47  C   UNL A   1      41.537  23.804  28.051  1.00  0.00     0.031 C 
ATOM     48  C   UNL A   1      43.788  28.986  30.232  1.00  0.00     0.029 A 
ATOM     49  C   UNL A   1      42.757  29.597  31.045  1.00  0.00     0.049 A 
ATOM     50  H   UNL A   1      40.863  30.190  30.234  1.00  0.00     0.167 HD
ATOM     51  C   UNL A   1      43.989  23.755  28.145  1.00  0.00     0.037 A 
ATOM     52  C   UNL A   1      42.618  29.502  32.397  1.00  0.00     0.037 A 
ATOM     53  C   UNL A   1      44.963  24.302  29.051  1.00  0.00     0.049 A 
ATOM     54  C   UNL A   1      43.219  28.228  32.960  1.00  0.00     0.074 A 
ATOM     55  C   UNL A   1      45.899  25.312  28.992  1.00  0.00     0.029 A 
ATOM     56  N   UNL A   1      44.739  24.054  30.396  1.00  0.00    -0.354 N 
ATOM     57  N   UNL A   1      44.010  27.419  32.301  1.00  0.00    -0.248 NA
ATOM     58  C   UNL A   1      42.920  27.728  34.304  1.00  0.00     0.031 C 
ATOM     59  C   UNL A   1      46.033  25.827  30.325  1.00  0.00     0.029 A 
ATOM     60  C   UNL A   1      45.237  25.077  31.180  1.00  0.00     0.049 A 
ATOM     61  H   UNL A   1      44.285  23.254  30.747  1.00  0.00     0.167 HD
ATOM     62  C   UNL A   1      44.195  26.276  33.031  1.00  0.00     0.074 A 
ATOM     63  C   UNL A   1      43.543  26.539  34.302  1.00  0.00     0.031 C 
ATOM     64  C   UNL A   1      44.802  25.148  32.567  1.00  0.00     0.037 A 
BRANCH  51  65
ATOM     65  C   UNL A   1      44.193  22.699  27.045  1.00  0.00     0.058 A 
ATOM     66  C   UNL A   1      43.264  21.660  26.849  1.00  0.00     0.135 A 
ATOM     67  C   UNL A   1      45.360  22.577  26.228  1.00  0.00     0.135 A 
ATOM     68  F   UNL A   1      42.150  21.599  27.593  1.00  0.00    -0.206 F 
ATOM     69  C   UNL A   1      43.463  20.617  25.921  1.00  0.00     0.059 A 
ATOM     70  C   UNL A   1      45.539  21.601  25.244  1.00  0.00     0.059 A 
ATOM     71  F   UNL A   1      46.443  23.347  26.398  1.00  0.00    -0.206 F 
ATOM     72  C   UNL A   1      44.602  20.597  25.119  1.00  0.00     0.060 A 
BRANCH  72  73
ATOM     73  S   UNL A   1      44.907  19.226  23.981  1.00  0.00     0.124 S 
ATOM     74  O   UNL A   1      46.362  19.245  23.875  1.00  0.00    -0.237 OA
ATOM     75  O   UNL A   1      44.334  18.088  24.691  1.00  0.00    -0.237 OA
ATOM     76  O   UNL A   1      44.192  19.621  22.769  1.00  0.00    -0.744 OA
ENDBRANCH  72  73
ENDBRANCH  51  65
BRANCH  52  77
ATOM     77  C   UNL A   1      41.438  30.287  32.883  1.00  0.00     0.058 A 
ATOM     78  C   UNL A   1      41.655  31.663  33.127  1.00  0.00     0.135 A 
ATOM     79  C   UNL A   1      40.105  29.878  32.737  1.00  0.00     0.135 A 
ATOM     80  F   UNL A   1      42.907  32.126  33.285  1.00  0.00    -0.206 F 
ATOM     81  C   UNL A   1      40.634  32.605  33.058  1.00  0.00     0.059 A 
ATOM     82  C   UNL A   1      39.053  30.808  32.701  1.00  0.00     0.059 A 
ATOM     83  F   UNL A   1      39.813  28.595  32.479  1.00  0.00    -0.206 F 
ATOM     84  C   UNL A   1      39.341  32.173  32.793  1.00  0.00     0.060 A 
BRANCH  84  85
ATOM     85  S   UNL A   1      38.107  33.438  32.396  1.00  0.00     0.124 S 
ATOM     86  O   UNL A   1      36.934  32.963  33.120  1.00  0.00    -0.237 OA
ATOM     87  O   UNL A   1      38.740  34.640  32.938  1.00  0.00    -0.237 OA
ATOM     88  O   UNL A   1      38.020  33.373  30.942  1.00  0.00    -0.744 OA
ENDBRANCH  84  85
ENDBRANCH  52  77
BRANCH  64  89
ATOM     89  C   UNL A   1      45.008  23.979  33.476  1.00  0.00     0.058 A 
ATOM     90  C   UNL A   1      46.272  23.755  34.037  1.00  0.00     0.135 A 
ATOM     91  C   UNL A   1      44.022  23.000  33.694  1.00  0.00     0.135 A 
ATOM     92  F   UNL A   1      47.256  24.654  33.872  1.00  0.00    -0.206 F 
ATOM     93  C   UNL A   1      46.558  22.602  34.760  1.00  0.00     0.059 A 
ATOM     94  C   UNL A   1      44.294  21.822  34.385  1.00  0.00     0.059 A 
ATOM     95  F   UNL A   1      42.775  23.163  33.221  1.00  0.00    -0.206 F 
ATOM     96  C   UNL A   1      45.567  21.634  34.917  1.00  0.00     0.060 A 
BRANCH  96  97
ATOM     97  S   UNL A   1      45.959  20.094  35.769  1.00  0.00     0.124 S 
ATOM     98  O   UNL A   1      45.053  19.134  35.142  1.00  0.00    -0.237 OA
ATOM     99  O   UNL A   1      47.371  19.932  35.443  1.00  0.00    -0.237 OA
ATOM    100  O   UNL A   1      45.661  20.404  37.164  1.00  0.00    -0.744 OA
ENDBRANCH  96  97
ENDBRANCH  64  89
ENDBRANCH  38  39
ENDBRANCH  31  33
ENDBRANCH  30  31
ENDBRANCH  29  30
ENDBRANCH  28  29
ENDBRANCH  27  28
ENDBRANCH  26  27
ENDBRANCH   1  26
TORSDOF 23
ENDMDL
