MODEL 1
REMARK VINA RESULT:     -10.8      0.000      0.000
REMARK SMILES O=C(OCCOCCOCCOC(=O)c1ccc(-c2c3nc(c(-c4c(F)cc(S(=O)(=O)[O-])cc4F)c4ccc([nH]4)c(-c4c(F)cc(S(=O)(=O)[O-])cc4F)c4nc(c(-c5c(F)cc(S(=O)(=O)[O-])cc5F)c5ccc2[nH]5)C=C4)C=C3)cc1)c1ccc(Cn2cc(Cl)c(=O)[nH]c2=O)cc1
REMARK SMILES IDX 8 1 7 2 6 3 5 4 4 5 3 6 2 7 1 8 81 9 82 10 96 11 83 12 95 13
REMARK SMILES IDX 84 14 85 15 86 16 87 17 93 18 88 19 92 20 94 21 89 22 90 23
REMARK SMILES IDX 91 25 9 26 10 27 11 28 12 29 13 30 14 31 15 32 16 33 80 34
REMARK SMILES IDX 17 35 79 36 18 37 19 38 20 39 73 40 21 41 78 42 72 43 74 44
REMARK SMILES IDX 22 45 77 46 71 47 70 48 23 50 57 51 36 52 56 53 37 54 40 55
REMARK SMILES IDX 55 56 75 57 38 58 39 59 54 61 76 62 41 63 24 64 25 65 34 66
REMARK SMILES IDX 26 67 27 68 33 69 35 70 28 71 29 72 30 73 31 74 32 75 58 76
REMARK SMILES IDX 59 77 68 78 60 79 61 80 67 81 69 82 62 83 63 84 64 85 65 86
REMARK SMILES IDX 66 87 42 88 43 89 52 90 44 91 45 92 51 93 53 94 46 95 47 96
REMARK SMILES IDX 48 97 49 98 50 99
REMARK H PARENT 92 24 74 49 40 60
REMARK Flexibility Score: inf
ROOT
ATOM      1  C   UNL A   1      32.332  30.402  26.392  1.00  0.00     0.188 C 
ENDROOT
BRANCH   1   2
ATOM      2  C   UNL A   1      32.627  29.054  25.727  1.00  0.00     0.188 C 
BRANCH   2   3
ATOM      3  O   UNL A   1      33.019  29.286  24.368  1.00  0.00    -0.376 OA
BRANCH   3   4
ATOM      4  C   UNL A   1      33.085  28.115  23.565  1.00  0.00     0.202 C 
BRANCH   4   5
ATOM      5  C   UNL A   1      31.818  27.781  22.770  1.00  0.00     0.261 C 
BRANCH   5   6
ATOM      6  O   UNL A   1      30.606  27.890  23.535  1.00  0.00    -0.460 OA
BRANCH   6   7
ATOM      7  C   UNL A   1      29.781  26.849  23.818  1.00  0.00     0.338 C 
ATOM      8  O   UNL A   1      28.565  26.952  23.721  1.00  0.00    -0.246 OA
BRANCH   7   9
ATOM      9  C   UNL A   1      30.376  25.555  24.210  1.00  0.00     0.060 A 
ATOM     10  C   UNL A   1      30.794  25.332  25.524  1.00  0.00     0.016 A 
ATOM     11  C   UNL A   1      30.450  24.530  23.265  1.00  0.00     0.016 A 
ATOM     12  C   UNL A   1      31.363  24.108  25.875  1.00  0.00     0.006 A 
ATOM     13  C   UNL A   1      31.010  23.301  23.621  1.00  0.00     0.006 A 
ATOM     14  C   UNL A   1      31.489  23.086  24.924  1.00  0.00    -0.028 A 
BRANCH  14  15
ATOM     15  C   UNL A   1      32.197  21.792  25.273  1.00  0.00     0.162 C 
BRANCH  15  16
ATOM     16  N   UNL A   1      33.639  22.017  25.422  1.00  0.00    -0.295 N 
ATOM     17  C   UNL A   1      34.394  22.366  24.316  1.00  0.00     0.117 A 
ATOM     18  C   UNL A   1      34.220  21.790  26.663  1.00  0.00     0.328 A 
ATOM     19  C   UNL A   1      35.724  22.481  24.368  1.00  0.00     0.122 A 
ATOM     20  N   UNL A   1      35.581  21.954  26.715  1.00  0.00    -0.273 N 
ATOM     21  O   UNL A   1      33.609  21.435  27.664  1.00  0.00    -0.248 OA
ATOM     22  Cl  UNL A   1      36.661  22.859  22.981  1.00  0.00    -0.077 Cl
ATOM     23  C   UNL A   1      36.408  22.242  25.662  1.00  0.00     0.272 A 
ATOM     24  H   UNL A   1      36.006  21.856  27.599  1.00  0.00     0.175 HD
ATOM     25  O   UNL A   1      37.628  22.278  25.792  1.00  0.00    -0.268 OA
ENDBRANCH  15  16
ENDBRANCH  14  15
ENDBRANCH   7   9
ENDBRANCH   6   7
ENDBRANCH   5   6
ENDBRANCH   4   5
ENDBRANCH   3   4
ENDBRANCH   2   3
ENDBRANCH   1   2
BRANCH   1  26
ATOM     26  O   UNL A   1      33.049  30.619  27.612  1.00  0.00    -0.376 OA
BRANCH  26  27
ATOM     27  C   UNL A   1      33.911  31.754  27.660  1.00  0.00     0.202 C 
BRANCH  27  28
ATOM     28  C   UNL A   1      35.198  31.583  28.473  1.00  0.00     0.261 C 
BRANCH  28  29
ATOM     29  O   UNL A   1      35.645  30.221  28.605  1.00  0.00    -0.460 OA
BRANCH  29  30
ATOM     30  C   UNL A   1      36.401  29.984  29.704  1.00  0.00     0.338 C 
ATOM     31  O   UNL A   1      36.013  29.777  30.840  1.00  0.00    -0.246 OA
BRANCH  30  32
ATOM     32  C   UNL A   1      37.834  30.026  29.367  1.00  0.00     0.060 A 
ATOM     33  C   UNL A   1      38.230  29.802  28.045  1.00  0.00     0.016 A 
ATOM     34  C   UNL A   1      38.777  30.061  30.397  1.00  0.00     0.016 A 
ATOM     35  C   UNL A   1      39.575  29.551  27.756  1.00  0.00     0.010 A 
ATOM     36  C   UNL A   1      40.120  29.810  30.106  1.00  0.00     0.010 A 
ATOM     37  C   UNL A   1      40.520  29.506  28.792  1.00  0.00    -0.014 A 
BRANCH  37  38
ATOM     38  C   UNL A   1      41.894  28.990  28.555  1.00  0.00     0.031 A 
ATOM     39  C   UNL A   1      43.052  29.955  28.560  1.00  0.00     0.074 A 
ATOM     40  C   UNL A   1      42.112  27.689  28.295  1.00  0.00     0.049 A 
ATOM     41  N   UNL A   1      44.301  29.755  28.226  1.00  0.00    -0.248 NA
ATOM     42  C   UNL A   1      42.756  31.329  28.995  1.00  0.00     0.031 C 
ATOM     43  C   UNL A   1      41.093  26.641  28.306  1.00  0.00     0.029 A 
ATOM     44  N   UNL A   1      43.268  27.035  27.949  1.00  0.00    -0.354 N 
ATOM     45  C   UNL A   1      44.937  30.982  28.387  1.00  0.00     0.074 A 
ATOM     46  C   UNL A   1      43.931  31.921  28.836  1.00  0.00     0.031 C 
ATOM     47  C   UNL A   1      41.665  25.477  27.953  1.00  0.00     0.029 A 
ATOM     48  C   UNL A   1      43.080  25.705  27.660  1.00  0.00     0.049 A 
ATOM     49  H   UNL A   1      44.147  27.476  27.911  1.00  0.00     0.167 HD
ATOM     50  C   UNL A   1      46.239  31.298  28.181  1.00  0.00     0.037 A 
ATOM     51  C   UNL A   1      43.944  24.783  27.188  1.00  0.00     0.037 A 
ATOM     52  C   UNL A   1      47.245  30.364  27.749  1.00  0.00     0.049 A 
ATOM     53  C   UNL A   1      45.377  25.163  26.920  1.00  0.00     0.074 A 
ATOM     54  C   UNL A   1      48.593  30.590  27.529  1.00  0.00     0.029 A 
ATOM     55  N   UNL A   1      47.014  29.025  27.471  1.00  0.00    -0.354 N 
ATOM     56  N   UNL A   1      45.964  26.326  27.073  1.00  0.00    -0.248 NA
ATOM     57  C   UNL A   1      46.265  24.106  26.414  1.00  0.00     0.031 C 
ATOM     58  C   UNL A   1      49.171  29.394  27.086  1.00  0.00     0.029 A 
ATOM     59  C   UNL A   1      48.189  28.416  27.065  1.00  0.00     0.049 A 
ATOM     60  H   UNL A   1      46.142  28.575  27.550  1.00  0.00     0.167 HD
ATOM     61  C   UNL A   1      47.294  26.133  26.709  1.00  0.00     0.074 A 
ATOM     62  C   UNL A   1      47.425  24.743  26.327  1.00  0.00     0.031 C 
ATOM     63  C   UNL A   1      48.313  27.027  26.701  1.00  0.00     0.037 A 
BRANCH  50  64
ATOM     64  C   UNL A   1      46.642  32.730  28.392  1.00  0.00     0.058 A 
ATOM     65  C   UNL A   1      47.123  33.187  29.629  1.00  0.00     0.135 A 
ATOM     66  C   UNL A   1      46.555  33.654  27.338  1.00  0.00     0.135 A 
ATOM     67  F   UNL A   1      47.212  32.347  30.672  1.00  0.00    -0.206 F 
ATOM     68  C   UNL A   1      47.474  34.520  29.823  1.00  0.00     0.059 A 
ATOM     69  C   UNL A   1      46.921  34.986  27.504  1.00  0.00     0.059 A 
ATOM     70  F   UNL A   1      46.102  33.267  26.136  1.00  0.00    -0.206 F 
ATOM     71  C   UNL A   1      47.360  35.414  28.757  1.00  0.00     0.060 A 
BRANCH  71  72
ATOM     72  S   UNL A   1      47.796  37.145  29.023  1.00  0.00     0.124 S 
ATOM     73  O   UNL A   1      49.231  37.127  28.755  1.00  0.00    -0.237 OA
ATOM     74  O   UNL A   1      46.976  37.834  28.032  1.00  0.00    -0.237 OA
ATOM     75  O   UNL A   1      47.419  37.378  30.414  1.00  0.00    -0.744 OA
ENDBRANCH  71  72
ENDBRANCH  50  64
BRANCH  51  76
ATOM     76  C   UNL A   1      43.463  23.403  26.924  1.00  0.00     0.058 A 
ATOM     77  C   UNL A   1      43.246  22.955  25.614  1.00  0.00     0.135 A 
ATOM     78  C   UNL A   1      43.240  22.500  27.974  1.00  0.00     0.135 A 
ATOM     79  F   UNL A   1      43.437  23.788  24.579  1.00  0.00    -0.206 F 
ATOM     80  C   UNL A   1      42.819  21.658  25.352  1.00  0.00     0.059 A 
ATOM     81  C   UNL A   1      42.832  21.192  27.737  1.00  0.00     0.059 A 
ATOM     82  F   UNL A   1      43.449  22.881  29.245  1.00  0.00    -0.206 F 
ATOM     83  C   UNL A   1      42.618  20.781  26.422  1.00  0.00     0.060 A 
BRANCH  83  84
ATOM     84  S   UNL A   1      42.122  19.082  26.064  1.00  0.00     0.124 S 
ATOM     85  O   UNL A   1      42.917  18.788  24.878  1.00  0.00    -0.237 OA
ATOM     86  O   UNL A   1      42.515  18.385  27.286  1.00  0.00    -0.237 OA
ATOM     87  O   UNL A   1      40.682  19.191  25.848  1.00  0.00    -0.744 OA
ENDBRANCH  83  84
ENDBRANCH  51  76
BRANCH  63  88
ATOM     88  C   UNL A   1      49.676  26.532  26.302  1.00  0.00     0.058 A 
ATOM     89  C   UNL A   1      50.150  26.656  24.988  1.00  0.00     0.135 A 
ATOM     90  C   UNL A   1      50.545  25.996  27.266  1.00  0.00     0.135 A 
ATOM     91  F   UNL A   1      49.358  27.158  24.029  1.00  0.00    -0.206 F 
ATOM     92  C   UNL A   1      51.437  26.256  24.640  1.00  0.00     0.059 A 
ATOM     93  C   UNL A   1      51.842  25.606  26.944  1.00  0.00     0.059 A 
ATOM     94  F   UNL A   1      50.142  25.864  28.540  1.00  0.00    -0.206 F 
ATOM     95  C   UNL A   1      52.277  25.735  25.626  1.00  0.00     0.060 A 
BRANCH  95  96
ATOM     96  S   UNL A   1      53.964  25.268  25.176  1.00  0.00     0.124 S 
ATOM     97  O   UNL A   1      53.812  23.841  24.911  1.00  0.00    -0.237 OA
ATOM     98  O   UNL A   1      54.223  26.105  24.010  1.00  0.00    -0.237 OA
ATOM     99  O   UNL A   1      54.738  25.607  26.367  1.00  0.00    -0.744 OA
ENDBRANCH  95  96
ENDBRANCH  63  88
ENDBRANCH  37  38
ENDBRANCH  30  32
ENDBRANCH  29  30
ENDBRANCH  28  29
ENDBRANCH  27  28
ENDBRANCH  26  27
ENDBRANCH   1  26
TORSDOF 22
ENDMDL
MODEL 2
REMARK VINA RESULT:     -10.8      2.295      3.170
REMARK SMILES O=C(OCCOCCOCCOC(=O)c1ccc(-c2c3nc(c(-c4c(F)cc(S(=O)(=O)[O-])cc4F)c4ccc([nH]4)c(-c4c(F)cc(S(=O)(=O)[O-])cc4F)c4nc(c(-c5c(F)cc(S(=O)(=O)[O-])cc5F)c5ccc2[nH]5)C=C4)C=C3)cc1)c1ccc(Cn2cc(Cl)c(=O)[nH]c2=O)cc1
REMARK SMILES IDX 8 1 7 2 6 3 5 4 4 5 3 6 2 7 1 8 81 9 82 10 96 11 83 12 95 13
REMARK SMILES IDX 84 14 85 15 86 16 87 17 93 18 88 19 92 20 94 21 89 22 90 23
REMARK SMILES IDX 91 25 9 26 10 27 11 28 12 29 13 30 14 31 15 32 16 33 80 34
REMARK SMILES IDX 17 35 79 36 18 37 19 38 20 39 73 40 21 41 78 42 72 43 74 44
REMARK SMILES IDX 22 45 77 46 71 47 70 48 23 50 57 51 36 52 56 53 37 54 40 55
REMARK SMILES IDX 55 56 75 57 38 58 39 59 54 61 76 62 41 63 24 64 25 65 34 66
REMARK SMILES IDX 26 67 27 68 33 69 35 70 28 71 29 72 30 73 31 74 32 75 58 76
REMARK SMILES IDX 59 77 68 78 60 79 61 80 67 81 69 82 62 83 63 84 64 85 65 86
REMARK SMILES IDX 66 87 42 88 43 89 52 90 44 91 45 92 51 93 53 94 46 95 47 96
REMARK SMILES IDX 48 97 49 98 50 99
REMARK H PARENT 92 24 74 49 40 60
REMARK Flexibility Score: inf
ROOT
ATOM      1  C   UNL A   1      32.389  27.955  26.290  1.00  0.00     0.188 C 
ENDROOT
BRANCH   1   2
ATOM      2  C   UNL A   1      31.622  28.335  25.020  1.00  0.00     0.188 C 
BRANCH   2   3
ATOM      3  O   UNL A   1      32.531  28.949  24.097  1.00  0.00    -0.376 OA
BRANCH   3   4
ATOM      4  C   UNL A   1      32.108  28.911  22.740  1.00  0.00     0.202 C 
BRANCH   4   5
ATOM      5  C   UNL A   1      30.817  28.131  22.467  1.00  0.00     0.261 C 
BRANCH   5   6
ATOM      6  O   UNL A   1      31.001  26.972  21.639  1.00  0.00    -0.460 OA
BRANCH   6   7
ATOM      7  C   UNL A   1      32.086  26.157  21.691  1.00  0.00     0.338 C 
ATOM      8  O   UNL A   1      32.979  26.228  20.856  1.00  0.00    -0.246 OA
BRANCH   7   9
ATOM      9  C   UNL A   1      32.202  25.195  22.805  1.00  0.00     0.060 A 
ATOM     10  C   UNL A   1      33.361  25.140  23.582  1.00  0.00     0.016 A 
ATOM     11  C   UNL A   1      31.107  24.388  23.118  1.00  0.00     0.016 A 
ATOM     12  C   UNL A   1      33.458  24.218  24.624  1.00  0.00     0.006 A 
ATOM     13  C   UNL A   1      31.201  23.473  24.170  1.00  0.00     0.006 A 
ATOM     14  C   UNL A   1      32.385  23.367  24.919  1.00  0.00    -0.028 A 
BRANCH  14  15
ATOM     15  C   UNL A   1      32.520  22.297  25.984  1.00  0.00     0.162 C 
BRANCH  15  16
ATOM     16  N   UNL A   1      33.233  21.129  25.453  1.00  0.00    -0.295 N 
ATOM     17  C   UNL A   1      32.544  20.185  24.713  1.00  0.00     0.117 A 
ATOM     18  C   UNL A   1      34.572  20.964  25.783  1.00  0.00     0.328 A 
ATOM     19  C   UNL A   1      33.114  19.052  24.294  1.00  0.00     0.122 A 
ATOM     20  N   UNL A   1      35.160  19.819  25.310  1.00  0.00    -0.273 N 
ATOM     21  O   UNL A   1      35.221  21.743  26.473  1.00  0.00    -0.248 OA
ATOM     22  Cl  UNL A   1      32.238  17.859  23.424  1.00  0.00    -0.077 Cl
ATOM     23  C   UNL A   1      34.540  18.810  24.621  1.00  0.00     0.272 A 
ATOM     24  H   UNL A   1      36.124  19.711  25.482  1.00  0.00     0.175 HD
ATOM     25  O   UNL A   1      35.130  17.778  24.319  1.00  0.00    -0.268 OA
ENDBRANCH  15  16
ENDBRANCH  14  15
ENDBRANCH   7   9
ENDBRANCH   6   7
ENDBRANCH   5   6
ENDBRANCH   4   5
ENDBRANCH   3   4
ENDBRANCH   2   3
ENDBRANCH   1   2
BRANCH   1  26
ATOM     26  O   UNL A   1      32.250  28.897  27.358  1.00  0.00    -0.376 OA
BRANCH  26  27
ATOM     27  C   UNL A   1      31.748  30.188  27.020  1.00  0.00     0.202 C 
BRANCH  27  28
ATOM     28  C   UNL A   1      32.732  31.351  27.177  1.00  0.00     0.261 C 
BRANCH  28  29
ATOM     29  O   UNL A   1      34.115  30.960  27.237  1.00  0.00    -0.460 OA
BRANCH  29  30
ATOM     30  C   UNL A   1      34.706  31.175  28.437  1.00  0.00     0.338 C 
ATOM     31  O   UNL A   1      34.351  31.947  29.310  1.00  0.00    -0.246 OA
BRANCH  30  32
ATOM     32  C   UNL A   1      35.912  30.342  28.580  1.00  0.00     0.060 A 
ATOM     33  C   UNL A   1      36.403  30.067  29.860  1.00  0.00     0.016 A 
ATOM     34  C   UNL A   1      36.666  30.032  27.446  1.00  0.00     0.016 A 
ATOM     35  C   UNL A   1      37.686  29.533  30.012  1.00  0.00     0.010 A 
ATOM     36  C   UNL A   1      37.949  29.499  27.600  1.00  0.00     0.010 A 
ATOM     37  C   UNL A   1      38.485  29.291  28.884  1.00  0.00    -0.014 A 
BRANCH  37  38
ATOM     38  C   UNL A   1      39.931  28.974  29.022  1.00  0.00     0.031 A 
ATOM     39  C   UNL A   1      40.887  30.066  29.423  1.00  0.00     0.074 A 
ATOM     40  C   UNL A   1      40.399  27.743  28.752  1.00  0.00     0.049 A 
ATOM     41  N   UNL A   1      42.195  30.056  29.451  1.00  0.00    -0.248 NA
ATOM     42  C   UNL A   1      40.285  31.342  29.843  1.00  0.00     0.031 C 
ATOM     43  C   UNL A   1      39.583  26.583  28.400  1.00  0.00     0.029 A 
ATOM     44  N   UNL A   1      41.689  27.274  28.712  1.00  0.00    -0.354 N 
ATOM     45  C   UNL A   1      42.575  31.328  29.869  1.00  0.00     0.074 A 
ATOM     46  C   UNL A   1      41.358  32.086  30.069  1.00  0.00     0.031 C 
ATOM     47  C   UNL A   1      40.394  25.540  28.153  1.00  0.00     0.029 A 
ATOM     48  C   UNL A   1      41.786  25.968  28.296  1.00  0.00     0.049 A 
ATOM     49  H   UNL A   1      42.470  27.820  28.959  1.00  0.00     0.167 HD
ATOM     50  C   UNL A   1      43.822  31.819  30.068  1.00  0.00     0.037 A 
ATOM     51  C   UNL A   1      42.871  25.213  28.034  1.00  0.00     0.037 A 
ATOM     52  C   UNL A   1      45.034  31.065  29.885  1.00  0.00     0.049 A 
ATOM     53  C   UNL A   1      44.251  25.790  28.217  1.00  0.00     0.074 A 
ATOM     54  C   UNL A   1      46.343  31.475  30.078  1.00  0.00     0.029 A 
ATOM     55  N   UNL A   1      45.088  29.744  29.466  1.00  0.00    -0.354 N 
ATOM     56  N   UNL A   1      44.595  26.994  28.607  1.00  0.00    -0.248 NA
ATOM     57  C   UNL A   1      45.389  24.907  27.920  1.00  0.00     0.031 C 
ATOM     58  C   UNL A   1      47.189  30.411  29.745  1.00  0.00     0.029 A 
ATOM     59  C   UNL A   1      46.406  29.328  29.378  1.00  0.00     0.049 A 
ATOM     60  H   UNL A   1      44.304  29.185  29.260  1.00  0.00     0.167 HD
ATOM     61  C   UNL A   1      45.988  27.002  28.632  1.00  0.00     0.074 A 
ATOM     62  C   UNL A   1      46.421  25.686  28.214  1.00  0.00     0.031 C 
ATOM     63  C   UNL A   1      46.827  28.010  28.975  1.00  0.00     0.037 A 
BRANCH  50  64
ATOM     64  C   UNL A   1      43.937  33.260  30.479  1.00  0.00     0.058 A 
ATOM     65  C   UNL A   1      44.084  34.288  29.535  1.00  0.00     0.135 A 
ATOM     66  C   UNL A   1      43.888  33.617  31.836  1.00  0.00     0.135 A 
ATOM     67  F   UNL A   1      44.152  33.998  28.225  1.00  0.00    -0.206 F 
ATOM     68  C   UNL A   1      44.212  35.618  29.923  1.00  0.00     0.059 A 
ATOM     69  C   UNL A   1      43.991  34.942  32.246  1.00  0.00     0.059 A 
ATOM     70  F   UNL A   1      43.747  32.672  32.778  1.00  0.00    -0.206 F 
ATOM     71  C   UNL A   1      44.173  35.934  31.283  1.00  0.00     0.060 A 
BRANCH  71  72
ATOM     72  S   UNL A   1      44.363  37.659  31.780  1.00  0.00     0.124 S 
ATOM     73  O   UNL A   1      43.614  37.682  33.034  1.00  0.00    -0.237 OA
ATOM     74  O   UNL A   1      45.810  37.796  31.905  1.00  0.00    -0.237 OA
ATOM     75  O   UNL A   1      43.760  38.398  30.675  1.00  0.00    -0.744 OA
ENDBRANCH  71  72
ENDBRANCH  50  64
BRANCH  51  76
ATOM     76  C   UNL A   1      42.690  23.819  27.554  1.00  0.00     0.058 A 
ATOM     77  C   UNL A   1      42.595  23.537  26.185  1.00  0.00     0.135 A 
ATOM     78  C   UNL A   1      42.637  22.743  28.453  1.00  0.00     0.135 A 
ATOM     79  F   UNL A   1      42.629  24.536  25.289  1.00  0.00    -0.206 F 
ATOM     80  C   UNL A   1      42.449  22.234  25.721  1.00  0.00     0.059 A 
ATOM     81  C   UNL A   1      42.511  21.430  28.013  1.00  0.00     0.059 A 
ATOM     82  F   UNL A   1      42.739  22.965  29.774  1.00  0.00    -0.206 F 
ATOM     83  C   UNL A   1      42.412  21.186  26.644  1.00  0.00     0.060 A 
BRANCH  83  84
ATOM     84  S   UNL A   1      42.282  19.494  26.025  1.00  0.00     0.124 S 
ATOM     85  O   UNL A   1      43.257  19.503  24.940  1.00  0.00    -0.237 OA
ATOM     86  O   UNL A   1      42.644  18.709  27.202  1.00  0.00    -0.237 OA
ATOM     87  O   UNL A   1      40.885  19.392  25.617  1.00  0.00    -0.744 OA
ENDBRANCH  83  84
ENDBRANCH  51  76
BRANCH  63  88
ATOM     88  C   UNL A   1      48.305  27.728  28.956  1.00  0.00     0.058 A 
ATOM     89  C   UNL A   1      48.944  27.074  30.019  1.00  0.00     0.135 A 
ATOM     90  C   UNL A   1      49.072  28.052  27.826  1.00  0.00     0.135 A 
ATOM     91  F   UNL A   1      48.256  26.747  31.124  1.00  0.00    -0.206 F 
ATOM     92  C   UNL A   1      50.298  26.757  29.967  1.00  0.00     0.059 A 
ATOM     93  C   UNL A   1      50.424  27.729  27.744  1.00  0.00     0.059 A 
ATOM     94  F   UNL A   1      48.505  28.670  26.778  1.00  0.00    -0.206 F 
ATOM     95  C   UNL A   1      51.030  27.087  28.824  1.00  0.00     0.060 A 
BRANCH  95  96
ATOM     96  S   UNL A   1      52.775  26.625  28.743  1.00  0.00     0.124 S 
ATOM     97  O   UNL A   1      53.003  26.103  30.086  1.00  0.00    -0.237 OA
ATOM     98  O   UNL A   1      52.791  25.639  27.668  1.00  0.00    -0.237 OA
ATOM     99  O   UNL A   1      53.445  27.886  28.437  1.00  0.00    -0.744 OA
ENDBRANCH  95  96
ENDBRANCH  63  88
ENDBRANCH  37  38
ENDBRANCH  30  32
ENDBRANCH  29  30
ENDBRANCH  28  29
ENDBRANCH  27  28
ENDBRANCH  26  27
ENDBRANCH   1  26
TORSDOF 22
ENDMDL
MODEL 3
REMARK VINA RESULT:     -10.6      1.493      2.083
REMARK SMILES O=C(OCCOCCOCCOC(=O)c1ccc(-c2c3nc(c(-c4c(F)cc(S(=O)(=O)[O-])cc4F)c4ccc([nH]4)c(-c4c(F)cc(S(=O)(=O)[O-])cc4F)c4nc(c(-c5c(F)cc(S(=O)(=O)[O-])cc5F)c5ccc2[nH]5)C=C4)C=C3)cc1)c1ccc(Cn2cc(Cl)c(=O)[nH]c2=O)cc1
REMARK SMILES IDX 8 1 7 2 6 3 5 4 4 5 3 6 2 7 1 8 81 9 82 10 96 11 83 12 95 13
REMARK SMILES IDX 84 14 85 15 86 16 87 17 93 18 88 19 92 20 94 21 89 22 90 23
REMARK SMILES IDX 91 25 9 26 10 27 11 28 12 29 13 30 14 31 15 32 16 33 80 34
REMARK SMILES IDX 17 35 79 36 18 37 19 38 20 39 73 40 21 41 78 42 72 43 74 44
REMARK SMILES IDX 22 45 77 46 71 47 70 48 23 50 57 51 36 52 56 53 37 54 40 55
REMARK SMILES IDX 55 56 75 57 38 58 39 59 54 61 76 62 41 63 24 64 25 65 34 66
REMARK SMILES IDX 26 67 27 68 33 69 35 70 28 71 29 72 30 73 31 74 32 75 58 76
REMARK SMILES IDX 59 77 68 78 60 79 61 80 67 81 69 82 62 83 63 84 64 85 65 86
REMARK SMILES IDX 66 87 42 88 43 89 52 90 44 91 45 92 51 93 53 94 46 95 47 96
REMARK SMILES IDX 48 97 49 98 50 99
REMARK H PARENT 92 24 74 49 40 60
REMARK Flexibility Score: inf
ROOT
ATOM      1  C   UNL A   1      34.146  28.940  26.286  1.00  0.00     0.188 C 
ENDROOT
BRANCH   1   2
ATOM      2  C   UNL A   1      32.694  28.686  25.868  1.00  0.00     0.188 C 
BRANCH   2   3
ATOM      3  O   UNL A   1      32.415  29.444  24.684  1.00  0.00    -0.376 OA
BRANCH   3   4
ATOM      4  C   UNL A   1      31.197  29.099  24.036  1.00  0.00     0.202 C 
BRANCH   4   5
ATOM      5  C   UNL A   1      31.094  27.653  23.541  1.00  0.00     0.261 C 
BRANCH   5   6
ATOM      6  O   UNL A   1      31.831  27.396  22.335  1.00  0.00    -0.460 OA
BRANCH   6   7
ATOM      7  C   UNL A   1      32.926  26.598  22.260  1.00  0.00     0.338 C 
ATOM      8  O   UNL A   1      33.800  26.788  21.424  1.00  0.00    -0.246 OA
BRANCH   7   9
ATOM      9  C   UNL A   1      33.077  25.502  23.239  1.00  0.00     0.060 A 
ATOM     10  C   UNL A   1      32.383  24.301  23.077  1.00  0.00     0.016 A 
ATOM     11  C   UNL A   1      33.980  25.656  24.292  1.00  0.00     0.016 A 
ATOM     12  C   UNL A   1      32.529  23.281  24.017  1.00  0.00     0.006 A 
ATOM     13  C   UNL A   1      34.134  24.628  25.226  1.00  0.00     0.006 A 
ATOM     14  C   UNL A   1      33.395  23.439  25.107  1.00  0.00    -0.028 A 
BRANCH  14  15
ATOM     15  C   UNL A   1      33.482  22.376  26.183  1.00  0.00     0.162 C 
BRANCH  15  16
ATOM     16  N   UNL A   1      33.928  21.100  25.612  1.00  0.00    -0.295 N 
ATOM     17  C   UNL A   1      32.997  20.121  25.314  1.00  0.00     0.117 A 
ATOM     18  C   UNL A   1      35.292  20.882  25.463  1.00  0.00     0.328 A 
ATOM     19  C   UNL A   1      33.351  18.904  24.892  1.00  0.00     0.122 A 
ATOM     20  N   UNL A   1      35.643  19.644  24.987  1.00  0.00    -0.273 N 
ATOM     21  O   UNL A   1      36.164  21.694  25.754  1.00  0.00    -0.248 OA
ATOM     22  Cl  UNL A   1      32.195  17.677  24.577  1.00  0.00    -0.077 Cl
ATOM     23  C   UNL A   1      34.793  18.603  24.721  1.00  0.00     0.272 A 
ATOM     24  H   UNL A   1      36.601  19.489  24.818  1.00  0.00     0.175 HD
ATOM     25  O   UNL A   1      35.212  17.500  24.385  1.00  0.00    -0.268 OA
ENDBRANCH  15  16
ENDBRANCH  14  15
ENDBRANCH   7   9
ENDBRANCH   6   7
ENDBRANCH   5   6
ENDBRANCH   4   5
ENDBRANCH   3   4
ENDBRANCH   2   3
ENDBRANCH   1   2
BRANCH   1  26
ATOM     26  O   UNL A   1      34.281  29.661  27.515  1.00  0.00    -0.376 OA
BRANCH  26  27
ATOM     27  C   UNL A   1      33.799  31.003  27.532  1.00  0.00     0.202 C 
BRANCH  27  28
ATOM     28  C   UNL A   1      34.548  31.971  28.453  1.00  0.00     0.261 C 
BRANCH  28  29
ATOM     29  O   UNL A   1      35.982  31.858  28.399  1.00  0.00    -0.460 OA
BRANCH  29  30
ATOM     30  C   UNL A   1      36.573  31.665  29.603  1.00  0.00     0.338 C 
ATOM     31  O   UNL A   1      36.271  32.173  30.667  1.00  0.00    -0.246 OA
BRANCH  30  32
ATOM     32  C   UNL A   1      37.706  30.733  29.481  1.00  0.00     0.060 A 
ATOM     33  C   UNL A   1      38.595  30.596  30.552  1.00  0.00     0.016 A 
ATOM     34  C   UNL A   1      38.004  30.178  28.234  1.00  0.00     0.016 A 
ATOM     35  C   UNL A   1      39.820  29.950  30.361  1.00  0.00     0.010 A 
ATOM     36  C   UNL A   1      39.230  29.533  28.045  1.00  0.00     0.010 A 
ATOM     37  C   UNL A   1      40.165  29.457  29.093  1.00  0.00    -0.014 A 
BRANCH  37  38
ATOM     38  C   UNL A   1      41.549  29.005  28.796  1.00  0.00     0.031 A 
ATOM     39  C   UNL A   1      42.665  30.018  28.775  1.00  0.00     0.074 A 
ATOM     40  C   UNL A   1      41.811  27.719  28.504  1.00  0.00     0.049 A 
ATOM     41  N   UNL A   1      43.907  29.877  28.391  1.00  0.00    -0.248 NA
ATOM     42  C   UNL A   1      42.329  31.371  29.246  1.00  0.00     0.031 C 
ATOM     43  C   UNL A   1      40.838  26.629  28.533  1.00  0.00     0.029 A 
ATOM     44  N   UNL A   1      42.980  27.120  28.103  1.00  0.00    -0.354 N 
ATOM     45  C   UNL A   1      44.497  31.127  28.551  1.00  0.00     0.074 A 
ATOM     46  C   UNL A   1      43.471  32.015  29.055  1.00  0.00     0.031 C 
ATOM     47  C   UNL A   1      41.445  25.496  28.138  1.00  0.00     0.029 A 
ATOM     48  C   UNL A   1      42.837  25.789  27.797  1.00  0.00     0.049 A 
ATOM     49  H   UNL A   1      43.837  27.599  28.040  1.00  0.00     0.167 HD
ATOM     50  C   UNL A   1      45.776  31.501  28.302  1.00  0.00     0.037 A 
ATOM     51  C   UNL A   1      43.719  24.913  27.275  1.00  0.00     0.037 A 
ATOM     52  C   UNL A   1      46.803  30.618  27.815  1.00  0.00     0.049 A 
ATOM     53  C   UNL A   1      45.124  25.358  26.961  1.00  0.00     0.074 A 
ATOM     54  C   UNL A   1      48.131  30.905  27.549  1.00  0.00     0.029 A 
ATOM     55  N   UNL A   1      46.617  29.276  27.521  1.00  0.00    -0.354 N 
ATOM     56  N   UNL A   1      45.667  26.542  27.113  1.00  0.00    -0.248 NA
ATOM     57  C   UNL A   1      46.035  24.348  26.402  1.00  0.00     0.031 C 
ATOM     58  C   UNL A   1      48.741  29.743  27.063  1.00  0.00     0.029 A 
ATOM     59  C   UNL A   1      47.801  28.724  27.061  1.00  0.00     0.049 A 
ATOM     60  H   UNL A   1      45.769  28.788  27.624  1.00  0.00     0.167 HD
ATOM     61  C   UNL A   1      46.989  26.411  26.697  1.00  0.00     0.074 A 
ATOM     62  C   UNL A   1      47.164  25.035  26.284  1.00  0.00     0.031 C 
ATOM     63  C   UNL A   1      47.969  27.348  26.666  1.00  0.00     0.037 A 
BRANCH  50  64
ATOM     64  C   UNL A   1      46.126  32.946  28.524  1.00  0.00     0.058 A 
ATOM     65  C   UNL A   1      46.112  33.879  27.476  1.00  0.00     0.135 A 
ATOM     66  C   UNL A   1      46.470  33.403  29.807  1.00  0.00     0.135 A 
ATOM     67  F   UNL A   1      45.805  33.489  26.228  1.00  0.00    -0.206 F 
ATOM     68  C   UNL A   1      46.459  35.210  27.684  1.00  0.00     0.059 A 
ATOM     69  C   UNL A   1      46.798  34.734  30.042  1.00  0.00     0.059 A 
ATOM     70  F   UNL A   1      46.496  32.551  30.843  1.00  0.00    -0.206 F 
ATOM     71  C   UNL A   1      46.810  35.626  28.970  1.00  0.00     0.060 A 
BRANCH  71  72
ATOM     72  S   UNL A   1      47.281  37.350  29.229  1.00  0.00     0.124 S 
ATOM     73  O   UNL A   1      47.901  37.284  30.549  1.00  0.00    -0.237 OA
ATOM     74  O   UNL A   1      48.189  37.601  28.115  1.00  0.00    -0.237 OA
ATOM     75  O   UNL A   1      46.007  38.061  29.167  1.00  0.00    -0.744 OA
ENDBRANCH  71  72
ENDBRANCH  50  64
BRANCH  51  76
ATOM     76  C   UNL A   1      43.287  23.518  27.004  1.00  0.00     0.058 A 
ATOM     77  C   UNL A   1      43.018  23.089  25.698  1.00  0.00     0.135 A 
ATOM     78  C   UNL A   1      43.164  22.582  28.043  1.00  0.00     0.135 A 
ATOM     79  F   UNL A   1      43.112  23.953  24.675  1.00  0.00    -0.206 F 
ATOM     80  C   UNL A   1      42.635  21.780  25.428  1.00  0.00     0.059 A 
ATOM     81  C   UNL A   1      42.802  21.262  27.796  1.00  0.00     0.059 A 
ATOM     82  F   UNL A   1      43.426  22.944  29.309  1.00  0.00    -0.206 F 
ATOM     83  C   UNL A   1      42.534  20.872  26.484  1.00  0.00     0.060 A 
BRANCH  83  84
ATOM     84  S   UNL A   1      42.095  19.160  26.113  1.00  0.00     0.124 S 
ATOM     85  O   UNL A   1      42.928  18.890  24.947  1.00  0.00    -0.237 OA
ATOM     86  O   UNL A   1      42.476  18.472  27.343  1.00  0.00    -0.237 OA
ATOM     87  O   UNL A   1      40.659  19.228  25.860  1.00  0.00    -0.744 OA
ENDBRANCH  83  84
ENDBRANCH  51  76
BRANCH  63  88
ATOM     88  C   UNL A   1      49.335  26.918  26.208  1.00  0.00     0.058 A 
ATOM     89  C   UNL A   1      49.731  27.030  24.867  1.00  0.00     0.135 A 
ATOM     90  C   UNL A   1      50.283  26.461  27.137  1.00  0.00     0.135 A 
ATOM     91  F   UNL A   1      48.862  27.458  23.939  1.00  0.00    -0.206 F 
ATOM     92  C   UNL A   1      51.019  26.692  24.460  1.00  0.00     0.059 A 
ATOM     93  C   UNL A   1      51.582  26.134  26.756  1.00  0.00     0.059 A 
ATOM     94  F   UNL A   1      49.956  26.345  28.434  1.00  0.00    -0.206 F 
ATOM     95  C   UNL A   1      51.938  26.248  25.413  1.00  0.00     0.060 A 
BRANCH  95  96
ATOM     96  S   UNL A   1      53.623  25.863  24.885  1.00  0.00     0.124 S 
ATOM     97  O   UNL A   1      54.395  26.260  26.058  1.00  0.00    -0.237 OA
ATOM     98  O   UNL A   1      53.554  24.428  24.628  1.00  0.00    -0.237 OA
ATOM     99  O   UNL A   1      53.806  26.697  23.701  1.00  0.00    -0.744 OA
ENDBRANCH  95  96
ENDBRANCH  63  88
ENDBRANCH  37  38
ENDBRANCH  30  32
ENDBRANCH  29  30
ENDBRANCH  28  29
ENDBRANCH  27  28
ENDBRANCH  26  27
ENDBRANCH   1  26
TORSDOF 22
ENDMDL
