MODEL 1
REMARK VINA RESULT:     -11.0      0.000      0.000
REMARK SMILES Cc1ccn2c([C@@H]3CCCC[C@@H]3C(=O)OCCOCCOCCOC(=O)c3ccc(-c4c5nc(c(-c6c(F)cc(S(=O)(=O)[O-])cc6F)c6ccc([nH]6)c(-c6c(F)cc(S(=O)(=O)[O-])cc6F)c6nc(c(-c7c(F)cc(S(=O)(=O)[O-])cc7F)c7ccc4[nH]7)C=C6)C=C5)cc3)nnc2c1
REMARK SMILES IDX 20 1 19 2 18 3 17 4 16 5 15 6 13 7 14 8 12 9 7 10 8 11 9 12
REMARK SMILES IDX 11 13 10 14 6 15 1 16 2 17 3 18 96 19 4 20 95 21 5 22 94 23
REMARK SMILES IDX 93 24 21 25 22 26 23 27 24 28 25 29 26 30 27 31 28 32 92 33
REMARK SMILES IDX 29 34 91 35 30 36 31 37 32 38 85 39 33 40 90 41 84 42 86 43
REMARK SMILES IDX 34 44 89 45 83 46 82 47 35 49 69 50 48 51 68 52 49 53 52 54
REMARK SMILES IDX 67 55 87 56 50 57 51 58 66 60 88 61 53 62 36 63 37 64 46 65
REMARK SMILES IDX 38 66 39 67 45 68 47 69 40 70 41 71 42 72 43 73 44 74 70 75
REMARK SMILES IDX 71 76 80 77 72 78 73 79 79 80 81 81 74 82 75 83 76 84 77 85
REMARK SMILES IDX 78 86 54 87 55 88 64 89 56 90 57 91 63 92 65 93 58 94 59 95
REMARK SMILES IDX 60 96 61 97 62 98
REMARK H PARENT 86 48 52 59
REMARK Flexibility Score: inf
ROOT
ATOM      1  C   UNL A   1      34.306  32.012  27.711  1.00  0.00     0.188 C 
ENDROOT
BRANCH   1   2
ATOM      2  C   UNL A   1      33.767  30.597  27.580  1.00  0.00     0.188 C 
BRANCH   2   3
ATOM      3  O   UNL A   1      32.939  30.391  26.456  1.00  0.00    -0.376 OA
BRANCH   3   4
ATOM      4  C   UNL A   1      31.751  29.650  26.694  1.00  0.00     0.202 C 
BRANCH   4   5
ATOM      5  C   UNL A   1      31.820  28.404  27.601  1.00  0.00     0.261 C 
BRANCH   5   6
ATOM      6  O   UNL A   1      31.263  27.120  27.121  1.00  0.00    -0.463 OA
BRANCH   6   7
ATOM      7  C   UNL A   1      32.007  26.578  26.128  1.00  0.00     0.309 C 
ATOM      8  O   UNL A   1      33.241  26.673  26.182  1.00  0.00    -0.252 OA
BRANCH   7   9
ATOM      9  C   UNL A   1      31.401  25.841  24.882  1.00  0.00     0.110 C 
ATOM     10  C   UNL A   1      31.739  25.344  23.394  1.00  0.00     0.072 C 
ATOM     11  C   UNL A   1      31.735  26.319  22.155  1.00  0.00     0.012 C 
ATOM     12  C   UNL A   1      30.661  27.341  22.308  1.00  0.00     0.001 C 
ATOM     13  C   UNL A   1      30.268  26.849  24.599  1.00  0.00     0.016 C 
ATOM     14  C   UNL A   1      30.952  27.865  23.690  1.00  0.00     0.001 C 
BRANCH  10  15
ATOM     15  C   UNL A   1      32.800  24.361  23.079  1.00  0.00     0.141 A 
ATOM     16  C   UNL A   1      33.793  19.238  24.924  1.00  0.00     0.044 C 
ATOM     17  C   UNL A   1      33.572  20.681  24.616  1.00  0.00    -0.046 A 
ATOM     18  C   UNL A   1      32.198  21.149  24.732  1.00  0.00     0.022 A 
ATOM     19  C   UNL A   1      34.548  21.500  24.165  1.00  0.00     0.053 A 
ATOM     20  C   UNL A   1      31.871  22.350  24.244  1.00  0.00     0.095 A 
ATOM     21  C   UNL A   1      34.198  22.773  23.644  1.00  0.00     0.161 A 
ATOM     22  N   UNL A   1      32.858  23.121  23.657  1.00  0.00    -0.286 N 
ATOM     23  N   UNL A   1      34.898  23.723  23.070  1.00  0.00    -0.130 NA
ATOM     24  N   UNL A   1      34.018  24.708  22.690  1.00  0.00    -0.134 NA
ENDBRANCH  10  15
ENDBRANCH   7   9
ENDBRANCH   6   7
ENDBRANCH   5   6
ENDBRANCH   4   5
ENDBRANCH   3   4
ENDBRANCH   2   3
ENDBRANCH   1   2
BRANCH   1  25
ATOM     25  O   UNL A   1      33.413  33.095  27.964  1.00  0.00    -0.376 OA
BRANCH  25  26
ATOM     26  C   UNL A   1      34.006  34.131  28.759  1.00  0.00     0.202 C 
BRANCH  26  27
ATOM     27  C   UNL A   1      35.491  33.920  29.131  1.00  0.00     0.261 C 
BRANCH  27  28
ATOM     28  O   UNL A   1      35.662  33.726  30.553  1.00  0.00    -0.460 OA
BRANCH  28  29
ATOM     29  C   UNL A   1      35.490  32.455  31.000  1.00  0.00     0.338 C 
ATOM     30  O   UNL A   1      34.432  32.005  31.426  1.00  0.00    -0.246 OA
BRANCH  29  31
ATOM     31  C   UNL A   1      36.668  31.589  30.654  1.00  0.00     0.060 A 
ATOM     32  C   UNL A   1      36.602  30.251  30.217  1.00  0.00     0.016 A 
ATOM     33  C   UNL A   1      37.917  32.102  30.983  1.00  0.00     0.016 A 
ATOM     34  C   UNL A   1      37.739  29.397  30.287  1.00  0.00     0.010 A 
ATOM     35  C   UNL A   1      39.040  31.271  30.969  1.00  0.00     0.010 A 
ATOM     36  C   UNL A   1      38.975  29.879  30.737  1.00  0.00    -0.014 A 
BRANCH  36  37
ATOM     37  C   UNL A   1      40.287  29.140  30.630  1.00  0.00     0.031 A 
ATOM     38  C   UNL A   1      40.816  28.973  31.980  1.00  0.00     0.074 A 
ATOM     39  C   UNL A   1      41.085  28.611  29.643  1.00  0.00     0.049 A 
ATOM     40  N   UNL A   1      41.673  29.806  32.471  1.00  0.00    -0.248 NA
ATOM     41  C   UNL A   1      40.266  28.009  32.932  1.00  0.00     0.031 C 
ATOM     42  C   UNL A   1      41.069  28.850  28.215  1.00  0.00     0.029 A 
ATOM     43  N   UNL A   1      42.056  27.609  29.688  1.00  0.00    -0.354 N 
ATOM     44  C   UNL A   1      42.073  29.193  33.627  1.00  0.00     0.074 A 
ATOM     45  C   UNL A   1      40.994  28.312  34.013  1.00  0.00     0.031 C 
ATOM     46  C   UNL A   1      41.600  27.837  27.508  1.00  0.00     0.029 A 
ATOM     47  C   UNL A   1      42.277  26.962  28.449  1.00  0.00     0.049 A 
ATOM     48  H   UNL A   1      42.545  27.372  30.510  1.00  0.00     0.167 HD
ATOM     49  C   UNL A   1      43.405  29.108  33.872  1.00  0.00     0.037 A 
ATOM     50  C   UNL A   1      43.333  26.268  27.945  1.00  0.00     0.037 A 
ATOM     51  C   UNL A   1      44.191  29.975  33.017  1.00  0.00     0.049 A 
ATOM     52  C   UNL A   1      44.556  26.957  28.399  1.00  0.00     0.074 A 
ATOM     53  C   UNL A   1      44.363  31.339  32.880  1.00  0.00     0.029 A 
ATOM     54  N   UNL A   1      44.663  29.403  31.862  1.00  0.00    -0.354 N 
ATOM     55  N   UNL A   1      44.892  28.171  28.050  1.00  0.00    -0.248 NA
ATOM     56  C   UNL A   1      45.254  26.413  29.555  1.00  0.00     0.031 C 
ATOM     57  C   UNL A   1      44.902  31.569  31.579  1.00  0.00     0.029 A 
ATOM     58  C   UNL A   1      45.068  30.347  30.942  1.00  0.00     0.049 A 
ATOM     59  H   UNL A   1      44.708  28.432  31.709  1.00  0.00     0.167 HD
ATOM     60  C   UNL A   1      45.487  28.683  29.187  1.00  0.00     0.074 A 
ATOM     61  C   UNL A   1      45.820  27.530  30.012  1.00  0.00     0.031 C 
ATOM     62  C   UNL A   1      45.316  29.982  29.557  1.00  0.00     0.037 A 
BRANCH  49  63
ATOM     63  C   UNL A   1      43.999  27.925  34.568  1.00  0.00     0.058 A 
ATOM     64  C   UNL A   1      44.073  26.701  33.893  1.00  0.00     0.135 A 
ATOM     65  C   UNL A   1      44.318  27.907  35.945  1.00  0.00     0.135 A 
ATOM     66  F   UNL A   1      43.726  26.618  32.599  1.00  0.00    -0.206 F 
ATOM     67  C   UNL A   1      44.463  25.533  34.539  1.00  0.00     0.059 A 
ATOM     68  C   UNL A   1      44.776  26.773  36.594  1.00  0.00     0.059 A 
ATOM     69  F   UNL A   1      44.113  28.969  36.737  1.00  0.00    -0.206 F 
ATOM     70  C   UNL A   1      44.822  25.582  35.887  1.00  0.00     0.060 A 
BRANCH  70  71
ATOM     71  S   UNL A   1      45.309  24.068  36.724  1.00  0.00     0.124 S 
ATOM     72  O   UNL A   1      44.853  24.334  38.084  1.00  0.00    -0.237 OA
ATOM     73  O   UNL A   1      44.560  23.060  35.981  1.00  0.00    -0.237 OA
ATOM     74  O   UNL A   1      46.755  24.032  36.535  1.00  0.00    -0.744 OA
ENDBRANCH  70  71
ENDBRANCH  49  63
BRANCH  50  75
ATOM     75  C   UNL A   1      43.300  25.117  26.995  1.00  0.00     0.058 A 
ATOM     76  C   UNL A   1      43.920  25.165  25.733  1.00  0.00     0.135 A 
ATOM     77  C   UNL A   1      42.857  23.844  27.413  1.00  0.00     0.135 A 
ATOM     78  F   UNL A   1      44.337  26.336  25.227  1.00  0.00    -0.206 F 
ATOM     79  C   UNL A   1      44.191  24.011  24.985  1.00  0.00     0.059 A 
ATOM     80  C   UNL A   1      43.117  22.678  26.685  1.00  0.00     0.059 A 
ATOM     81  F   UNL A   1      42.220  23.695  28.586  1.00  0.00    -0.206 F 
ATOM     82  C   UNL A   1      43.830  22.765  25.494  1.00  0.00     0.060 A 
BRANCH  82  83
ATOM     83  S   UNL A   1      44.453  21.266  24.684  1.00  0.00     0.124 S 
ATOM     84  O   UNL A   1      43.416  20.291  24.999  1.00  0.00    -0.237 OA
ATOM     85  O   UNL A   1      44.526  21.684  23.286  1.00  0.00    -0.237 OA
ATOM     86  O   UNL A   1      45.743  21.042  25.328  1.00  0.00    -0.744 OA
ENDBRANCH  82  83
ENDBRANCH  50  75
BRANCH  62  87
ATOM     87  C   UNL A   1      45.226  31.032  28.484  1.00  0.00     0.058 A 
ATOM     88  C   UNL A   1      46.291  31.427  27.667  1.00  0.00     0.135 A 
ATOM     89  C   UNL A   1      43.981  31.613  28.207  1.00  0.00     0.135 A 
ATOM     90  F   UNL A   1      47.491  30.874  27.817  1.00  0.00    -0.206 F 
ATOM     91  C   UNL A   1      46.147  32.358  26.635  1.00  0.00     0.059 A 
ATOM     92  C   UNL A   1      43.800  32.532  27.170  1.00  0.00     0.059 A 
ATOM     93  F   UNL A   1      42.904  31.258  28.926  1.00  0.00    -0.206 F 
ATOM     94  C   UNL A   1      44.893  32.905  26.389  1.00  0.00     0.060 A 
BRANCH  94  95
ATOM     95  S   UNL A   1      44.693  34.038  24.997  1.00  0.00     0.124 S 
ATOM     96  O   UNL A   1      45.961  34.758  24.999  1.00  0.00    -0.237 OA
ATOM     97  O   UNL A   1      44.481  33.127  23.876  1.00  0.00    -0.237 OA
ATOM     98  O   UNL A   1      43.523  34.831  25.370  1.00  0.00    -0.744 OA
ENDBRANCH  94  95
ENDBRANCH  62  87
ENDBRANCH  36  37
ENDBRANCH  29  31
ENDBRANCH  28  29
ENDBRANCH  27  28
ENDBRANCH  26  27
ENDBRANCH  25  26
ENDBRANCH   1  25
TORSDOF 21
ENDMDL
MODEL 2
REMARK VINA RESULT:     -10.9      1.788      3.536
REMARK SMILES Cc1ccn2c([C@@H]3CCCC[C@@H]3C(=O)OCCOCCOCCOC(=O)c3ccc(-c4c5nc(c(-c6c(F)cc(S(=O)(=O)[O-])cc6F)c6ccc([nH]6)c(-c6c(F)cc(S(=O)(=O)[O-])cc6F)c6nc(c(-c7c(F)cc(S(=O)(=O)[O-])cc7F)c7ccc4[nH]7)C=C6)C=C5)cc3)nnc2c1
REMARK SMILES IDX 20 1 19 2 18 3 17 4 16 5 15 6 13 7 14 8 12 9 7 10 8 11 9 12
REMARK SMILES IDX 11 13 10 14 6 15 1 16 2 17 3 18 96 19 4 20 95 21 5 22 94 23
REMARK SMILES IDX 93 24 21 25 22 26 23 27 24 28 25 29 26 30 27 31 28 32 92 33
REMARK SMILES IDX 29 34 91 35 30 36 31 37 32 38 85 39 33 40 90 41 84 42 86 43
REMARK SMILES IDX 34 44 89 45 83 46 82 47 35 49 69 50 48 51 68 52 49 53 52 54
REMARK SMILES IDX 67 55 87 56 50 57 51 58 66 60 88 61 53 62 36 63 37 64 46 65
REMARK SMILES IDX 38 66 39 67 45 68 47 69 40 70 41 71 42 72 43 73 44 74 70 75
REMARK SMILES IDX 71 76 80 77 72 78 73 79 79 80 81 81 74 82 75 83 76 84 77 85
REMARK SMILES IDX 78 86 54 87 55 88 64 89 56 90 57 91 63 92 65 93 58 94 59 95
REMARK SMILES IDX 60 96 61 97 62 98
REMARK H PARENT 86 48 52 59
REMARK Flexibility Score: inf
ROOT
ATOM      1  C   UNL A   1      31.369  29.180  24.251  1.00  0.00     0.188 C 
ENDROOT
BRANCH   1   2
ATOM      2  C   UNL A   1      32.078  28.608  23.033  1.00  0.00     0.188 C 
BRANCH   2   3
ATOM      3  O   UNL A   1      31.332  27.642  22.326  1.00  0.00    -0.376 OA
BRANCH   3   4
ATOM      4  C   UNL A   1      32.039  26.465  21.960  1.00  0.00     0.202 C 
BRANCH   4   5
ATOM      5  C   UNL A   1      33.431  26.211  22.574  1.00  0.00     0.261 C 
BRANCH   5   6
ATOM      6  O   UNL A   1      34.114  24.923  22.324  1.00  0.00    -0.463 OA
BRANCH   6   7
ATOM      7  C   UNL A   1      34.104  24.117  23.412  1.00  0.00     0.309 C 
ATOM      8  O   UNL A   1      33.534  24.505  24.441  1.00  0.00    -0.252 OA
BRANCH   7   9
ATOM      9  C   UNL A   1      34.795  22.709  23.465  1.00  0.00     0.110 C 
ATOM     10  C   UNL A   1      35.116  21.472  24.436  1.00  0.00     0.072 C 
ATOM     11  C   UNL A   1      36.297  21.502  25.482  1.00  0.00     0.012 C 
ATOM     12  C   UNL A   1      37.456  22.257  24.927  1.00  0.00     0.001 C 
ATOM     13  C   UNL A   1      36.221  23.184  23.121  1.00  0.00     0.016 C 
ATOM     14  C   UNL A   1      36.790  23.537  24.492  1.00  0.00     0.001 C 
BRANCH  10  15
ATOM     15  C   UNL A   1      34.074  20.649  25.090  1.00  0.00     0.141 A 
ATOM     16  C   UNL A   1      33.043  15.212  25.026  1.00  0.00     0.044 C 
ATOM     17  C   UNL A   1      33.266  16.676  24.846  1.00  0.00    -0.046 A 
ATOM     18  C   UNL A   1      34.632  17.072  24.534  1.00  0.00     0.022 A 
ATOM     19  C   UNL A   1      32.304  17.602  25.047  1.00  0.00     0.053 A 
ATOM     20  C   UNL A   1      34.970  18.365  24.598  1.00  0.00     0.095 A 
ATOM     21  C   UNL A   1      32.665  18.973  25.117  1.00  0.00     0.161 A 
ATOM     22  N   UNL A   1      34.002  19.290  24.943  1.00  0.00    -0.286 N 
ATOM     23  N   UNL A   1      31.982  20.062  25.382  1.00  0.00    -0.130 NA
ATOM     24  N   UNL A   1      32.869  21.111  25.392  1.00  0.00    -0.134 NA
ENDBRANCH  10  15
ENDBRANCH   7   9
ENDBRANCH   6   7
ENDBRANCH   5   6
ENDBRANCH   4   5
ENDBRANCH   3   4
ENDBRANCH   2   3
ENDBRANCH   1   2
BRANCH   1  25
ATOM     25  O   UNL A   1      31.800  28.818  25.562  1.00  0.00    -0.376 OA
BRANCH  25  26
ATOM     26  C   UNL A   1      32.274  29.938  26.319  1.00  0.00     0.202 C 
BRANCH  26  27
ATOM     27  C   UNL A   1      33.785  29.936  26.644  1.00  0.00     0.261 C 
BRANCH  27  28
ATOM     28  O   UNL A   1      34.072  30.669  27.855  1.00  0.00    -0.460 OA
BRANCH  28  29
ATOM     29  C   UNL A   1      35.072  31.585  27.767  1.00  0.00     0.338 C 
ATOM     30  O   UNL A   1      34.920  32.747  27.408  1.00  0.00    -0.246 OA
BRANCH  29  31
ATOM     31  C   UNL A   1      36.328  31.088  28.425  1.00  0.00     0.060 A 
ATOM     32  C   UNL A   1      37.153  31.835  29.289  1.00  0.00     0.016 A 
ATOM     33  C   UNL A   1      36.801  29.859  27.980  1.00  0.00     0.016 A 
ATOM     34  C   UNL A   1      38.496  31.440  29.549  1.00  0.00     0.010 A 
ATOM     35  C   UNL A   1      38.094  29.446  28.312  1.00  0.00     0.010 A 
ATOM     36  C   UNL A   1      39.019  30.263  29.001  1.00  0.00    -0.014 A 
BRANCH  36  37
ATOM     37  C   UNL A   1      40.332  29.629  29.395  1.00  0.00     0.031 A 
ATOM     38  C   UNL A   1      40.403  29.619  30.852  1.00  0.00     0.074 A 
ATOM     39  C   UNL A   1      41.431  29.088  28.773  1.00  0.00     0.049 A 
ATOM     40  N   UNL A   1      41.011  30.558  31.499  1.00  0.00    -0.248 NA
ATOM     41  C   UNL A   1      39.625  28.696  31.677  1.00  0.00     0.031 C 
ATOM     42  C   UNL A   1      41.867  29.205  27.397  1.00  0.00     0.029 A 
ATOM     43  N   UNL A   1      42.386  28.176  29.229  1.00  0.00    -0.354 N 
ATOM     44  C   UNL A   1      41.046  30.079  32.780  1.00  0.00     0.074 A 
ATOM     45  C   UNL A   1      39.947  29.146  32.894  1.00  0.00     0.031 C 
ATOM     46  C   UNL A   1      42.649  28.184  27.005  1.00  0.00     0.029 A 
ATOM     47  C   UNL A   1      43.029  27.449  28.199  1.00  0.00     0.049 A 
ATOM     48  H   UNL A   1      42.595  28.050  30.183  1.00  0.00     0.167 HD
ATOM     49  C   UNL A   1      42.230  30.124  33.443  1.00  0.00     0.037 A 
ATOM     50  C   UNL A   1      44.226  26.805  28.133  1.00  0.00     0.037 A 
ATOM     51  C   UNL A   1      43.204  30.980  32.794  1.00  0.00     0.049 A 
ATOM     52  C   UNL A   1      45.199  27.628  28.876  1.00  0.00     0.074 A 
ATOM     53  C   UNL A   1      43.341  32.337  32.576  1.00  0.00     0.029 A 
ATOM     54  N   UNL A   1      44.053  30.354  31.915  1.00  0.00    -0.354 N 
ATOM     55  N   UNL A   1      45.567  28.833  28.525  1.00  0.00    -0.248 NA
ATOM     56  C   UNL A   1      45.513  27.242  30.244  1.00  0.00     0.031 C 
ATOM     57  C   UNL A   1      44.260  32.502  31.496  1.00  0.00     0.029 A 
ATOM     58  C   UNL A   1      44.685  31.249  31.077  1.00  0.00     0.049 A 
ATOM     59  H   UNL A   1      44.195  29.381  31.888  1.00  0.00     0.167 HD
ATOM     60  C   UNL A   1      45.735  29.485  29.731  1.00  0.00     0.074 A 
ATOM     61  C   UNL A   1      45.841  28.436  30.736  1.00  0.00     0.031 C 
ATOM     62  C   UNL A   1      45.386  30.792  29.889  1.00  0.00     0.037 A 
BRANCH  49  63
ATOM     63  C   UNL A   1      42.626  29.057  34.411  1.00  0.00     0.058 A 
ATOM     64  C   UNL A   1      42.936  27.779  33.931  1.00  0.00     0.135 A 
ATOM     65  C   UNL A   1      42.523  29.197  35.815  1.00  0.00     0.135 A 
ATOM     66  F   UNL A   1      42.991  27.546  32.610  1.00  0.00    -0.206 F 
ATOM     67  C   UNL A   1      43.152  26.708  34.792  1.00  0.00     0.059 A 
ATOM     68  C   UNL A   1      42.803  28.164  36.693  1.00  0.00     0.059 A 
ATOM     69  F   UNL A   1      42.060  30.317  36.385  1.00  0.00    -0.206 F 
ATOM     70  C   UNL A   1      43.093  26.914  36.171  1.00  0.00     0.060 A 
BRANCH  70  71
ATOM     71  S   UNL A   1      43.356  25.525  37.280  1.00  0.00     0.124 S 
ATOM     72  O   UNL A   1      44.473  24.847  36.631  1.00  0.00    -0.237 OA
ATOM     73  O   UNL A   1      43.658  26.198  38.538  1.00  0.00    -0.237 OA
ATOM     74  O   UNL A   1      42.078  24.821  37.243  1.00  0.00    -0.744 OA
ENDBRANCH  70  71
ENDBRANCH  49  63
BRANCH  50  75
ATOM     75  C   UNL A   1      44.562  25.580  27.348  1.00  0.00     0.058 A 
ATOM     76  C   UNL A   1      44.675  24.311  27.945  1.00  0.00     0.135 A 
ATOM     77  C   UNL A   1      44.542  25.595  25.937  1.00  0.00     0.135 A 
ATOM     78  F   UNL A   1      44.747  24.195  29.279  1.00  0.00    -0.206 F 
ATOM     79  C   UNL A   1      44.651  23.126  27.198  1.00  0.00     0.059 A 
ATOM     80  C   UNL A   1      44.514  24.425  25.170  1.00  0.00     0.059 A 
ATOM     81  F   UNL A   1      44.472  26.758  25.269  1.00  0.00    -0.206 F 
ATOM     82  C   UNL A   1      44.519  23.191  25.812  1.00  0.00     0.060 A 
BRANCH  82  83
ATOM     83  S   UNL A   1      44.175  21.671  24.884  1.00  0.00     0.124 S 
ATOM     84  O   UNL A   1      45.079  20.715  25.513  1.00  0.00    -0.237 OA
ATOM     85  O   UNL A   1      42.753  21.468  25.148  1.00  0.00    -0.237 OA
ATOM     86  O   UNL A   1      44.502  22.032  23.508  1.00  0.00    -0.744 OA
ENDBRANCH  82  83
ENDBRANCH  50  75
BRANCH  62  87
ATOM     87  C   UNL A   1      45.594  31.738  28.738  1.00  0.00     0.058 A 
ATOM     88  C   UNL A   1      44.572  32.237  27.925  1.00  0.00     0.135 A 
ATOM     89  C   UNL A   1      46.882  32.233  28.493  1.00  0.00     0.135 A 
ATOM     90  F   UNL A   1      43.310  31.872  28.136  1.00  0.00    -0.206 F 
ATOM     91  C   UNL A   1      44.800  33.168  26.909  1.00  0.00     0.059 A 
ATOM     92  C   UNL A   1      47.141  33.179  27.497  1.00  0.00     0.059 A 
ATOM     93  F   UNL A   1      47.910  31.827  29.255  1.00  0.00    -0.206 F 
ATOM     94  C   UNL A   1      46.092  33.639  26.703  1.00  0.00     0.060 A 
BRANCH  94  95
ATOM     95  S   UNL A   1      46.368  34.909  25.449  1.00  0.00     0.124 S 
ATOM     96  O   UNL A   1      45.412  34.535  24.414  1.00  0.00    -0.237 OA
ATOM     97  O   UNL A   1      46.069  36.140  26.175  1.00  0.00    -0.237 OA
ATOM     98  O   UNL A   1      47.775  34.735  25.094  1.00  0.00    -0.744 OA
ENDBRANCH  94  95
ENDBRANCH  62  87
ENDBRANCH  36  37
ENDBRANCH  29  31
ENDBRANCH  28  29
ENDBRANCH  27  28
ENDBRANCH  26  27
ENDBRANCH  25  26
ENDBRANCH   1  25
TORSDOF 21
ENDMDL
MODEL 3
REMARK VINA RESULT:     -10.7      1.270      2.979
REMARK SMILES Cc1ccn2c([C@@H]3CCCC[C@@H]3C(=O)OCCOCCOCCOC(=O)c3ccc(-c4c5nc(c(-c6c(F)cc(S(=O)(=O)[O-])cc6F)c6ccc([nH]6)c(-c6c(F)cc(S(=O)(=O)[O-])cc6F)c6nc(c(-c7c(F)cc(S(=O)(=O)[O-])cc7F)c7ccc4[nH]7)C=C6)C=C5)cc3)nnc2c1
REMARK SMILES IDX 20 1 19 2 18 3 17 4 16 5 15 6 13 7 14 8 12 9 7 10 8 11 9 12
REMARK SMILES IDX 11 13 10 14 6 15 1 16 2 17 3 18 96 19 4 20 95 21 5 22 94 23
REMARK SMILES IDX 93 24 21 25 22 26 23 27 24 28 25 29 26 30 27 31 28 32 92 33
REMARK SMILES IDX 29 34 91 35 30 36 31 37 32 38 85 39 33 40 90 41 84 42 86 43
REMARK SMILES IDX 34 44 89 45 83 46 82 47 35 49 69 50 48 51 68 52 49 53 52 54
REMARK SMILES IDX 67 55 87 56 50 57 51 58 66 60 88 61 53 62 36 63 37 64 46 65
REMARK SMILES IDX 38 66 39 67 45 68 47 69 40 70 41 71 42 72 43 73 44 74 70 75
REMARK SMILES IDX 71 76 80 77 72 78 73 79 79 80 81 81 74 82 75 83 76 84 77 85
REMARK SMILES IDX 78 86 54 87 55 88 64 89 56 90 57 91 63 92 65 93 58 94 59 95
REMARK SMILES IDX 60 96 61 97 62 98
REMARK H PARENT 86 48 52 59
REMARK Flexibility Score: inf
ROOT
ATOM      1  C   UNL A   1      33.997  32.122  27.685  1.00  0.00     0.188 C 
ENDROOT
BRANCH   1   2
ATOM      2  C   UNL A   1      33.289  30.802  27.422  1.00  0.00     0.188 C 
BRANCH   2   3
ATOM      3  O   UNL A   1      32.623  30.737  26.180  1.00  0.00    -0.376 OA
BRANCH   3   4
ATOM      4  C   UNL A   1      31.780  29.610  25.991  1.00  0.00     0.202 C 
BRANCH   4   5
ATOM      5  C   UNL A   1      31.592  28.617  27.157  1.00  0.00     0.261 C 
BRANCH   5   6
ATOM      6  O   UNL A   1      31.975  27.200  26.977  1.00  0.00    -0.463 OA
BRANCH   6   7
ATOM      7  C   UNL A   1      33.017  27.054  26.124  1.00  0.00     0.309 C 
ATOM      8  O   UNL A   1      34.165  27.266  26.538  1.00  0.00    -0.252 OA
BRANCH   7   9
ATOM      9  C   UNL A   1      32.864  26.647  24.616  1.00  0.00     0.110 C 
ATOM     10  C   UNL A   1      31.918  25.857  23.589  1.00  0.00     0.072 C 
ATOM     11  C   UNL A   1      31.935  24.284  23.462  1.00  0.00     0.012 C 
ATOM     12  C   UNL A   1      33.319  23.768  23.654  1.00  0.00     0.001 C 
ATOM     13  C   UNL A   1      34.160  25.819  24.511  1.00  0.00     0.016 C 
ATOM     14  C   UNL A   1      33.701  24.432  24.952  1.00  0.00     0.001 C 
BRANCH  10  15
ATOM     15  C   UNL A   1      30.511  26.227  23.317  1.00  0.00     0.141 A 
ATOM     16  C   UNL A   1      28.157  30.975  21.718  1.00  0.00     0.044 C 
ATOM     17  C   UNL A   1      28.833  29.792  22.325  1.00  0.00    -0.046 A 
ATOM     18  C   UNL A   1      30.244  29.634  21.998  1.00  0.00     0.022 A 
ATOM     19  C   UNL A   1      28.182  28.860  23.055  1.00  0.00     0.053 A 
ATOM     20  C   UNL A   1      30.860  28.484  22.293  1.00  0.00     0.095 A 
ATOM     21  C   UNL A   1      28.837  27.639  23.364  1.00  0.00     0.161 A 
ATOM     22  N   UNL A   1      30.139  27.483  22.918  1.00  0.00    -0.286 N 
ATOM     23  N   UNL A   1      28.440  26.542  23.965  1.00  0.00    -0.130 NA
ATOM     24  N   UNL A   1      29.480  25.646  23.912  1.00  0.00    -0.134 NA
ENDBRANCH  10  15
ENDBRANCH   7   9
ENDBRANCH   6   7
ENDBRANCH   5   6
ENDBRANCH   4   5
ENDBRANCH   3   4
ENDBRANCH   2   3
ENDBRANCH   1   2
BRANCH   1  25
ATOM     25  O   UNL A   1      33.237  33.312  27.882  1.00  0.00    -0.376 OA
BRANCH  25  26
ATOM     26  C   UNL A   1      33.869  34.233  28.782  1.00  0.00     0.202 C 
BRANCH  26  27
ATOM     27  C   UNL A   1      35.368  33.976  29.056  1.00  0.00     0.261 C 
BRANCH  27  28
ATOM     28  O   UNL A   1      35.639  33.860  30.471  1.00  0.00    -0.460 OA
BRANCH  28  29
ATOM     29  C   UNL A   1      35.498  32.616  30.998  1.00  0.00     0.338 C 
ATOM     30  O   UNL A   1      34.459  32.178  31.478  1.00  0.00    -0.246 OA
BRANCH  29  31
ATOM     31  C   UNL A   1      36.681  31.747  30.673  1.00  0.00     0.060 A 
ATOM     32  C   UNL A   1      36.619  30.422  30.197  1.00  0.00     0.016 A 
ATOM     33  C   UNL A   1      37.921  32.238  31.063  1.00  0.00     0.016 A 
ATOM     34  C   UNL A   1      37.744  29.555  30.287  1.00  0.00     0.010 A 
ATOM     35  C   UNL A   1      39.036  31.396  31.069  1.00  0.00     0.010 A 
ATOM     36  C   UNL A   1      38.966  30.011  30.796  1.00  0.00    -0.014 A 
BRANCH  36  37
ATOM     37  C   UNL A   1      40.274  29.261  30.719  1.00  0.00     0.031 A 
ATOM     38  C   UNL A   1      40.777  29.099  32.080  1.00  0.00     0.074 A 
ATOM     39  C   UNL A   1      41.086  28.720  29.751  1.00  0.00     0.049 A 
ATOM     40  N   UNL A   1      41.631  29.930  32.581  1.00  0.00    -0.248 NA
ATOM     41  C   UNL A   1      40.202  28.147  33.028  1.00  0.00     0.031 C 
ATOM     42  C   UNL A   1      41.099  28.949  28.321  1.00  0.00     0.029 A 
ATOM     43  N   UNL A   1      42.048  27.710  29.821  1.00  0.00    -0.354 N 
ATOM     44  C   UNL A   1      42.005  29.322  33.749  1.00  0.00     0.074 A 
ATOM     45  C   UNL A   1      40.912  28.452  34.120  1.00  0.00     0.031 C 
ATOM     46  C   UNL A   1      41.635  27.927  27.631  1.00  0.00     0.029 A 
ATOM     47  C   UNL A   1      42.288  27.053  28.591  1.00  0.00     0.049 A 
ATOM     48  H   UNL A   1      42.520  27.476  30.653  1.00  0.00     0.167 HD
ATOM     49  C   UNL A   1      43.331  29.228  34.019  1.00  0.00     0.037 A 
ATOM     50  C   UNL A   1      43.347  26.347  28.112  1.00  0.00     0.037 A 
ATOM     51  C   UNL A   1      44.139  30.084  33.173  1.00  0.00     0.049 A 
ATOM     52  C   UNL A   1      44.567  27.030  28.584  1.00  0.00     0.074 A 
ATOM     53  C   UNL A   1      44.325  31.444  33.030  1.00  0.00     0.029 A 
ATOM     54  N   UNL A   1      44.628  29.499  32.031  1.00  0.00    -0.354 N 
ATOM     55  N   UNL A   1      44.919  28.240  28.232  1.00  0.00    -0.248 NA
ATOM     56  C   UNL A   1      45.239  26.489  29.756  1.00  0.00     0.031 C 
ATOM     57  C   UNL A   1      44.890  31.662  31.737  1.00  0.00     0.029 A 
ATOM     58  C   UNL A   1      45.058  30.434  31.112  1.00  0.00     0.049 A 
ATOM     59  H   UNL A   1      44.668  28.527  31.885  1.00  0.00     0.167 HD
ATOM     60  C   UNL A   1      45.496  28.755  29.376  1.00  0.00     0.074 A 
ATOM     61  C   UNL A   1      45.805  27.605  30.216  1.00  0.00     0.031 C 
ATOM     62  C   UNL A   1      45.329  30.058  29.735  1.00  0.00     0.037 A 
BRANCH  49  63
ATOM     63  C   UNL A   1      43.902  28.046  34.734  1.00  0.00     0.058 A 
ATOM     64  C   UNL A   1      44.525  28.233  35.974  1.00  0.00     0.135 A 
ATOM     65  C   UNL A   1      44.031  26.765  34.150  1.00  0.00     0.135 A 
ATOM     66  F   UNL A   1      44.504  29.436  36.569  1.00  0.00    -0.206 F 
ATOM     67  C   UNL A   1      45.215  27.204  36.607  1.00  0.00     0.059 A 
ATOM     68  C   UNL A   1      44.652  25.707  34.792  1.00  0.00     0.059 A 
ATOM     69  F   UNL A   1      43.638  26.514  32.893  1.00  0.00    -0.206 F 
ATOM     70  C   UNL A   1      45.263  25.943  36.012  1.00  0.00     0.060 A 
BRANCH  70  71
ATOM     71  S   UNL A   1      46.170  24.621  36.824  1.00  0.00     0.124 S 
ATOM     72  O   UNL A   1      45.117  23.630  37.020  1.00  0.00    -0.237 OA
ATOM     73  O   UNL A   1      47.182  24.294  35.826  1.00  0.00    -0.237 OA
ATOM     74  O   UNL A   1      46.676  25.258  38.036  1.00  0.00    -0.744 OA
ENDBRANCH  70  71
ENDBRANCH  49  63
BRANCH  50  75
ATOM     75  C   UNL A   1      43.323  25.190  27.169  1.00  0.00     0.058 A 
ATOM     76  C   UNL A   1      43.847  25.270  25.865  1.00  0.00     0.135 A 
ATOM     77  C   UNL A   1      42.997  23.893  27.620  1.00  0.00     0.135 A 
ATOM     78  F   UNL A   1      44.148  26.462  25.329  1.00  0.00    -0.206 F 
ATOM     79  C   UNL A   1      44.140  24.131  25.103  1.00  0.00     0.059 A 
ATOM     80  C   UNL A   1      43.281  22.742  26.878  1.00  0.00     0.059 A 
ATOM     81  F   UNL A   1      42.457  23.711  28.836  1.00  0.00    -0.206 F 
ATOM     82  C   UNL A   1      43.900  22.867  25.639  1.00  0.00     0.060 A 
BRANCH  82  83
ATOM     83  S   UNL A   1      44.561  21.408  24.790  1.00  0.00     0.124 S 
ATOM     84  O   UNL A   1      45.879  21.267  25.397  1.00  0.00    -0.237 OA
ATOM     85  O   UNL A   1      43.586  20.380  25.146  1.00  0.00    -0.237 OA
ATOM     86  O   UNL A   1      44.556  21.801  23.384  1.00  0.00    -0.744 OA
ENDBRANCH  82  83
ENDBRANCH  50  75
BRANCH  62  87
ATOM     87  C   UNL A   1      45.267  31.101  28.653  1.00  0.00     0.058 A 
ATOM     88  C   UNL A   1      46.349  31.480  27.851  1.00  0.00     0.135 A 
ATOM     89  C   UNL A   1      44.032  31.691  28.351  1.00  0.00     0.135 A 
ATOM     90  F   UNL A   1      47.541  30.917  28.026  1.00  0.00    -0.206 F 
ATOM     91  C   UNL A   1      46.232  32.404  26.811  1.00  0.00     0.059 A 
ATOM     92  C   UNL A   1      43.877  32.604  27.304  1.00  0.00     0.059 A 
ATOM     93  F   UNL A   1      42.940  31.351  29.053  1.00  0.00    -0.206 F 
ATOM     94  C   UNL A   1      44.987  32.961  26.540  1.00  0.00     0.060 A 
BRANCH  94  95
ATOM     95  S   UNL A   1      44.821  34.086  25.137  1.00  0.00     0.124 S 
ATOM     96  O   UNL A   1      46.171  34.622  25.008  1.00  0.00    -0.237 OA
ATOM     97  O   UNL A   1      44.387  33.194  24.066  1.00  0.00    -0.237 OA
ATOM     98  O   UNL A   1      43.810  35.041  25.585  1.00  0.00    -0.744 OA
ENDBRANCH  94  95
ENDBRANCH  62  87
ENDBRANCH  36  37
ENDBRANCH  29  31
ENDBRANCH  28  29
ENDBRANCH  27  28
ENDBRANCH  26  27
ENDBRANCH  25  26
ENDBRANCH   1  25
TORSDOF 21
ENDMDL
