MODEL 1
REMARK VINA RESULT:     -10.4      0.000      0.000
REMARK SMILES O=C(OCCOCCOCCOC(=O)[C@@H]1CN(C(=O)[C@H]2CC=CCC2)c2ccccc2O1)c1ccc(-c2c3nc(c(-c4c(F)cc(S(=O)(=O)[O-])cc4F)c4ccc([nH]4)c(-c4c(F)cc(S(=O)(=O)[O-])cc4F)c4nc(c(-c5c(F)cc(S(=O)(=O)[O-])cc5F)c5ccc2[nH]5)C=C4)C=C3)cc1
REMARK SMILES IDX 7 1 6 2 5 3 4 4 3 5 2 6 1 7 33 8 34 9 98 10 35 11 97 12
REMARK SMILES IDX 36 13 37 14 38 15 91 16 39 17 96 18 90 19 92 20 40 21 95 22
REMARK SMILES IDX 89 23 88 24 41 26 75 27 54 28 74 29 55 30 58 31 73 32 93 33
REMARK SMILES IDX 56 34 57 35 72 37 94 38 59 39 42 40 43 41 52 42 44 43 45 44
REMARK SMILES IDX 51 45 53 46 46 47 47 48 48 49 49 50 50 51 76 52 77 53 86 54
REMARK SMILES IDX 78 55 79 56 85 57 87 58 80 59 81 60 82 61 83 62 84 63 60 64
REMARK SMILES IDX 61 65 70 66 62 67 63 68 69 69 71 70 64 71 65 72 66 73 67 74
REMARK SMILES IDX 68 75 8 76 9 77 10 78 11 79 12 80 13 81 14 82 15 83 16 84
REMARK SMILES IDX 32 85 17 86 31 87 26 88 30 89 27 90 29 91 28 92 18 93 19 94
REMARK SMILES IDX 20 95 21 96 25 97 22 98 24 99 23 100
REMARK H PARENT 92 25 58 36
REMARK Flexibility Score: inf
ROOT
ATOM      1  C   UNL A   1      42.965  21.851  26.509  1.00  0.00     0.188 C 
ENDROOT
BRANCH   1   2
ATOM      2  O   UNL A   1      42.881  22.037  25.092  1.00  0.00    -0.376 OA
BRANCH   2   3
ATOM      3  C   UNL A   1      43.758  23.033  24.566  1.00  0.00     0.202 C 
BRANCH   3   4
ATOM      4  C   UNL A   1      43.397  24.484  24.887  1.00  0.00     0.261 C 
BRANCH   4   5
ATOM      5  O   UNL A   1      44.516  25.376  24.879  1.00  0.00    -0.460 OA
BRANCH   5   6
ATOM      6  C   UNL A   1      45.094  25.946  25.967  1.00  0.00     0.338 C 
ATOM      7  O   UNL A   1      46.314  25.922  26.077  1.00  0.00    -0.246 OA
BRANCH   6   8
ATOM      8  C   UNL A   1      44.300  26.746  26.932  1.00  0.00     0.060 A 
ATOM      9  C   UNL A   1      43.829  28.484  26.944  1.00  0.00     0.016 A 
ATOM     10  C   UNL A   1      43.824  25.826  28.285  1.00  0.00     0.016 A 
ATOM     11  C   UNL A   1      42.883  29.032  28.589  1.00  0.00     0.010 A 
ATOM     12  C   UNL A   1      42.977  26.442  29.648  1.00  0.00     0.010 A 
ATOM     13  C   UNL A   1      42.510  28.047  29.875  1.00  0.00    -0.014 A 
BRANCH  13  14
ATOM     14  C   UNL A   1      42.062  28.827  31.155  1.00  0.00     0.031 A 
ATOM     15  C   UNL A   1      40.886  29.732  31.061  1.00  0.00     0.074 A 
ATOM     16  C   UNL A   1      42.519  28.677  32.448  1.00  0.00     0.049 A 
ATOM     17  N   UNL A   1      40.566  30.761  31.788  1.00  0.00    -0.248 NA
ATOM     18  C   UNL A   1      39.908  29.408  30.021  1.00  0.00     0.031 C 
ATOM     19  C   UNL A   1      43.134  27.500  33.064  1.00  0.00     0.029 A 
ATOM     20  N   UNL A   1      42.613  29.549  33.520  1.00  0.00    -0.354 N 
ATOM     21  C   UNL A   1      39.407  31.249  31.212  1.00  0.00     0.074 A 
ATOM     22  C   UNL A   1      39.182  30.509  29.992  1.00  0.00     0.031 C 
ATOM     23  C   UNL A   1      43.902  27.806  34.110  1.00  0.00     0.029 A 
ATOM     24  C   UNL A   1      43.529  29.140  34.495  1.00  0.00     0.049 A 
ATOM     25  H   UNL A   1      42.085  30.377  33.588  1.00  0.00     0.167 HD
ATOM     26  C   UNL A   1      38.531  32.136  31.729  1.00  0.00     0.037 A 
ATOM     27  C   UNL A   1      43.932  29.651  35.675  1.00  0.00     0.037 A 
ATOM     28  C   UNL A   1      38.663  32.669  33.055  1.00  0.00     0.049 A 
ATOM     29  C   UNL A   1      43.034  30.717  36.192  1.00  0.00     0.074 A 
ATOM     30  C   UNL A   1      37.858  33.587  33.697  1.00  0.00     0.029 A 
ATOM     31  N   UNL A   1      39.644  32.282  33.966  1.00  0.00    -0.354 N 
ATOM     32  N   UNL A   1      42.023  31.268  35.565  1.00  0.00    -0.248 NA
ATOM     33  C   UNL A   1      43.214  31.142  37.578  1.00  0.00     0.031 C 
ATOM     34  C   UNL A   1      38.392  33.810  34.969  1.00  0.00     0.029 A 
ATOM     35  C   UNL A   1      39.492  32.981  35.150  1.00  0.00     0.049 A 
ATOM     36  H   UNL A   1      40.343  31.611  33.794  1.00  0.00     0.167 HD
ATOM     37  C   UNL A   1      41.402  32.068  36.493  1.00  0.00     0.074 A 
ATOM     38  C   UNL A   1      42.155  31.927  37.731  1.00  0.00     0.031 C 
ATOM     39  C   UNL A   1      40.300  32.838  36.337  1.00  0.00     0.037 A 
BRANCH  26  40
ATOM     40  C   UNL A   1      37.421  32.579  30.821  1.00  0.00     0.058 A 
ATOM     41  C   UNL A   1      37.570  33.592  29.855  1.00  0.00     0.135 A 
ATOM     42  C   UNL A   1      36.135  32.059  31.028  1.00  0.00     0.135 A 
ATOM     43  F   UNL A   1      38.770  34.163  29.650  1.00  0.00    -0.206 F 
ATOM     44  C   UNL A   1      36.474  34.120  29.182  1.00  0.00     0.059 A 
ATOM     45  C   UNL A   1      35.032  32.541  30.335  1.00  0.00     0.059 A 
ATOM     46  F   UNL A   1      35.934  31.102  31.947  1.00  0.00    -0.206 F 
ATOM     47  C   UNL A   1      35.207  33.590  29.434  1.00  0.00     0.060 A 
BRANCH  47  48
ATOM     48  S   UNL A   1      33.787  34.298  28.576  1.00  0.00     0.124 S 
ATOM     49  O   UNL A   1      34.385  35.463  27.933  1.00  0.00    -0.237 OA
ATOM     50  O   UNL A   1      33.395  33.213  27.683  1.00  0.00    -0.237 OA
ATOM     51  O   UNL A   1      32.850  34.588  29.656  1.00  0.00    -0.744 OA
ENDBRANCH  47  48
ENDBRANCH  26  40
BRANCH  27  52
ATOM     52  C   UNL A   1      45.016  29.014  36.498  1.00  0.00     0.058 A 
ATOM     53  C   UNL A   1      44.793  27.897  37.321  1.00  0.00     0.135 A 
ATOM     54  C   UNL A   1      46.336  29.493  36.432  1.00  0.00     0.135 A 
ATOM     55  F   UNL A   1      43.566  27.361  37.404  1.00  0.00    -0.206 F 
ATOM     56  C   UNL A   1      45.816  27.309  38.072  1.00  0.00     0.059 A 
ATOM     57  C   UNL A   1      47.380  28.915  37.161  1.00  0.00     0.059 A 
ATOM     58  F   UNL A   1      46.633  30.531  35.633  1.00  0.00    -0.206 F 
ATOM     59  C   UNL A   1      47.107  27.831  37.993  1.00  0.00     0.060 A 
BRANCH  59  60
ATOM     60  S   UNL A   1      48.424  27.061  38.970  1.00  0.00     0.124 S 
ATOM     61  O   UNL A   1      48.514  25.740  38.360  1.00  0.00    -0.237 OA
ATOM     62  O   UNL A   1      49.550  27.957  38.724  1.00  0.00    -0.237 OA
ATOM     63  O   UNL A   1      47.897  27.089  40.331  1.00  0.00    -0.744 OA
ENDBRANCH  59  60
ENDBRANCH  27  52
BRANCH  39  64
ATOM     64  C   UNL A   1      39.896  33.610  37.543  1.00  0.00     0.058 A 
ATOM     65  C   UNL A   1      40.478  34.854  37.825  1.00  0.00     0.135 A 
ATOM     66  C   UNL A   1      38.917  33.106  38.408  1.00  0.00     0.135 A 
ATOM     67  F   UNL A   1      41.436  35.353  37.027  1.00  0.00    -0.206 F 
ATOM     68  C   UNL A   1      40.121  35.566  38.955  1.00  0.00     0.059 A 
ATOM     69  C   UNL A   1      38.515  33.822  39.523  1.00  0.00     0.059 A 
ATOM     70  F   UNL A   1      38.342  31.917  38.167  1.00  0.00    -0.206 F 
ATOM     71  C   UNL A   1      39.133  35.044  39.793  1.00  0.00     0.060 A 
BRANCH  71  72
ATOM     72  S   UNL A   1      38.649  36.004  41.235  1.00  0.00     0.124 S 
ATOM     73  O   UNL A   1      38.491  37.335  40.657  1.00  0.00    -0.237 OA
ATOM     74  O   UNL A   1      37.417  35.337  41.648  1.00  0.00    -0.237 OA
ATOM     75  O   UNL A   1      39.779  35.842  42.143  1.00  0.00    -0.744 OA
ENDBRANCH  71  72
ENDBRANCH  39  64
ENDBRANCH  13  14
ENDBRANCH   6   8
ENDBRANCH   5   6
ENDBRANCH   4   5
ENDBRANCH   3   4
ENDBRANCH   2   3
ENDBRANCH   1   2
BRANCH   1  76
ATOM     76  C   UNL A   1      41.859  22.539  27.300  1.00  0.00     0.188 C 
BRANCH  76  77
ATOM     77  O   UNL A   1      40.964  23.377  26.582  1.00  0.00    -0.376 OA
BRANCH  77  78
ATOM     78  C   UNL A   1      40.185  24.293  27.338  1.00  0.00     0.202 C 
BRANCH  78  79
ATOM     79  C   UNL A   1      38.648  24.218  27.241  1.00  0.00     0.261 C 
BRANCH  79  80
ATOM     80  O   UNL A   1      38.090  24.051  25.920  1.00  0.00    -0.460 OA
BRANCH  80  81
ATOM     81  C   UNL A   1      37.714  22.782  25.590  1.00  0.00     0.349 C 
ATOM     82  O   UNL A   1      38.242  21.779  26.064  1.00  0.00    -0.248 OA
BRANCH  81  83
ATOM     83  C   UNL A   1      36.620  22.702  24.500  1.00  0.00     0.302 C 
ATOM     84  C   UNL A   1      35.604  23.803  24.295  1.00  0.00     0.183 C 
ATOM     85  O   UNL A   1      36.023  21.452  24.321  1.00  0.00    -0.475 OA
ATOM     86  N   UNL A   1      34.253  23.850  24.855  1.00  0.00    -0.304 N 
ATOM     87  C   UNL A   1      34.700  21.390  24.678  1.00  0.00     0.144 A 
ATOM     88  C   UNL A   1      33.822  22.469  25.022  1.00  0.00     0.086 A 
ATOM     89  C   UNL A   1      34.265  20.068  24.605  1.00  0.00     0.049 A 
ATOM     90  C   UNL A   1      32.543  22.111  25.434  1.00  0.00     0.030 A 
ATOM     91  C   UNL A   1      32.965  19.757  24.941  1.00  0.00     0.004 A 
ATOM     92  C   UNL A   1      32.120  20.770  25.385  1.00  0.00     0.002 A 
BRANCH  86  93
ATOM     93  C   UNL A   1      33.328  25.039  24.813  1.00  0.00     0.230 C 
ATOM     94  O   UNL A   1      33.220  25.787  25.800  1.00  0.00    -0.274 OA
BRANCH  93  95
ATOM     95  C   UNL A   1      32.190  25.519  23.388  1.00  0.00     0.083 C 
ATOM     96  C   UNL A   1      30.173  26.504  23.503  1.00  0.00     0.040 C 
ATOM     97  C   UNL A   1      33.633  26.704  22.871  1.00  0.00     0.018 C 
ATOM     98  C   UNL A   1      30.380  28.440  23.868  1.00  0.00    -0.030 C 
ATOM     99  C   UNL A   1      33.335  28.524  23.233  1.00  0.00     0.028 C 
ATOM    100  C   UNL A   1      31.685  29.153  23.841  1.00  0.00    -0.031 C 
ENDBRANCH  93  95
ENDBRANCH  86  93
ENDBRANCH  81  83
ENDBRANCH  80  81
ENDBRANCH  79  80
ENDBRANCH  78  79
ENDBRANCH  77  78
ENDBRANCH  76  77
ENDBRANCH   1  76
TORSDOF 22
ENDMDL
MODEL 2
REMARK VINA RESULT:     -10.4      1.122      1.947
REMARK SMILES O=C(OCCOCCOCCOC(=O)[C@@H]1CN(C(=O)[C@H]2CC=CCC2)c2ccccc2O1)c1ccc(-c2c3nc(c(-c4c(F)cc(S(=O)(=O)[O-])cc4F)c4ccc([nH]4)c(-c4c(F)cc(S(=O)(=O)[O-])cc4F)c4nc(c(-c5c(F)cc(S(=O)(=O)[O-])cc5F)c5ccc2[nH]5)C=C4)C=C3)cc1
REMARK SMILES IDX 7 1 6 2 5 3 4 4 3 5 2 6 1 7 33 8 34 9 98 10 35 11 97 12
REMARK SMILES IDX 36 13 37 14 38 15 91 16 39 17 96 18 90 19 92 20 40 21 95 22
REMARK SMILES IDX 89 23 88 24 41 26 75 27 54 28 74 29 55 30 58 31 73 32 93 33
REMARK SMILES IDX 56 34 57 35 72 37 94 38 59 39 42 40 43 41 52 42 44 43 45 44
REMARK SMILES IDX 51 45 53 46 46 47 47 48 48 49 49 50 50 51 76 52 77 53 86 54
REMARK SMILES IDX 78 55 79 56 85 57 87 58 80 59 81 60 82 61 83 62 84 63 60 64
REMARK SMILES IDX 61 65 70 66 62 67 63 68 69 69 71 70 64 71 65 72 66 73 67 74
REMARK SMILES IDX 68 75 8 76 9 77 10 78 11 79 12 80 13 81 14 82 15 83 16 84
REMARK SMILES IDX 32 85 17 86 31 87 26 88 30 89 27 90 29 91 28 92 18 93 19 94
REMARK SMILES IDX 20 95 21 96 25 97 22 98 24 99 23 100
REMARK H PARENT 92 25 58 36
REMARK Flexibility Score: inf
ROOT
ATOM      1  C   UNL A   1      42.610  22.051  27.715  1.00  0.00     0.188 C 
ENDROOT
BRANCH   1   2
ATOM      2  O   UNL A   1      42.622  21.705  26.325  1.00  0.00    -0.376 OA
BRANCH   2   3
ATOM      3  C   UNL A   1      42.477  22.811  25.432  1.00  0.00     0.202 C 
BRANCH   3   4
ATOM      4  C   UNL A   1      43.762  23.561  25.078  1.00  0.00     0.261 C 
BRANCH   4   5
ATOM      5  O   UNL A   1      43.586  24.974  24.927  1.00  0.00    -0.460 OA
BRANCH   5   6
ATOM      6  C   UNL A   1      44.257  25.940  25.604  1.00  0.00     0.338 C 
ATOM      7  O   UNL A   1      45.413  26.198  25.288  1.00  0.00    -0.246 OA
BRANCH   6   8
ATOM      8  C   UNL A   1      43.571  26.807  26.593  1.00  0.00     0.060 A 
ATOM      9  C   UNL A   1      43.379  28.596  26.688  1.00  0.00     0.016 A 
ATOM     10  C   UNL A   1      42.917  25.909  27.884  1.00  0.00     0.016 A 
ATOM     11  C   UNL A   1      42.484  29.205  28.339  1.00  0.00     0.010 A 
ATOM     12  C   UNL A   1      42.138  26.584  29.260  1.00  0.00     0.010 A 
ATOM     13  C   UNL A   1      41.923  28.230  29.563  1.00  0.00    -0.014 A 
BRANCH  13  14
ATOM     14  C   UNL A   1      41.566  29.006  30.873  1.00  0.00     0.031 A 
ATOM     15  C   UNL A   1      40.411  29.942  30.852  1.00  0.00     0.074 A 
ATOM     16  C   UNL A   1      42.089  28.831  32.137  1.00  0.00     0.049 A 
ATOM     17  N   UNL A   1      40.158  30.971  31.605  1.00  0.00    -0.248 NA
ATOM     18  C   UNL A   1      39.369  29.654  29.865  1.00  0.00     0.031 C 
ATOM     19  C   UNL A   1      42.706  27.632  32.707  1.00  0.00     0.029 A 
ATOM     20  N   UNL A   1      42.264  29.688  33.210  1.00  0.00    -0.354 N 
ATOM     21  C   UNL A   1      38.982  31.495  31.098  1.00  0.00     0.074 A 
ATOM     22  C   UNL A   1      38.671  30.775  29.886  1.00  0.00     0.031 C 
ATOM     23  C   UNL A   1      43.538  27.907  33.713  1.00  0.00     0.029 A 
ATOM     24  C   UNL A   1      43.221  29.246  34.130  1.00  0.00     0.049 A 
ATOM     25  H   UNL A   1      41.763  30.529  33.315  1.00  0.00     0.167 HD
ATOM     26  C   UNL A   1      38.159  32.398  31.671  1.00  0.00     0.037 A 
ATOM     27  C   UNL A   1      43.701  29.733  35.291  1.00  0.00     0.037 A 
ATOM     28  C   UNL A   1      38.378  32.913  32.994  1.00  0.00     0.049 A 
ATOM     29  C   UNL A   1      42.860  30.816  35.866  1.00  0.00     0.074 A 
ATOM     30  C   UNL A   1      37.633  33.845  33.687  1.00  0.00     0.029 A 
ATOM     31  N   UNL A   1      39.396  32.491  33.846  1.00  0.00    -0.354 N 
ATOM     32  N   UNL A   1      41.832  31.400  35.302  1.00  0.00    -0.248 NA
ATOM     33  C   UNL A   1      43.127  31.221  37.245  1.00  0.00     0.031 C 
ATOM     34  C   UNL A   1      38.241  34.040  34.930  1.00  0.00     0.029 A 
ATOM     35  C   UNL A   1      39.327  33.181  35.043  1.00  0.00     0.049 A 
ATOM     36  H   UNL A   1      40.067  31.805  33.629  1.00  0.00     0.167 HD
ATOM     37  C   UNL A   1      41.283  32.205  36.270  1.00  0.00     0.074 A 
ATOM     38  C   UNL A   1      42.099  32.031  37.463  1.00  0.00     0.031 C 
ATOM     39  C   UNL A   1      40.195  33.004  36.182  1.00  0.00     0.037 A 
BRANCH  26  40
ATOM     40  C   UNL A   1      37.013  32.879  30.830  1.00  0.00     0.058 A 
ATOM     41  C   UNL A   1      37.161  33.803  29.778  1.00  0.00     0.135 A 
ATOM     42  C   UNL A   1      35.711  32.498  31.186  1.00  0.00     0.135 A 
ATOM     43  F   UNL A   1      38.382  34.242  29.427  1.00  0.00    -0.206 F 
ATOM     44  C   UNL A   1      36.057  34.384  29.163  1.00  0.00     0.059 A 
ATOM     45  C   UNL A   1      34.595  33.033  30.555  1.00  0.00     0.059 A 
ATOM     46  F   UNL A   1      35.513  31.632  32.191  1.00  0.00    -0.206 F 
ATOM     47  C   UNL A   1      34.778  33.995  29.563  1.00  0.00     0.060 A 
BRANCH  47  48
ATOM     48  S   UNL A   1      33.352  34.773  28.777  1.00  0.00     0.124 S 
ATOM     49  O   UNL A   1      32.506  35.063  29.929  1.00  0.00    -0.237 OA
ATOM     50  O   UNL A   1      33.954  35.931  28.125  1.00  0.00    -0.237 OA
ATOM     51  O   UNL A   1      32.856  33.737  27.876  1.00  0.00    -0.744 OA
ENDBRANCH  47  48
ENDBRANCH  26  40
BRANCH  27  52
ATOM     52  C   UNL A   1      44.811  29.060  36.047  1.00  0.00     0.058 A 
ATOM     53  C   UNL A   1      46.148  29.491  35.986  1.00  0.00     0.135 A 
ATOM     54  C   UNL A   1      44.537  27.978  36.903  1.00  0.00     0.135 A 
ATOM     55  F   UNL A   1      46.477  30.542  35.221  1.00  0.00    -0.206 F 
ATOM     56  C   UNL A   1      47.167  28.859  36.706  1.00  0.00     0.059 A 
ATOM     57  C   UNL A   1      45.536  27.337  37.643  1.00  0.00     0.059 A 
ATOM     58  F   UNL A   1      43.277  27.538  37.045  1.00  0.00    -0.206 F 
ATOM     59  C   UNL A   1      46.854  27.776  37.526  1.00  0.00     0.060 A 
BRANCH  59  60
ATOM     60  S   UNL A   1      48.183  26.965  38.453  1.00  0.00     0.124 S 
ATOM     61  O   UNL A   1      47.453  25.931  39.177  1.00  0.00    -0.237 OA
ATOM     62  O   UNL A   1      49.059  26.498  37.383  1.00  0.00    -0.237 OA
ATOM     63  O   UNL A   1      48.728  28.041  39.275  1.00  0.00    -0.744 OA
ENDBRANCH  59  60
ENDBRANCH  27  52
BRANCH  39  64
ATOM     64  C   UNL A   1      39.877  33.773  37.416  1.00  0.00     0.058 A 
ATOM     65  C   UNL A   1      38.931  33.295  38.334  1.00  0.00     0.135 A 
ATOM     66  C   UNL A   1      40.533  34.981  37.683  1.00  0.00     0.135 A 
ATOM     67  F   UNL A   1      38.270  32.150  38.095  1.00  0.00    -0.206 F 
ATOM     68  C   UNL A   1      38.618  34.015  39.472  1.00  0.00     0.059 A 
ATOM     69  C   UNL A   1      40.264  35.697  38.836  1.00  0.00     0.059 A 
ATOM     70  F   UNL A   1      41.442  35.466  36.823  1.00  0.00    -0.206 F 
ATOM     71  C   UNL A   1      39.296  35.211  39.716  1.00  0.00     0.060 A 
BRANCH  71  72
ATOM     72  S   UNL A   1      38.908  36.113  41.224  1.00  0.00     0.124 S 
ATOM     73  O   UNL A   1      37.751  35.373  41.715  1.00  0.00    -0.237 OA
ATOM     74  O   UNL A   1      40.138  35.961  41.997  1.00  0.00    -0.237 OA
ATOM     75  O   UNL A   1      38.636  37.465  40.747  1.00  0.00    -0.744 OA
ENDBRANCH  71  72
ENDBRANCH  39  64
ENDBRANCH  13  14
ENDBRANCH   6   8
ENDBRANCH   5   6
ENDBRANCH   4   5
ENDBRANCH   3   4
ENDBRANCH   2   3
ENDBRANCH   1   2
BRANCH   1  76
ATOM     76  C   UNL A   1      41.331  22.736  28.181  1.00  0.00     0.188 C 
BRANCH  76  77
ATOM     77  O   UNL A   1      40.248  22.796  27.264  1.00  0.00    -0.376 OA
BRANCH  77  78
ATOM     78  C   UNL A   1      39.585  24.045  27.123  1.00  0.00     0.202 C 
BRANCH  78  79
ATOM     79  C   UNL A   1      38.153  24.065  26.552  1.00  0.00     0.261 C 
BRANCH  79  80
ATOM     80  O   UNL A   1      37.703  22.865  25.889  1.00  0.00    -0.460 OA
BRANCH  80  81
ATOM     81  C   UNL A   1      36.352  22.672  25.860  1.00  0.00     0.349 C 
ATOM     82  O   UNL A   1      35.803  21.689  26.349  1.00  0.00    -0.248 OA
BRANCH  81  83
ATOM     83  C   UNL A   1      35.568  23.755  25.082  1.00  0.00     0.302 C 
ATOM     84  C   UNL A   1      34.518  24.620  25.742  1.00  0.00     0.183 C 
ATOM     85  O   UNL A   1      35.172  23.414  23.787  1.00  0.00    -0.475 OA
ATOM     86  N   UNL A   1      33.076  24.377  25.748  1.00  0.00    -0.304 N 
ATOM     87  C   UNL A   1      33.817  23.290  23.614  1.00  0.00     0.144 A 
ATOM     88  C   UNL A   1      32.770  23.647  24.525  1.00  0.00     0.086 A 
ATOM     89  C   UNL A   1      33.559  22.797  22.337  1.00  0.00     0.049 A 
ATOM     90  C   UNL A   1      31.476  23.328  24.127  1.00  0.00     0.030 A 
ATOM     91  C   UNL A   1      32.258  22.570  21.942  1.00  0.00     0.004 A 
ATOM     92  C   UNL A   1      31.226  22.804  22.846  1.00  0.00     0.002 A 
BRANCH  86  93
ATOM     93  C   UNL A   1      32.063  25.128  26.575  1.00  0.00     0.230 C 
ATOM     94  O   UNL A   1      31.263  24.513  27.300  1.00  0.00    -0.274 OA
BRANCH  93  95
ATOM     95  C   UNL A   1      31.798  26.994  26.591  1.00  0.00     0.083 C 
ATOM     96  C   UNL A   1      33.302  28.608  26.158  1.00  0.00     0.040 C 
ATOM     97  C   UNL A   1      30.554  26.650  25.147  1.00  0.00     0.018 C 
ATOM     98  C   UNL A   1      33.595  28.760  24.206  1.00  0.00    -0.030 C 
ATOM     99  C   UNL A   1      31.170  27.126  23.436  1.00  0.00     0.028 C 
ATOM    100  C   UNL A   1      32.768  28.060  23.187  1.00  0.00    -0.031 C 
ENDBRANCH  93  95
ENDBRANCH  86  93
ENDBRANCH  81  83
ENDBRANCH  80  81
ENDBRANCH  79  80
ENDBRANCH  78  79
ENDBRANCH  77  78
ENDBRANCH  76  77
ENDBRANCH   1  76
TORSDOF 22
ENDMDL
MODEL 3
REMARK VINA RESULT:     -10.4      5.766     12.387
REMARK SMILES O=C(OCCOCCOCCOC(=O)[C@@H]1CN(C(=O)[C@H]2CC=CCC2)c2ccccc2O1)c1ccc(-c2c3nc(c(-c4c(F)cc(S(=O)(=O)[O-])cc4F)c4ccc([nH]4)c(-c4c(F)cc(S(=O)(=O)[O-])cc4F)c4nc(c(-c5c(F)cc(S(=O)(=O)[O-])cc5F)c5ccc2[nH]5)C=C4)C=C3)cc1
REMARK SMILES IDX 7 1 6 2 5 3 4 4 3 5 2 6 1 7 33 8 34 9 98 10 35 11 97 12
REMARK SMILES IDX 36 13 37 14 38 15 91 16 39 17 96 18 90 19 92 20 40 21 95 22
REMARK SMILES IDX 89 23 88 24 41 26 75 27 54 28 74 29 55 30 58 31 73 32 93 33
REMARK SMILES IDX 56 34 57 35 72 37 94 38 59 39 42 40 43 41 52 42 44 43 45 44
REMARK SMILES IDX 51 45 53 46 46 47 47 48 48 49 49 50 50 51 76 52 77 53 86 54
REMARK SMILES IDX 78 55 79 56 85 57 87 58 80 59 81 60 82 61 83 62 84 63 60 64
REMARK SMILES IDX 61 65 70 66 62 67 63 68 69 69 71 70 64 71 65 72 66 73 67 74
REMARK SMILES IDX 68 75 8 76 9 77 10 78 11 79 12 80 13 81 14 82 15 83 16 84
REMARK SMILES IDX 32 85 17 86 31 87 26 88 30 89 27 90 29 91 28 92 18 93 19 94
REMARK SMILES IDX 20 95 21 96 25 97 22 98 24 99 23 100
REMARK H PARENT 92 25 58 36
REMARK Flexibility Score: inf
ROOT
ATOM      1  C   UNL A   1      33.367  35.409  30.683  1.00  0.00     0.188 C 
ENDROOT
BRANCH   1   2
ATOM      2  O   UNL A   1      34.523  35.119  31.478  1.00  0.00    -0.376 OA
BRANCH   2   3
ATOM      3  C   UNL A   1      34.905  33.743  31.495  1.00  0.00     0.202 C 
BRANCH   3   4
ATOM      4  C   UNL A   1      35.528  33.236  32.797  1.00  0.00     0.261 C 
BRANCH   4   5
ATOM      5  O   UNL A   1      36.930  32.964  32.702  1.00  0.00    -0.460 OA
BRANCH   5   6
ATOM      6  C   UNL A   1      37.604  31.989  33.364  1.00  0.00     0.338 C 
ATOM      7  O   UNL A   1      37.162  31.576  34.430  1.00  0.00    -0.246 OA
BRANCH   6   8
ATOM      8  C   UNL A   1      38.758  31.293  32.746  1.00  0.00     0.060 A 
ATOM      9  C   UNL A   1      40.345  30.772  33.421  1.00  0.00     0.016 A 
ATOM     10  C   UNL A   1      38.519  31.013  31.082  1.00  0.00     0.016 A 
ATOM     11  C   UNL A   1      41.566  30.016  32.067  1.00  0.00     0.010 A 
ATOM     12  C   UNL A   1      39.679  30.319  30.022  1.00  0.00     0.010 A 
ATOM     13  C   UNL A   1      41.238  29.832  30.448  1.00  0.00    -0.014 A 
BRANCH  13  14
ATOM     14  C   UNL A   1      42.501  29.519  29.580  1.00  0.00     0.031 A 
ATOM     15  C   UNL A   1      42.647  28.156  29.005  1.00  0.00     0.074 A 
ATOM     16  C   UNL A   1      43.461  30.397  29.124  1.00  0.00     0.049 A 
ATOM     17  N   UNL A   1      43.717  27.519  28.631  1.00  0.00    -0.248 NA
ATOM     18  C   UNL A   1      41.403  27.416  28.782  1.00  0.00     0.031 C 
ATOM     19  C   UNL A   1      43.339  31.837  28.891  1.00  0.00     0.029 A 
ATOM     20  N   UNL A   1      44.803  30.248  28.816  1.00  0.00    -0.354 N 
ATOM     21  C   UNL A   1      43.262  26.275  28.231  1.00  0.00     0.074 A 
ATOM     22  C   UNL A   1      41.859  26.196  28.565  1.00  0.00     0.031 C 
ATOM     23  C   UNL A   1      44.511  32.471  28.946  1.00  0.00     0.029 A 
ATOM     24  C   UNL A   1      45.516  31.451  28.819  1.00  0.00     0.049 A 
ATOM     25  H   UNL A   1      45.215  29.377  28.613  1.00  0.00     0.167 HD
ATOM     26  C   UNL A   1      43.922  25.338  27.518  1.00  0.00     0.037 A 
ATOM     27  C   UNL A   1      46.800  31.781  28.577  1.00  0.00     0.037 A 
ATOM     28  C   UNL A   1      45.240  25.553  26.992  1.00  0.00     0.049 A 
ATOM     29  C   UNL A   1      47.566  30.702  27.900  1.00  0.00     0.074 A 
ATOM     30  C   UNL A   1      46.030  24.683  26.269  1.00  0.00     0.029 A 
ATOM     31  N   UNL A   1      45.941  26.754  27.089  1.00  0.00    -0.354 N 
ATOM     32  N   UNL A   1      47.162  29.479  27.660  1.00  0.00    -0.248 NA
ATOM     33  C   UNL A   1      48.873  31.046  27.343  1.00  0.00     0.031 C 
ATOM     34  C   UNL A   1      47.236  25.331  25.990  1.00  0.00     0.029 A 
ATOM     35  C   UNL A   1      47.176  26.630  26.478  1.00  0.00     0.049 A 
ATOM     36  H   UNL A   1      45.608  27.570  27.527  1.00  0.00     0.167 HD
ATOM     37  C   UNL A   1      48.136  28.913  26.874  1.00  0.00     0.074 A 
ATOM     38  C   UNL A   1      49.154  29.934  26.677  1.00  0.00     0.031 C 
ATOM     39  C   UNL A   1      48.174  27.665  26.352  1.00  0.00     0.037 A 
BRANCH  26  40
ATOM     40  C   UNL A   1      43.218  24.025  27.338  1.00  0.00     0.058 A 
ATOM     41  C   UNL A   1      43.367  22.941  28.224  1.00  0.00     0.135 A 
ATOM     42  C   UNL A   1      42.483  23.811  26.163  1.00  0.00     0.135 A 
ATOM     43  F   UNL A   1      44.103  23.073  29.341  1.00  0.00    -0.206 F 
ATOM     44  C   UNL A   1      42.872  21.679  27.915  1.00  0.00     0.059 A 
ATOM     45  C   UNL A   1      41.942  22.569  25.855  1.00  0.00     0.059 A 
ATOM     46  F   UNL A   1      42.323  24.807  25.277  1.00  0.00    -0.206 F 
ATOM     47  C   UNL A   1      42.165  21.503  26.724  1.00  0.00     0.060 A 
BRANCH  47  48
ATOM     48  S   UNL A   1      41.549  19.856  26.318  1.00  0.00     0.124 S 
ATOM     49  O   UNL A   1      41.618  19.190  27.615  1.00  0.00    -0.237 OA
ATOM     50  O   UNL A   1      40.206  20.143  25.824  1.00  0.00    -0.237 OA
ATOM     51  O   UNL A   1      42.495  19.379  25.315  1.00  0.00    -0.744 OA
ENDBRANCH  47  48
ENDBRANCH  26  40
BRANCH  27  52
ATOM     52  C   UNL A   1      47.312  33.185  28.732  1.00  0.00     0.058 A 
ATOM     53  C   UNL A   1      47.979  33.632  29.886  1.00  0.00     0.135 A 
ATOM     54  C   UNL A   1      47.182  34.111  27.682  1.00  0.00     0.135 A 
ATOM     55  F   UNL A   1      48.174  32.792  30.913  1.00  0.00    -0.206 F 
ATOM     56  C   UNL A   1      48.459  34.940  30.009  1.00  0.00     0.059 A 
ATOM     57  C   UNL A   1      47.664  35.421  27.774  1.00  0.00     0.059 A 
ATOM     58  F   UNL A   1      46.593  33.743  26.533  1.00  0.00    -0.206 F 
ATOM     59  C   UNL A   1      48.289  35.832  28.950  1.00  0.00     0.060 A 
BRANCH  59  60
ATOM     60  S   UNL A   1      48.914  37.524  29.122  1.00  0.00     0.124 S 
ATOM     61  O   UNL A   1      47.709  38.311  28.887  1.00  0.00    -0.237 OA
ATOM     62  O   UNL A   1      49.422  37.524  30.490  1.00  0.00    -0.237 OA
ATOM     63  O   UNL A   1      49.935  37.615  28.082  1.00  0.00    -0.744 OA
ENDBRANCH  59  60
ENDBRANCH  27  52
BRANCH  39  64
ATOM     64  C   UNL A   1      49.394  27.353  25.559  1.00  0.00     0.058 A 
ATOM     65  C   UNL A   1      49.387  27.464  24.160  1.00  0.00     0.135 A 
ATOM     66  C   UNL A   1      50.572  26.956  26.203  1.00  0.00     0.135 A 
ATOM     67  F   UNL A   1      48.266  27.821  23.513  1.00  0.00    -0.206 F 
ATOM     68  C   UNL A   1      50.512  27.156  23.418  1.00  0.00     0.059 A 
ATOM     69  C   UNL A   1      51.721  26.682  25.481  1.00  0.00     0.059 A 
ATOM     70  F   UNL A   1      50.611  26.838  27.539  1.00  0.00    -0.206 F 
ATOM     71  C   UNL A   1      51.675  26.773  24.089  1.00  0.00     0.060 A 
BRANCH  71  72
ATOM     72  S   UNL A   1      53.141  26.419  23.109  1.00  0.00     0.124 S 
ATOM     73  O   UNL A   1      53.804  27.719  23.100  1.00  0.00    -0.237 OA
ATOM     74  O   UNL A   1      53.793  25.377  23.898  1.00  0.00    -0.237 OA
ATOM     75  O   UNL A   1      52.595  25.981  21.830  1.00  0.00    -0.744 OA
ENDBRANCH  71  72
ENDBRANCH  39  64
ENDBRANCH  13  14
ENDBRANCH   6   8
ENDBRANCH   5   6
ENDBRANCH   4   5
ENDBRANCH   3   4
ENDBRANCH   2   3
ENDBRANCH   1   2
BRANCH   1  76
ATOM     76  C   UNL A   1      33.519  35.067  29.206  1.00  0.00     0.188 C 
BRANCH  76  77
ATOM     77  O   UNL A   1      32.848  33.911  28.728  1.00  0.00    -0.376 OA
BRANCH  77  78
ATOM     78  C   UNL A   1      33.610  32.985  27.966  1.00  0.00     0.202 C 
BRANCH  78  79
ATOM     79  C   UNL A   1      32.990  31.616  27.624  1.00  0.00     0.261 C 
BRANCH  79  80
ATOM     80  O   UNL A   1      33.816  30.698  26.876  1.00  0.00    -0.460 OA
BRANCH  80  81
ATOM     81  C   UNL A   1      33.479  29.380  26.972  1.00  0.00     0.349 C 
ATOM     82  O   UNL A   1      34.300  28.489  27.171  1.00  0.00    -0.248 OA
BRANCH  81  83
ATOM     83  C   UNL A   1      31.982  29.083  26.725  1.00  0.00     0.302 C 
ATOM     84  C   UNL A   1      31.389  27.706  26.925  1.00  0.00     0.183 C 
ATOM     85  O   UNL A   1      31.410  29.699  25.609  1.00  0.00    -0.475 OA
ATOM     86  N   UNL A   1      31.184  26.693  25.889  1.00  0.00    -0.304 N 
ATOM     87  C   UNL A   1      31.035  28.842  24.607  1.00  0.00     0.144 A 
ATOM     88  C   UNL A   1      30.981  27.410  24.638  1.00  0.00     0.086 A 
ATOM     89  C   UNL A   1      30.631  29.580  23.496  1.00  0.00     0.049 A 
ATOM     90  C   UNL A   1      30.650  26.783  23.441  1.00  0.00     0.030 A 
ATOM     91  C   UNL A   1      30.228  28.927  22.352  1.00  0.00     0.004 A 
ATOM     92  C   UNL A   1      30.270  27.536  22.315  1.00  0.00     0.002 A 
BRANCH  86  93
ATOM     93  C   UNL A   1      30.784  25.260  26.131  1.00  0.00     0.230 C 
ATOM     94  O   UNL A   1      29.822  24.992  26.871  1.00  0.00    -0.274 OA
BRANCH  93  95
ATOM     95  C   UNL A   1      31.661  23.729  25.468  1.00  0.00     0.083 C 
ATOM     96  C   UNL A   1      31.780  23.018  23.339  1.00  0.00     0.040 C 
ATOM     97  C   UNL A   1      33.271  24.588  26.118  1.00  0.00     0.018 C 
ATOM     98  C   UNL A   1      33.102  24.097  22.334  1.00  0.00    -0.030 C 
ATOM     99  C   UNL A   1      34.366  25.337  24.786  1.00  0.00     0.028 C 
ATOM    100  C   UNL A   1      34.029  25.073  22.968  1.00  0.00    -0.031 C 
ENDBRANCH  93  95
ENDBRANCH  86  93
ENDBRANCH  81  83
ENDBRANCH  80  81
ENDBRANCH  79  80
ENDBRANCH  78  79
ENDBRANCH  77  78
ENDBRANCH  76  77
ENDBRANCH   1  76
TORSDOF 22
ENDMDL
