MODEL 1
REMARK VINA RESULT:     -10.4      0.000      0.000
REMARK SMILES Cc1ccc(F)c(-c2ncccc2C(=O)OCCOCCOCCOC(=O)c2ccc(-c3c4nc(c(-c5c(F)cc(S(=O)(=O)[O-])cc5F)c5ccc([nH]5)c(-c5c(F)cc(S(=O)(=O)[O-])cc5F)c5nc(c(-c6c(F)cc(S(=O)(=O)[O-])cc6F)c6ccc3[nH]6)C=C5)C=C4)cc2)c1
REMARK SMILES IDX 21 1 20 2 19 3 18 4 17 5 16 6 14 7 15 8 13 9 8 10 9 11 10 12
REMARK SMILES IDX 12 13 11 14 7 15 1 16 2 17 3 18 94 19 4 20 5 21 6 22 22 23
REMARK SMILES IDX 23 24 24 25 25 26 26 27 27 28 28 29 29 30 93 31 30 32 92 33
REMARK SMILES IDX 31 34 32 35 33 36 86 37 34 38 91 39 85 40 87 41 35 42 90 43
REMARK SMILES IDX 84 44 83 45 36 47 70 48 49 49 69 50 50 51 53 52 68 53 88 54
REMARK SMILES IDX 51 55 52 56 67 58 89 59 54 60 37 61 38 62 47 63 39 64 40 65
REMARK SMILES IDX 46 66 48 67 41 68 42 69 43 70 44 71 45 72 71 73 72 74 81 75
REMARK SMILES IDX 73 76 74 77 80 78 82 79 75 80 76 81 77 82 78 83 79 84 55 85
REMARK SMILES IDX 56 86 65 87 57 88 58 89 64 90 66 91 59 92 60 93 61 94 62 95
REMARK SMILES IDX 63 96
REMARK H PARENT 87 46 53 57
REMARK Flexibility Score: inf
ROOT
ATOM      1  C   UNL A   1      31.399  28.447  25.338  1.00  0.00     0.188 C 
ENDROOT
BRANCH   1   2
ATOM      2  C   UNL A   1      31.868  27.523  24.202  1.00  0.00     0.188 C 
BRANCH   2   3
ATOM      3  O   UNL A   1      32.634  28.215  23.215  1.00  0.00    -0.376 OA
BRANCH   3   4
ATOM      4  C   UNL A   1      33.199  27.355  22.224  1.00  0.00     0.202 C 
BRANCH   4   5
ATOM      5  C   UNL A   1      33.683  26.050  22.857  1.00  0.00     0.261 C 
BRANCH   5   6
ATOM      6  O   UNL A   1      32.940  24.901  22.409  1.00  0.00    -0.460 OA
BRANCH   6   7
ATOM      7  C   UNL A   1      33.422  23.685  22.763  1.00  0.00     0.340 C 
ATOM      8  O   UNL A   1      34.276  23.062  22.160  1.00  0.00    -0.246 OA
BRANCH   7   9
ATOM      9  C   UNL A   1      32.782  23.290  24.044  1.00  0.00     0.086 A 
ATOM     10  C   UNL A   1      33.536  22.814  25.123  1.00  0.00     0.088 A 
ATOM     11  N   UNL A   1      32.968  22.516  26.325  1.00  0.00    -0.255 NA
ATOM     12  C   UNL A   1      31.630  22.662  26.447  1.00  0.00     0.112 A 
ATOM     13  C   UNL A   1      31.399  23.443  24.211  1.00  0.00     0.019 A 
ATOM     14  C   UNL A   1      30.812  23.121  25.430  1.00  0.00     0.021 A 
BRANCH  10  15
ATOM     15  C   UNL A   1      34.994  22.713  25.096  1.00  0.00     0.037 A 
ATOM     16  C   UNL A   1      37.612  19.941  24.871  1.00  0.00     0.044 C 
ATOM     17  C   UNL A   1      36.986  21.295  25.034  1.00  0.00    -0.050 A 
ATOM     18  C   UNL A   1      37.773  22.400  25.375  1.00  0.00     0.006 A 
ATOM     19  C   UNL A   1      35.611  21.479  24.839  1.00  0.00     0.016 A 
ATOM     20  C   UNL A   1      37.188  23.658  25.534  1.00  0.00     0.040 A 
ATOM     21  C   UNL A   1      35.808  23.802  25.413  1.00  0.00     0.132 A 
ATOM     22  F   UNL A   1      35.262  25.006  25.645  1.00  0.00    -0.206 F 
ENDBRANCH  10  15
ENDBRANCH   7   9
ENDBRANCH   6   7
ENDBRANCH   5   6
ENDBRANCH   4   5
ENDBRANCH   3   4
ENDBRANCH   2   3
ENDBRANCH   1   2
BRANCH   1  23
ATOM     23  O   UNL A   1      31.197  29.837  25.087  1.00  0.00    -0.376 OA
BRANCH  23  24
ATOM     24  C   UNL A   1      31.640  30.766  26.060  1.00  0.00     0.202 C 
BRANCH  24  25
ATOM     25  C   UNL A   1      32.485  30.203  27.208  1.00  0.00     0.261 C 
BRANCH  25  26
ATOM     26  O   UNL A   1      33.905  30.291  27.011  1.00  0.00    -0.460 OA
BRANCH  26  27
ATOM     27  C   UNL A   1      34.577  30.912  28.014  1.00  0.00     0.338 C 
ATOM     28  O   UNL A   1      34.179  31.839  28.699  1.00  0.00    -0.246 OA
BRANCH  27  29
ATOM     29  C   UNL A   1      35.879  30.243  28.235  1.00  0.00     0.060 A 
ATOM     30  C   UNL A   1      36.175  29.763  29.517  1.00  0.00     0.016 A 
ATOM     31  C   UNL A   1      36.830  30.155  27.216  1.00  0.00     0.016 A 
ATOM     32  C   UNL A   1      37.435  29.219  29.792  1.00  0.00     0.010 A 
ATOM     33  C   UNL A   1      38.093  29.619  27.495  1.00  0.00     0.010 A 
ATOM     34  C   UNL A   1      38.415  29.172  28.791  1.00  0.00    -0.014 A 
BRANCH  34  35
ATOM     35  C   UNL A   1      39.820  28.802  29.111  1.00  0.00     0.031 A 
ATOM     36  C   UNL A   1      40.736  29.849  29.675  1.00  0.00     0.074 A 
ATOM     37  C   UNL A   1      40.297  27.563  28.893  1.00  0.00     0.049 A 
ATOM     38  N   UNL A   1      42.008  29.762  29.961  1.00  0.00    -0.248 NA
ATOM     39  C   UNL A   1      40.133  31.157  29.979  1.00  0.00     0.031 C 
ATOM     40  C   UNL A   1      39.500  26.426  28.461  1.00  0.00     0.029 A 
ATOM     41  N   UNL A   1      41.570  27.054  28.980  1.00  0.00    -0.354 N 
ATOM     42  C   UNL A   1      42.347  30.980  30.530  1.00  0.00     0.074 A 
ATOM     43  C   UNL A   1      41.167  31.817  30.480  1.00  0.00     0.031 C 
ATOM     44  C   UNL A   1      40.305  25.378  28.219  1.00  0.00     0.029 A 
ATOM     45  C   UNL A   1      41.679  25.765  28.508  1.00  0.00     0.049 A 
ATOM     46  H   UNL A   1      42.331  27.562  29.342  1.00  0.00     0.167 HD
ATOM     47  C   UNL A   1      43.526  31.354  31.080  1.00  0.00     0.037 A 
ATOM     48  C   UNL A   1      42.762  24.985  28.325  1.00  0.00     0.037 A 
ATOM     49  C   UNL A   1      44.708  30.534  31.104  1.00  0.00     0.049 A 
ATOM     50  C   UNL A   1      44.106  25.487  28.778  1.00  0.00     0.074 A 
ATOM     51  C   UNL A   1      45.953  30.834  31.631  1.00  0.00     0.029 A 
ATOM     52  N   UNL A   1      44.798  29.257  30.570  1.00  0.00    -0.354 N 
ATOM     53  N   UNL A   1      44.404  26.630  29.347  1.00  0.00    -0.248 NA
ATOM     54  C   UNL A   1      45.252  24.585  28.599  1.00  0.00     0.031 C 
ATOM     55  C   UNL A   1      46.807  29.756  31.376  1.00  0.00     0.029 A 
ATOM     56  C   UNL A   1      46.085  28.766  30.729  1.00  0.00     0.049 A 
ATOM     57  H   UNL A   1      44.059  28.771  30.140  1.00  0.00     0.167 HD
ATOM     58  C   UNL A   1      45.759  26.558  29.652  1.00  0.00     0.074 A 
ATOM     59  C   UNL A   1      46.225  25.267  29.189  1.00  0.00     0.031 C 
ATOM     60  C   UNL A   1      46.537  27.473  30.280  1.00  0.00     0.037 A 
BRANCH  47  61
ATOM     61  C   UNL A   1      43.582  32.713  31.710  1.00  0.00     0.058 A 
ATOM     62  C   UNL A   1      43.935  33.845  30.959  1.00  0.00     0.135 A 
ATOM     63  C   UNL A   1      43.268  32.891  33.064  1.00  0.00     0.135 A 
ATOM     64  F   UNL A   1      44.266  33.721  29.663  1.00  0.00    -0.206 F 
ATOM     65  C   UNL A   1      43.993  35.109  31.535  1.00  0.00     0.059 A 
ATOM     66  C   UNL A   1      43.299  34.150  33.658  1.00  0.00     0.059 A 
ATOM     67  F   UNL A   1      42.934  31.838  33.826  1.00  0.00    -0.206 F 
ATOM     68  C   UNL A   1      43.676  35.250  32.887  1.00  0.00     0.060 A 
BRANCH  68  69
ATOM     69  S   UNL A   1      43.756  36.896  33.621  1.00  0.00     0.124 S 
ATOM     70  O   UNL A   1      43.776  37.744  32.432  1.00  0.00    -0.237 OA
ATOM     71  O   UNL A   1      42.532  36.945  34.414  1.00  0.00    -0.237 OA
ATOM     72  O   UNL A   1      44.996  36.866  34.390  1.00  0.00    -0.744 OA
ENDBRANCH  68  69
ENDBRANCH  47  61
BRANCH  48  73
ATOM     73  C   UNL A   1      42.632  23.644  27.695  1.00  0.00     0.058 A 
ATOM     74  C   UNL A   1      42.482  22.486  28.473  1.00  0.00     0.135 A 
ATOM     75  C   UNL A   1      42.708  23.489  26.302  1.00  0.00     0.135 A 
ATOM     76  F   UNL A   1      42.412  22.582  29.809  1.00  0.00    -0.206 F 
ATOM     77  C   UNL A   1      42.450  21.220  27.895  1.00  0.00     0.059 A 
ATOM     78  C   UNL A   1      42.659  22.236  25.700  1.00  0.00     0.059 A 
ATOM     79  F   UNL A   1      42.838  24.566  25.511  1.00  0.00    -0.206 F 
ATOM     80  C   UNL A   1      42.549  21.104  26.508  1.00  0.00     0.060 A 
BRANCH  80  81
ATOM     81  S   UNL A   1      42.520  19.456  25.770  1.00  0.00     0.124 S 
ATOM     82  O   UNL A   1      43.490  19.601  24.691  1.00  0.00    -0.237 OA
ATOM     83  O   UNL A   1      42.928  18.612  26.888  1.00  0.00    -0.237 OA
ATOM     84  O   UNL A   1      41.129  19.301  25.353  1.00  0.00    -0.744 OA
ENDBRANCH  80  81
ENDBRANCH  48  73
BRANCH  60  85
ATOM     85  C   UNL A   1      47.965  27.095  30.553  1.00  0.00     0.058 A 
ATOM     86  C   UNL A   1      49.013  27.518  29.723  1.00  0.00     0.135 A 
ATOM     87  C   UNL A   1      48.290  26.336  31.690  1.00  0.00     0.135 A 
ATOM     88  F   UNL A   1      48.754  28.235  28.620  1.00  0.00    -0.206 F 
ATOM     89  C   UNL A   1      50.336  27.187  30.001  1.00  0.00     0.059 A 
ATOM     90  C   UNL A   1      49.607  26.016  32.001  1.00  0.00     0.059 A 
ATOM     91  F   UNL A   1      47.324  25.913  32.520  1.00  0.00    -0.206 F 
ATOM     92  C   UNL A   1      50.624  26.438  31.144  1.00  0.00     0.060 A 
BRANCH  92  93
ATOM     93  S   UNL A   1      52.347  26.054  31.518  1.00  0.00     0.124 S 
ATOM     94  O   UNL A   1      52.954  26.101  30.193  1.00  0.00    -0.237 OA
ATOM     95  O   UNL A   1      52.720  27.136  32.425  1.00  0.00    -0.237 OA
ATOM     96  O   UNL A   1      52.274  24.731  32.131  1.00  0.00    -0.744 OA
ENDBRANCH  92  93
ENDBRANCH  60  85
ENDBRANCH  34  35
ENDBRANCH  27  29
ENDBRANCH  26  27
ENDBRANCH  25  26
ENDBRANCH  24  25
ENDBRANCH  23  24
ENDBRANCH   1  23
TORSDOF 21
ENDMDL
MODEL 2
REMARK VINA RESULT:     -10.1      1.221      2.285
REMARK SMILES Cc1ccc(F)c(-c2ncccc2C(=O)OCCOCCOCCOC(=O)c2ccc(-c3c4nc(c(-c5c(F)cc(S(=O)(=O)[O-])cc5F)c5ccc([nH]5)c(-c5c(F)cc(S(=O)(=O)[O-])cc5F)c5nc(c(-c6c(F)cc(S(=O)(=O)[O-])cc6F)c6ccc3[nH]6)C=C5)C=C4)cc2)c1
REMARK SMILES IDX 21 1 20 2 19 3 18 4 17 5 16 6 14 7 15 8 13 9 8 10 9 11 10 12
REMARK SMILES IDX 12 13 11 14 7 15 1 16 2 17 3 18 94 19 4 20 5 21 6 22 22 23
REMARK SMILES IDX 23 24 24 25 25 26 26 27 27 28 28 29 29 30 93 31 30 32 92 33
REMARK SMILES IDX 31 34 32 35 33 36 86 37 34 38 91 39 85 40 87 41 35 42 90 43
REMARK SMILES IDX 84 44 83 45 36 47 70 48 49 49 69 50 50 51 53 52 68 53 88 54
REMARK SMILES IDX 51 55 52 56 67 58 89 59 54 60 37 61 38 62 47 63 39 64 40 65
REMARK SMILES IDX 46 66 48 67 41 68 42 69 43 70 44 71 45 72 71 73 72 74 81 75
REMARK SMILES IDX 73 76 74 77 80 78 82 79 75 80 76 81 77 82 78 83 79 84 55 85
REMARK SMILES IDX 56 86 65 87 57 88 58 89 64 90 66 91 59 92 60 93 61 94 62 95
REMARK SMILES IDX 63 96
REMARK H PARENT 87 46 53 57
REMARK Flexibility Score: inf
ROOT
ATOM      1  C   UNL A   1      31.472  27.467  26.106  1.00  0.00     0.188 C 
ENDROOT
BRANCH   1   2
ATOM      2  C   UNL A   1      31.064  27.444  24.624  1.00  0.00     0.188 C 
BRANCH   2   3
ATOM      3  O   UNL A   1      32.188  27.501  23.746  1.00  0.00    -0.376 OA
BRANCH   3   4
ATOM      4  C   UNL A   1      33.418  27.124  24.368  1.00  0.00     0.202 C 
BRANCH   4   5
ATOM      5  C   UNL A   1      33.610  25.609  24.305  1.00  0.00     0.261 C 
BRANCH   5   6
ATOM      6  O   UNL A   1      34.823  25.171  24.944  1.00  0.00    -0.460 OA
BRANCH   6   7
ATOM      7  C   UNL A   1      34.708  24.184  25.865  1.00  0.00     0.340 C 
ATOM      8  O   UNL A   1      33.750  24.006  26.593  1.00  0.00    -0.246 OA
BRANCH   7   9
ATOM      9  C   UNL A   1      35.915  23.323  25.772  1.00  0.00     0.086 A 
ATOM     10  C   UNL A   1      35.840  22.001  25.316  1.00  0.00     0.088 A 
ATOM     11  N   UNL A   1      36.950  21.227  25.161  1.00  0.00    -0.255 NA
ATOM     12  C   UNL A   1      38.146  21.760  25.492  1.00  0.00     0.112 A 
ATOM     13  C   UNL A   1      37.175  23.848  26.093  1.00  0.00     0.019 A 
ATOM     14  C   UNL A   1      38.309  23.055  25.954  1.00  0.00     0.021 A 
BRANCH  10  15
ATOM     15  C   UNL A   1      34.596  21.385  24.856  1.00  0.00     0.037 A 
ATOM     16  C   UNL A   1      32.510  18.301  25.709  1.00  0.00     0.044 C 
ATOM     17  C   UNL A   1      33.002  19.537  25.014  1.00  0.00    -0.050 A 
ATOM     18  C   UNL A   1      32.409  19.957  23.818  1.00  0.00     0.006 A 
ATOM     19  C   UNL A   1      34.052  20.293  25.551  1.00  0.00     0.016 A 
ATOM     20  C   UNL A   1      32.874  21.103  23.169  1.00  0.00     0.040 A 
ATOM     21  C   UNL A   1      33.970  21.794  23.678  1.00  0.00     0.132 A 
ATOM     22  F   UNL A   1      34.444  22.848  22.995  1.00  0.00    -0.206 F 
ENDBRANCH  10  15
ENDBRANCH   7   9
ENDBRANCH   6   7
ENDBRANCH   5   6
ENDBRANCH   4   5
ENDBRANCH   3   4
ENDBRANCH   2   3
ENDBRANCH   1   2
BRANCH   1  23
ATOM     23  O   UNL A   1      31.387  28.683  26.848  1.00  0.00    -0.376 OA
BRANCH  23  24
ATOM     24  C   UNL A   1      31.757  29.889  26.205  1.00  0.00     0.202 C 
BRANCH  24  25
ATOM     25  C   UNL A   1      33.176  30.403  26.478  1.00  0.00     0.261 C 
BRANCH  25  26
ATOM     26  O   UNL A   1      33.719  30.026  27.752  1.00  0.00    -0.460 OA
BRANCH  26  27
ATOM     27  C   UNL A   1      34.616  30.907  28.265  1.00  0.00     0.338 C 
ATOM     28  O   UNL A   1      34.402  32.056  28.608  1.00  0.00    -0.246 OA
BRANCH  27  29
ATOM     29  C   UNL A   1      35.928  30.242  28.438  1.00  0.00     0.060 A 
ATOM     30  C   UNL A   1      36.262  29.738  29.701  1.00  0.00     0.016 A 
ATOM     31  C   UNL A   1      36.852  30.181  27.392  1.00  0.00     0.016 A 
ATOM     32  C   UNL A   1      37.532  29.197  29.930  1.00  0.00     0.010 A 
ATOM     33  C   UNL A   1      38.125  29.648  27.626  1.00  0.00     0.010 A 
ATOM     34  C   UNL A   1      38.485  29.177  28.904  1.00  0.00    -0.014 A 
BRANCH  34  35
ATOM     35  C   UNL A   1      39.900  28.810  29.178  1.00  0.00     0.031 A 
ATOM     36  C   UNL A   1      40.834  29.862  29.702  1.00  0.00     0.074 A 
ATOM     37  C   UNL A   1      40.371  27.570  28.953  1.00  0.00     0.049 A 
ATOM     38  N   UNL A   1      42.115  29.777  29.946  1.00  0.00    -0.248 NA
ATOM     39  C   UNL A   1      40.241  31.171  30.018  1.00  0.00     0.031 C 
ATOM     40  C   UNL A   1      39.560  26.430  28.556  1.00  0.00     0.029 A 
ATOM     41  N   UNL A   1      41.647  27.062  28.999  1.00  0.00    -0.354 N 
ATOM     42  C   UNL A   1      42.473  31.000  30.494  1.00  0.00     0.074 A 
ATOM     43  C   UNL A   1      41.291  31.836  30.478  1.00  0.00     0.031 C 
ATOM     44  C   UNL A   1      40.357  25.380  28.294  1.00  0.00     0.029 A 
ATOM     45  C   UNL A   1      41.741  25.770  28.534  1.00  0.00     0.049 A 
ATOM     46  H   UNL A   1      42.419  27.573  29.332  1.00  0.00     0.167 HD
ATOM     47  C   UNL A   1      43.669  31.378  31.001  1.00  0.00     0.037 A 
ATOM     48  C   UNL A   1      42.818  24.990  28.319  1.00  0.00     0.037 A 
ATOM     49  C   UNL A   1      44.852  30.559  30.991  1.00  0.00     0.049 A 
ATOM     50  C   UNL A   1      44.175  25.496  28.723  1.00  0.00     0.074 A 
ATOM     51  C   UNL A   1      46.113  30.863  31.473  1.00  0.00     0.029 A 
ATOM     52  N   UNL A   1      44.925  29.279  30.462  1.00  0.00    -0.354 N 
ATOM     53  N   UNL A   1      44.492  26.643  29.273  1.00  0.00    -0.248 NA
ATOM     54  C   UNL A   1      45.316  24.593  28.511  1.00  0.00     0.031 C 
ATOM     55  C   UNL A   1      46.960  29.784  31.196  1.00  0.00     0.029 A 
ATOM     56  C   UNL A   1      46.217  28.790  30.581  1.00  0.00     0.049 A 
ATOM     57  H   UNL A   1      44.172  28.789  30.062  1.00  0.00     0.167 HD
ATOM     58  C   UNL A   1      45.856  26.574  29.532  1.00  0.00     0.074 A 
ATOM     59  C   UNL A   1      46.307  25.280  29.062  1.00  0.00     0.031 C 
ATOM     60  C   UNL A   1      46.654  27.494  30.126  1.00  0.00     0.037 A 
BRANCH  47  61
ATOM     61  C   UNL A   1      43.746  32.742  31.619  1.00  0.00     0.058 A 
ATOM     62  C   UNL A   1      43.615  32.918  33.005  1.00  0.00     0.135 A 
ATOM     63  C   UNL A   1      43.966  33.878  30.827  1.00  0.00     0.135 A 
ATOM     64  F   UNL A   1      43.380  31.863  33.802  1.00  0.00    -0.206 F 
ATOM     65  C   UNL A   1      43.681  34.179  33.585  1.00  0.00     0.059 A 
ATOM     66  C   UNL A   1      44.057  35.148  31.388  1.00  0.00     0.059 A 
ATOM     67  F   UNL A   1      44.089  33.762  29.496  1.00  0.00    -0.206 F 
ATOM     68  C   UNL A   1      43.900  35.289  32.768  1.00  0.00     0.060 A 
BRANCH  68  69
ATOM     69  S   UNL A   1      43.983  36.920  33.535  1.00  0.00     0.124 S 
ATOM     70  O   UNL A   1      44.922  36.679  34.627  1.00  0.00    -0.237 OA
ATOM     71  O   UNL A   1      44.479  37.754  32.446  1.00  0.00    -0.237 OA
ATOM     72  O   UNL A   1      42.604  37.177  33.940  1.00  0.00    -0.744 OA
ENDBRANCH  68  69
ENDBRANCH  47  61
BRANCH  48  73
ATOM     73  C   UNL A   1      42.667  23.643  27.704  1.00  0.00     0.058 A 
ATOM     74  C   UNL A   1      42.467  22.501  28.492  1.00  0.00     0.135 A 
ATOM     75  C   UNL A   1      42.773  23.468  26.315  1.00  0.00     0.135 A 
ATOM     76  F   UNL A   1      42.367  22.616  29.825  1.00  0.00    -0.206 F 
ATOM     77  C   UNL A   1      42.415  21.228  27.931  1.00  0.00     0.059 A 
ATOM     78  C   UNL A   1      42.705  22.209  25.728  1.00  0.00     0.059 A 
ATOM     79  F   UNL A   1      42.950  24.531  25.514  1.00  0.00    -0.206 F 
ATOM     80  C   UNL A   1      42.545  21.091  26.548  1.00  0.00     0.060 A 
BRANCH  80  81
ATOM     81  S   UNL A   1      42.490  19.434  25.831  1.00  0.00     0.124 S 
ATOM     82  O   UNL A   1      43.288  19.611  24.623  1.00  0.00    -0.237 OA
ATOM     83  O   UNL A   1      43.094  18.624  26.884  1.00  0.00    -0.237 OA
ATOM     84  O   UNL A   1      41.063  19.210  25.618  1.00  0.00    -0.744 OA
ENDBRANCH  80  81
ENDBRANCH  48  73
BRANCH  60  85
ATOM     85  C   UNL A   1      48.091  27.118  30.354  1.00  0.00     0.058 A 
ATOM     86  C   UNL A   1      49.104  27.500  29.463  1.00  0.00     0.135 A 
ATOM     87  C   UNL A   1      48.462  26.406  31.506  1.00  0.00     0.135 A 
ATOM     88  F   UNL A   1      48.801  28.172  28.342  1.00  0.00    -0.206 F 
ATOM     89  C   UNL A   1      50.437  27.173  29.697  1.00  0.00     0.059 A 
ATOM     90  C   UNL A   1      49.790  26.091  31.773  1.00  0.00     0.059 A 
ATOM     91  F   UNL A   1      47.530  26.023  32.394  1.00  0.00    -0.206 F 
ATOM     92  C   UNL A   1      50.770  26.470  30.856  1.00  0.00     0.060 A 
BRANCH  92  93
ATOM     93  S   UNL A   1      52.507  26.092  31.172  1.00  0.00     0.124 S 
ATOM     94  O   UNL A   1      52.906  27.218  32.009  1.00  0.00    -0.237 OA
ATOM     95  O   UNL A   1      52.429  24.798  31.843  1.00  0.00    -0.237 OA
ATOM     96  O   UNL A   1      53.095  26.061  29.836  1.00  0.00    -0.744 OA
ENDBRANCH  92  93
ENDBRANCH  60  85
ENDBRANCH  34  35
ENDBRANCH  27  29
ENDBRANCH  26  27
ENDBRANCH  25  26
ENDBRANCH  24  25
ENDBRANCH  23  24
ENDBRANCH   1  23
TORSDOF 21
ENDMDL
MODEL 3
REMARK VINA RESULT:     -10.0      4.271     10.444
REMARK SMILES Cc1ccc(F)c(-c2ncccc2C(=O)OCCOCCOCCOC(=O)c2ccc(-c3c4nc(c(-c5c(F)cc(S(=O)(=O)[O-])cc5F)c5ccc([nH]5)c(-c5c(F)cc(S(=O)(=O)[O-])cc5F)c5nc(c(-c6c(F)cc(S(=O)(=O)[O-])cc6F)c6ccc3[nH]6)C=C5)C=C4)cc2)c1
REMARK SMILES IDX 21 1 20 2 19 3 18 4 17 5 16 6 14 7 15 8 13 9 8 10 9 11 10 12
REMARK SMILES IDX 12 13 11 14 7 15 1 16 2 17 3 18 94 19 4 20 5 21 6 22 22 23
REMARK SMILES IDX 23 24 24 25 25 26 26 27 27 28 28 29 29 30 93 31 30 32 92 33
REMARK SMILES IDX 31 34 32 35 33 36 86 37 34 38 91 39 85 40 87 41 35 42 90 43
REMARK SMILES IDX 84 44 83 45 36 47 70 48 49 49 69 50 50 51 53 52 68 53 88 54
REMARK SMILES IDX 51 55 52 56 67 58 89 59 54 60 37 61 38 62 47 63 39 64 40 65
REMARK SMILES IDX 46 66 48 67 41 68 42 69 43 70 44 71 45 72 71 73 72 74 81 75
REMARK SMILES IDX 73 76 74 77 80 78 82 79 75 80 76 81 77 82 78 83 79 84 55 85
REMARK SMILES IDX 56 86 65 87 57 88 58 89 64 90 66 91 59 92 60 93 61 94 62 95
REMARK SMILES IDX 63 96
REMARK H PARENT 87 46 53 57
REMARK Flexibility Score: inf
ROOT
ATOM      1  C   UNL A   1      37.800  22.828  25.606  1.00  0.00     0.188 C 
ENDROOT
BRANCH   1   2
ATOM      2  C   UNL A   1      36.414  22.529  25.013  1.00  0.00     0.188 C 
BRANCH   2   3
ATOM      3  O   UNL A   1      35.499  23.612  25.186  1.00  0.00    -0.376 OA
BRANCH   3   4
ATOM      4  C   UNL A   1      34.170  23.310  24.759  1.00  0.00     0.202 C 
BRANCH   4   5
ATOM      5  C   UNL A   1      33.461  24.574  24.270  1.00  0.00     0.261 C 
BRANCH   5   6
ATOM      6  O   UNL A   1      34.151  25.781  24.640  1.00  0.00    -0.460 OA
BRANCH   6   7
ATOM      7  C   UNL A   1      33.676  26.941  24.124  1.00  0.00     0.340 C 
ATOM      8  O   UNL A   1      33.475  27.157  22.944  1.00  0.00    -0.246 OA
BRANCH   7   9
ATOM      9  C   UNL A   1      33.376  27.859  25.252  1.00  0.00     0.086 A 
ATOM     10  C   UNL A   1      32.092  28.380  25.452  1.00  0.00     0.088 A 
ATOM     11  N   UNL A   1      31.791  29.167  26.523  1.00  0.00    -0.255 NA
ATOM     12  C   UNL A   1      32.784  29.467  27.388  1.00  0.00     0.112 A 
ATOM     13  C   UNL A   1      34.379  28.180  26.178  1.00  0.00     0.019 A 
ATOM     14  C   UNL A   1      34.081  28.999  27.262  1.00  0.00     0.021 A 
BRANCH  10  15
ATOM     15  C   UNL A   1      30.949  28.031  24.611  1.00  0.00     0.037 A 
ATOM     16  C   UNL A   1      28.577  29.823  22.213  1.00  0.00     0.044 C 
ATOM     17  C   UNL A   1      29.192  28.757  23.072  1.00  0.00    -0.050 A 
ATOM     18  C   UNL A   1      28.552  27.524  23.234  1.00  0.00     0.006 A 
ATOM     19  C   UNL A   1      30.417  28.973  23.717  1.00  0.00     0.016 A 
ATOM     20  C   UNL A   1      29.122  26.536  24.039  1.00  0.00     0.040 A 
ATOM     21  C   UNL A   1      30.300  26.801  24.734  1.00  0.00     0.132 A 
ATOM     22  F   UNL A   1      30.788  25.862  25.560  1.00  0.00    -0.206 F 
ENDBRANCH  10  15
ENDBRANCH   7   9
ENDBRANCH   6   7
ENDBRANCH   5   6
ENDBRANCH   4   5
ENDBRANCH   3   4
ENDBRANCH   2   3
ENDBRANCH   1   2
BRANCH   1  23
ATOM     23  O   UNL A   1      38.749  21.774  25.762  1.00  0.00    -0.376 OA
BRANCH  23  24
ATOM     24  C   UNL A   1      39.722  21.893  26.784  1.00  0.00     0.202 C 
BRANCH  24  25
ATOM     25  C   UNL A   1      41.149  22.230  26.334  1.00  0.00     0.261 C 
BRANCH  25  26
ATOM     26  O   UNL A   1      41.820  23.209  27.143  1.00  0.00    -0.460 OA
BRANCH  26  27
ATOM     27  C   UNL A   1      42.091  24.377  26.506  1.00  0.00     0.338 C 
ATOM     28  O   UNL A   1      42.503  24.513  25.367  1.00  0.00    -0.246 OA
BRANCH  27  29
ATOM     29  C   UNL A   1      41.733  25.518  27.378  1.00  0.00     0.060 A 
ATOM     30  C   UNL A   1      42.585  26.629  27.411  1.00  0.00     0.016 A 
ATOM     31  C   UNL A   1      40.614  25.469  28.213  1.00  0.00     0.016 A 
ATOM     32  C   UNL A   1      42.338  27.682  28.298  1.00  0.00     0.010 A 
ATOM     33  C   UNL A   1      40.373  26.519  29.107  1.00  0.00     0.010 A 
ATOM     34  C   UNL A   1      41.248  27.621  29.176  1.00  0.00    -0.014 A 
BRANCH  34  35
ATOM     35  C   UNL A   1      41.088  28.616  30.271  1.00  0.00     0.031 A 
ATOM     36  C   UNL A   1      41.925  28.474  31.509  1.00  0.00     0.074 A 
ATOM     37  C   UNL A   1      40.204  29.627  30.190  1.00  0.00     0.049 A 
ATOM     38  N   UNL A   1      41.900  29.185  32.605  1.00  0.00    -0.248 NA
ATOM     39  C   UNL A   1      42.938  27.407  31.500  1.00  0.00     0.031 C 
ATOM     40  C   UNL A   1      39.414  29.952  29.014  1.00  0.00     0.029 A 
ATOM     41  N   UNL A   1      39.800  30.554  31.120  1.00  0.00    -0.354 N 
ATOM     42  C   UNL A   1      42.928  28.692  33.394  1.00  0.00     0.074 A 
ATOM     43  C   UNL A   1      43.509  27.571  32.685  1.00  0.00     0.031 C 
ATOM     44  C   UNL A   1      38.546  30.933  29.311  1.00  0.00     0.029 A 
ATOM     45  C   UNL A   1      38.741  31.327  30.700  1.00  0.00     0.049 A 
ATOM     46  H   UNL A   1      40.226  30.655  32.002  1.00  0.00     0.167 HD
ATOM     47  C   UNL A   1      43.373  29.156  34.585  1.00  0.00     0.037 A 
ATOM     48  C   UNL A   1      38.007  32.244  31.360  1.00  0.00     0.037 A 
ATOM     49  C   UNL A   1      42.778  30.250  35.305  1.00  0.00     0.049 A 
ATOM     50  C   UNL A   1      38.403  32.624  32.760  1.00  0.00     0.074 A 
ATOM     51  C   UNL A   1      43.154  30.784  36.525  1.00  0.00     0.029 A 
ATOM     52  N   UNL A   1      41.674  30.974  34.877  1.00  0.00    -0.354 N 
ATOM     53  N   UNL A   1      39.401  32.172  33.480  1.00  0.00    -0.248 NA
ATOM     54  C   UNL A   1      37.601  33.661  33.425  1.00  0.00     0.031 C 
ATOM     55  C   UNL A   1      42.251  31.800  36.856  1.00  0.00     0.029 A 
ATOM     56  C   UNL A   1      41.338  31.930  35.822  1.00  0.00     0.049 A 
ATOM     57  H   UNL A   1      41.198  30.829  34.028  1.00  0.00     0.167 HD
ATOM     58  C   UNL A   1      39.386  32.913  34.656  1.00  0.00     0.074 A 
ATOM     59  C   UNL A   1      38.269  33.831  34.557  1.00  0.00     0.031 C 
ATOM     60  C   UNL A   1      40.235  32.851  35.710  1.00  0.00     0.037 A 
BRANCH  47  61
ATOM     61  C   UNL A   1      44.572  28.477  35.175  1.00  0.00     0.058 A 
ATOM     62  C   UNL A   1      45.871  28.929  34.896  1.00  0.00     0.135 A 
ATOM     63  C   UNL A   1      44.426  27.379  36.035  1.00  0.00     0.135 A 
ATOM     64  F   UNL A   1      46.062  29.963  34.060  1.00  0.00    -0.206 F 
ATOM     65  C   UNL A   1      46.989  28.303  35.435  1.00  0.00     0.059 A 
ATOM     66  C   UNL A   1      45.529  26.750  36.603  1.00  0.00     0.059 A 
ATOM     67  F   UNL A   1      43.205  26.904  36.324  1.00  0.00    -0.206 F 
ATOM     68  C   UNL A   1      46.808  27.212  36.286  1.00  0.00     0.060 A 
BRANCH  68  69
ATOM     69  S   UNL A   1      48.268  26.410  36.979  1.00  0.00     0.124 S 
ATOM     70  O   UNL A   1      49.305  26.842  36.047  1.00  0.00    -0.237 OA
ATOM     71  O   UNL A   1      48.337  26.987  38.316  1.00  0.00    -0.237 OA
ATOM     72  O   UNL A   1      47.932  24.990  36.929  1.00  0.00    -0.744 OA
ENDBRANCH  68  69
ENDBRANCH  47  61
BRANCH  48  73
ATOM     73  C   UNL A   1      36.829  32.880  30.711  1.00  0.00     0.058 A 
ATOM     74  C   UNL A   1      36.985  33.890  29.750  1.00  0.00     0.135 A 
ATOM     75  C   UNL A   1      35.522  32.526  31.080  1.00  0.00     0.135 A 
ATOM     76  F   UNL A   1      38.214  34.269  29.370  1.00  0.00    -0.206 F 
ATOM     77  C   UNL A   1      35.888  34.552  29.205  1.00  0.00     0.059 A 
ATOM     78  C   UNL A   1      34.409  33.160  30.535  1.00  0.00     0.059 A 
ATOM     79  F   UNL A   1      35.317  31.556  31.985  1.00  0.00    -0.206 F 
ATOM     80  C   UNL A   1      34.604  34.186  29.611  1.00  0.00     0.060 A 
BRANCH  80  81
ATOM     81  S   UNL A   1      33.189  35.061  28.908  1.00  0.00     0.124 S 
ATOM     82  O   UNL A   1      32.457  35.447  30.109  1.00  0.00    -0.237 OA
ATOM     83  O   UNL A   1      33.833  36.147  28.175  1.00  0.00    -0.237 OA
ATOM     84  O   UNL A   1      32.549  34.047  28.076  1.00  0.00    -0.744 OA
ENDBRANCH  80  81
ENDBRANCH  48  73
BRANCH  60  85
ATOM     85  C   UNL A   1      40.028  33.838  36.824  1.00  0.00     0.058 A 
ATOM     86  C   UNL A   1      40.600  35.118  36.793  1.00  0.00     0.135 A 
ATOM     87  C   UNL A   1      39.204  33.510  37.914  1.00  0.00     0.135 A 
ATOM     88  F   UNL A   1      41.402  35.475  35.779  1.00  0.00    -0.206 F 
ATOM     89  C   UNL A   1      40.377  36.036  37.815  1.00  0.00     0.059 A 
ATOM     90  C   UNL A   1      38.948  34.422  38.933  1.00  0.00     0.059 A 
ATOM     91  F   UNL A   1      38.627  32.301  37.988  1.00  0.00    -0.206 F 
ATOM     92  C   UNL A   1      39.548  35.680  38.880  1.00  0.00     0.060 A 
BRANCH  92  93
ATOM     93  S   UNL A   1      39.230  36.895  40.176  1.00  0.00     0.124 S 
ATOM     94  O   UNL A   1      38.310  36.168  41.043  1.00  0.00    -0.237 OA
ATOM     95  O   UNL A   1      40.564  37.128  40.721  1.00  0.00    -0.237 OA
ATOM     96  O   UNL A   1      38.653  38.022  39.450  1.00  0.00    -0.744 OA
ENDBRANCH  92  93
ENDBRANCH  60  85
ENDBRANCH  34  35
ENDBRANCH  27  29
ENDBRANCH  26  27
ENDBRANCH  25  26
ENDBRANCH  24  25
ENDBRANCH  23  24
ENDBRANCH   1  23
TORSDOF 21
ENDMDL
