MODEL 1
REMARK VINA RESULT:     -10.7      0.000      0.000
REMARK SMILES O=C(OCCOCCOCCOC(=O)[C@H]1C=NC2=C(CCCC2)C1=O)c1ccc(-c2c3nc(c(-c4c(F)cc(S(=O)(=O)[O-])cc4F)c4ccc([nH]4)c(-c4c(F)cc(S(=O)(=O)[O-])cc4F)c4nc(c(-c5c(F)cc(S(=O)(=O)[O-])cc5F)c5ccc2[nH]5)C=C4)C=C3)cc1
REMARK SMILES IDX 6 1 5 2 4 3 3 4 2 5 1 6 26 7 27 8 91 9 28 10 90 11 29 12
REMARK SMILES IDX 30 13 31 14 84 15 32 16 89 17 83 18 85 19 33 20 88 21 82 22
REMARK SMILES IDX 81 23 34 25 68 26 47 27 67 28 48 29 51 30 66 31 86 32 49 33
REMARK SMILES IDX 50 34 65 36 87 37 52 38 35 39 36 40 45 41 37 42 38 43 44 44
REMARK SMILES IDX 46 45 39 46 40 47 41 48 42 49 43 50 69 51 70 52 79 53 71 54
REMARK SMILES IDX 72 55 78 56 80 57 73 58 74 59 75 60 76 61 77 62 53 63 54 64
REMARK SMILES IDX 63 65 55 66 56 67 62 68 64 69 57 70 58 71 59 72 60 73 61 74
REMARK SMILES IDX 7 75 8 76 9 77 10 78 11 79 12 80 13 81 14 82 15 83 16 84
REMARK SMILES IDX 24 85 17 86 19 87 25 88 18 89 20 90 23 91 21 92 22 93
REMARK H PARENT 85 24 51 35
REMARK Flexibility Score: inf
ROOT
ATOM      1  O   UNL A   1      46.425  40.199  24.670  1.00  0.00    -0.376 OA
ENDROOT
BRANCH   1   2
ATOM      2  C   UNL A   1      47.026  39.647  25.846  1.00  0.00     0.202 C 
BRANCH   2   3
ATOM      3  C   UNL A   1      47.421  38.160  25.804  1.00  0.00     0.261 C 
BRANCH   3   4
ATOM      4  O   UNL A   1      47.382  37.480  27.072  1.00  0.00    -0.460 OA
BRANCH   4   5
ATOM      5  C   UNL A   1      46.380  36.758  27.632  1.00  0.00     0.338 C 
ATOM      6  O   UNL A   1      45.463  37.359  28.187  1.00  0.00    -0.246 OA
BRANCH   5   7
ATOM      7  C   UNL A   1      46.329  35.272  27.572  1.00  0.00     0.060 A 
ATOM      8  C   UNL A   1      45.988  34.529  26.444  1.00  0.00     0.016 A 
ATOM      9  C   UNL A   1      46.721  34.572  28.712  1.00  0.00     0.016 A 
ATOM     10  C   UNL A   1      45.824  33.146  26.483  1.00  0.00     0.010 A 
ATOM     11  C   UNL A   1      46.673  33.175  28.724  1.00  0.00     0.010 A 
ATOM     12  C   UNL A   1      46.144  32.449  27.633  1.00  0.00    -0.014 A 
BRANCH  12  13
ATOM     13  C   UNL A   1      45.815  31.011  27.821  1.00  0.00     0.031 A 
ATOM     14  C   UNL A   1      46.805  30.034  27.259  1.00  0.00     0.074 A 
ATOM     15  C   UNL A   1      44.696  30.554  28.424  1.00  0.00     0.049 A 
ATOM     16  N   UNL A   1      46.636  28.799  26.888  1.00  0.00    -0.248 NA
ATOM     17  C   UNL A   1      48.184  30.535  27.089  1.00  0.00     0.031 C 
ATOM     18  C   UNL A   1      43.762  31.319  29.249  1.00  0.00     0.029 A 
ATOM     19  N   UNL A   1      44.082  29.321  28.311  1.00  0.00    -0.354 N 
ATOM     20  C   UNL A   1      47.890  28.367  26.480  1.00  0.00     0.074 A 
ATOM     21  C   UNL A   1      48.774  29.508  26.500  1.00  0.00     0.031 C 
ATOM     22  C   UNL A   1      42.639  30.602  29.427  1.00  0.00     0.029 A 
ATOM     23  C   UNL A   1      42.742  29.378  28.660  1.00  0.00     0.049 A 
ATOM     24  H   UNL A   1      44.540  28.501  28.019  1.00  0.00     0.167 HD
ATOM     25  C   UNL A   1      48.277  27.103  26.201  1.00  0.00     0.037 A 
ATOM     26  C   UNL A   1      41.707  28.601  28.277  1.00  0.00     0.037 A 
ATOM     27  C   UNL A   1      47.361  26.000  26.217  1.00  0.00     0.049 A 
ATOM     28  C   UNL A   1      42.045  27.332  27.570  1.00  0.00     0.074 A 
ATOM     29  C   UNL A   1      47.610  24.655  26.035  1.00  0.00     0.029 A 
ATOM     30  N   UNL A   1      45.994  26.136  26.421  1.00  0.00    -0.354 N 
ATOM     31  N   UNL A   1      43.215  26.919  27.150  1.00  0.00    -0.248 NA
ATOM     32  C   UNL A   1      40.948  26.378  27.389  1.00  0.00     0.031 C 
ATOM     33  C   UNL A   1      46.382  23.985  26.071  1.00  0.00     0.029 A 
ATOM     34  C   UNL A   1      45.377  24.905  26.335  1.00  0.00     0.049 A 
ATOM     35  H   UNL A   1      45.531  26.986  26.601  1.00  0.00     0.167 HD
ATOM     36  C   UNL A   1      43.026  25.596  26.792  1.00  0.00     0.074 A 
ATOM     37  C   UNL A   1      41.606  25.324  26.929  1.00  0.00     0.031 C 
ATOM     38  C   UNL A   1      43.964  24.670  26.487  1.00  0.00     0.037 A 
BRANCH  25  39
ATOM     39  C   UNL A   1      49.731  26.888  25.892  1.00  0.00     0.058 A 
ATOM     40  C   UNL A   1      50.255  27.132  24.610  1.00  0.00     0.135 A 
ATOM     41  C   UNL A   1      50.600  26.377  26.866  1.00  0.00     0.135 A 
ATOM     42  F   UNL A   1      49.463  27.600  23.631  1.00  0.00    -0.206 F 
ATOM     43  C   UNL A   1      51.570  26.817  24.287  1.00  0.00     0.059 A 
ATOM     44  C   UNL A   1      51.930  26.088  26.576  1.00  0.00     0.059 A 
ATOM     45  F   UNL A   1      50.153  26.123  28.106  1.00  0.00    -0.206 F 
ATOM     46  C   UNL A   1      52.398  26.287  25.277  1.00  0.00     0.060 A 
BRANCH  46  47
ATOM     47  S   UNL A   1      54.088  25.841  24.831  1.00  0.00     0.124 S 
ATOM     48  O   UNL A   1      54.050  24.387  24.965  1.00  0.00    -0.237 OA
ATOM     49  O   UNL A   1      54.196  26.348  23.467  1.00  0.00    -0.237 OA
ATOM     50  O   UNL A   1      54.897  26.541  25.824  1.00  0.00    -0.744 OA
ENDBRANCH  46  47
ENDBRANCH  25  39
BRANCH  26  51
ATOM     51  C   UNL A   1      40.280  29.001  28.461  1.00  0.00     0.058 A 
ATOM     52  C   UNL A   1      39.645  29.018  29.706  1.00  0.00     0.135 A 
ATOM     53  C   UNL A   1      39.513  29.389  27.344  1.00  0.00     0.135 A 
ATOM     54  F   UNL A   1      40.301  28.594  30.796  1.00  0.00    -0.206 F 
ATOM     55  C   UNL A   1      38.332  29.471  29.852  1.00  0.00     0.059 A 
ATOM     56  C   UNL A   1      38.218  29.884  27.466  1.00  0.00     0.059 A 
ATOM     57  F   UNL A   1      40.052  29.339  26.115  1.00  0.00    -0.206 F 
ATOM     58  C   UNL A   1      37.635  29.927  28.730  1.00  0.00     0.060 A 
BRANCH  58  59
ATOM     59  S   UNL A   1      35.992  30.659  28.931  1.00  0.00     0.124 S 
ATOM     60  O   UNL A   1      36.099  31.852  28.101  1.00  0.00    -0.237 OA
ATOM     61  O   UNL A   1      35.114  29.608  28.426  1.00  0.00    -0.237 OA
ATOM     62  O   UNL A   1      35.912  30.890  30.371  1.00  0.00    -0.744 OA
ENDBRANCH  58  59
ENDBRANCH  26  51
BRANCH  38  63
ATOM     63  C   UNL A   1      43.499  23.252  26.439  1.00  0.00     0.058 A 
ATOM     64  C   UNL A   1      43.324  22.559  25.236  1.00  0.00     0.135 A 
ATOM     65  C   UNL A   1      43.276  22.571  27.646  1.00  0.00     0.135 A 
ATOM     66  F   UNL A   1      43.491  23.186  24.061  1.00  0.00    -0.206 F 
ATOM     67  C   UNL A   1      42.947  21.224  25.233  1.00  0.00     0.059 A 
ATOM     68  C   UNL A   1      42.934  21.230  27.667  1.00  0.00     0.059 A 
ATOM     69  F   UNL A   1      43.420  23.208  28.821  1.00  0.00    -0.206 F 
ATOM     70  C   UNL A   1      42.772  20.565  26.453  1.00  0.00     0.060 A 
BRANCH  70  71
ATOM     71  S   UNL A   1      42.383  18.806  26.434  1.00  0.00     0.124 S 
ATOM     72  O   UNL A   1      41.087  18.799  25.764  1.00  0.00    -0.237 OA
ATOM     73  O   UNL A   1      43.497  18.253  25.671  1.00  0.00    -0.237 OA
ATOM     74  O   UNL A   1      42.363  18.448  27.850  1.00  0.00    -0.744 OA
ENDBRANCH  70  71
ENDBRANCH  38  63
ENDBRANCH  12  13
ENDBRANCH   5   7
ENDBRANCH   4   5
ENDBRANCH   3   4
ENDBRANCH   2   3
ENDBRANCH   1   2
BRANCH   1  75
ATOM     75  C   UNL A   1      46.385  41.623  24.612  1.00  0.00     0.188 C 
BRANCH  75  76
ATOM     76  C   UNL A   1      44.993  42.196  24.873  1.00  0.00     0.188 C 
BRANCH  76  77
ATOM     77  O   UNL A   1      44.022  42.064  23.844  1.00  0.00    -0.376 OA
BRANCH  77  78
ATOM     78  C   UNL A   1      43.184  43.188  23.599  1.00  0.00     0.202 C 
BRANCH  78  79
ATOM     79  C   UNL A   1      41.791  42.970  22.976  1.00  0.00     0.261 C 
BRANCH  79  80
ATOM     80  O   UNL A   1      41.613  43.397  21.614  1.00  0.00    -0.462 OA
BRANCH  80  81
ATOM     81  C   UNL A   1      42.333  42.705  20.689  1.00  0.00     0.322 C 
ATOM     82  O   UNL A   1      42.780  41.569  20.865  1.00  0.00    -0.251 OA
BRANCH  81  83
ATOM     83  C   UNL A   1      42.477  43.427  19.387  1.00  0.00     0.212 C 
ATOM     84  C   UNL A   1      41.184  43.833  18.758  1.00  0.00     0.107 C 
ATOM     85  C   UNL A   1      43.421  44.577  19.459  1.00  0.00     0.180 C 
ATOM     86  N   UNL A   1      41.014  44.878  18.010  1.00  0.00    -0.264 NA
ATOM     87  C   UNL A   1      43.293  45.570  18.368  1.00  0.00     0.018 C 
ATOM     88  O   UNL A   1      44.300  44.677  20.307  1.00  0.00    -0.293 OA
ATOM     89  C   UNL A   1      42.106  45.669  17.747  1.00  0.00     0.047 C 
ATOM     90  C   UNL A   1      44.515  46.343  18.021  1.00  0.00     0.041 C 
ATOM     91  C   UNL A   1      41.891  46.685  16.646  1.00  0.00     0.056 C 
ATOM     92  C   UNL A   1      44.340  47.241  16.804  1.00  0.00     0.005 C 
ATOM     93  C   UNL A   1      42.938  47.788  16.610  1.00  0.00     0.007 C 
ENDBRANCH  81  83
ENDBRANCH  80  81
ENDBRANCH  79  80
ENDBRANCH  78  79
ENDBRANCH  77  78
ENDBRANCH  76  77
ENDBRANCH  75  76
ENDBRANCH   1  75
TORSDOF 20
ENDMDL
MODEL 2
REMARK VINA RESULT:     -10.2      6.069     13.517
REMARK SMILES O=C(OCCOCCOCCOC(=O)[C@H]1C=NC2=C(CCCC2)C1=O)c1ccc(-c2c3nc(c(-c4c(F)cc(S(=O)(=O)[O-])cc4F)c4ccc([nH]4)c(-c4c(F)cc(S(=O)(=O)[O-])cc4F)c4nc(c(-c5c(F)cc(S(=O)(=O)[O-])cc5F)c5ccc2[nH]5)C=C4)C=C3)cc1
REMARK SMILES IDX 6 1 5 2 4 3 3 4 2 5 1 6 26 7 27 8 91 9 28 10 90 11 29 12
REMARK SMILES IDX 30 13 31 14 84 15 32 16 89 17 83 18 85 19 33 20 88 21 82 22
REMARK SMILES IDX 81 23 34 25 68 26 47 27 67 28 48 29 51 30 66 31 86 32 49 33
REMARK SMILES IDX 50 34 65 36 87 37 52 38 35 39 36 40 45 41 37 42 38 43 44 44
REMARK SMILES IDX 46 45 39 46 40 47 41 48 42 49 43 50 69 51 70 52 79 53 71 54
REMARK SMILES IDX 72 55 78 56 80 57 73 58 74 59 75 60 76 61 77 62 53 63 54 64
REMARK SMILES IDX 63 65 55 66 56 67 62 68 64 69 57 70 58 71 59 72 60 73 61 74
REMARK SMILES IDX 7 75 8 76 9 77 10 78 11 79 12 80 13 81 14 82 15 83 16 84
REMARK SMILES IDX 24 85 17 86 19 87 25 88 18 89 20 90 23 91 21 92 22 93
REMARK H PARENT 85 24 51 35
REMARK Flexibility Score: inf
ROOT
ATOM      1  O   UNL A   1      32.323  29.333  26.853  1.00  0.00    -0.376 OA
ENDROOT
BRANCH   1   2
ATOM      2  C   UNL A   1      33.487  29.386  27.685  1.00  0.00     0.202 C 
BRANCH   2   3
ATOM      3  C   UNL A   1      34.711  30.143  27.137  1.00  0.00     0.261 C 
BRANCH   3   4
ATOM      4  O   UNL A   1      35.503  30.823  28.127  1.00  0.00    -0.460 OA
BRANCH   4   5
ATOM      5  C   UNL A   1      36.330  30.309  29.071  1.00  0.00     0.338 C 
ATOM      6  O   UNL A   1      35.853  29.983  30.156  1.00  0.00    -0.246 OA
BRANCH   5   7
ATOM      7  C   UNL A   1      37.783  30.092  28.835  1.00  0.00     0.060 A 
ATOM      8  C   UNL A   1      38.343  29.674  27.628  1.00  0.00     0.016 A 
ATOM      9  C   UNL A   1      38.655  30.398  29.879  1.00  0.00     0.016 A 
ATOM     10  C   UNL A   1      39.693  29.356  27.503  1.00  0.00     0.010 A 
ATOM     11  C   UNL A   1      40.029  30.193  29.724  1.00  0.00     0.010 A 
ATOM     12  C   UNL A   1      40.554  29.591  28.559  1.00  0.00    -0.014 A 
BRANCH  12  13
ATOM     13  C   UNL A   1      41.959  29.103  28.576  1.00  0.00     0.031 A 
ATOM     14  C   UNL A   1      43.020  30.150  28.407  1.00  0.00     0.074 A 
ATOM     15  C   UNL A   1      42.317  27.806  28.702  1.00  0.00     0.049 A 
ATOM     16  N   UNL A   1      44.239  30.035  27.972  1.00  0.00    -0.248 NA
ATOM     17  C   UNL A   1      42.635  31.526  28.781  1.00  0.00     0.031 C 
ATOM     18  C   UNL A   1      41.470  26.693  29.131  1.00  0.00     0.029 A 
ATOM     19  N   UNL A   1      43.497  27.184  28.338  1.00  0.00    -0.354 N 
ATOM     20  C   UNL A   1      44.777  31.312  28.057  1.00  0.00     0.074 A 
ATOM     21  C   UNL A   1      43.712  32.211  28.435  1.00  0.00     0.031 C 
ATOM     22  C   UNL A   1      42.091  25.533  28.855  1.00  0.00     0.029 A 
ATOM     23  C   UNL A   1      43.326  25.820  28.156  1.00  0.00     0.049 A 
ATOM     24  H   UNL A   1      44.354  27.652  28.221  1.00  0.00     0.167 HD
ATOM     25  C   UNL A   1      46.071  31.675  27.916  1.00  0.00     0.037 A 
ATOM     26  C   UNL A   1      44.018  24.948  27.394  1.00  0.00     0.037 A 
ATOM     27  C   UNL A   1      47.095  30.735  27.560  1.00  0.00     0.049 A 
ATOM     28  C   UNL A   1      45.317  25.427  26.837  1.00  0.00     0.074 A 
ATOM     29  C   UNL A   1      48.457  30.927  27.455  1.00  0.00     0.029 A 
ATOM     30  N   UNL A   1      46.845  29.408  27.236  1.00  0.00    -0.354 N 
ATOM     31  N   UNL A   1      45.829  26.631  26.880  1.00  0.00    -0.248 NA
ATOM     32  C   UNL A   1      46.180  24.407  26.234  1.00  0.00     0.031 C 
ATOM     33  C   UNL A   1      49.024  29.727  27.010  1.00  0.00     0.029 A 
ATOM     34  C   UNL A   1      48.021  28.774  26.896  1.00  0.00     0.049 A 
ATOM     35  H   UNL A   1      45.958  28.981  27.249  1.00  0.00     0.167 HD
ATOM     36  C   UNL A   1      47.135  26.487  26.448  1.00  0.00     0.074 A 
ATOM     37  C   UNL A   1      47.289  25.104  26.033  1.00  0.00     0.031 C 
ATOM     38  C   UNL A   1      48.139  27.394  26.498  1.00  0.00     0.037 A 
BRANCH  25  39
ATOM     39  C   UNL A   1      46.407  33.115  28.174  1.00  0.00     0.058 A 
ATOM     40  C   UNL A   1      46.354  34.078  27.151  1.00  0.00     0.135 A 
ATOM     41  C   UNL A   1      46.846  33.531  29.439  1.00  0.00     0.135 A 
ATOM     42  F   UNL A   1      45.962  33.732  25.913  1.00  0.00    -0.206 F 
ATOM     43  C   UNL A   1      46.782  35.385  27.355  1.00  0.00     0.059 A 
ATOM     44  C   UNL A   1      47.247  34.843  29.676  1.00  0.00     0.059 A 
ATOM     45  F   UNL A   1      46.920  32.653  30.453  1.00  0.00    -0.206 F 
ATOM     46  C   UNL A   1      47.236  35.754  28.621  1.00  0.00     0.060 A 
BRANCH  46  47
ATOM     47  S   UNL A   1      47.833  37.440  28.858  1.00  0.00     0.124 S 
ATOM     48  O   UNL A   1      49.265  37.219  29.035  1.00  0.00    -0.237 OA
ATOM     49  O   UNL A   1      47.442  38.089  27.611  1.00  0.00    -0.237 OA
ATOM     50  O   UNL A   1      47.115  37.890  30.047  1.00  0.00    -0.744 OA
ENDBRANCH  46  47
ENDBRANCH  25  39
BRANCH  26  51
ATOM     51  C   UNL A   1      43.501  23.595  27.034  1.00  0.00     0.058 A 
ATOM     52  C   UNL A   1      42.973  23.288  25.776  1.00  0.00     0.135 A 
ATOM     53  C   UNL A   1      43.539  22.556  27.985  1.00  0.00     0.135 A 
ATOM     54  F   UNL A   1      42.847  24.251  24.852  1.00  0.00    -0.206 F 
ATOM     55  C   UNL A   1      42.570  21.992  25.449  1.00  0.00     0.059 A 
ATOM     56  C   UNL A   1      43.183  21.247  27.672  1.00  0.00     0.059 A 
ATOM     57  F   UNL A   1      43.984  22.804  29.227  1.00  0.00    -0.206 F 
ATOM     58  C   UNL A   1      42.703  20.972  26.395  1.00  0.00     0.060 A 
BRANCH  58  59
ATOM     59  S   UNL A   1      42.328  19.263  25.930  1.00  0.00     0.124 S 
ATOM     60  O   UNL A   1      42.633  18.551  27.164  1.00  0.00    -0.237 OA
ATOM     61  O   UNL A   1      40.917  19.336  25.567  1.00  0.00    -0.237 OA
ATOM     62  O   UNL A   1      43.240  19.022  24.814  1.00  0.00    -0.744 OA
ENDBRANCH  58  59
ENDBRANCH  26  51
BRANCH  38  63
ATOM     63  C   UNL A   1      49.513  26.871  26.246  1.00  0.00     0.058 A 
ATOM     64  C   UNL A   1      50.251  26.195  27.224  1.00  0.00     0.135 A 
ATOM     65  C   UNL A   1      50.070  27.018  24.966  1.00  0.00     0.135 A 
ATOM     66  F   UNL A   1      49.769  26.067  28.470  1.00  0.00    -0.206 F 
ATOM     67  C   UNL A   1      51.503  25.672  26.936  1.00  0.00     0.059 A 
ATOM     68  C   UNL A   1      51.303  26.474  24.646  1.00  0.00     0.059 A 
ATOM     69  F   UNL A   1      49.398  27.675  24.005  1.00  0.00    -0.206 F 
ATOM     70  C   UNL A   1      52.012  25.802  25.640  1.00  0.00     0.060 A 
BRANCH  70  71
ATOM     71  S   UNL A   1      53.592  25.029  25.253  1.00  0.00     0.124 S 
ATOM     72  O   UNL A   1      53.257  23.612  25.348  1.00  0.00    -0.237 OA
ATOM     73  O   UNL A   1      53.858  25.530  23.908  1.00  0.00    -0.237 OA
ATOM     74  O   UNL A   1      54.482  25.538  26.292  1.00  0.00    -0.744 OA
ENDBRANCH  70  71
ENDBRANCH  38  63
ENDBRANCH  12  13
ENDBRANCH   5   7
ENDBRANCH   4   5
ENDBRANCH   3   4
ENDBRANCH   2   3
ENDBRANCH   1   2
BRANCH   1  75
ATOM     75  C   UNL A   1      32.556  29.515  25.459  1.00  0.00     0.188 C 
BRANCH  75  76
ATOM     76  C   UNL A   1      31.365  29.108  24.592  1.00  0.00     0.188 C 
BRANCH  76  77
ATOM     77  O   UNL A   1      31.557  28.051  23.663  1.00  0.00    -0.376 OA
BRANCH  77  78
ATOM     78  C   UNL A   1      30.399  27.327  23.260  1.00  0.00     0.202 C 
BRANCH  78  79
ATOM     79  C   UNL A   1      29.700  26.396  24.270  1.00  0.00     0.261 C 
BRANCH  79  80
ATOM     80  O   UNL A   1      30.487  25.323  24.818  1.00  0.00    -0.462 OA
BRANCH  80  81
ATOM     81  C   UNL A   1      31.002  25.553  26.057  1.00  0.00     0.322 C 
ATOM     82  O   UNL A   1      30.584  26.416  26.833  1.00  0.00    -0.251 OA
BRANCH  81  83
ATOM     83  C   UNL A   1      32.095  24.603  26.430  1.00  0.00     0.212 C 
ATOM     84  C   UNL A   1      31.728  23.160  26.313  1.00  0.00     0.107 C 
ATOM     85  C   UNL A   1      33.379  24.887  25.731  1.00  0.00     0.180 C 
ATOM     86  N   UNL A   1      32.552  22.201  26.026  1.00  0.00    -0.264 NA
ATOM     87  C   UNL A   1      34.353  23.772  25.718  1.00  0.00     0.018 C 
ATOM     88  O   UNL A   1      33.664  25.982  25.261  1.00  0.00    -0.293 OA
ATOM     89  C   UNL A   1      33.875  22.522  25.837  1.00  0.00     0.047 C 
ATOM     90  C   UNL A   1      35.790  24.140  25.623  1.00  0.00     0.041 C 
ATOM     91  C   UNL A   1      34.806  21.330  25.796  1.00  0.00     0.056 C 
ATOM     92  C   UNL A   1      36.731  22.950  25.753  1.00  0.00     0.005 C 
ATOM     93  C   UNL A   1      36.181  21.639  25.223  1.00  0.00     0.007 C 
ENDBRANCH  81  83
ENDBRANCH  80  81
ENDBRANCH  79  80
ENDBRANCH  78  79
ENDBRANCH  77  78
ENDBRANCH  76  77
ENDBRANCH  75  76
ENDBRANCH   1  75
TORSDOF 20
ENDMDL
MODEL 3
REMARK VINA RESULT:     -10.2      9.462     14.060
REMARK SMILES O=C(OCCOCCOCCOC(=O)[C@H]1C=NC2=C(CCCC2)C1=O)c1ccc(-c2c3nc(c(-c4c(F)cc(S(=O)(=O)[O-])cc4F)c4ccc([nH]4)c(-c4c(F)cc(S(=O)(=O)[O-])cc4F)c4nc(c(-c5c(F)cc(S(=O)(=O)[O-])cc5F)c5ccc2[nH]5)C=C4)C=C3)cc1
REMARK SMILES IDX 6 1 5 2 4 3 3 4 2 5 1 6 26 7 27 8 91 9 28 10 90 11 29 12
REMARK SMILES IDX 30 13 31 14 84 15 32 16 89 17 83 18 85 19 33 20 88 21 82 22
REMARK SMILES IDX 81 23 34 25 68 26 47 27 67 28 48 29 51 30 66 31 86 32 49 33
REMARK SMILES IDX 50 34 65 36 87 37 52 38 35 39 36 40 45 41 37 42 38 43 44 44
REMARK SMILES IDX 46 45 39 46 40 47 41 48 42 49 43 50 69 51 70 52 79 53 71 54
REMARK SMILES IDX 72 55 78 56 80 57 73 58 74 59 75 60 76 61 77 62 53 63 54 64
REMARK SMILES IDX 63 65 55 66 56 67 62 68 64 69 57 70 58 71 59 72 60 73 61 74
REMARK SMILES IDX 7 75 8 76 9 77 10 78 11 79 12 80 13 81 14 82 15 83 16 84
REMARK SMILES IDX 24 85 17 86 19 87 25 88 18 89 20 90 23 91 21 92 22 93
REMARK H PARENT 85 24 51 35
REMARK Flexibility Score: inf
ROOT
ATOM      1  O   UNL A   1      31.064  29.505  24.942  1.00  0.00    -0.376 OA
ENDROOT
BRANCH   1   2
ATOM      2  C   UNL A   1      32.488  29.651  24.936  1.00  0.00     0.202 C 
BRANCH   2   3
ATOM      3  C   UNL A   1      33.264  29.037  26.115  1.00  0.00     0.261 C 
BRANCH   3   4
ATOM      4  O   UNL A   1      33.442  29.905  27.249  1.00  0.00    -0.460 OA
BRANCH   4   5
ATOM      5  C   UNL A   1      34.386  30.855  27.467  1.00  0.00     0.338 C 
ATOM      6  O   UNL A   1      34.077  32.035  27.315  1.00  0.00    -0.246 OA
BRANCH   5   7
ATOM      7  C   UNL A   1      35.768  30.528  27.911  1.00  0.00     0.060 A 
ATOM      8  C   UNL A   1      36.346  29.261  27.854  1.00  0.00     0.016 A 
ATOM      9  C   UNL A   1      36.565  31.583  28.354  1.00  0.00     0.016 A 
ATOM     10  C   UNL A   1      37.593  28.985  28.410  1.00  0.00     0.010 A 
ATOM     11  C   UNL A   1      37.864  31.334  28.806  1.00  0.00     0.010 A 
ATOM     12  C   UNL A   1      38.363  30.017  28.915  1.00  0.00    -0.014 A 
BRANCH  12  13
ATOM     13  C   UNL A   1      39.608  29.785  29.696  1.00  0.00     0.031 A 
ATOM     14  C   UNL A   1      40.468  28.646  29.236  1.00  0.00     0.074 A 
ATOM     15  C   UNL A   1      39.977  30.504  30.779  1.00  0.00     0.049 A 
ATOM     16  N   UNL A   1      41.337  27.941  29.897  1.00  0.00    -0.248 NA
ATOM     17  C   UNL A   1      40.312  28.247  27.822  1.00  0.00     0.031 C 
ATOM     18  C   UNL A   1      39.428  31.786  31.218  1.00  0.00     0.029 A 
ATOM     19  N   UNL A   1      40.842  30.164  31.802  1.00  0.00    -0.354 N 
ATOM     20  C   UNL A   1      41.857  27.045  28.973  1.00  0.00     0.074 A 
ATOM     21  C   UNL A   1      41.101  27.188  27.751  1.00  0.00     0.031 C 
ATOM     22  C   UNL A   1      39.839  32.038  32.472  1.00  0.00     0.029 A 
ATOM     23  C   UNL A   1      40.600  30.903  32.949  1.00  0.00     0.049 A 
ATOM     24  H   UNL A   1      41.546  29.480  31.725  1.00  0.00     0.167 HD
ATOM     25  C   UNL A   1      42.933  26.241  29.116  1.00  0.00     0.037 A 
ATOM     26  C   UNL A   1      40.847  30.611  34.243  1.00  0.00     0.037 A 
ATOM     27  C   UNL A   1      43.664  26.153  30.348  1.00  0.00     0.049 A 
ATOM     28  C   UNL A   1      41.732  29.439  34.511  1.00  0.00     0.074 A 
ATOM     29  C   UNL A   1      44.816  25.449  30.631  1.00  0.00     0.029 A 
ATOM     30  N   UNL A   1      43.285  26.799  31.518  1.00  0.00    -0.354 N 
ATOM     31  N   UNL A   1      42.209  28.566  33.659  1.00  0.00    -0.248 NA
ATOM     32  C   UNL A   1      42.203  29.283  35.889  1.00  0.00     0.031 C 
ATOM     33  C   UNL A   1      45.101  25.624  31.990  1.00  0.00     0.029 A 
ATOM     34  C   UNL A   1      44.159  26.484  32.537  1.00  0.00     0.049 A 
ATOM     35  H   UNL A   1      42.507  27.395  31.606  1.00  0.00     0.167 HD
ATOM     36  C   UNL A   1      43.156  27.848  34.367  1.00  0.00     0.074 A 
ATOM     37  C   UNL A   1      43.089  28.309  35.742  1.00  0.00     0.031 C 
ATOM     38  C   UNL A   1      44.068  26.969  33.891  1.00  0.00     0.037 A 
BRANCH  25  39
ATOM     39  C   UNL A   1      43.358  25.449  27.914  1.00  0.00     0.058 A 
ATOM     40  C   UNL A   1      43.048  24.083  27.786  1.00  0.00     0.135 A 
ATOM     41  C   UNL A   1      44.134  26.039  26.907  1.00  0.00     0.135 A 
ATOM     42  F   UNL A   1      42.326  23.460  28.731  1.00  0.00    -0.206 F 
ATOM     43  C   UNL A   1      43.543  23.318  26.736  1.00  0.00     0.059 A 
ATOM     44  C   UNL A   1      44.612  25.300  25.829  1.00  0.00     0.059 A 
ATOM     45  F   UNL A   1      44.464  27.338  26.980  1.00  0.00    -0.206 F 
ATOM     46  C   UNL A   1      44.334  23.935  25.767  1.00  0.00     0.060 A 
BRANCH  46  47
ATOM     47  S   UNL A   1      45.008  22.920  24.437  1.00  0.00     0.124 S 
ATOM     48  O   UNL A   1      46.039  23.800  23.894  1.00  0.00    -0.237 OA
ATOM     49  O   UNL A   1      45.493  21.745  25.156  1.00  0.00    -0.237 OA
ATOM     50  O   UNL A   1      43.858  22.689  23.568  1.00  0.00    -0.744 OA
ENDBRANCH  46  47
ENDBRANCH  25  39
BRANCH  26  51
ATOM     51  C   UNL A   1      40.215  31.348  35.378  1.00  0.00     0.058 A 
ATOM     52  C   UNL A   1      38.891  31.144  35.778  1.00  0.00     0.135 A 
ATOM     53  C   UNL A   1      40.966  32.295  36.101  1.00  0.00     0.135 A 
ATOM     54  F   UNL A   1      38.105  30.307  35.086  1.00  0.00    -0.206 F 
ATOM     55  C   UNL A   1      38.356  31.794  36.892  1.00  0.00     0.059 A 
ATOM     56  C   UNL A   1      40.471  32.925  37.240  1.00  0.00     0.059 A 
ATOM     57  F   UNL A   1      42.225  32.573  35.729  1.00  0.00    -0.206 F 
ATOM     58  C   UNL A   1      39.161  32.663  37.632  1.00  0.00     0.060 A 
BRANCH  58  59
ATOM     59  S   UNL A   1      38.526  33.390  39.163  1.00  0.00     0.124 S 
ATOM     60  O   UNL A   1      38.878  34.794  38.989  1.00  0.00    -0.237 OA
ATOM     61  O   UNL A   1      37.102  33.077  39.096  1.00  0.00    -0.237 OA
ATOM     62  O   UNL A   1      39.267  32.672  40.197  1.00  0.00    -0.744 OA
ENDBRANCH  58  59
ENDBRANCH  26  51
BRANCH  38  63
ATOM     63  C   UNL A   1      45.159  26.577  34.830  1.00  0.00     0.058 A 
ATOM     64  C   UNL A   1      46.322  27.337  34.991  1.00  0.00     0.135 A 
ATOM     65  C   UNL A   1      44.993  25.428  35.620  1.00  0.00     0.135 A 
ATOM     66  F   UNL A   1      46.535  28.421  34.228  1.00  0.00    -0.206 F 
ATOM     67  C   UNL A   1      47.289  26.973  35.916  1.00  0.00     0.059 A 
ATOM     68  C   UNL A   1      45.928  25.065  36.575  1.00  0.00     0.059 A 
ATOM     69  F   UNL A   1      43.896  24.664  35.483  1.00  0.00    -0.206 F 
ATOM     70  C   UNL A   1      47.074  25.845  36.715  1.00  0.00     0.060 A 
BRANCH  70  71
ATOM     71  S   UNL A   1      48.288  25.442  37.982  1.00  0.00     0.124 S 
ATOM     72  O   UNL A   1      48.513  24.023  37.733  1.00  0.00    -0.237 OA
ATOM     73  O   UNL A   1      49.394  26.331  37.642  1.00  0.00    -0.237 OA
ATOM     74  O   UNL A   1      47.597  25.761  39.228  1.00  0.00    -0.744 OA
ENDBRANCH  70  71
ENDBRANCH  38  63
ENDBRANCH  12  13
ENDBRANCH   5   7
ENDBRANCH   4   5
ENDBRANCH   3   4
ENDBRANCH   2   3
ENDBRANCH   1   2
BRANCH   1  75
ATOM     75  C   UNL A   1      30.519  28.760  23.856  1.00  0.00     0.188 C 
BRANCH  75  76
ATOM     76  C   UNL A   1      30.384  27.268  24.157  1.00  0.00     0.188 C 
BRANCH  76  77
ATOM     77  O   UNL A   1      30.861  26.353  23.181  1.00  0.00    -0.376 OA
BRANCH  77  78
ATOM     78  C   UNL A   1      31.598  26.897  22.091  1.00  0.00     0.202 C 
BRANCH  78  79
ATOM     79  C   UNL A   1      33.139  26.920  22.158  1.00  0.00     0.261 C 
BRANCH  79  80
ATOM     80  O   UNL A   1      33.810  25.649  22.128  1.00  0.00    -0.462 OA
BRANCH  80  81
ATOM     81  C   UNL A   1      34.031  25.079  23.344  1.00  0.00     0.322 C 
ATOM     82  O   UNL A   1      33.988  25.690  24.415  1.00  0.00    -0.251 OA
BRANCH  81  83
ATOM     83  C   UNL A   1      34.264  23.603  23.275  1.00  0.00     0.212 C 
ATOM     84  C   UNL A   1      35.312  23.097  24.210  1.00  0.00     0.107 C 
ATOM     85  C   UNL A   1      33.010  22.809  23.395  1.00  0.00     0.180 C 
ATOM     86  N   UNL A   1      35.324  21.919  24.750  1.00  0.00    -0.264 NA
ATOM     87  C   UNL A   1      33.195  21.385  23.756  1.00  0.00     0.018 C 
ATOM     88  O   UNL A   1      31.899  23.259  23.142  1.00  0.00    -0.293 OA
ATOM     89  C   UNL A   1      34.311  21.049  24.424  1.00  0.00     0.047 C 
ATOM     90  C   UNL A   1      32.145  20.437  23.301  1.00  0.00     0.041 C 
ATOM     91  C   UNL A   1      34.553  19.619  24.858  1.00  0.00     0.056 C 
ATOM     92  C   UNL A   1      32.474  18.979  23.592  1.00  0.00     0.005 C 
ATOM     93  C   UNL A   1      33.305  18.749  24.840  1.00  0.00     0.007 C 
ENDBRANCH  81  83
ENDBRANCH  80  81
ENDBRANCH  79  80
ENDBRANCH  78  79
ENDBRANCH  77  78
ENDBRANCH  76  77
ENDBRANCH  75  76
ENDBRANCH   1  75
TORSDOF 20
ENDMDL
