MODEL 1
REMARK VINA RESULT:      -8.8      0.000      0.000
REMARK SMILES O=C(CCC(=O)N1CCN(S(=O)(=O)c2cccs2)CC1)OCCOCCOCCOC(=O)c1ccc(-c2c3nc(c(-c4c(F)cc(S(=O)(=O)[O-])cc4F)c4ccc([nH]4)c(-c4c(F)cc(S(=O)(=O)[O-])cc4F)c4nc(c(-c5c(F)cc(S(=O)(=O)[O-])cc5F)c5ccc2[nH]5)C=C4)C=C3)cc1
REMARK SMILES IDX 25 1 24 2 23 3 22 4 21 5 2 6 1 7 3 8 4 9 5 10 6 11 7 12 8 13
REMARK SMILES IDX 20 14 9 15 19 16 10 17 11 18 12 19 13 20 14 21 15 22 18 23
REMARK SMILES IDX 16 24 17 25 26 26 27 27 28 28 29 29 30 30 31 31 32 32 33 33
REMARK SMILES IDX 34 34 98 35 35 36 97 37 36 38 37 39 38 40 91 41 39 42 96 43
REMARK SMILES IDX 90 44 92 45 40 46 95 47 89 48 88 49 41 51 75 52 54 53 74 54
REMARK SMILES IDX 55 55 58 56 73 57 93 58 56 59 57 60 72 62 94 63 59 64 42 65
REMARK SMILES IDX 43 66 52 67 44 68 45 69 51 70 53 71 46 72 47 73 48 74 49 75
REMARK SMILES IDX 50 76 76 77 77 78 86 79 78 80 79 81 85 82 87 83 80 84 81 85
REMARK SMILES IDX 82 86 83 87 84 88 60 89 61 90 70 91 62 92 63 93 69 94 71 95
REMARK SMILES IDX 64 96 65 97 66 98 67 99 68 100
REMARK H PARENT 92 50 58 61
REMARK Flexibility Score: inf
ROOT
ATOM      1  C   UNL A   1      42.571  22.442  27.911  1.00  0.00     0.188 C 
ENDROOT
BRANCH   1   2
ATOM      2  O   UNL A   1      41.226  22.016  28.049  1.00  0.00    -0.376 OA
BRANCH   2   3
ATOM      3  C   UNL A   1      40.345  22.365  26.995  1.00  0.00     0.202 C 
BRANCH   3   4
ATOM      4  C   UNL A   1      39.706  21.187  26.276  1.00  0.00     0.261 C 
BRANCH   4   5
ATOM      5  O   UNL A   1      38.419  21.450  25.662  1.00  0.00    -0.463 OA
BRANCH   5   6
ATOM      6  C   UNL A   1      37.510  20.634  25.099  1.00  0.00     0.306 C 
ATOM      7  O   UNL A   1      37.876  19.557  24.631  1.00  0.00    -0.252 OA
BRANCH   6   8
ATOM      8  C   UNL A   1      36.069  21.018  25.092  1.00  0.00     0.132 C 
BRANCH   8   9
ATOM      9  C   UNL A   1      35.781  22.304  25.839  1.00  0.00     0.112 C 
BRANCH   9  10
ATOM     10  C   UNL A   1      35.039  23.361  25.044  1.00  0.00     0.223 C 
ATOM     11  O   UNL A   1      35.688  24.224  24.447  1.00  0.00    -0.275 OA
ATOM     12  N   UNL A   1      33.644  23.336  25.002  1.00  0.00    -0.340 N 
ATOM     13  C   UNL A   1      33.004  24.330  24.133  1.00  0.00     0.136 C 
ATOM     14  C   UNL A   1      32.811  22.774  26.077  1.00  0.00     0.136 C 
ATOM     15  C   UNL A   1      31.524  24.035  23.843  1.00  0.00     0.124 C 
ATOM     16  C   UNL A   1      31.324  22.599  25.793  1.00  0.00     0.124 C 
ATOM     17  N   UNL A   1      30.741  23.778  25.099  1.00  0.00    -0.194 NA
BRANCH  17  18
ATOM     18  S   UNL A   1      30.432  25.197  26.003  1.00  0.00     0.252 S 
ATOM     19  O   UNL A   1      29.136  25.051  26.644  1.00  0.00    -0.206 OA
ATOM     20  O   UNL A   1      31.605  25.458  26.803  1.00  0.00    -0.206 OA
BRANCH  18  21
ATOM     21  C   UNL A   1      30.200  26.605  24.937  1.00  0.00     0.135 A 
ATOM     22  C   UNL A   1      30.981  27.729  24.730  1.00  0.00     0.033 A 
ATOM     23  S   UNL A   1      28.833  26.600  23.911  1.00  0.00    -0.131 S 
ATOM     24  C   UNL A   1      30.484  28.555  23.681  1.00  0.00     0.013 A 
ATOM     25  C   UNL A   1      29.330  28.042  23.131  1.00  0.00     0.066 A 
ENDBRANCH  18  21
ENDBRANCH  17  18
ENDBRANCH   9  10
ENDBRANCH   8   9
ENDBRANCH   6   8
ENDBRANCH   5   6
ENDBRANCH   4   5
ENDBRANCH   3   4
ENDBRANCH   2   3
ENDBRANCH   1   2
BRANCH   1  26
ATOM     26  C   UNL A   1      42.769  23.877  27.354  1.00  0.00     0.188 C 
BRANCH  26  27
ATOM     27  O   UNL A   1      43.201  24.080  26.014  1.00  0.00    -0.376 OA
BRANCH  27  28
ATOM     28  C   UNL A   1      42.671  25.168  25.270  1.00  0.00     0.202 C 
BRANCH  28  29
ATOM     29  C   UNL A   1      41.361  25.840  25.723  1.00  0.00     0.261 C 
BRANCH  29  30
ATOM     30  O   UNL A   1      41.493  26.850  26.741  1.00  0.00    -0.460 OA
BRANCH  30  31
ATOM     31  C   UNL A   1      40.420  27.028  27.556  1.00  0.00     0.338 C 
ATOM     32  O   UNL A   1      39.450  26.295  27.649  1.00  0.00    -0.246 OA
BRANCH  31  33
ATOM     33  C   UNL A   1      40.697  28.125  28.523  1.00  0.00     0.060 A 
ATOM     34  C   UNL A   1      39.909  29.286  28.443  1.00  0.00     0.016 A 
ATOM     35  C   UNL A   1      41.665  28.010  29.525  1.00  0.00     0.016 A 
ATOM     36  C   UNL A   1      40.114  30.348  29.325  1.00  0.00     0.010 A 
ATOM     37  C   UNL A   1      41.895  29.092  30.388  1.00  0.00     0.010 A 
ATOM     38  C   UNL A   1      41.155  30.283  30.260  1.00  0.00    -0.014 A 
BRANCH  38  39
ATOM     39  C   UNL A   1      41.661  31.549  30.857  1.00  0.00     0.031 A 
ATOM     40  C   UNL A   1      41.041  31.987  32.161  1.00  0.00     0.074 A 
ATOM     41  C   UNL A   1      42.663  32.267  30.315  1.00  0.00     0.049 A 
ATOM     42  N   UNL A   1      41.266  33.059  32.876  1.00  0.00    -0.248 NA
ATOM     43  C   UNL A   1      40.024  31.086  32.734  1.00  0.00     0.031 C 
ATOM     44  C   UNL A   1      43.389  31.927  29.094  1.00  0.00     0.029 A 
ATOM     45  N   UNL A   1      43.236  33.446  30.729  1.00  0.00    -0.354 N 
ATOM     46  C   UNL A   1      40.422  32.958  33.977  1.00  0.00     0.074 A 
ATOM     47  C   UNL A   1      39.652  31.747  33.817  1.00  0.00     0.031 C 
ATOM     48  C   UNL A   1      44.301  32.889  28.848  1.00  0.00     0.029 A 
ATOM     49  C   UNL A   1      44.204  33.923  29.878  1.00  0.00     0.049 A 
ATOM     50  H   UNL A   1      42.978  33.905  31.561  1.00  0.00     0.167 HD
ATOM     51  C   UNL A   1      40.307  33.790  35.039  1.00  0.00     0.037 A 
ATOM     52  C   UNL A   1      44.912  35.073  29.916  1.00  0.00     0.037 A 
ATOM     53  C   UNL A   1      41.063  35.003  35.195  1.00  0.00     0.049 A 
ATOM     54  C   UNL A   1      44.699  36.037  31.063  1.00  0.00     0.074 A 
ATOM     55  C   UNL A   1      41.009  35.923  36.226  1.00  0.00     0.029 A 
ATOM     56  N   UNL A   1      42.007  35.468  34.291  1.00  0.00    -0.354 N 
ATOM     57  N   UNL A   1      43.905  35.926  32.102  1.00  0.00    -0.248 NA
ATOM     58  C   UNL A   1      45.485  37.281  31.043  1.00  0.00     0.031 C 
ATOM     59  C   UNL A   1      41.885  36.970  35.922  1.00  0.00     0.029 A 
ATOM     60  C   UNL A   1      42.528  36.673  34.731  1.00  0.00     0.049 A 
ATOM     61  H   UNL A   1      42.267  35.009  33.460  1.00  0.00     0.167 HD
ATOM     62  C   UNL A   1      44.123  37.065  32.874  1.00  0.00     0.074 A 
ATOM     63  C   UNL A   1      45.132  37.846  32.189  1.00  0.00     0.031 C 
ATOM     64  C   UNL A   1      43.545  37.432  34.046  1.00  0.00     0.037 A 
BRANCH  51  65
ATOM     65  C   UNL A   1      39.307  33.423  36.100  1.00  0.00     0.058 A 
ATOM     66  C   UNL A   1      39.690  32.763  37.279  1.00  0.00     0.135 A 
ATOM     67  C   UNL A   1      37.951  33.751  35.944  1.00  0.00     0.135 A 
ATOM     68  F   UNL A   1      40.970  32.401  37.467  1.00  0.00    -0.206 F 
ATOM     69  C   UNL A   1      38.761  32.419  38.255  1.00  0.00     0.059 A 
ATOM     70  C   UNL A   1      37.009  33.445  36.922  1.00  0.00     0.059 A 
ATOM     71  F   UNL A   1      37.529  34.374  34.833  1.00  0.00    -0.206 F 
ATOM     72  C   UNL A   1      37.422  32.768  38.068  1.00  0.00     0.060 A 
BRANCH  72  73
ATOM     73  S   UNL A   1      36.231  32.326  39.350  1.00  0.00     0.124 S 
ATOM     74  O   UNL A   1      36.861  32.891  40.540  1.00  0.00    -0.237 OA
ATOM     75  O   UNL A   1      35.019  32.999  38.894  1.00  0.00    -0.237 OA
ATOM     76  O   UNL A   1      36.195  30.868  39.293  1.00  0.00    -0.744 OA
ENDBRANCH  72  73
ENDBRANCH  51  65
BRANCH  52  77
ATOM     77  C   UNL A   1      45.876  35.405  28.828  1.00  0.00     0.058 A 
ATOM     78  C   UNL A   1      47.230  35.044  28.915  1.00  0.00     0.135 A 
ATOM     79  C   UNL A   1      45.470  36.129  27.695  1.00  0.00     0.135 A 
ATOM     80  F   UNL A   1      47.675  34.368  29.984  1.00  0.00    -0.206 F 
ATOM     81  C   UNL A   1      48.148  35.406  27.933  1.00  0.00     0.059 A 
ATOM     82  C   UNL A   1      46.364  36.477  26.686  1.00  0.00     0.059 A 
ATOM     83  F   UNL A   1      44.187  36.498  27.557  1.00  0.00    -0.206 F 
ATOM     84  C   UNL A   1      47.705  36.122  26.820  1.00  0.00     0.060 A 
BRANCH  84  85
ATOM     85  S   UNL A   1      48.897  36.553  25.533  1.00  0.00     0.124 S 
ATOM     86  O   UNL A   1      48.895  35.348  24.713  1.00  0.00    -0.237 OA
ATOM     87  O   UNL A   1      48.284  37.736  24.934  1.00  0.00    -0.237 OA
ATOM     88  O   UNL A   1      50.123  36.805  26.284  1.00  0.00    -0.744 OA
ENDBRANCH  84  85
ENDBRANCH  52  77
BRANCH  64  89
ATOM     89  C   UNL A   1      44.018  38.707  34.695  1.00  0.00     0.058 A 
ATOM     90  C   UNL A   1      43.571  39.968  34.271  1.00  0.00     0.135 A 
ATOM     91  C   UNL A   1      44.895  38.659  35.792  1.00  0.00     0.135 A 
ATOM     92  F   UNL A   1      42.734  40.073  33.228  1.00  0.00    -0.206 F 
ATOM     93  C   UNL A   1      43.999  41.138  34.893  1.00  0.00     0.059 A 
ATOM     94  C   UNL A   1      45.310  39.813  36.449  1.00  0.00     0.059 A 
ATOM     95  F   UNL A   1      45.343  37.479  36.249  1.00  0.00    -0.206 F 
ATOM     96  C   UNL A   1      44.869  41.050  35.981  1.00  0.00     0.060 A 
BRANCH  96  97
ATOM     97  S   UNL A   1      45.399  42.574  36.791  1.00  0.00     0.124 S 
ATOM     98  O   UNL A   1      46.754  42.228  37.209  1.00  0.00    -0.237 OA
ATOM     99  O   UNL A   1      45.298  43.552  35.713  1.00  0.00    -0.237 OA
ATOM    100  O   UNL A   1      44.433  42.740  37.873  1.00  0.00    -0.744 OA
ENDBRANCH  96  97
ENDBRANCH  64  89
ENDBRANCH  38  39
ENDBRANCH  31  33
ENDBRANCH  30  31
ENDBRANCH  29  30
ENDBRANCH  28  29
ENDBRANCH  27  28
ENDBRANCH  26  27
ENDBRANCH   1  26
TORSDOF 24
ENDMDL
MODEL 2
REMARK VINA RESULT:      -8.7      5.199      7.656
REMARK SMILES O=C(CCC(=O)N1CCN(S(=O)(=O)c2cccs2)CC1)OCCOCCOCCOC(=O)c1ccc(-c2c3nc(c(-c4c(F)cc(S(=O)(=O)[O-])cc4F)c4ccc([nH]4)c(-c4c(F)cc(S(=O)(=O)[O-])cc4F)c4nc(c(-c5c(F)cc(S(=O)(=O)[O-])cc5F)c5ccc2[nH]5)C=C4)C=C3)cc1
REMARK SMILES IDX 25 1 24 2 23 3 22 4 21 5 2 6 1 7 3 8 4 9 5 10 6 11 7 12 8 13
REMARK SMILES IDX 20 14 9 15 19 16 10 17 11 18 12 19 13 20 14 21 15 22 18 23
REMARK SMILES IDX 16 24 17 25 26 26 27 27 28 28 29 29 30 30 31 31 32 32 33 33
REMARK SMILES IDX 34 34 98 35 35 36 97 37 36 38 37 39 38 40 91 41 39 42 96 43
REMARK SMILES IDX 90 44 92 45 40 46 95 47 89 48 88 49 41 51 75 52 54 53 74 54
REMARK SMILES IDX 55 55 58 56 73 57 93 58 56 59 57 60 72 62 94 63 59 64 42 65
REMARK SMILES IDX 43 66 52 67 44 68 45 69 51 70 53 71 46 72 47 73 48 74 49 75
REMARK SMILES IDX 50 76 76 77 77 78 86 79 78 80 79 81 85 82 87 83 80 84 81 85
REMARK SMILES IDX 82 86 83 87 84 88 60 89 61 90 70 91 62 92 63 93 69 94 71 95
REMARK SMILES IDX 64 96 65 97 66 98 67 99 68 100
REMARK H PARENT 92 50 58 61
REMARK Flexibility Score: inf
ROOT
ATOM      1  C   UNL A   1      44.624  21.206  24.526  1.00  0.00     0.188 C 
ENDROOT
BRANCH   1   2
ATOM      2  O   UNL A   1      43.306  21.095  25.035  1.00  0.00    -0.376 OA
BRANCH   2   3
ATOM      3  C   UNL A   1      43.030  19.946  25.819  1.00  0.00     0.202 C 
BRANCH   3   4
ATOM      4  C   UNL A   1      41.567  19.760  26.191  1.00  0.00     0.261 C 
BRANCH   4   5
ATOM      5  O   UNL A   1      41.000  20.790  27.039  1.00  0.00    -0.463 OA
BRANCH   5   6
ATOM      6  C   UNL A   1      41.533  21.894  27.589  1.00  0.00     0.306 C 
ATOM      7  O   UNL A   1      42.513  21.788  28.325  1.00  0.00    -0.252 OA
BRANCH   6   8
ATOM      8  C   UNL A   1      40.967  23.235  27.263  1.00  0.00     0.132 C 
BRANCH   8   9
ATOM      9  C   UNL A   1      42.021  24.291  27.003  1.00  0.00     0.112 C 
BRANCH   9  10
ATOM     10  C   UNL A   1      42.227  25.290  28.126  1.00  0.00     0.223 C 
ATOM     11  O   UNL A   1      42.934  24.970  29.086  1.00  0.00    -0.275 OA
ATOM     12  N   UNL A   1      41.618  26.543  28.052  1.00  0.00    -0.340 N 
ATOM     13  C   UNL A   1      41.945  27.487  29.126  1.00  0.00     0.136 C 
ATOM     14  C   UNL A   1      40.365  26.793  27.319  1.00  0.00     0.136 C 
ATOM     15  C   UNL A   1      41.549  28.939  28.813  1.00  0.00     0.124 C 
ATOM     16  C   UNL A   1      39.946  28.245  27.124  1.00  0.00     0.124 C 
ATOM     17  N   UNL A   1      40.121  29.052  28.361  1.00  0.00    -0.194 NA
BRANCH  17  18
ATOM     18  S   UNL A   1      38.994  28.865  29.635  1.00  0.00     0.252 S 
ATOM     19  O   UNL A   1      37.849  29.713  29.351  1.00  0.00    -0.206 OA
ATOM     20  O   UNL A   1      38.808  27.448  29.835  1.00  0.00    -0.206 OA
BRANCH  18  21
ATOM     21  C   UNL A   1      39.626  29.533  31.160  1.00  0.00     0.135 A 
ATOM     22  C   UNL A   1      39.938  30.832  31.525  1.00  0.00     0.033 A 
ATOM     23  S   UNL A   1      39.839  28.451  32.466  1.00  0.00    -0.131 S 
ATOM     24  C   UNL A   1      40.294  30.942  32.900  1.00  0.00     0.013 A 
ATOM     25  C   UNL A   1      40.256  29.721  33.537  1.00  0.00     0.066 A 
ENDBRANCH  18  21
ENDBRANCH  17  18
ENDBRANCH   9  10
ENDBRANCH   8   9
ENDBRANCH   6   8
ENDBRANCH   5   6
ENDBRANCH   4   5
ENDBRANCH   3   4
ENDBRANCH   2   3
ENDBRANCH   1   2
BRANCH   1  26
ATOM     26  C   UNL A   1      45.684  21.759  25.516  1.00  0.00     0.188 C 
BRANCH  26  27
ATOM     27  O   UNL A   1      45.288  22.537  26.640  1.00  0.00    -0.376 OA
BRANCH  27  28
ATOM     28  C   UNL A   1      45.791  23.857  26.783  1.00  0.00     0.202 C 
BRANCH  28  29
ATOM     29  C   UNL A   1      46.883  24.369  25.824  1.00  0.00     0.261 C 
BRANCH  29  30
ATOM     30  O   UNL A   1      46.420  25.155  24.710  1.00  0.00    -0.460 OA
BRANCH  30  31
ATOM     31  C   UNL A   1      47.065  26.333  24.496  1.00  0.00     0.338 C 
ATOM     32  O   UNL A   1      47.862  26.571  23.605  1.00  0.00    -0.246 OA
BRANCH  31  33
ATOM     33  C   UNL A   1      46.477  27.395  25.356  1.00  0.00     0.060 A 
ATOM     34  C   UNL A   1      47.350  28.340  25.923  1.00  0.00     0.016 A 
ATOM     35  C   UNL A   1      45.100  27.508  25.567  1.00  0.00     0.016 A 
ATOM     36  C   UNL A   1      46.860  29.365  26.734  1.00  0.00     0.010 A 
ATOM     37  C   UNL A   1      44.612  28.516  26.412  1.00  0.00     0.010 A 
ATOM     38  C   UNL A   1      45.494  29.419  27.037  1.00  0.00    -0.014 A 
BRANCH  38  39
ATOM     39  C   UNL A   1      45.055  30.190  28.232  1.00  0.00     0.031 A 
ATOM     40  C   UNL A   1      45.044  29.459  29.552  1.00  0.00     0.074 A 
ATOM     41  C   UNL A   1      44.730  31.496  28.183  1.00  0.00     0.049 A 
ATOM     42  N   UNL A   1      44.675  29.876  30.736  1.00  0.00    -0.248 NA
ATOM     43  C   UNL A   1      45.514  28.062  29.527  1.00  0.00     0.031 C 
ATOM     44  C   UNL A   1      44.755  32.336  26.989  1.00  0.00     0.029 A 
ATOM     45  N   UNL A   1      44.303  32.342  29.180  1.00  0.00    -0.354 N 
ATOM     46  C   UNL A   1      44.870  28.796  31.591  1.00  0.00     0.074 A 
ATOM     47  C   UNL A   1      45.348  27.695  30.786  1.00  0.00     0.031 C 
ATOM     48  C   UNL A   1      44.342  33.575  27.319  1.00  0.00     0.029 A 
ATOM     49  C   UNL A   1      43.998  33.609  28.741  1.00  0.00     0.049 A 
ATOM     50  H   UNL A   1      44.224  32.067  30.122  1.00  0.00     0.167 HD
ATOM     51  C   UNL A   1      44.684  28.728  32.930  1.00  0.00     0.037 A 
ATOM     52  C   UNL A   1      43.481  34.664  29.407  1.00  0.00     0.037 A 
ATOM     53  C   UNL A   1      44.197  29.818  33.730  1.00  0.00     0.049 A 
ATOM     54  C   UNL A   1      43.190  34.537  30.886  1.00  0.00     0.074 A 
ATOM     55  C   UNL A   1      43.959  29.845  35.093  1.00  0.00     0.029 A 
ATOM     56  N   UNL A   1      43.866  31.073  33.240  1.00  0.00    -0.354 N 
ATOM     57  N   UNL A   1      43.388  33.513  31.684  1.00  0.00    -0.248 NA
ATOM     58  C   UNL A   1      42.612  35.712  31.556  1.00  0.00     0.031 C 
ATOM     59  C   UNL A   1      43.438  31.101  35.418  1.00  0.00     0.029 A 
ATOM     60  C   UNL A   1      43.408  31.876  34.270  1.00  0.00     0.049 A 
ATOM     61  H   UNL A   1      43.946  31.351  32.299  1.00  0.00     0.167 HD
ATOM     62  C   UNL A   1      42.992  33.934  32.952  1.00  0.00     0.074 A 
ATOM     63  C   UNL A   1      42.555  35.308  32.817  1.00  0.00     0.031 C 
ATOM     64  C   UNL A   1      42.991  33.249  34.123  1.00  0.00     0.037 A 
BRANCH  51  65
ATOM     65  C   UNL A   1      44.988  27.419  33.604  1.00  0.00     0.058 A 
ATOM     66  C   UNL A   1      46.287  27.091  34.029  1.00  0.00     0.135 A 
ATOM     67  C   UNL A   1      43.966  26.487  33.843  1.00  0.00     0.135 A 
ATOM     68  F   UNL A   1      47.306  27.934  33.801  1.00  0.00    -0.206 F 
ATOM     69  C   UNL A   1      46.564  25.877  34.646  1.00  0.00     0.059 A 
ATOM     70  C   UNL A   1      44.215  25.279  34.487  1.00  0.00     0.059 A 
ATOM     71  F   UNL A   1      42.710  26.745  33.449  1.00  0.00    -0.206 F 
ATOM     72  C   UNL A   1      45.520  24.978  34.874  1.00  0.00     0.060 A 
BRANCH  72  73
ATOM     73  S   UNL A   1      45.896  23.412  35.688  1.00  0.00     0.124 S 
ATOM     74  O   UNL A   1      44.560  22.876  35.923  1.00  0.00    -0.237 OA
ATOM     75  O   UNL A   1      46.688  22.718  34.677  1.00  0.00    -0.237 OA
ATOM     76  O   UNL A   1      46.629  23.817  36.884  1.00  0.00    -0.744 OA
ENDBRANCH  72  73
ENDBRANCH  51  65
BRANCH  52  77
ATOM     77  C   UNL A   1      43.174  35.935  28.690  1.00  0.00     0.058 A 
ATOM     78  C   UNL A   1      44.152  36.926  28.507  1.00  0.00     0.135 A 
ATOM     79  C   UNL A   1      41.882  36.203  28.209  1.00  0.00     0.135 A 
ATOM     80  F   UNL A   1      45.398  36.730  28.963  1.00  0.00    -0.206 F 
ATOM     81  C   UNL A   1      43.856  38.141  27.895  1.00  0.00     0.059 A 
ATOM     82  C   UNL A   1      41.570  37.398  27.568  1.00  0.00     0.059 A 
ATOM     83  F   UNL A   1      40.908  35.291  28.354  1.00  0.00    -0.206 F 
ATOM     84  C   UNL A   1      42.561  38.368  27.427  1.00  0.00     0.060 A 
BRANCH  84  85
ATOM     85  S   UNL A   1      42.197  39.932  26.600  1.00  0.00     0.124 S 
ATOM     86  O   UNL A   1      43.383  40.112  25.772  1.00  0.00    -0.237 OA
ATOM     87  O   UNL A   1      40.961  39.621  25.888  1.00  0.00    -0.237 OA
ATOM     88  O   UNL A   1      42.052  40.871  27.709  1.00  0.00    -0.744 OA
ENDBRANCH  84  85
ENDBRANCH  52  77
BRANCH  64  89
ATOM     89  C   UNL A   1      42.555  33.981  35.366  1.00  0.00     0.058 A 
ATOM     90  C   UNL A   1      43.461  34.690  36.169  1.00  0.00     0.135 A 
ATOM     91  C   UNL A   1      41.197  34.014  35.728  1.00  0.00     0.135 A 
ATOM     92  F   UNL A   1      44.770  34.693  35.872  1.00  0.00    -0.206 F 
ATOM     93  C   UNL A   1      43.042  35.380  37.303  1.00  0.00     0.059 A 
ATOM     94  C   UNL A   1      40.752  34.724  36.838  1.00  0.00     0.059 A 
ATOM     95  F   UNL A   1      40.284  33.365  34.987  1.00  0.00    -0.206 F 
ATOM     96  C   UNL A   1      41.685  35.392  37.629  1.00  0.00     0.060 A 
BRANCH  96  97
ATOM     97  S   UNL A   1      41.153  36.309  39.090  1.00  0.00     0.124 S 
ATOM     98  O   UNL A   1      40.123  37.179  38.531  1.00  0.00    -0.237 OA
ATOM     99  O   UNL A   1      40.676  35.247  39.970  1.00  0.00    -0.237 OA
ATOM    100  O   UNL A   1      42.369  36.982  39.534  1.00  0.00    -0.744 OA
ENDBRANCH  96  97
ENDBRANCH  64  89
ENDBRANCH  38  39
ENDBRANCH  31  33
ENDBRANCH  30  31
ENDBRANCH  29  30
ENDBRANCH  28  29
ENDBRANCH  27  28
ENDBRANCH  26  27
ENDBRANCH   1  26
TORSDOF 24
ENDMDL
MODEL 3
REMARK VINA RESULT:      -8.6      5.062     11.650
REMARK SMILES O=C(CCC(=O)N1CCN(S(=O)(=O)c2cccs2)CC1)OCCOCCOCCOC(=O)c1ccc(-c2c3nc(c(-c4c(F)cc(S(=O)(=O)[O-])cc4F)c4ccc([nH]4)c(-c4c(F)cc(S(=O)(=O)[O-])cc4F)c4nc(c(-c5c(F)cc(S(=O)(=O)[O-])cc5F)c5ccc2[nH]5)C=C4)C=C3)cc1
REMARK SMILES IDX 25 1 24 2 23 3 22 4 21 5 2 6 1 7 3 8 4 9 5 10 6 11 7 12 8 13
REMARK SMILES IDX 20 14 9 15 19 16 10 17 11 18 12 19 13 20 14 21 15 22 18 23
REMARK SMILES IDX 16 24 17 25 26 26 27 27 28 28 29 29 30 30 31 31 32 32 33 33
REMARK SMILES IDX 34 34 98 35 35 36 97 37 36 38 37 39 38 40 91 41 39 42 96 43
REMARK SMILES IDX 90 44 92 45 40 46 95 47 89 48 88 49 41 51 75 52 54 53 74 54
REMARK SMILES IDX 55 55 58 56 73 57 93 58 56 59 57 60 72 62 94 63 59 64 42 65
REMARK SMILES IDX 43 66 52 67 44 68 45 69 51 70 53 71 46 72 47 73 48 74 49 75
REMARK SMILES IDX 50 76 76 77 77 78 86 79 78 80 79 81 85 82 87 83 80 84 81 85
REMARK SMILES IDX 82 86 83 87 84 88 60 89 61 90 70 91 62 92 63 93 69 94 71 95
REMARK SMILES IDX 64 96 65 97 66 98 67 99 68 100
REMARK H PARENT 92 50 58 61
REMARK Flexibility Score: inf
ROOT
ATOM      1  C   UNL A   1      34.722  33.118  28.724  1.00  0.00     0.188 C 
ENDROOT
BRANCH   1   2
ATOM      2  O   UNL A   1      33.537  33.805  28.359  1.00  0.00    -0.376 OA
BRANCH   2   3
ATOM      3  C   UNL A   1      32.603  33.078  27.580  1.00  0.00     0.202 C 
BRANCH   3   4
ATOM      4  C   UNL A   1      33.115  31.753  27.037  1.00  0.00     0.261 C 
BRANCH   4   5
ATOM      5  O   UNL A   1      32.315  30.588  27.365  1.00  0.00    -0.463 OA
BRANCH   5   6
ATOM      6  C   UNL A   1      32.028  29.473  26.672  1.00  0.00     0.306 C 
ATOM      7  O   UNL A   1      32.176  28.375  27.209  1.00  0.00    -0.252 OA
BRANCH   6   8
ATOM      8  C   UNL A   1      31.489  29.576  25.285  1.00  0.00     0.132 C 
BRANCH   8   9
ATOM      9  C   UNL A   1      32.342  28.873  24.250  1.00  0.00     0.112 C 
BRANCH   9  10
ATOM     10  C   UNL A   1      31.708  27.653  23.611  1.00  0.00     0.223 C 
ATOM     11  O   UNL A   1      30.559  27.740  23.167  1.00  0.00    -0.275 OA
ATOM     12  N   UNL A   1      32.431  26.462  23.536  1.00  0.00    -0.340 N 
ATOM     13  C   UNL A   1      31.788  25.356  22.817  1.00  0.00     0.136 C 
ATOM     14  C   UNL A   1      33.485  26.093  24.495  1.00  0.00     0.136 C 
ATOM     15  C   UNL A   1      32.749  24.214  22.454  1.00  0.00     0.124 C 
ATOM     16  C   UNL A   1      34.349  24.884  24.156  1.00  0.00     0.124 C 
ATOM     17  N   UNL A   1      33.544  23.745  23.639  1.00  0.00    -0.194 NA
BRANCH  17  18
ATOM     18  S   UNL A   1      32.625  22.816  24.743  1.00  0.00     0.252 S 
ATOM     19  O   UNL A   1      33.015  23.199  26.089  1.00  0.00    -0.206 OA
ATOM     20  O   UNL A   1      31.243  22.918  24.338  1.00  0.00    -0.206 OA
BRANCH  18  21
ATOM     21  C   UNL A   1      33.070  21.093  24.666  1.00  0.00     0.135 A 
ATOM     22  C   UNL A   1      32.340  19.981  24.280  1.00  0.00     0.033 A 
ATOM     23  S   UNL A   1      34.682  20.678  25.052  1.00  0.00    -0.131 S 
ATOM     24  C   UNL A   1      33.130  18.796  24.245  1.00  0.00     0.013 A 
ATOM     25  C   UNL A   1      34.434  19.039  24.618  1.00  0.00     0.066 A 
ENDBRANCH  18  21
ENDBRANCH  17  18
ENDBRANCH   9  10
ENDBRANCH   8   9
ENDBRANCH   6   8
ENDBRANCH   5   6
ENDBRANCH   4   5
ENDBRANCH   3   4
ENDBRANCH   2   3
ENDBRANCH   1   2
BRANCH   1  26
ATOM     26  C   UNL A   1      34.838  32.726  30.221  1.00  0.00     0.188 C 
BRANCH  26  27
ATOM     27  O   UNL A   1      34.087  33.418  31.211  1.00  0.00    -0.376 OA
BRANCH  27  28
ATOM     28  C   UNL A   1      34.762  34.259  32.134  1.00  0.00     0.202 C 
BRANCH  28  29
ATOM     29  C   UNL A   1      35.400  33.652  33.399  1.00  0.00     0.261 C 
BRANCH  29  30
ATOM     30  O   UNL A   1      36.587  32.866  33.186  1.00  0.00    -0.460 OA
BRANCH  30  31
ATOM     31  C   UNL A   1      37.700  33.547  32.805  1.00  0.00     0.338 C 
ATOM     32  O   UNL A   1      38.003  34.682  33.131  1.00  0.00    -0.246 OA
BRANCH  31  33
ATOM     33  C   UNL A   1      38.647  32.624  32.123  1.00  0.00     0.060 A 
ATOM     34  C   UNL A   1      39.350  31.699  32.915  1.00  0.00     0.016 A 
ATOM     35  C   UNL A   1      38.812  32.616  30.735  1.00  0.00     0.016 A 
ATOM     36  C   UNL A   1      40.248  30.801  32.334  1.00  0.00     0.010 A 
ATOM     37  C   UNL A   1      39.742  31.739  30.156  1.00  0.00     0.010 A 
ATOM     38  C   UNL A   1      40.498  30.862  30.958  1.00  0.00    -0.014 A 
BRANCH  38  39
ATOM     39  C   UNL A   1      41.751  30.256  30.431  1.00  0.00     0.031 A 
ATOM     40  C   UNL A   1      42.995  31.108  30.475  1.00  0.00     0.074 A 
ATOM     41  C   UNL A   1      41.820  28.990  29.978  1.00  0.00     0.049 A 
ATOM     42  N   UNL A   1      44.205  30.846  30.053  1.00  0.00    -0.248 NA
ATOM     43  C   UNL A   1      42.848  32.444  31.082  1.00  0.00     0.031 C 
ATOM     44  C   UNL A   1      40.712  28.039  29.934  1.00  0.00     0.029 A 
ATOM     45  N   UNL A   1      42.883  28.289  29.457  1.00  0.00    -0.354 N 
ATOM     46  C   UNL A   1      44.957  31.979  30.344  1.00  0.00     0.074 A 
ATOM     47  C   UNL A   1      44.062  32.946  30.938  1.00  0.00     0.031 C 
ATOM     48  C   UNL A   1      41.149  26.884  29.397  1.00  0.00     0.029 A 
ATOM     49  C   UNL A   1      42.559  27.021  29.034  1.00  0.00     0.049 A 
ATOM     50  H   UNL A   1      43.792  28.661  29.395  1.00  0.00     0.167 HD
ATOM     51  C   UNL A   1      46.280  32.194  30.150  1.00  0.00     0.037 A 
ATOM     52  C   UNL A   1      43.312  26.091  28.407  1.00  0.00     0.037 A 
ATOM     53  C   UNL A   1      47.169  31.240  29.548  1.00  0.00     0.049 A 
ATOM     54  C   UNL A   1      44.766  26.389  28.113  1.00  0.00     0.074 A 
ATOM     55  C   UNL A   1      48.523  31.367  29.292  1.00  0.00     0.029 A 
ATOM     56  N   UNL A   1      46.793  29.982  29.100  1.00  0.00    -0.354 N 
ATOM     57  N   UNL A   1      45.467  27.460  28.401  1.00  0.00    -0.248 NA
ATOM     58  C   UNL A   1      45.531  25.345  27.413  1.00  0.00     0.031 C 
ATOM     59  C   UNL A   1      48.955  30.206  28.645  1.00  0.00     0.029 A 
ATOM     60  C   UNL A   1      47.885  29.331  28.552  1.00  0.00     0.049 A 
ATOM     61  H   UNL A   1      45.885  29.607  29.163  1.00  0.00     0.167 HD
ATOM     62  C   UNL A   1      46.760  27.204  27.950  1.00  0.00     0.074 A 
ATOM     63  C   UNL A   1      46.747  25.873  27.382  1.00  0.00     0.031 C 
ATOM     64  C   UNL A   1      47.861  27.997  28.004  1.00  0.00     0.037 A 
BRANCH  51  65
ATOM     65  C   UNL A   1      46.832  33.527  30.574  1.00  0.00     0.058 A 
ATOM     66  C   UNL A   1      46.871  34.623  29.697  1.00  0.00     0.135 A 
ATOM     67  C   UNL A   1      47.313  33.716  31.880  1.00  0.00     0.135 A 
ATOM     68  F   UNL A   1      46.450  34.490  28.429  1.00  0.00    -0.206 F 
ATOM     69  C   UNL A   1      47.389  35.852  30.091  1.00  0.00     0.059 A 
ATOM     70  C   UNL A   1      47.806  34.945  32.306  1.00  0.00     0.059 A 
ATOM     71  F   UNL A   1      47.307  32.699  32.756  1.00  0.00    -0.206 F 
ATOM     72  C   UNL A   1      47.851  36.004  31.400  1.00  0.00     0.060 A 
BRANCH  72  73
ATOM     73  S   UNL A   1      48.507  37.609  31.899  1.00  0.00     0.124 S 
ATOM     74  O   UNL A   1      47.986  37.729  33.256  1.00  0.00    -0.237 OA
ATOM     75  O   UNL A   1      49.948  37.404  31.789  1.00  0.00    -0.237 OA
ATOM     76  O   UNL A   1      47.932  38.531  30.923  1.00  0.00    -0.744 OA
ENDBRANCH  72  73
ENDBRANCH  51  65
BRANCH  52  77
ATOM     77  C   UNL A   1      42.713  24.793  27.984  1.00  0.00     0.058 A 
ATOM     78  C   UNL A   1      42.742  23.666  28.822  1.00  0.00     0.135 A 
ATOM     79  C   UNL A   1      42.134  24.640  26.714  1.00  0.00     0.135 A 
ATOM     80  F   UNL A   1      43.299  23.752  30.039  1.00  0.00    -0.206 F 
ATOM     81  C   UNL A   1      42.242  22.434  28.410  1.00  0.00     0.059 A 
ATOM     82  C   UNL A   1      41.601  23.426  26.290  1.00  0.00     0.059 A 
ATOM     83  F   UNL A   1      42.076  25.684  25.872  1.00  0.00    -0.206 F 
ATOM     84  C   UNL A   1      41.671  22.325  27.141  1.00  0.00     0.060 A 
BRANCH  84  85
ATOM     85  S   UNL A   1      40.990  20.731  26.630  1.00  0.00     0.124 S 
ATOM     86  O   UNL A   1      39.691  21.122  26.097  1.00  0.00    -0.237 OA
ATOM     87  O   UNL A   1      41.973  20.279  25.650  1.00  0.00    -0.237 OA
ATOM     88  O   UNL A   1      40.960  19.966  27.873  1.00  0.00    -0.744 OA
ENDBRANCH  84  85
ENDBRANCH  52  77
BRANCH  64  89
ATOM     89  C   UNL A   1      49.158  27.434  27.482  1.00  0.00     0.058 A 
ATOM     90  C   UNL A   1      50.124  26.878  28.334  1.00  0.00     0.135 A 
ATOM     91  C   UNL A   1      49.412  27.406  26.100  1.00  0.00     0.135 A 
ATOM     92  F   UNL A   1      49.935  26.879  29.663  1.00  0.00    -0.206 F 
ATOM     93  C   UNL A   1      51.310  26.343  27.838  1.00  0.00     0.059 A 
ATOM     94  C   UNL A   1      50.574  26.846  25.580  1.00  0.00     0.059 A 
ATOM     95  F   UNL A   1      48.516  27.910  25.237  1.00  0.00    -0.206 F 
ATOM     96  C   UNL A   1      51.525  26.330  26.459  1.00  0.00     0.060 A 
BRANCH  96  97
ATOM     97  S   UNL A   1      53.057  25.612  25.828  1.00  0.00     0.124 S 
ATOM     98  O   UNL A   1      53.286  26.416  24.632  1.00  0.00    -0.237 OA
ATOM     99  O   UNL A   1      53.985  25.837  26.931  1.00  0.00    -0.237 OA
ATOM    100  O   UNL A   1      52.706  24.216  25.588  1.00  0.00    -0.744 OA
ENDBRANCH  96  97
ENDBRANCH  64  89
ENDBRANCH  38  39
ENDBRANCH  31  33
ENDBRANCH  30  31
ENDBRANCH  29  30
ENDBRANCH  28  29
ENDBRANCH  27  28
ENDBRANCH  26  27
ENDBRANCH   1  26
TORSDOF 24
ENDMDL
