MODEL 1
REMARK VINA RESULT:     -10.1      0.000      0.000
REMARK SMILES COc1cc(Cl)cc(/C=C/C(=O)OCCOCCOCCOC(=O)c2ccc(-c3c4nc(c(-c5c(F)cc(S(=O)(=O)[O-])cc5F)c5ccc([nH]5)c(-c5c(F)cc(S(=O)(=O)[O-])cc5F)c5nc(c(-c6c(F)cc(S(=O)(=O)[O-])cc6F)c6ccc3[nH]6)C=C5)C=C4)cc2)c1OC
REMARK SMILES IDX 18 1 17 2 16 3 15 4 14 5 13 6 11 7 12 8 10 9 9 10 8 11 3 12
REMARK SMILES IDX 4 13 91 14 5 15 6 16 7 17 2 18 1 19 92 20 93 21 19 22 20 23
REMARK SMILES IDX 21 24 22 25 23 26 24 27 25 28 26 29 90 30 27 31 89 32 28 33
REMARK SMILES IDX 29 34 30 35 83 36 31 37 88 38 82 39 84 40 32 41 87 42 81 43
REMARK SMILES IDX 80 44 33 46 67 47 46 48 66 49 47 50 50 51 65 52 85 53 48 54
REMARK SMILES IDX 49 55 64 57 86 58 51 59 34 60 35 61 44 62 36 63 37 64 43 65
REMARK SMILES IDX 45 66 38 67 39 68 40 69 41 70 42 71 68 72 69 73 78 74 70 75
REMARK SMILES IDX 71 76 77 77 79 78 72 79 73 80 74 81 75 82 76 83 52 84 53 85
REMARK SMILES IDX 62 86 54 87 55 88 61 89 63 90 56 91 57 92 58 93 59 94 60 95
REMARK H PARENT 84 45 50 56
REMARK Flexibility Score: inf
ROOT
ATOM      1  C   UNL A   1      37.379  21.778  24.568  1.00  0.00     0.188 C 
ENDROOT
BRANCH   1   2
ATOM      2  C   UNL A   1      35.839  21.706  24.580  1.00  0.00     0.188 C 
BRANCH   2   3
ATOM      3  O   UNL A   1      35.174  20.866  25.503  1.00  0.00    -0.376 OA
BRANCH   3   4
ATOM      4  C   UNL A   1      34.377  21.426  26.533  1.00  0.00     0.202 C 
BRANCH   4   5
ATOM      5  C   UNL A   1      33.052  22.148  26.251  1.00  0.00     0.261 C 
BRANCH   5   6
ATOM      6  O   UNL A   1      32.453  22.809  27.374  1.00  0.00    -0.460 OA
BRANCH   6   7
ATOM      7  C   UNL A   1      31.319  23.496  27.093  1.00  0.00     0.330 C 
ATOM      8  O   UNL A   1      30.176  23.132  27.331  1.00  0.00    -0.247 OA
BRANCH   7   9
ATOM      9  C   UNL A   1      31.582  24.839  26.540  1.00  0.00     0.094 C 
ATOM     10  C   UNL A   1      30.684  25.827  26.395  1.00  0.00     0.019 C 
BRANCH  10  11
ATOM     11  C   UNL A   1      31.049  27.157  25.857  1.00  0.00     0.022 A 
ATOM     12  C   UNL A   1      31.061  28.811  24.056  1.00  0.00     0.162 A 
ATOM     13  C   UNL A   1      31.680  29.726  24.917  1.00  0.00     0.071 A 
ATOM     14  C   UNL A   1      30.749  27.512  24.517  1.00  0.00     0.168 A 
ATOM     15  C   UNL A   1      32.021  29.350  26.211  1.00  0.00     0.045 A 
ATOM     16  Cl  UNL A   1      32.791  30.484  27.251  1.00  0.00    -0.084 Cl
ATOM     17  C   UNL A   1      31.720  28.076  26.680  1.00  0.00     0.032 A 
BRANCH  12  18
ATOM     18  O   UNL A   1      30.650  29.196  22.804  1.00  0.00    -0.493 OA
ATOM     19  C   UNL A   1      29.536  30.086  22.774  1.00  0.00     0.278 C 
ENDBRANCH  12  18
BRANCH  14  20
ATOM     20  O   UNL A   1      30.123  26.525  23.792  1.00  0.00    -0.492 OA
ATOM     21  C   UNL A   1      28.703  26.483  23.790  1.00  0.00     0.278 C 
ENDBRANCH  14  20
ENDBRANCH  10  11
ENDBRANCH   7   9
ENDBRANCH   6   7
ENDBRANCH   5   6
ENDBRANCH   4   5
ENDBRANCH   3   4
ENDBRANCH   2   3
ENDBRANCH   1   2
BRANCH   1  22
ATOM     22  O   UNL A   1      38.095  21.358  25.706  1.00  0.00    -0.376 OA
BRANCH  22  23
ATOM     23  C   UNL A   1      39.341  21.943  26.047  1.00  0.00     0.202 C 
BRANCH  23  24
ATOM     24  C   UNL A   1      39.554  23.290  26.760  1.00  0.00     0.261 C 
BRANCH  24  25
ATOM     25  O   UNL A   1      40.873  23.825  26.809  1.00  0.00    -0.460 OA
BRANCH  25  26
ATOM     26  C   UNL A   1      40.981  25.123  26.444  1.00  0.00     0.338 C 
ATOM     27  O   UNL A   1      40.950  25.580  25.305  1.00  0.00    -0.246 OA
BRANCH  26  28
ATOM     28  C   UNL A   1      40.976  25.959  27.652  1.00  0.00     0.060 A 
ATOM     29  C   UNL A   1      39.856  25.922  28.492  1.00  0.00     0.016 A 
ATOM     30  C   UNL A   1      42.054  26.800  27.932  1.00  0.00     0.016 A 
ATOM     31  C   UNL A   1      39.802  26.748  29.613  1.00  0.00     0.010 A 
ATOM     32  C   UNL A   1      41.989  27.641  29.044  1.00  0.00     0.010 A 
ATOM     33  C   UNL A   1      40.853  27.637  29.873  1.00  0.00    -0.014 A 
BRANCH  33  34
ATOM     34  C   UNL A   1      40.698  28.683  30.912  1.00  0.00     0.031 A 
ATOM     35  C   UNL A   1      41.594  28.633  32.119  1.00  0.00     0.074 A 
ATOM     36  C   UNL A   1      39.779  29.655  30.786  1.00  0.00     0.049 A 
ATOM     37  N   UNL A   1      41.602  29.397  33.179  1.00  0.00    -0.248 NA
ATOM     38  C   UNL A   1      42.616  27.573  32.130  1.00  0.00     0.031 C 
ATOM     39  C   UNL A   1      38.886  29.832  29.642  1.00  0.00     0.029 A 
ATOM     40  N   UNL A   1      39.439  30.674  31.640  1.00  0.00    -0.354 N 
ATOM     41  C   UNL A   1      42.615  28.903  33.992  1.00  0.00     0.074 A 
ATOM     42  C   UNL A   1      43.187  27.762  33.310  1.00  0.00     0.031 C 
ATOM     43  C   UNL A   1      38.094  30.895  29.870  1.00  0.00     0.029 A 
ATOM     44  C   UNL A   1      38.399  31.449  31.188  1.00  0.00     0.049 A 
ATOM     45  H   UNL A   1      39.899  30.835  32.496  1.00  0.00     0.167 HD
ATOM     46  C   UNL A   1      43.032  29.362  35.195  1.00  0.00     0.037 A 
ATOM     47  C   UNL A   1      37.754  32.473  31.783  1.00  0.00     0.037 A 
ATOM     48  C   UNL A   1      42.457  30.498  35.867  1.00  0.00     0.049 A 
ATOM     49  C   UNL A   1      38.186  32.916  33.158  1.00  0.00     0.074 A 
ATOM     50  C   UNL A   1      42.828  31.061  37.074  1.00  0.00     0.029 A 
ATOM     51  N   UNL A   1      41.379  31.234  35.396  1.00  0.00    -0.354 N 
ATOM     52  N   UNL A   1      39.166  32.464  33.904  1.00  0.00    -0.248 NA
ATOM     53  C   UNL A   1      37.420  34.010  33.775  1.00  0.00     0.031 C 
ATOM     54  C   UNL A   1      41.939  32.103  37.360  1.00  0.00     0.029 A 
ATOM     55  C   UNL A   1      41.050  32.227  36.303  1.00  0.00     0.049 A 
ATOM     56  H   UNL A   1      40.916  31.073  34.541  1.00  0.00     0.167 HD
ATOM     57  C   UNL A   1      39.157  33.240  35.060  1.00  0.00     0.074 A 
ATOM     58  C   UNL A   1      38.076  34.192  34.914  1.00  0.00     0.031 C 
ATOM     59  C   UNL A   1      39.976  33.176  36.140  1.00  0.00     0.037 A 
BRANCH  46  60
ATOM     60  C   UNL A   1      44.137  28.606  35.880  1.00  0.00     0.058 A 
ATOM     61  C   UNL A   1      43.879  27.523  36.735  1.00  0.00     0.135 A 
ATOM     62  C   UNL A   1      45.477  28.967  35.669  1.00  0.00     0.135 A 
ATOM     63  F   UNL A   1      42.615  27.146  36.987  1.00  0.00    -0.206 F 
ATOM     64  C   UNL A   1      44.908  26.847  37.384  1.00  0.00     0.059 A 
ATOM     65  C   UNL A   1      46.524  28.289  36.284  1.00  0.00     0.059 A 
ATOM     66  F   UNL A   1      45.780  29.998  34.863  1.00  0.00    -0.206 F 
ATOM     67  C   UNL A   1      46.228  27.240  37.155  1.00  0.00     0.060 A 
BRANCH  67  68
ATOM     68  S   UNL A   1      47.552  26.365  38.014  1.00  0.00     0.124 S 
ATOM     69  O   UNL A   1      48.736  27.028  37.475  1.00  0.00    -0.237 OA
ATOM     70  O   UNL A   1      47.252  26.644  39.415  1.00  0.00    -0.237 OA
ATOM     71  O   UNL A   1      47.367  24.977  37.600  1.00  0.00    -0.744 OA
ENDBRANCH  67  68
ENDBRANCH  46  60
BRANCH  47  72
ATOM     72  C   UNL A   1      36.631  33.154  31.085  1.00  0.00     0.058 A 
ATOM     73  C   UNL A   1      35.303  32.940  31.481  1.00  0.00     0.135 A 
ATOM     74  C   UNL A   1      36.859  34.026  30.008  1.00  0.00     0.135 A 
ATOM     75  F   UNL A   1      35.032  32.104  32.495  1.00  0.00    -0.206 F 
ATOM     76  C   UNL A   1      34.239  33.557  30.831  1.00  0.00     0.059 A 
ATOM     77  C   UNL A   1      35.814  34.674  29.358  1.00  0.00     0.059 A 
ATOM     78  F   UNL A   1      38.112  34.268  29.593  1.00  0.00    -0.206 F 
ATOM     79  C   UNL A   1      34.505  34.426  29.772  1.00  0.00     0.060 A 
BRANCH  79  80
ATOM     80  S   UNL A   1      33.119  35.257  28.967  1.00  0.00     0.124 S 
ATOM     81  O   UNL A   1      32.230  35.507  30.095  1.00  0.00    -0.237 OA
ATOM     82  O   UNL A   1      33.762  36.434  28.388  1.00  0.00    -0.237 OA
ATOM     83  O   UNL A   1      32.650  34.268  28.000  1.00  0.00    -0.744 OA
ENDBRANCH  79  80
ENDBRANCH  47  72
BRANCH  59  84
ATOM     84  C   UNL A   1      39.770  34.188  37.234  1.00  0.00     0.058 A 
ATOM     85  C   UNL A   1      39.020  33.897  38.383  1.00  0.00     0.135 A 
ATOM     86  C   UNL A   1      40.391  35.446  37.160  1.00  0.00     0.135 A 
ATOM     87  F   UNL A   1      38.400  32.712  38.503  1.00  0.00    -0.206 F 
ATOM     88  C   UNL A   1      38.874  34.825  39.410  1.00  0.00     0.059 A 
ATOM     89  C   UNL A   1      40.283  36.379  38.187  1.00  0.00     0.059 A 
ATOM     90  F   UNL A   1      41.131  35.772  36.088  1.00  0.00    -0.206 F 
ATOM     91  C   UNL A   1      39.514  36.062  39.305  1.00  0.00     0.060 A 
BRANCH  91  92
ATOM     92  S   UNL A   1      39.355  37.240  40.665  1.00  0.00     0.124 S 
ATOM     93  O   UNL A   1      40.714  37.762  40.761  1.00  0.00    -0.237 OA
ATOM     94  O   UNL A   1      38.352  38.171  40.155  1.00  0.00    -0.237 OA
ATOM     95  O   UNL A   1      38.920  36.411  41.784  1.00  0.00    -0.744 OA
ENDBRANCH  91  92
ENDBRANCH  59  84
ENDBRANCH  33  34
ENDBRANCH  26  28
ENDBRANCH  25  26
ENDBRANCH  24  25
ENDBRANCH  23  24
ENDBRANCH  22  23
ENDBRANCH   1  22
TORSDOF 23
ENDMDL
MODEL 2
REMARK VINA RESULT:      -9.7      6.674     12.271
REMARK SMILES COc1cc(Cl)cc(/C=C/C(=O)OCCOCCOCCOC(=O)c2ccc(-c3c4nc(c(-c5c(F)cc(S(=O)(=O)[O-])cc5F)c5ccc([nH]5)c(-c5c(F)cc(S(=O)(=O)[O-])cc5F)c5nc(c(-c6c(F)cc(S(=O)(=O)[O-])cc6F)c6ccc3[nH]6)C=C5)C=C4)cc2)c1OC
REMARK SMILES IDX 18 1 17 2 16 3 15 4 14 5 13 6 11 7 12 8 10 9 9 10 8 11 3 12
REMARK SMILES IDX 4 13 91 14 5 15 6 16 7 17 2 18 1 19 92 20 93 21 19 22 20 23
REMARK SMILES IDX 21 24 22 25 23 26 24 27 25 28 26 29 90 30 27 31 89 32 28 33
REMARK SMILES IDX 29 34 30 35 83 36 31 37 88 38 82 39 84 40 32 41 87 42 81 43
REMARK SMILES IDX 80 44 33 46 67 47 46 48 66 49 47 50 50 51 65 52 85 53 48 54
REMARK SMILES IDX 49 55 64 57 86 58 51 59 34 60 35 61 44 62 36 63 37 64 43 65
REMARK SMILES IDX 45 66 38 67 39 68 40 69 41 70 42 71 68 72 69 73 78 74 70 75
REMARK SMILES IDX 71 76 77 77 79 78 72 79 73 80 74 81 75 82 76 83 52 84 53 85
REMARK SMILES IDX 62 86 54 87 55 88 61 89 63 90 56 91 57 92 58 93 59 94 60 95
REMARK H PARENT 84 45 50 56
REMARK Flexibility Score: inf
ROOT
ATOM      1  C   UNL A   1      33.698  35.155  30.825  1.00  0.00     0.188 C 
ENDROOT
BRANCH   1   2
ATOM      2  C   UNL A   1      33.398  35.090  29.315  1.00  0.00     0.188 C 
BRANCH   2   3
ATOM      3  O   UNL A   1      34.451  34.903  28.388  1.00  0.00    -0.376 OA
BRANCH   3   4
ATOM      4  C   UNL A   1      34.837  33.595  28.003  1.00  0.00     0.202 C 
BRANCH   4   5
ATOM      5  C   UNL A   1      34.053  32.344  28.423  1.00  0.00     0.261 C 
BRANCH   5   6
ATOM      6  O   UNL A   1      33.936  31.320  27.427  1.00  0.00    -0.460 OA
BRANCH   6   7
ATOM      7  C   UNL A   1      34.815  30.295  27.556  1.00  0.00     0.330 C 
ATOM      8  O   UNL A   1      35.954  30.372  27.995  1.00  0.00    -0.247 OA
BRANCH   7   9
ATOM      9  C   UNL A   1      34.229  28.987  27.204  1.00  0.00     0.094 C 
ATOM     10  C   UNL A   1      33.951  28.551  25.965  1.00  0.00     0.019 C 
BRANCH  10  11
ATOM     11  C   UNL A   1      33.391  27.206  25.705  1.00  0.00     0.022 A 
ATOM     12  C   UNL A   1      31.608  25.749  24.882  1.00  0.00     0.162 A 
ATOM     13  C   UNL A   1      32.413  24.634  25.146  1.00  0.00     0.071 A 
ATOM     14  C   UNL A   1      32.087  27.046  25.170  1.00  0.00     0.168 A 
ATOM     15  C   UNL A   1      33.668  24.797  25.723  1.00  0.00     0.045 A 
ATOM     16  Cl  UNL A   1      34.640  23.415  26.050  1.00  0.00    -0.084 Cl
ATOM     17  C   UNL A   1      34.154  26.067  26.011  1.00  0.00     0.032 A 
BRANCH  12  18
ATOM     18  O   UNL A   1      30.402  25.604  24.241  1.00  0.00    -0.493 OA
ATOM     19  C   UNL A   1      30.350  24.565  23.266  1.00  0.00     0.278 C 
ENDBRANCH  12  18
BRANCH  14  20
ATOM     20  O   UNL A   1      31.416  28.225  24.941  1.00  0.00    -0.492 OA
ATOM     21  C   UNL A   1      31.318  28.701  23.606  1.00  0.00     0.278 C 
ENDBRANCH  14  20
ENDBRANCH  10  11
ENDBRANCH   7   9
ENDBRANCH   6   7
ENDBRANCH   5   6
ENDBRANCH   4   5
ENDBRANCH   3   4
ENDBRANCH   2   3
ENDBRANCH   1   2
BRANCH   1  22
ATOM     22  O   UNL A   1      33.672  33.968  31.583  1.00  0.00    -0.376 OA
BRANCH  22  23
ATOM     23  C   UNL A   1      34.856  33.433  32.150  1.00  0.00     0.202 C 
BRANCH  23  24
ATOM     24  C   UNL A   1      36.234  33.339  31.471  1.00  0.00     0.261 C 
BRANCH  24  25
ATOM     25  O   UNL A   1      36.714  32.052  31.094  1.00  0.00    -0.460 OA
BRANCH  25  26
ATOM     26  C   UNL A   1      37.529  31.456  31.994  1.00  0.00     0.338 C 
ATOM     27  O   UNL A   1      37.325  31.305  33.195  1.00  0.00    -0.246 OA
BRANCH  26  28
ATOM     28  C   UNL A   1      38.660  30.847  31.282  1.00  0.00     0.060 A 
ATOM     29  C   UNL A   1      39.677  30.240  32.029  1.00  0.00     0.016 A 
ATOM     30  C   UNL A   1      38.733  30.909  29.890  1.00  0.00     0.016 A 
ATOM     31  C   UNL A   1      40.790  29.706  31.380  1.00  0.00     0.010 A 
ATOM     32  C   UNL A   1      39.857  30.392  29.244  1.00  0.00     0.010 A 
ATOM     33  C   UNL A   1      40.901  29.813  29.988  1.00  0.00    -0.014 A 
BRANCH  33  34
ATOM     34  C   UNL A   1      42.178  29.473  29.319  1.00  0.00     0.031 A 
ATOM     35  C   UNL A   1      42.349  28.086  28.762  1.00  0.00     0.074 A 
ATOM     36  C   UNL A   1      43.167  30.376  29.211  1.00  0.00     0.049 A 
ATOM     37  N   UNL A   1      43.393  27.542  28.194  1.00  0.00    -0.248 NA
ATOM     38  C   UNL A   1      41.184  27.193  28.866  1.00  0.00     0.031 C 
ATOM     39  C   UNL A   1      43.101  31.762  29.671  1.00  0.00     0.029 A 
ATOM     40  N   UNL A   1      44.429  30.256  28.684  1.00  0.00    -0.354 N 
ATOM     41  C   UNL A   1      43.018  26.239  27.887  1.00  0.00     0.074 A 
ATOM     42  C   UNL A   1      41.658  26.068  28.350  1.00  0.00     0.031 C 
ATOM     43  C   UNL A   1      44.276  32.363  29.412  1.00  0.00     0.029 A 
ATOM     44  C   UNL A   1      45.187  31.395  28.802  1.00  0.00     0.049 A 
ATOM     45  H   UNL A   1      44.759  29.430  28.261  1.00  0.00     0.167 HD
ATOM     46  C   UNL A   1      43.743  25.275  27.273  1.00  0.00     0.037 A 
ATOM     47  C   UNL A   1      46.475  31.620  28.475  1.00  0.00     0.037 A 
ATOM     48  C   UNL A   1      45.097  25.452  26.817  1.00  0.00     0.049 A 
ATOM     49  C   UNL A   1      47.286  30.506  27.863  1.00  0.00     0.074 A 
ATOM     50  C   UNL A   1      45.907  24.547  26.155  1.00  0.00     0.029 A 
ATOM     51  N   UNL A   1      45.845  26.609  26.988  1.00  0.00    -0.354 N 
ATOM     52  N   UNL A   1      46.914  29.288  27.548  1.00  0.00    -0.248 NA
ATOM     53  C   UNL A   1      48.697  30.797  27.565  1.00  0.00     0.031 C 
ATOM     54  C   UNL A   1      47.163  25.137  25.976  1.00  0.00     0.029 A 
ATOM     55  C   UNL A   1      47.118  26.430  26.474  1.00  0.00     0.049 A 
ATOM     56  H   UNL A   1      45.517  27.435  27.413  1.00  0.00     0.167 HD
ATOM     57  C   UNL A   1      48.031  28.681  26.981  1.00  0.00     0.074 A 
ATOM     58  C   UNL A   1      49.093  29.665  26.997  1.00  0.00     0.031 C 
ATOM     59  C   UNL A   1      48.163  27.424  26.486  1.00  0.00     0.037 A 
BRANCH  46  60
ATOM     60  C   UNL A   1      43.097  23.928  27.099  1.00  0.00     0.058 A 
ATOM     61  C   UNL A   1      42.436  23.568  25.913  1.00  0.00     0.135 A 
ATOM     62  C   UNL A   1      43.148  22.980  28.133  1.00  0.00     0.135 A 
ATOM     63  F   UNL A   1      42.341  24.442  24.898  1.00  0.00    -0.206 F 
ATOM     64  C   UNL A   1      41.819  22.328  25.773  1.00  0.00     0.059 A 
ATOM     65  C   UNL A   1      42.563  21.724  28.005  1.00  0.00     0.059 A 
ATOM     66  F   UNL A   1      43.764  23.274  29.289  1.00  0.00    -0.206 F 
ATOM     67  C   UNL A   1      41.885  21.415  26.826  1.00  0.00     0.060 A 
BRANCH  67  68
ATOM     68  S   UNL A   1      41.068  19.816  26.636  1.00  0.00     0.124 S 
ATOM     69  O   UNL A   1      40.867  19.426  28.029  1.00  0.00    -0.237 OA
ATOM     70  O   UNL A   1      39.860  20.170  25.897  1.00  0.00    -0.237 OA
ATOM     71  O   UNL A   1      42.043  19.021  25.896  1.00  0.00    -0.744 OA
ENDBRANCH  67  68
ENDBRANCH  46  60
BRANCH  47  72
ATOM     72  C   UNL A   1      47.084  32.956  28.717  1.00  0.00     0.058 A 
ATOM     73  C   UNL A   1      47.079  33.940  27.718  1.00  0.00     0.135 A 
ATOM     74  C   UNL A   1      47.684  33.276  29.946  1.00  0.00     0.135 A 
ATOM     75  F   UNL A   1      46.530  33.678  26.522  1.00  0.00    -0.206 F 
ATOM     76  C   UNL A   1      47.655  35.190  27.922  1.00  0.00     0.059 A 
ATOM     77  C   UNL A   1      48.245  34.527  30.182  1.00  0.00     0.059 A 
ATOM     78  F   UNL A   1      47.711  32.370  30.937  1.00  0.00    -0.206 F 
ATOM     79  C   UNL A   1      48.233  35.475  29.160  1.00  0.00     0.060 A 
BRANCH  79  80
ATOM     80  S   UNL A   1      48.936  37.117  29.427  1.00  0.00     0.124 S 
ATOM     81  O   UNL A   1      47.736  37.932  29.568  1.00  0.00    -0.237 OA
ATOM     82  O   UNL A   1      49.720  36.919  30.644  1.00  0.00    -0.237 OA
ATOM     83  O   UNL A   1      49.719  37.348  28.216  1.00  0.00    -0.744 OA
ENDBRANCH  79  80
ENDBRANCH  47  72
BRANCH  59  84
ATOM     84  C   UNL A   1      49.487  27.049  25.877  1.00  0.00     0.058 A 
ATOM     85  C   UNL A   1      49.745  27.204  24.507  1.00  0.00     0.135 A 
ATOM     86  C   UNL A   1      50.535  26.587  26.691  1.00  0.00     0.135 A 
ATOM     87  F   UNL A   1      48.777  27.635  23.682  1.00  0.00    -0.206 F 
ATOM     88  C   UNL A   1      50.988  26.898  23.961  1.00  0.00     0.059 A 
ATOM     89  C   UNL A   1      51.794  26.301  26.173  1.00  0.00     0.059 A 
ATOM     90  F   UNL A   1      50.346  26.431  28.011  1.00  0.00    -0.206 F 
ATOM     91  C   UNL A   1      52.008  26.451  24.804  1.00  0.00     0.060 A 
BRANCH  91  92
ATOM     92  S   UNL A   1      53.630  26.099  24.091  1.00  0.00     0.124 S 
ATOM     93  O   UNL A   1      53.898  24.764  24.617  1.00  0.00    -0.237 OA
ATOM     94  O   UNL A   1      53.365  26.173  22.658  1.00  0.00    -0.237 OA
ATOM     95  O   UNL A   1      54.473  27.164  24.623  1.00  0.00    -0.744 OA
ENDBRANCH  91  92
ENDBRANCH  59  84
ENDBRANCH  33  34
ENDBRANCH  26  28
ENDBRANCH  25  26
ENDBRANCH  24  25
ENDBRANCH  23  24
ENDBRANCH  22  23
ENDBRANCH   1  22
TORSDOF 23
ENDMDL
MODEL 3
REMARK VINA RESULT:      -9.6      1.364      2.011
REMARK SMILES COc1cc(Cl)cc(/C=C/C(=O)OCCOCCOCCOC(=O)c2ccc(-c3c4nc(c(-c5c(F)cc(S(=O)(=O)[O-])cc5F)c5ccc([nH]5)c(-c5c(F)cc(S(=O)(=O)[O-])cc5F)c5nc(c(-c6c(F)cc(S(=O)(=O)[O-])cc6F)c6ccc3[nH]6)C=C5)C=C4)cc2)c1OC
REMARK SMILES IDX 18 1 17 2 16 3 15 4 14 5 13 6 11 7 12 8 10 9 9 10 8 11 3 12
REMARK SMILES IDX 4 13 91 14 5 15 6 16 7 17 2 18 1 19 92 20 93 21 19 22 20 23
REMARK SMILES IDX 21 24 22 25 23 26 24 27 25 28 26 29 90 30 27 31 89 32 28 33
REMARK SMILES IDX 29 34 30 35 83 36 31 37 88 38 82 39 84 40 32 41 87 42 81 43
REMARK SMILES IDX 80 44 33 46 67 47 46 48 66 49 47 50 50 51 65 52 85 53 48 54
REMARK SMILES IDX 49 55 64 57 86 58 51 59 34 60 35 61 44 62 36 63 37 64 43 65
REMARK SMILES IDX 45 66 38 67 39 68 40 69 41 70 42 71 68 72 69 73 78 74 70 75
REMARK SMILES IDX 71 76 77 77 79 78 72 79 73 80 74 81 75 82 76 83 52 84 53 85
REMARK SMILES IDX 62 86 54 87 55 88 61 89 63 90 56 91 57 92 58 93 59 94 60 95
REMARK H PARENT 84 45 50 56
REMARK Flexibility Score: inf
ROOT
ATOM      1  C   UNL A   1      35.468  23.558  26.009  1.00  0.00     0.188 C 
ENDROOT
BRANCH   1   2
ATOM      2  C   UNL A   1      35.133  22.137  26.503  1.00  0.00     0.188 C 
BRANCH   2   3
ATOM      3  O   UNL A   1      33.836  21.605  26.310  1.00  0.00    -0.376 OA
BRANCH   3   4
ATOM      4  C   UNL A   1      33.671  20.312  25.752  1.00  0.00     0.202 C 
BRANCH   4   5
ATOM      5  C   UNL A   1      32.939  20.072  24.424  1.00  0.00     0.261 C 
BRANCH   5   6
ATOM      6  O   UNL A   1      31.802  20.911  24.181  1.00  0.00    -0.460 OA
BRANCH   6   7
ATOM      7  C   UNL A   1      31.888  21.678  23.066  1.00  0.00     0.330 C 
ATOM      8  O   UNL A   1      32.150  21.286  21.938  1.00  0.00    -0.247 OA
BRANCH   7   9
ATOM      9  C   UNL A   1      31.521  23.087  23.308  1.00  0.00     0.094 C 
ATOM     10  C   UNL A   1      32.334  24.050  23.770  1.00  0.00     0.019 C 
BRANCH  10  11
ATOM     11  C   UNL A   1      31.884  25.449  23.952  1.00  0.00     0.022 A 
ATOM     12  C   UNL A   1      30.965  27.537  23.071  1.00  0.00     0.162 A 
ATOM     13  C   UNL A   1      30.955  28.066  24.368  1.00  0.00     0.071 A 
ATOM     14  C   UNL A   1      31.440  26.225  22.851  1.00  0.00     0.168 A 
ATOM     15  C   UNL A   1      31.445  27.318  25.433  1.00  0.00     0.045 A 
ATOM     16  Cl  UNL A   1      31.436  27.988  27.018  1.00  0.00    -0.084 Cl
ATOM     17  C   UNL A   1      31.915  26.025  25.233  1.00  0.00     0.032 A 
BRANCH  12  18
ATOM     18  O   UNL A   1      30.412  28.236  22.027  1.00  0.00    -0.493 OA
ATOM     19  C   UNL A   1      29.520  29.285  22.399  1.00  0.00     0.278 C 
ENDBRANCH  12  18
BRANCH  14  20
ATOM     20  O   UNL A   1      31.484  25.574  21.639  1.00  0.00    -0.492 OA
ATOM     21  C   UNL A   1      32.532  25.893  20.736  1.00  0.00     0.278 C 
ENDBRANCH  14  20
ENDBRANCH  10  11
ENDBRANCH   7   9
ENDBRANCH   6   7
ENDBRANCH   5   6
ENDBRANCH   4   5
ENDBRANCH   3   4
ENDBRANCH   2   3
ENDBRANCH   1   2
BRANCH   1  22
ATOM     22  O   UNL A   1      36.803  23.882  25.698  1.00  0.00    -0.376 OA
BRANCH  22  23
ATOM     23  C   UNL A   1      37.813  22.888  25.675  1.00  0.00     0.202 C 
BRANCH  23  24
ATOM     24  C   UNL A   1      39.123  22.896  26.484  1.00  0.00     0.261 C 
BRANCH  24  25
ATOM     25  O   UNL A   1      39.966  24.041  26.389  1.00  0.00    -0.460 OA
BRANCH  25  26
ATOM     26  C   UNL A   1      40.927  24.126  27.336  1.00  0.00     0.338 C 
ATOM     27  O   UNL A   1      41.913  23.405  27.461  1.00  0.00    -0.246 OA
BRANCH  26  28
ATOM     28  C   UNL A   1      40.710  25.345  28.126  1.00  0.00     0.060 A 
ATOM     29  C   UNL A   1      41.751  26.278  28.225  1.00  0.00     0.016 A 
ATOM     30  C   UNL A   1      39.503  25.545  28.796  1.00  0.00     0.016 A 
ATOM     31  C   UNL A   1      41.590  27.414  29.016  1.00  0.00     0.010 A 
ATOM     32  C   UNL A   1      39.352  26.674  29.603  1.00  0.00     0.010 A 
ATOM     33  C   UNL A   1      40.404  27.598  29.738  1.00  0.00    -0.014 A 
BRANCH  33  34
ATOM     34  C   UNL A   1      40.319  28.665  30.762  1.00  0.00     0.031 A 
ATOM     35  C   UNL A   1      41.227  28.583  31.959  1.00  0.00     0.074 A 
ATOM     36  C   UNL A   1      39.453  29.684  30.633  1.00  0.00     0.049 A 
ATOM     37  N   UNL A   1      41.289  29.360  33.008  1.00  0.00    -0.248 NA
ATOM     38  C   UNL A   1      42.189  27.469  31.973  1.00  0.00     0.031 C 
ATOM     39  C   UNL A   1      38.556  29.894  29.498  1.00  0.00     0.029 A 
ATOM     40  N   UNL A   1      39.180  30.731  31.477  1.00  0.00    -0.354 N 
ATOM     41  C   UNL A   1      42.285  28.822  33.815  1.00  0.00     0.074 A 
ATOM     42  C   UNL A   1      42.785  27.642  33.144  1.00  0.00     0.031 C 
ATOM     43  C   UNL A   1      37.826  31.001  29.720  1.00  0.00     0.029 A 
ATOM     44  C   UNL A   1      38.177  31.556  31.026  1.00  0.00     0.049 A 
ATOM     45  H   UNL A   1      39.659  30.879  32.325  1.00  0.00     0.167 HD
ATOM     46  C   UNL A   1      42.742  29.275  35.007  1.00  0.00     0.037 A 
ATOM     47  C   UNL A   1      37.597  32.621  31.615  1.00  0.00     0.037 A 
ATOM     48  C   UNL A   1      42.238  30.449  35.669  1.00  0.00     0.049 A 
ATOM     49  C   UNL A   1      38.070  33.060  32.978  1.00  0.00     0.074 A 
ATOM     50  C   UNL A   1      42.654  31.009  36.864  1.00  0.00     0.029 A 
ATOM     51  N   UNL A   1      41.195  31.236  35.200  1.00  0.00    -0.354 N 
ATOM     52  N   UNL A   1      39.033  32.564  33.718  1.00  0.00    -0.248 NA
ATOM     53  C   UNL A   1      37.373  34.202  33.588  1.00  0.00     0.031 C 
ATOM     54  C   UNL A   1      41.827  32.101  37.144  1.00  0.00     0.029 A 
ATOM     55  C   UNL A   1      40.933  32.258  36.098  1.00  0.00     0.049 A 
ATOM     56  H   UNL A   1      40.714  31.089  34.354  1.00  0.00     0.167 HD
ATOM     57  C   UNL A   1      39.082  33.356  34.862  1.00  0.00     0.074 A 
ATOM     58  C   UNL A   1      38.052  34.363  34.716  1.00  0.00     0.031 C 
ATOM     59  C   UNL A   1      39.910  33.262  35.933  1.00  0.00     0.037 A 
BRANCH  46  60
ATOM     60  C   UNL A   1      43.813  28.469  35.689  1.00  0.00     0.058 A 
ATOM     61  C   UNL A   1      45.179  28.702  35.459  1.00  0.00     0.135 A 
ATOM     62  C   UNL A   1      43.466  27.453  36.594  1.00  0.00     0.135 A 
ATOM     63  F   UNL A   1      45.567  29.648  34.590  1.00  0.00    -0.206 F 
ATOM     64  C   UNL A   1      46.161  27.933  36.076  1.00  0.00     0.059 A 
ATOM     65  C   UNL A   1      44.431  26.691  37.244  1.00  0.00     0.059 A 
ATOM     66  F   UNL A   1      42.174  27.187  36.847  1.00  0.00    -0.206 F 
ATOM     67  C   UNL A   1      45.776  26.927  36.964  1.00  0.00     0.060 A 
BRANCH  67  68
ATOM     68  S   UNL A   1      47.060  25.927  37.746  1.00  0.00     0.124 S 
ATOM     69  O   UNL A   1      46.322  25.317  38.848  1.00  0.00    -0.237 OA
ATOM     70  O   UNL A   1      47.452  25.024  36.668  1.00  0.00    -0.237 OA
ATOM     71  O   UNL A   1      48.068  26.910  38.133  1.00  0.00    -0.744 OA
ENDBRANCH  67  68
ENDBRANCH  46  60
BRANCH  47  72
ATOM     72  C   UNL A   1      36.503  33.352  30.920  1.00  0.00     0.058 A 
ATOM     73  C   UNL A   1      35.171  33.217  31.336  1.00  0.00     0.135 A 
ATOM     74  C   UNL A   1      36.765  34.196  29.828  1.00  0.00     0.135 A 
ATOM     75  F   UNL A   1      34.868  32.410  32.364  1.00  0.00    -0.206 F 
ATOM     76  C   UNL A   1      34.134  33.882  30.689  1.00  0.00     0.059 A 
ATOM     77  C   UNL A   1      35.748  34.891  29.182  1.00  0.00     0.059 A 
ATOM     78  F   UNL A   1      38.024  34.364  29.395  1.00  0.00    -0.206 F 
ATOM     79  C   UNL A   1      34.433  34.721  29.615  1.00  0.00     0.060 A 
BRANCH  79  80
ATOM     80  S   UNL A   1      33.084  35.615  28.815  1.00  0.00     0.124 S 
ATOM     81  O   UNL A   1      32.498  34.576  27.976  1.00  0.00    -0.237 OA
ATOM     82  O   UNL A   1      32.280  36.041  29.957  1.00  0.00    -0.237 OA
ATOM     83  O   UNL A   1      33.769  36.691  28.103  1.00  0.00    -0.744 OA
ENDBRANCH  79  80
ENDBRANCH  47  72
BRANCH  59  84
ATOM     84  C   UNL A   1      39.774  34.299  37.015  1.00  0.00     0.058 A 
ATOM     85  C   UNL A   1      38.975  34.089  38.149  1.00  0.00     0.135 A 
ATOM     86  C   UNL A   1      40.508  35.495  36.945  1.00  0.00     0.135 A 
ATOM     87  F   UNL A   1      38.247  32.966  38.264  1.00  0.00    -0.206 F 
ATOM     88  C   UNL A   1      38.893  35.035  39.166  1.00  0.00     0.059 A 
ATOM     89  C   UNL A   1      40.463  36.443  37.963  1.00  0.00     0.059 A 
ATOM     90  F   UNL A   1      41.297  35.742  35.888  1.00  0.00    -0.206 F 
ATOM     91  C   UNL A   1      39.644  36.208  39.066  1.00  0.00     0.060 A 
BRANCH  91  92
ATOM     92  S   UNL A   1      39.564  37.408  40.413  1.00  0.00     0.124 S 
ATOM     93  O   UNL A   1      39.878  36.575  41.569  1.00  0.00    -0.237 OA
ATOM     94  O   UNL A   1      40.590  38.375  40.032  1.00  0.00    -0.237 OA
ATOM     95  O   UNL A   1      38.192  37.901  40.348  1.00  0.00    -0.744 OA
ENDBRANCH  91  92
ENDBRANCH  59  84
ENDBRANCH  33  34
ENDBRANCH  26  28
ENDBRANCH  25  26
ENDBRANCH  24  25
ENDBRANCH  23  24
ENDBRANCH  22  23
ENDBRANCH   1  22
TORSDOF 23
ENDMDL
