MODEL 1
REMARK VINA RESULT:     -10.7      0.000      0.000
REMARK SMILES O=C(N[C@@H](Cc1c[nH]c2ccccc12)C(=O)N[C@@H](CO)C(=O)OCCOCCOCCOC(=O)c1ccc(-c2c3nc(c(-c4c(F)cc(S(=O)(=O)[O-])cc4F)c4ccc([nH]4)c(-c4c(F)cc(S(=O)(=O)[O-])cc4F)c4nc(c(-c5c(F)cc(S(=O)(=O)[O-])cc5F)c5ccc2[nH]5)C=C4)C=C3)cc1)c1ccc(F)cc1
REMARK SMILES IDX 27 1 26 2 25 3 24 4 23 5 21 6 22 7 18 8 17 9 15 10 16 11
REMARK SMILES IDX 4 13 3 14 1 15 2 16 101 18 102 19 107 20 103 21 106 22
REMARK SMILES IDX 104 23 105 24 5 25 6 26 7 27 14 28 8 29 9 30 13 31 10 33
REMARK SMILES IDX 12 34 11 35 19 36 20 37 28 39 29 40 30 41 31 42 32 43 33 44
REMARK SMILES IDX 34 45 35 46 36 47 100 48 37 49 99 50 38 51 39 52 40 53 93 54
REMARK SMILES IDX 41 55 98 56 92 57 94 58 42 59 97 60 91 61 90 62 43 64 77 65
REMARK SMILES IDX 56 66 76 67 57 68 60 69 75 70 95 71 58 72 59 73 74 75 96 76
REMARK SMILES IDX 61 77 44 78 45 79 54 80 46 81 47 82 53 83 55 84 48 85 49 86
REMARK SMILES IDX 50 87 51 88 52 89 78 90 79 91 88 92 80 93 81 94 87 95 89 96
REMARK SMILES IDX 82 97 83 98 84 99 85 100 86 101 62 102 63 103 72 104 64 105
REMARK SMILES IDX 65 106 71 107 73 108 66 109 67 110 68 111 69 112 70 113
REMARK H PARENT 17 12 3 17 8 32 20 38 94 63 60 74
REMARK Flexibility Score: inf
ROOT
ATOM      1  C   UNL A   1      40.184  21.591  26.517  1.00  0.00     0.188 C 
ENDROOT
BRANCH   1   2
ATOM      2  O   UNL A   1      39.490  20.723  25.627  1.00  0.00    -0.376 OA
BRANCH   2   3
ATOM      3  C   UNL A   1      38.070  20.788  25.717  1.00  0.00     0.202 C 
BRANCH   3   4
ATOM      4  C   UNL A   1      37.476  21.549  24.535  1.00  0.00     0.261 C 
BRANCH   4   5
ATOM      5  O   UNL A   1      36.186  22.111  24.857  1.00  0.00    -0.462 OA
BRANCH   5   6
ATOM      6  C   UNL A   1      36.141  23.443  25.127  1.00  0.00     0.331 C 
ATOM      7  O   UNL A   1      37.089  24.099  25.545  1.00  0.00    -0.250 OA
BRANCH   6   8
ATOM      8  C   UNL A   1      34.733  24.031  24.895  1.00  0.00     0.218 C 
BRANCH   8   9
ATOM      9  N   UNL A   1      34.461  25.311  25.552  1.00  0.00    -0.339 N 
ATOM     10  C   UNL A   1      33.347  26.083  25.628  1.00  0.00     0.243 C 
ATOM     11  O   UNL A   1      33.478  27.144  26.254  1.00  0.00    -0.273 OA
ATOM     12  H   UNL A   1      35.236  25.684  26.031  1.00  0.00     0.164 HD
BRANCH  10  13
ATOM     13  C   UNL A   1      31.980  25.767  24.966  1.00  0.00     0.176 C 
BRANCH  13  14
ATOM     14  N   UNL A   1      30.948  25.406  25.933  1.00  0.00    -0.340 N 
ATOM     15  O   UNL A   1      29.714  24.043  27.229  1.00  0.00    -0.269 OA
ATOM     16  C   UNL A   1      30.704  24.183  26.516  1.00  0.00     0.251 C 
ATOM     17  H   UNL A   1      30.344  26.134  26.204  1.00  0.00     0.164 HD
BRANCH  16  18
ATOM     18  C   UNL A   1      31.598  23.020  26.285  1.00  0.00     0.040 A 
ATOM     19  C   UNL A   1      32.557  22.636  27.233  1.00  0.00     0.017 A 
ATOM     20  C   UNL A   1      31.417  22.254  25.125  1.00  0.00     0.017 A 
ATOM     21  C   UNL A   1      33.360  21.515  26.996  1.00  0.00     0.040 A 
ATOM     22  C   UNL A   1      32.217  21.131  24.897  1.00  0.00     0.040 A 
ATOM     23  C   UNL A   1      33.182  20.774  25.832  1.00  0.00     0.123 A 
ATOM     24  F   UNL A   1      33.942  19.691  25.621  1.00  0.00    -0.207 F 
ENDBRANCH  16  18
ENDBRANCH  13  14
BRANCH  13  25
ATOM     25  C   UNL A   1      31.510  26.617  23.774  1.00  0.00     0.072 C 
BRANCH  25  26
ATOM     26  C   UNL A   1      31.084  28.043  23.951  1.00  0.00    -0.020 A 
ATOM     27  C   UNL A   1      31.752  29.088  24.562  1.00  0.00     0.087 A 
ATOM     28  C   UNL A   1      29.786  28.559  23.611  1.00  0.00     0.003 A 
ATOM     29  N   UNL A   1      31.026  30.237  24.368  1.00  0.00    -0.361 N 
ATOM     30  C   UNL A   1      29.815  29.937  23.793  1.00  0.00     0.046 A 
ATOM     31  C   UNL A   1      28.589  27.977  23.142  1.00  0.00     0.010 A 
ATOM     32  H   UNL A   1      31.329  31.142  24.608  1.00  0.00     0.166 HD
ATOM     33  C   UNL A   1      28.744  30.772  23.449  1.00  0.00     0.026 A 
ATOM     34  C   UNL A   1      27.490  28.786  22.841  1.00  0.00     0.001 A 
ATOM     35  C   UNL A   1      27.577  30.168  22.970  1.00  0.00     0.002 A 
ENDBRANCH  25  26
ENDBRANCH  13  25
ENDBRANCH  10  13
ENDBRANCH   8   9
BRANCH   8  36
ATOM     36  C   UNL A   1      34.477  24.121  23.389  1.00  0.00     0.193 C 
BRANCH  36  37
ATOM     37  O   UNL A   1      35.581  23.622  22.637  1.00  0.00    -0.394 OA
ATOM     38  H   UNL A   1      35.651  22.663  22.764  1.00  0.00     0.210 HD
ENDBRANCH  36  37
ENDBRANCH   8  36
ENDBRANCH   6   8
ENDBRANCH   5   6
ENDBRANCH   4   5
ENDBRANCH   3   4
ENDBRANCH   2   3
ENDBRANCH   1   2
BRANCH   1  39
ATOM     39  C   UNL A   1      41.713  21.469  26.451  1.00  0.00     0.188 C 
BRANCH  39  40
ATOM     40  O   UNL A   1      42.523  22.443  27.093  1.00  0.00    -0.376 OA
BRANCH  40  41
ATOM     41  C   UNL A   1      43.521  23.096  26.326  1.00  0.00     0.202 C 
BRANCH  41  42
ATOM     42  C   UNL A   1      43.030  24.089  25.272  1.00  0.00     0.261 C 
BRANCH  42  43
ATOM     43  O   UNL A   1      41.940  24.916  25.722  1.00  0.00    -0.460 OA
BRANCH  43  44
ATOM     44  C   UNL A   1      42.197  26.248  25.731  1.00  0.00     0.338 C 
ATOM     45  O   UNL A   1      42.303  26.985  24.767  1.00  0.00    -0.246 OA
BRANCH  44  46
ATOM     46  C   UNL A   1      42.230  26.762  27.116  1.00  0.00     0.060 A 
ATOM     47  C   UNL A   1      41.385  26.166  28.061  1.00  0.00     0.016 A 
ATOM     48  C   UNL A   1      42.959  27.906  27.446  1.00  0.00     0.016 A 
ATOM     49  C   UNL A   1      41.245  26.729  29.334  1.00  0.00     0.010 A 
ATOM     50  C   UNL A   1      42.800  28.481  28.716  1.00  0.00     0.010 A 
ATOM     51  C   UNL A   1      41.923  27.911  29.658  1.00  0.00    -0.014 A 
BRANCH  51  52
ATOM     52  C   UNL A   1      41.576  28.658  30.897  1.00  0.00     0.031 A 
ATOM     53  C   UNL A   1      40.428  29.628  30.855  1.00  0.00     0.074 A 
ATOM     54  C   UNL A   1      42.261  28.490  32.043  1.00  0.00     0.049 A 
ATOM     55  N   UNL A   1      40.023  30.473  31.768  1.00  0.00    -0.248 NA
ATOM     56  C   UNL A   1      39.623  29.639  29.623  1.00  0.00     0.031 C 
ATOM     57  C   UNL A   1      43.336  27.528  32.250  1.00  0.00     0.029 A 
ATOM     58  N   UNL A   1      42.160  29.141  33.250  1.00  0.00    -0.354 N 
ATOM     59  C   UNL A   1      38.922  31.119  31.222  1.00  0.00     0.074 A 
ATOM     60  C   UNL A   1      38.725  30.573  29.896  1.00  0.00     0.031 C 
ATOM     61  C   UNL A   1      43.822  27.668  33.495  1.00  0.00     0.029 A 
ATOM     62  C   UNL A   1      43.118  28.761  34.162  1.00  0.00     0.049 A 
ATOM     63  H   UNL A   1      41.468  29.814  33.443  1.00  0.00     0.167 HD
ATOM     64  C   UNL A   1      38.148  32.086  31.770  1.00  0.00     0.037 A 
ATOM     65  C   UNL A   1      43.421  29.263  35.376  1.00  0.00     0.037 A 
ATOM     66  C   UNL A   1      38.357  32.649  33.078  1.00  0.00     0.049 A 
ATOM     67  C   UNL A   1      42.622  30.418  35.922  1.00  0.00     0.074 A 
ATOM     68  C   UNL A   1      37.639  33.649  33.708  1.00  0.00     0.029 A 
ATOM     69  N   UNL A   1      39.365  32.270  33.951  1.00  0.00    -0.354 N 
ATOM     70  N   UNL A   1      41.593  31.033  35.389  1.00  0.00    -0.248 NA
ATOM     71  C   UNL A   1      43.030  30.956  37.229  1.00  0.00     0.031 C 
ATOM     72  C   UNL A   1      38.238  33.904  34.947  1.00  0.00     0.029 A 
ATOM     73  C   UNL A   1      39.303  33.033  35.105  1.00  0.00     0.049 A 
ATOM     74  H   UNL A   1      40.028  31.564  33.775  1.00  0.00     0.167 HD
ATOM     75  C   UNL A   1      41.215  32.010  36.305  1.00  0.00     0.074 A 
ATOM     76  C   UNL A   1      42.123  31.904  37.429  1.00  0.00     0.031 C 
ATOM     77  C   UNL A   1      40.205  32.910  36.223  1.00  0.00     0.037 A 
BRANCH  64  78
ATOM     78  C   UNL A   1      37.032  32.628  30.928  1.00  0.00     0.058 A 
ATOM     79  C   UNL A   1      37.226  33.707  30.053  1.00  0.00     0.135 A 
ATOM     80  C   UNL A   1      35.752  32.055  30.994  1.00  0.00     0.135 A 
ATOM     81  F   UNL A   1      38.427  34.301  29.969  1.00  0.00    -0.206 F 
ATOM     82  C   UNL A   1      36.181  34.220  29.292  1.00  0.00     0.059 A 
ATOM     83  C   UNL A   1      34.697  32.539  30.226  1.00  0.00     0.059 A 
ATOM     84  F   UNL A   1      35.515  31.025  31.820  1.00  0.00    -0.206 F 
ATOM     85  C   UNL A   1      34.919  33.633  29.391  1.00  0.00     0.060 A 
BRANCH  85  86
ATOM     86  S   UNL A   1      33.565  34.317  28.412  1.00  0.00     0.124 S 
ATOM     87  O   UNL A   1      32.697  34.856  29.454  1.00  0.00    -0.237 OA
ATOM     88  O   UNL A   1      34.246  35.304  27.581  1.00  0.00    -0.237 OA
ATOM     89  O   UNL A   1      33.043  33.156  27.697  1.00  0.00    -0.744 OA
ENDBRANCH  85  86
ENDBRANCH  64  78
BRANCH  65  90
ATOM     90  C   UNL A   1      44.568  28.711  36.147  1.00  0.00     0.058 A 
ATOM     91  C   UNL A   1      45.870  29.198  35.963  1.00  0.00     0.135 A 
ATOM     92  C   UNL A   1      44.384  27.673  37.074  1.00  0.00     0.135 A 
ATOM     93  F   UNL A   1      46.100  30.179  35.076  1.00  0.00    -0.206 F 
ATOM     94  C   UNL A   1      46.952  28.669  36.662  1.00  0.00     0.059 A 
ATOM     95  C   UNL A   1      45.446  27.143  37.801  1.00  0.00     0.059 A 
ATOM     96  F   UNL A   1      43.157  27.171  37.289  1.00  0.00    -0.206 F 
ATOM     97  C   UNL A   1      46.728  27.642  37.581  1.00  0.00     0.060 A 
BRANCH  97  98
ATOM     98  S   UNL A   1      48.130  26.993  38.518  1.00  0.00     0.124 S 
ATOM     99  O   UNL A   1      47.458  26.303  39.612  1.00  0.00    -0.237 OA
ATOM    100  O   UNL A   1      48.789  26.141  37.533  1.00  0.00    -0.237 OA
ATOM    101  O   UNL A   1      48.870  28.196  38.888  1.00  0.00    -0.744 OA
ENDBRANCH  97  98
ENDBRANCH  65  90
BRANCH  77 102
ATOM    102  C   UNL A   1      39.991  33.833  37.391  1.00  0.00     0.058 A 
ATOM    103  C   UNL A   1      40.599  35.096  37.452  1.00  0.00     0.135 A 
ATOM    104  C   UNL A   1      39.106  33.478  38.421  1.00  0.00     0.135 A 
ATOM    105  F   UNL A   1      41.459  35.479  36.495  1.00  0.00    -0.206 F 
ATOM    106  C   UNL A   1      40.341  35.975  38.500  1.00  0.00     0.059 A 
ATOM    107  C   UNL A   1      38.817  34.349  39.467  1.00  0.00     0.059 A 
ATOM    108  F   UNL A   1      38.494  32.284  38.405  1.00  0.00    -0.206 F 
ATOM    109  C   UNL A   1      39.445  35.594  39.500  1.00  0.00     0.060 A 
BRANCH 109 110
ATOM    110  S   UNL A   1      39.072  36.765  40.825  1.00  0.00     0.124 S 
ATOM    111  O   UNL A   1      40.410  37.150  41.263  1.00  0.00    -0.237 OA
ATOM    112  O   UNL A   1      38.312  37.797  40.126  1.00  0.00    -0.237 OA
ATOM    113  O   UNL A   1      38.304  35.968  41.777  1.00  0.00    -0.744 OA
ENDBRANCH 109 110
ENDBRANCH  77 102
ENDBRANCH  51  52
ENDBRANCH  44  46
ENDBRANCH  43  44
ENDBRANCH  42  43
ENDBRANCH  41  42
ENDBRANCH  40  41
ENDBRANCH  39  40
ENDBRANCH   1  39
TORSDOF 28
ENDMDL
MODEL 2
REMARK VINA RESULT:     -10.6      6.346      8.743
REMARK SMILES O=C(N[C@@H](Cc1c[nH]c2ccccc12)C(=O)N[C@@H](CO)C(=O)OCCOCCOCCOC(=O)c1ccc(-c2c3nc(c(-c4c(F)cc(S(=O)(=O)[O-])cc4F)c4ccc([nH]4)c(-c4c(F)cc(S(=O)(=O)[O-])cc4F)c4nc(c(-c5c(F)cc(S(=O)(=O)[O-])cc5F)c5ccc2[nH]5)C=C4)C=C3)cc1)c1ccc(F)cc1
REMARK SMILES IDX 27 1 26 2 25 3 24 4 23 5 21 6 22 7 18 8 17 9 15 10 16 11
REMARK SMILES IDX 4 13 3 14 1 15 2 16 101 18 102 19 107 20 103 21 106 22
REMARK SMILES IDX 104 23 105 24 5 25 6 26 7 27 14 28 8 29 9 30 13 31 10 33
REMARK SMILES IDX 12 34 11 35 19 36 20 37 28 39 29 40 30 41 31 42 32 43 33 44
REMARK SMILES IDX 34 45 35 46 36 47 100 48 37 49 99 50 38 51 39 52 40 53 93 54
REMARK SMILES IDX 41 55 98 56 92 57 94 58 42 59 97 60 91 61 90 62 43 64 77 65
REMARK SMILES IDX 56 66 76 67 57 68 60 69 75 70 95 71 58 72 59 73 74 75 96 76
REMARK SMILES IDX 61 77 44 78 45 79 54 80 46 81 47 82 53 83 55 84 48 85 49 86
REMARK SMILES IDX 50 87 51 88 52 89 78 90 79 91 88 92 80 93 81 94 87 95 89 96
REMARK SMILES IDX 82 97 83 98 84 99 85 100 86 101 62 102 63 103 72 104 64 105
REMARK SMILES IDX 65 106 71 107 73 108 66 109 67 110 68 111 69 112 70 113
REMARK H PARENT 17 12 3 17 8 32 20 38 94 63 60 74
REMARK Flexibility Score: inf
ROOT
ATOM      1  C   UNL A   1      39.680  21.364  26.066  1.00  0.00     0.188 C 
ENDROOT
BRANCH   1   2
ATOM      2  O   UNL A   1      38.746  20.581  25.330  1.00  0.00    -0.376 OA
BRANCH   2   3
ATOM      3  C   UNL A   1      37.481  21.203  25.123  1.00  0.00     0.202 C 
BRANCH   3   4
ATOM      4  C   UNL A   1      36.374  20.164  24.965  1.00  0.00     0.261 C 
BRANCH   4   5
ATOM      5  O   UNL A   1      35.100  20.780  24.687  1.00  0.00    -0.462 OA
BRANCH   5   6
ATOM      6  C   UNL A   1      34.161  20.732  25.670  1.00  0.00     0.331 C 
ATOM      7  O   UNL A   1      34.332  21.137  26.814  1.00  0.00    -0.250 OA
BRANCH   6   8
ATOM      8  C   UNL A   1      32.859  20.054  25.191  1.00  0.00     0.218 C 
BRANCH   8   9
ATOM      9  N   UNL A   1      32.422  20.399  23.837  1.00  0.00    -0.339 N 
ATOM     10  C   UNL A   1      32.042  21.571  23.268  1.00  0.00     0.243 C 
ATOM     11  O   UNL A   1      31.697  21.498  22.080  1.00  0.00    -0.273 OA
ATOM     12  H   UNL A   1      32.400  19.632  23.220  1.00  0.00     0.164 HD
BRANCH  10  13
ATOM     13  C   UNL A   1      31.962  22.942  23.988  1.00  0.00     0.176 C 
BRANCH  13  14
ATOM     14  N   UNL A   1      31.295  22.868  25.285  1.00  0.00    -0.340 N 
ATOM     15  O   UNL A   1      30.245  23.639  27.118  1.00  0.00    -0.269 OA
ATOM     16  C   UNL A   1      30.654  23.866  25.982  1.00  0.00     0.251 C 
ATOM     17  H   UNL A   1      31.307  21.985  25.720  1.00  0.00     0.164 HD
BRANCH  16  18
ATOM     18  C   UNL A   1      30.465  25.220  25.403  1.00  0.00     0.040 A 
ATOM     19  C   UNL A   1      30.928  26.368  26.062  1.00  0.00     0.017 A 
ATOM     20  C   UNL A   1      29.880  25.331  24.133  1.00  0.00     0.017 A 
ATOM     21  C   UNL A   1      30.762  27.624  25.470  1.00  0.00     0.040 A 
ATOM     22  C   UNL A   1      29.723  26.589  23.544  1.00  0.00     0.040 A 
ATOM     23  C   UNL A   1      30.163  27.723  24.218  1.00  0.00     0.123 A 
ATOM     24  F   UNL A   1      30.023  28.928  23.650  1.00  0.00    -0.207 F 
ENDBRANCH  16  18
ENDBRANCH  13  14
BRANCH  13  25
ATOM     25  C   UNL A   1      33.160  23.904  23.908  1.00  0.00     0.072 C 
BRANCH  25  26
ATOM     26  C   UNL A   1      33.148  25.092  22.997  1.00  0.00    -0.020 A 
ATOM     27  C   UNL A   1      32.944  25.148  21.631  1.00  0.00     0.087 A 
ATOM     28  C   UNL A   1      33.493  26.431  23.392  1.00  0.00     0.003 A 
ATOM     29  N   UNL A   1      32.897  26.468  21.254  1.00  0.00    -0.361 N 
ATOM     30  C   UNL A   1      33.236  27.272  22.314  1.00  0.00     0.046 A 
ATOM     31  C   UNL A   1      33.985  27.009  24.582  1.00  0.00     0.010 A 
ATOM     32  H   UNL A   1      32.656  26.790  20.355  1.00  0.00     0.166 HD
ATOM     33  C   UNL A   1      33.360  28.665  22.391  1.00  0.00     0.026 A 
ATOM     34  C   UNL A   1      34.164  28.393  24.665  1.00  0.00     0.001 A 
ATOM     35  C   UNL A   1      33.831  29.211  23.590  1.00  0.00     0.002 A 
ENDBRANCH  25  26
ENDBRANCH  13  25
ENDBRANCH  10  13
ENDBRANCH   8   9
BRANCH   8  36
ATOM     36  C   UNL A   1      33.003  18.539  25.352  1.00  0.00     0.193 C 
BRANCH  36  37
ATOM     37  O   UNL A   1      32.922  18.144  26.720  1.00  0.00    -0.394 OA
ATOM     38  H   UNL A   1      33.304  17.258  26.824  1.00  0.00     0.210 HD
ENDBRANCH  36  37
ENDBRANCH   8  36
ENDBRANCH   6   8
ENDBRANCH   5   6
ENDBRANCH   4   5
ENDBRANCH   3   4
ENDBRANCH   2   3
ENDBRANCH   1   2
BRANCH   1  39
ATOM     39  C   UNL A   1      40.710  20.540  26.851  1.00  0.00     0.188 C 
BRANCH  39  40
ATOM     40  O   UNL A   1      41.947  20.199  26.242  1.00  0.00    -0.376 OA
BRANCH  40  41
ATOM     41  C   UNL A   1      42.343  18.838  26.246  1.00  0.00     0.202 C 
BRANCH  41  42
ATOM     42  C   UNL A   1      43.550  18.476  25.379  1.00  0.00     0.261 C 
BRANCH  42  43
ATOM     43  O   UNL A   1      43.816  19.430  24.333  1.00  0.00    -0.460 OA
BRANCH  43  44
ATOM     44  C   UNL A   1      45.048  19.997  24.375  1.00  0.00     0.338 C 
ATOM     45  O   UNL A   1      46.085  19.541  23.927  1.00  0.00    -0.246 OA
BRANCH  44  46
ATOM     46  C   UNL A   1      44.977  21.353  24.957  1.00  0.00     0.060 A 
ATOM     47  C   UNL A   1      44.861  22.441  24.084  1.00  0.00     0.016 A 
ATOM     48  C   UNL A   1      45.177  21.565  26.323  1.00  0.00     0.016 A 
ATOM     49  C   UNL A   1      44.972  23.748  24.569  1.00  0.00     0.010 A 
ATOM     50  C   UNL A   1      45.309  22.876  26.804  1.00  0.00     0.010 A 
ATOM     51  C   UNL A   1      45.233  23.974  25.927  1.00  0.00    -0.014 A 
BRANCH  51  52
ATOM     52  C   UNL A   1      45.618  25.331  26.400  1.00  0.00     0.031 A 
ATOM     53  C   UNL A   1      44.536  26.264  26.870  1.00  0.00     0.074 A 
ATOM     54  C   UNL A   1      46.899  25.742  26.414  1.00  0.00     0.049 A 
ATOM     55  N   UNL A   1      44.618  27.525  27.208  1.00  0.00    -0.248 NA
ATOM     56  C   UNL A   1      43.183  25.695  26.983  1.00  0.00     0.031 C 
ATOM     57  C   UNL A   1      48.053  24.919  26.068  1.00  0.00     0.029 A 
ATOM     58  N   UNL A   1      47.445  26.966  26.720  1.00  0.00    -0.354 N 
ATOM     59  C   UNL A   1      43.332  27.903  27.568  1.00  0.00     0.074 A 
ATOM     60  C   UNL A   1      42.486  26.740  27.403  1.00  0.00     0.031 C 
ATOM     61  C   UNL A   1      49.168  25.664  26.148  1.00  0.00     0.029 A 
ATOM     62  C   UNL A   1      48.803  27.031  26.511  1.00  0.00     0.049 A 
ATOM     63  H   UNL A   1      46.914  27.723  27.057  1.00  0.00     0.167 HD
ATOM     64  C   UNL A   1      42.891  29.111  27.993  1.00  0.00     0.037 A 
ATOM     65  C   UNL A   1      49.649  28.081  26.564  1.00  0.00     0.037 A 
ATOM     66  C   UNL A   1      43.724  30.276  28.134  1.00  0.00     0.049 A 
ATOM     67  C   UNL A   1      49.118  29.444  26.925  1.00  0.00     0.074 A 
ATOM     68  C   UNL A   1      43.360  31.550  28.533  1.00  0.00     0.029 A 
ATOM     69  N   UNL A   1      45.083  30.314  27.867  1.00  0.00    -0.354 N 
ATOM     70  N   UNL A   1      47.896  29.794  27.247  1.00  0.00    -0.248 NA
ATOM     71  C   UNL A   1      50.078  30.559  26.919  1.00  0.00     0.031 C 
ATOM     72  C   UNL A   1      44.493  32.368  28.470  1.00  0.00     0.029 A 
ATOM     73  C   UNL A   1      45.571  31.594  28.072  1.00  0.00     0.049 A 
ATOM     74  H   UNL A   1      45.623  29.543  27.575  1.00  0.00     0.167 HD
ATOM     75  C   UNL A   1      47.945  31.160  27.508  1.00  0.00     0.074 A 
ATOM     76  C   UNL A   1      49.318  31.575  27.309  1.00  0.00     0.031 C 
ATOM     77  C   UNL A   1      46.943  31.992  27.882  1.00  0.00     0.037 A 
BRANCH  64  78
ATOM     78  C   UNL A   1      41.425  29.240  28.286  1.00  0.00     0.058 A 
ATOM     79  C   UNL A   1      40.474  29.335  27.259  1.00  0.00     0.135 A 
ATOM     80  C   UNL A   1      40.968  29.263  29.612  1.00  0.00     0.135 A 
ATOM     81  F   UNL A   1      40.864  29.337  25.974  1.00  0.00    -0.206 F 
ATOM     82  C   UNL A   1      39.119  29.477  27.538  1.00  0.00     0.059 A 
ATOM     83  C   UNL A   1      39.615  29.384  29.914  1.00  0.00     0.059 A 
ATOM     84  F   UNL A   1      41.840  29.181  30.629  1.00  0.00    -0.206 F 
ATOM     85  C   UNL A   1      38.700  29.507  28.869  1.00  0.00     0.060 A 
BRANCH  85  86
ATOM     86  S   UNL A   1      36.941  29.710  29.221  1.00  0.00     0.124 S 
ATOM     87  O   UNL A   1      36.827  29.048  30.517  1.00  0.00    -0.237 OA
ATOM     88  O   UNL A   1      36.789  31.161  29.234  1.00  0.00    -0.237 OA
ATOM     89  O   UNL A   1      36.291  29.026  28.106  1.00  0.00    -0.744 OA
ENDBRANCH  85  86
ENDBRANCH  64  78
BRANCH  65  90
ATOM     90  C   UNL A   1      51.085  27.899  26.221  1.00  0.00     0.058 A 
ATOM     91  C   UNL A   1      51.530  27.970  24.893  1.00  0.00     0.135 A 
ATOM     92  C   UNL A   1      52.040  27.636  27.216  1.00  0.00     0.135 A 
ATOM     93  F   UNL A   1      50.654  28.203  23.904  1.00  0.00    -0.206 F 
ATOM     94  C   UNL A   1      52.868  27.776  24.561  1.00  0.00     0.059 A 
ATOM     95  C   UNL A   1      53.386  27.461  26.912  1.00  0.00     0.059 A 
ATOM     96  F   UNL A   1      51.666  27.559  28.504  1.00  0.00    -0.206 F 
ATOM     97  C   UNL A   1      53.790  27.524  25.580  1.00  0.00     0.060 A 
BRANCH  97  98
ATOM     98  S   UNL A   1      55.531  27.320  25.147  1.00  0.00     0.124 S 
ATOM     99  O   UNL A   1      55.917  28.688  24.824  1.00  0.00    -0.237 OA
ATOM    100  O   UNL A   1      56.092  26.771  26.377  1.00  0.00    -0.237 OA
ATOM    101  O   UNL A   1      55.489  26.392  24.020  1.00  0.00    -0.744 OA
ENDBRANCH  97  98
ENDBRANCH  65  90
BRANCH  77 102
ATOM    102  C   UNL A   1      47.288  33.433  28.142  1.00  0.00     0.058 A 
ATOM    103  C   UNL A   1      47.180  34.409  27.139  1.00  0.00     0.135 A 
ATOM    104  C   UNL A   1      47.657  33.851  29.430  1.00  0.00     0.135 A 
ATOM    105  F   UNL A   1      46.839  34.058  25.890  1.00  0.00    -0.206 F 
ATOM    106  C   UNL A   1      47.432  35.752  27.405  1.00  0.00     0.059 A 
ATOM    107  C   UNL A   1      47.893  35.191  29.723  1.00  0.00     0.059 A 
ATOM    108  F   UNL A   1      47.767  32.957  30.426  1.00  0.00    -0.206 F 
ATOM    109  C   UNL A   1      47.783  36.134  28.701  1.00  0.00     0.060 A 
BRANCH 109 110
ATOM    110  S   UNL A   1      48.050  37.887  29.048  1.00  0.00     0.124 S 
ATOM    111  O   UNL A   1      46.815  38.241  29.741  1.00  0.00    -0.237 OA
ATOM    112  O   UNL A   1      49.255  37.863  29.872  1.00  0.00    -0.237 OA
ATOM    113  O   UNL A   1      48.218  38.473  27.722  1.00  0.00    -0.744 OA
ENDBRANCH 109 110
ENDBRANCH  77 102
ENDBRANCH  51  52
ENDBRANCH  44  46
ENDBRANCH  43  44
ENDBRANCH  42  43
ENDBRANCH  41  42
ENDBRANCH  40  41
ENDBRANCH  39  40
ENDBRANCH   1  39
TORSDOF 28
ENDMDL
MODEL 3
REMARK VINA RESULT:     -10.6      1.309      2.115
REMARK SMILES O=C(N[C@@H](Cc1c[nH]c2ccccc12)C(=O)N[C@@H](CO)C(=O)OCCOCCOCCOC(=O)c1ccc(-c2c3nc(c(-c4c(F)cc(S(=O)(=O)[O-])cc4F)c4ccc([nH]4)c(-c4c(F)cc(S(=O)(=O)[O-])cc4F)c4nc(c(-c5c(F)cc(S(=O)(=O)[O-])cc5F)c5ccc2[nH]5)C=C4)C=C3)cc1)c1ccc(F)cc1
REMARK SMILES IDX 27 1 26 2 25 3 24 4 23 5 21 6 22 7 18 8 17 9 15 10 16 11
REMARK SMILES IDX 4 13 3 14 1 15 2 16 101 18 102 19 107 20 103 21 106 22
REMARK SMILES IDX 104 23 105 24 5 25 6 26 7 27 14 28 8 29 9 30 13 31 10 33
REMARK SMILES IDX 12 34 11 35 19 36 20 37 28 39 29 40 30 41 31 42 32 43 33 44
REMARK SMILES IDX 34 45 35 46 36 47 100 48 37 49 99 50 38 51 39 52 40 53 93 54
REMARK SMILES IDX 41 55 98 56 92 57 94 58 42 59 97 60 91 61 90 62 43 64 77 65
REMARK SMILES IDX 56 66 76 67 57 68 60 69 75 70 95 71 58 72 59 73 74 75 96 76
REMARK SMILES IDX 61 77 44 78 45 79 54 80 46 81 47 82 53 83 55 84 48 85 49 86
REMARK SMILES IDX 50 87 51 88 52 89 78 90 79 91 88 92 80 93 81 94 87 95 89 96
REMARK SMILES IDX 82 97 83 98 84 99 85 100 86 101 62 102 63 103 72 104 64 105
REMARK SMILES IDX 65 106 71 107 73 108 66 109 67 110 68 111 69 112 70 113
REMARK H PARENT 17 12 3 17 8 32 20 38 94 63 60 74
REMARK Flexibility Score: inf
ROOT
ATOM      1  C   UNL A   1      39.127  22.082  26.259  1.00  0.00     0.188 C 
ENDROOT
BRANCH   1   2
ATOM      2  O   UNL A   1      38.274  21.641  25.208  1.00  0.00    -0.376 OA
BRANCH   2   3
ATOM      3  C   UNL A   1      37.252  22.563  24.843  1.00  0.00     0.202 C 
BRANCH   3   4
ATOM      4  C   UNL A   1      35.901  21.866  24.712  1.00  0.00     0.261 C 
BRANCH   4   5
ATOM      5  O   UNL A   1      35.006  22.597  23.848  1.00  0.00    -0.462 OA
BRANCH   5   6
ATOM      6  C   UNL A   1      33.718  22.164  23.782  1.00  0.00     0.331 C 
ATOM      7  O   UNL A   1      33.362  21.010  23.993  1.00  0.00    -0.250 OA
BRANCH   6   8
ATOM      8  C   UNL A   1      32.752  23.291  23.356  1.00  0.00     0.218 C 
BRANCH   8   9
ATOM      9  N   UNL A   1      33.269  24.229  22.357  1.00  0.00    -0.339 N 
ATOM     10  C   UNL A   1      33.156  25.574  22.220  1.00  0.00     0.243 C 
ATOM     11  O   UNL A   1      33.705  26.053  21.218  1.00  0.00    -0.273 OA
ATOM     12  H   UNL A   1      33.801  23.800  21.649  1.00  0.00     0.164 HD
BRANCH  10  13
ATOM     13  C   UNL A   1      32.370  26.518  23.168  1.00  0.00     0.176 C 
BRANCH  13  14
ATOM     14  N   UNL A   1      33.146  26.932  24.333  1.00  0.00    -0.340 N 
ATOM     15  O   UNL A   1      33.698  27.066  26.509  1.00  0.00    -0.269 OA
ATOM     16  C   UNL A   1      33.022  26.520  25.640  1.00  0.00     0.251 C 
ATOM     17  H   UNL A   1      33.853  27.595  24.161  1.00  0.00     0.164 HD
BRANCH  16  18
ATOM     18  C   UNL A   1      32.073  25.447  26.030  1.00  0.00     0.040 A 
ATOM     19  C   UNL A   1      32.526  24.209  26.507  1.00  0.00     0.017 A 
ATOM     20  C   UNL A   1      30.698  25.718  25.988  1.00  0.00     0.017 A 
ATOM     21  C   UNL A   1      31.603  23.233  26.896  1.00  0.00     0.040 A 
ATOM     22  C   UNL A   1      29.780  24.742  26.386  1.00  0.00     0.040 A 
ATOM     23  C   UNL A   1      30.241  23.508  26.833  1.00  0.00     0.123 A 
ATOM     24  F   UNL A   1      29.364  22.575  27.225  1.00  0.00    -0.207 F 
ENDBRANCH  16  18
ENDBRANCH  13  14
BRANCH  13  25
ATOM     25  C   UNL A   1      31.449  27.591  22.563  1.00  0.00     0.072 C 
BRANCH  25  26
ATOM     26  C   UNL A   1      31.030  28.794  23.352  1.00  0.00    -0.020 A 
ATOM     27  C   UNL A   1      31.624  29.366  24.461  1.00  0.00     0.087 A 
ATOM     28  C   UNL A   1      29.802  29.516  23.154  1.00  0.00     0.003 A 
ATOM     29  N   UNL A   1      30.953  30.527  24.760  1.00  0.00    -0.361 N 
ATOM     30  C   UNL A   1      29.830  30.637  23.977  1.00  0.00     0.046 A 
ATOM     31  C   UNL A   1      28.672  29.327  22.330  1.00  0.00     0.010 A 
ATOM     32  H   UNL A   1      31.236  31.183  25.438  1.00  0.00     0.166 HD
ATOM     33  C   UNL A   1      28.834  31.621  23.955  1.00  0.00     0.026 A 
ATOM     34  C   UNL A   1      27.642  30.271  22.329  1.00  0.00     0.001 A 
ATOM     35  C   UNL A   1      27.736  31.416  23.114  1.00  0.00     0.002 A 
ENDBRANCH  25  26
ENDBRANCH  13  25
ENDBRANCH  10  13
ENDBRANCH   8   9
BRANCH   8  36
ATOM     36  C   UNL A   1      31.436  22.663  22.891  1.00  0.00     0.193 C 
BRANCH  36  37
ATOM     37  O   UNL A   1      30.329  23.533  23.116  1.00  0.00    -0.394 OA
ATOM     38  H   UNL A   1      29.510  23.092  22.838  1.00  0.00     0.210 HD
ENDBRANCH  36  37
ENDBRANCH   8  36
ENDBRANCH   6   8
ENDBRANCH   5   6
ENDBRANCH   4   5
ENDBRANCH   3   4
ENDBRANCH   2   3
ENDBRANCH   1   2
BRANCH   1  39
ATOM     39  C   UNL A   1      40.390  21.230  26.444  1.00  0.00     0.188 C 
BRANCH  39  40
ATOM     40  O   UNL A   1      41.438  21.701  27.280  1.00  0.00    -0.376 OA
BRANCH  40  41
ATOM     41  C   UNL A   1      42.715  21.909  26.700  1.00  0.00     0.202 C 
BRANCH  41  42
ATOM     42  C   UNL A   1      42.788  22.924  25.557  1.00  0.00     0.261 C 
BRANCH  42  43
ATOM     43  O   UNL A   1      42.031  24.124  25.803  1.00  0.00    -0.460 OA
BRANCH  43  44
ATOM     44  C   UNL A   1      42.772  25.255  25.921  1.00  0.00     0.338 C 
ATOM     45  O   UNL A   1      43.727  25.585  25.239  1.00  0.00    -0.246 OA
BRANCH  44  46
ATOM     46  C   UNL A   1      42.202  26.147  26.951  1.00  0.00     0.060 A 
ATOM     47  C   UNL A   1      42.781  27.410  27.124  1.00  0.00     0.016 A 
ATOM     48  C   UNL A   1      41.219  25.696  27.835  1.00  0.00     0.016 A 
ATOM     49  C   UNL A   1      42.398  28.218  28.199  1.00  0.00     0.010 A 
ATOM     50  C   UNL A   1      40.853  26.499  28.925  1.00  0.00     0.010 A 
ATOM     51  C   UNL A   1      41.459  27.754  29.129  1.00  0.00    -0.014 A 
BRANCH  51  52
ATOM     52  C   UNL A   1      41.248  28.481  30.409  1.00  0.00     0.031 A 
ATOM     53  C   UNL A   1      40.163  29.520  30.477  1.00  0.00     0.074 A 
ATOM     54  C   UNL A   1      42.001  28.237  31.497  1.00  0.00     0.049 A 
ATOM     55  N   UNL A   1      39.878  30.358  31.440  1.00  0.00    -0.248 NA
ATOM     56  C   UNL A   1      39.274  29.618  29.308  1.00  0.00     0.031 C 
ATOM     57  C   UNL A   1      43.026  27.205  31.599  1.00  0.00     0.029 A 
ATOM     58  N   UNL A   1      42.028  28.854  32.726  1.00  0.00    -0.354 N 
ATOM     59  C   UNL A   1      38.783  31.087  30.993  1.00  0.00     0.074 A 
ATOM     60  C   UNL A   1      38.458  30.596  29.671  1.00  0.00     0.031 C 
ATOM     61  C   UNL A   1      43.607  27.276  32.809  1.00  0.00     0.029 A 
ATOM     62  C   UNL A   1      43.023  28.388  33.554  1.00  0.00     0.049 A 
ATOM     63  H   UNL A   1      41.395  29.561  32.987  1.00  0.00     0.167 HD
ATOM     64  C   UNL A   1      38.112  32.081  31.623  1.00  0.00     0.037 A 
ATOM     65  C   UNL A   1      43.442  28.833  34.756  1.00  0.00     0.037 A 
ATOM     66  C   UNL A   1      38.449  32.589  32.927  1.00  0.00     0.049 A 
ATOM     67  C   UNL A   1      42.758  30.017  35.390  1.00  0.00     0.074 A 
ATOM     68  C   UNL A   1      37.842  33.611  33.634  1.00  0.00     0.029 A 
ATOM     69  N   UNL A   1      39.491  32.123  33.712  1.00  0.00    -0.354 N 
ATOM     70  N   UNL A   1      41.735  30.709  34.950  1.00  0.00    -0.248 NA
ATOM     71  C   UNL A   1      43.291  30.488  36.677  1.00  0.00     0.031 C 
ATOM     72  C   UNL A   1      38.542  33.790  34.832  1.00  0.00     0.029 A 
ATOM     73  C   UNL A   1      39.560  32.851  34.888  1.00  0.00     0.049 A 
ATOM     74  H   UNL A   1      40.095  31.384  33.470  1.00  0.00     0.167 HD
ATOM     75  C   UNL A   1      41.485  31.678  35.918  1.00  0.00     0.074 A 
ATOM     76  C   UNL A   1      42.462  31.482  36.968  1.00  0.00     0.031 C 
ATOM     77  C   UNL A   1      40.529  32.639  35.933  1.00  0.00     0.037 A 
BRANCH  64  78
ATOM     78  C   UNL A   1      36.975  32.715  30.879  1.00  0.00     0.058 A 
ATOM     79  C   UNL A   1      37.191  33.703  29.906  1.00  0.00     0.135 A 
ATOM     80  C   UNL A   1      35.652  32.327  31.142  1.00  0.00     0.135 A 
ATOM     81  F   UNL A   1      38.437  34.123  29.634  1.00  0.00    -0.206 F 
ATOM     82  C   UNL A   1      36.130  34.304  29.236  1.00  0.00     0.059 A 
ATOM     83  C   UNL A   1      34.578  32.900  30.469  1.00  0.00     0.059 A 
ATOM     84  F   UNL A   1      35.395  31.391  32.068  1.00  0.00    -0.206 F 
ATOM     85  C   UNL A   1      34.827  33.900  29.530  1.00  0.00     0.060 A 
BRANCH  85  86
ATOM     86  S   UNL A   1      33.456  34.699  28.669  1.00  0.00     0.124 S 
ATOM     87  O   UNL A   1      32.566  35.023  29.779  1.00  0.00    -0.237 OA
ATOM     88  O   UNL A   1      34.108  35.835  28.027  1.00  0.00    -0.237 OA
ATOM     89  O   UNL A   1      32.976  33.662  27.760  1.00  0.00    -0.744 OA
ENDBRANCH  85  86
ENDBRANCH  64  78
BRANCH  65  90
ATOM     90  C   UNL A   1      44.605  28.188  35.425  1.00  0.00     0.058 A 
ATOM     91  C   UNL A   1      44.431  27.118  36.314  1.00  0.00     0.135 A 
ATOM     92  C   UNL A   1      45.914  28.643  35.199  1.00  0.00     0.135 A 
ATOM     93  F   UNL A   1      43.198  26.658  36.577  1.00  0.00    -0.206 F 
ATOM     94  C   UNL A   1      45.511  26.527  36.964  1.00  0.00     0.059 A 
ATOM     95  C   UNL A   1      47.012  28.053  35.818  1.00  0.00     0.059 A 
ATOM     96  F   UNL A   1      46.135  29.664  34.355  1.00  0.00    -0.206 F 
ATOM     97  C   UNL A   1      46.799  27.002  36.706  1.00  0.00     0.060 A 
BRANCH  97  98
ATOM     98  S   UNL A   1      48.200  26.199  37.517  1.00  0.00     0.124 S 
ATOM     99  O   UNL A   1      49.324  26.955  36.979  1.00  0.00    -0.237 OA
ATOM    100  O   UNL A   1      47.903  26.416  38.930  1.00  0.00    -0.237 OA
ATOM    101  O   UNL A   1      48.097  24.814  37.069  1.00  0.00    -0.744 OA
ENDBRANCH  97  98
ENDBRANCH  65  90
BRANCH  77 102
ATOM    102  C   UNL A   1      40.458  33.537  37.138  1.00  0.00     0.058 A 
ATOM    103  C   UNL A   1      41.249  34.691  37.245  1.00  0.00     0.135 A 
ATOM    104  C   UNL A   1      39.531  33.278  38.160  1.00  0.00     0.135 A 
ATOM    105  F   UNL A   1      42.155  34.978  36.298  1.00  0.00    -0.206 F 
ATOM    106  C   UNL A   1      41.127  35.556  38.328  1.00  0.00     0.059 A 
ATOM    107  C   UNL A   1      39.377  34.140  39.242  1.00  0.00     0.059 A 
ATOM    108  F   UNL A   1      38.746  32.190  38.101  1.00  0.00    -0.206 F 
ATOM    109  C   UNL A   1      40.184  35.274  39.319  1.00  0.00     0.060 A 
BRANCH 109 110
ATOM    110  S   UNL A   1      39.993  36.434  40.691  1.00  0.00     0.124 S 
ATOM    111  O   UNL A   1      40.675  35.728  41.771  1.00  0.00    -0.237 OA
ATOM    112  O   UNL A   1      40.666  37.628  40.189  1.00  0.00    -0.237 OA
ATOM    113  O   UNL A   1      38.545  36.553  40.835  1.00  0.00    -0.744 OA
ENDBRANCH 109 110
ENDBRANCH  77 102
ENDBRANCH  51  52
ENDBRANCH  44  46
ENDBRANCH  43  44
ENDBRANCH  42  43
ENDBRANCH  41  42
ENDBRANCH  40  41
ENDBRANCH  39  40
ENDBRANCH   1  39
TORSDOF 28
ENDMDL
