MODEL 1
REMARK VINA RESULT:     -11.3      0.000      0.000
REMARK SMILES COc1ccc2c(CC(=O)OCCOCCOCCOC(=O)c3ccc(-c4c5nc(c(-c6c(F)cc(S(=O)(=O)[O-])cc6F)c6ccc([nH]6)c(-c6c(F)cc(S(=O)(=O)[O-])cc6F)c6nc(c(-c7c(F)cc(S(=O)(=O)[O-])cc7F)c7ccc4[nH]7)C=C6)C=C5)cc3)c(C(=O)c3cc(C)ccn3)[nH]c2c1
REMARK SMILES IDX 15 1 14 2 13 3 12 4 11 5 9 6 10 7 8 8 7 9 3 10 4 11 101 12
REMARK SMILES IDX 5 13 100 14 6 15 99 16 89 17 2 19 1 20 90 21 91 22 92 23
REMARK SMILES IDX 93 24 98 25 94 26 97 27 95 28 96 29 16 30 17 31 18 32 19 33
REMARK SMILES IDX 20 34 21 35 22 36 23 37 24 38 88 39 25 40 87 41 26 42 27 43
REMARK SMILES IDX 28 44 81 45 29 46 86 47 80 48 82 49 30 50 85 51 79 52 78 53
REMARK SMILES IDX 31 55 65 56 44 57 64 58 45 59 48 60 63 61 83 62 46 63 47 64
REMARK SMILES IDX 62 66 84 67 49 68 32 69 33 70 42 71 34 72 35 73 41 74 43 75
REMARK SMILES IDX 36 76 37 77 38 78 39 79 40 80 66 81 67 82 76 83 68 84 69 85
REMARK SMILES IDX 75 86 77 87 70 88 71 89 72 90 73 91 74 92 50 93 51 94 60 95
REMARK SMILES IDX 52 96 53 97 59 98 61 99 54 100 55 101 56 102 57 103 58 104
REMARK H PARENT 99 18 82 54 48 65
REMARK Flexibility Score: inf
ROOT
ATOM      1  C   UNL A   1      31.895  26.513  24.730  1.00  0.00     0.188 C 
ENDROOT
BRANCH   1   2
ATOM      2  O   UNL A   1      33.051  26.688  23.911  1.00  0.00    -0.376 OA
BRANCH   2   3
ATOM      3  C   UNL A   1      32.890  26.607  22.501  1.00  0.00     0.202 C 
BRANCH   3   4
ATOM      4  C   UNL A   1      32.337  25.279  21.970  1.00  0.00     0.261 C 
BRANCH   4   5
ATOM      5  O   UNL A   1      32.862  24.153  22.704  1.00  0.00    -0.463 OA
BRANCH   5   6
ATOM      6  C   UNL A   1      31.980  23.179  23.051  1.00  0.00     0.310 C 
ATOM      7  O   UNL A   1      30.822  23.408  23.389  1.00  0.00    -0.252 OA
BRANCH   6   8
ATOM      8  C   UNL A   1      32.507  21.767  22.811  1.00  0.00     0.161 C 
BRANCH   8   9
ATOM      9  C   UNL A   1      32.504  20.797  23.971  1.00  0.00     0.000 A 
ATOM     10  C   UNL A   1      33.182  16.675  24.301  1.00  0.00     0.120 A 
ATOM     11  C   UNL A   1      32.998  17.137  23.000  1.00  0.00     0.047 A 
ATOM     12  C   UNL A   1      32.961  17.498  25.404  1.00  0.00     0.073 A 
ATOM     13  C   UNL A   1      32.683  18.480  22.762  1.00  0.00     0.014 A 
ATOM     14  C   UNL A   1      32.696  18.846  25.142  1.00  0.00     0.050 A 
ATOM     15  C   UNL A   1      32.587  19.368  23.854  1.00  0.00     0.004 A 
ATOM     16  N   UNL A   1      32.546  19.896  26.011  1.00  0.00    -0.351 N 
ATOM     17  C   UNL A   1      32.708  21.083  25.330  1.00  0.00     0.093 A 
ATOM     18  H   UNL A   1      32.354  19.814  26.973  1.00  0.00     0.167 HD
BRANCH  10  19
ATOM     19  O   UNL A   1      33.585  15.387  24.547  1.00  0.00    -0.497 OA
ATOM     20  C   UNL A   1      32.803  14.819  25.603  1.00  0.00     0.278 C 
ENDBRANCH  10  19
BRANCH  17  21
ATOM     21  C   UNL A   1      33.121  22.323  25.975  1.00  0.00     0.227 C 
ATOM     22  O   UNL A   1      32.344  23.035  26.604  1.00  0.00    -0.285 OA
BRANCH  21  23
ATOM     23  C   UNL A   1      34.532  22.792  25.824  1.00  0.00     0.113 A 
ATOM     24  C   UNL A   1      35.575  21.874  25.709  1.00  0.00     0.036 A 
ATOM     25  N   UNL A   1      34.696  24.137  25.752  1.00  0.00    -0.253 NA
ATOM     26  C   UNL A   1      36.864  22.364  25.471  1.00  0.00    -0.047 A 
ATOM     27  C   UNL A   1      35.939  24.572  25.448  1.00  0.00     0.112 A 
ATOM     28  C   UNL A   1      38.059  21.461  25.375  1.00  0.00     0.044 C 
ATOM     29  C   UNL A   1      37.035  23.739  25.295  1.00  0.00     0.023 A 
ENDBRANCH  21  23
ENDBRANCH  17  21
ENDBRANCH   8   9
ENDBRANCH   6   8
ENDBRANCH   5   6
ENDBRANCH   4   5
ENDBRANCH   3   4
ENDBRANCH   2   3
ENDBRANCH   1   2
BRANCH   1  30
ATOM     30  C   UNL A   1      31.245  27.762  25.364  1.00  0.00     0.188 C 
BRANCH  30  31
ATOM     31  O   UNL A   1      31.395  27.824  26.778  1.00  0.00    -0.376 OA
BRANCH  31  32
ATOM     32  C   UNL A   1      31.677  29.123  27.278  1.00  0.00     0.202 C 
BRANCH  32  33
ATOM     33  C   UNL A   1      32.964  29.700  26.690  1.00  0.00     0.261 C 
BRANCH  33  34
ATOM     34  O   UNL A   1      34.114  29.336  27.480  1.00  0.00    -0.460 OA
BRANCH  34  35
ATOM     35  C   UNL A   1      34.804  30.323  28.088  1.00  0.00     0.338 C 
ATOM     36  O   UNL A   1      34.391  31.441  28.339  1.00  0.00    -0.246 OA
BRANCH  35  37
ATOM     37  C   UNL A   1      36.197  29.878  28.367  1.00  0.00     0.060 A 
ATOM     38  C   UNL A   1      36.612  29.441  29.629  1.00  0.00     0.016 A 
ATOM     39  C   UNL A   1      37.137  29.974  27.343  1.00  0.00     0.016 A 
ATOM     40  C   UNL A   1      37.955  29.134  29.880  1.00  0.00     0.010 A 
ATOM     41  C   UNL A   1      38.468  29.608  27.577  1.00  0.00     0.010 A 
ATOM     42  C   UNL A   1      38.897  29.190  28.849  1.00  0.00    -0.014 A 
BRANCH  42  43
ATOM     43  C   UNL A   1      40.324  28.815  29.060  1.00  0.00     0.031 A 
ATOM     44  C   UNL A   1      41.325  29.864  29.466  1.00  0.00     0.074 A 
ATOM     45  C   UNL A   1      40.749  27.558  28.822  1.00  0.00     0.049 A 
ATOM     46  N   UNL A   1      42.631  29.836  29.397  1.00  0.00    -0.248 NA
ATOM     47  C   UNL A   1      40.777  31.114  30.016  1.00  0.00     0.031 C 
ATOM     48  C   UNL A   1      39.892  26.415  28.507  1.00  0.00     0.029 A 
ATOM     49  N   UNL A   1      42.022  27.039  28.778  1.00  0.00    -0.354 N 
ATOM     50  C   UNL A   1      43.063  31.077  29.848  1.00  0.00     0.074 A 
ATOM     51  C   UNL A   1      41.877  31.834  30.193  1.00  0.00     0.031 C 
ATOM     52  C   UNL A   1      40.659  25.337  28.286  1.00  0.00     0.029 A 
ATOM     53  C   UNL A   1      42.064  25.730  28.356  1.00  0.00     0.049 A 
ATOM     54  H   UNL A   1      42.824  27.553  29.023  1.00  0.00     0.167 HD
ATOM     55  C   UNL A   1      44.332  31.543  29.950  1.00  0.00     0.037 A 
ATOM     56  C   UNL A   1      43.103  24.950  27.996  1.00  0.00     0.037 A 
ATOM     57  C   UNL A   1      45.508  30.773  29.626  1.00  0.00     0.049 A 
ATOM     58  C   UNL A   1      44.497  25.516  28.024  1.00  0.00     0.074 A 
ATOM     59  C   UNL A   1      46.836  31.158  29.699  1.00  0.00     0.029 A 
ATOM     60  N   UNL A   1      45.500  29.463  29.171  1.00  0.00    -0.354 N 
ATOM     61  N   UNL A   1      44.896  26.710  28.391  1.00  0.00    -0.248 NA
ATOM     62  C   UNL A   1      45.582  24.634  27.567  1.00  0.00     0.031 C 
ATOM     63  C   UNL A   1      47.627  30.097  29.243  1.00  0.00     0.029 A 
ATOM     64  C   UNL A   1      46.797  29.033  28.935  1.00  0.00     0.049 A 
ATOM     65  H   UNL A   1      44.692  28.917  29.036  1.00  0.00     0.167 HD
ATOM     66  C   UNL A   1      46.278  26.717  28.224  1.00  0.00     0.074 A 
ATOM     67  C   UNL A   1      46.647  25.404  27.739  1.00  0.00     0.031 C 
ATOM     68  C   UNL A   1      47.158  27.723  28.452  1.00  0.00     0.037 A 
BRANCH  55  69
ATOM     69  C   UNL A   1      44.522  32.971  30.386  1.00  0.00     0.058 A 
ATOM     70  C   UNL A   1      44.678  33.326  31.734  1.00  0.00     0.135 A 
ATOM     71  C   UNL A   1      44.595  33.996  29.427  1.00  0.00     0.135 A 
ATOM     72  F   UNL A   1      44.603  32.390  32.693  1.00  0.00    -0.206 F 
ATOM     73  C   UNL A   1      44.872  34.649  32.119  1.00  0.00     0.059 A 
ATOM     74  C   UNL A   1      44.813  35.323  29.787  1.00  0.00     0.059 A 
ATOM     75  F   UNL A   1      44.454  33.712  28.122  1.00  0.00    -0.206 F 
ATOM     76  C   UNL A   1      44.935  35.641  31.138  1.00  0.00     0.060 A 
BRANCH  76  77
ATOM     77  S   UNL A   1      45.174  37.354  31.656  1.00  0.00     0.124 S 
ATOM     78  O   UNL A   1      43.919  37.964  31.227  1.00  0.00    -0.237 OA
ATOM     79  O   UNL A   1      45.354  37.222  33.099  1.00  0.00    -0.237 OA
ATOM     80  O   UNL A   1      46.360  37.773  30.914  1.00  0.00    -0.744 OA
ENDBRANCH  76  77
ENDBRANCH  55  69
BRANCH  56  81
ATOM     81  C   UNL A   1      42.856  23.564  27.514  1.00  0.00     0.058 A 
ATOM     82  C   UNL A   1      42.783  23.277  26.144  1.00  0.00     0.135 A 
ATOM     83  C   UNL A   1      42.696  22.497  28.415  1.00  0.00     0.135 A 
ATOM     84  F   UNL A   1      42.910  24.265  25.245  1.00  0.00    -0.206 F 
ATOM     85  C   UNL A   1      42.556  21.985  25.681  1.00  0.00     0.059 A 
ATOM     86  C   UNL A   1      42.497  21.192  27.976  1.00  0.00     0.059 A 
ATOM     87  F   UNL A   1      42.761  22.717  29.738  1.00  0.00    -0.206 F 
ATOM     88  C   UNL A   1      42.419  20.948  26.607  1.00  0.00     0.060 A 
BRANCH  88  89
ATOM     89  S   UNL A   1      42.176  19.265  25.995  1.00  0.00     0.124 S 
ATOM     90  O   UNL A   1      42.678  18.473  27.111  1.00  0.00    -0.237 OA
ATOM     91  O   UNL A   1      40.733  19.222  25.779  1.00  0.00    -0.237 OA
ATOM     92  O   UNL A   1      42.986  19.231  24.780  1.00  0.00    -0.744 OA
ENDBRANCH  88  89
ENDBRANCH  56  81
BRANCH  68  93
ATOM     93  C   UNL A   1      48.615  27.437  28.209  1.00  0.00     0.058 A 
ATOM     94  C   UNL A   1      49.411  26.794  29.170  1.00  0.00     0.135 A 
ATOM     95  C   UNL A   1      49.212  27.769  26.981  1.00  0.00     0.135 A 
ATOM     96  F   UNL A   1      48.894  26.462  30.364  1.00  0.00    -0.206 F 
ATOM     97  C   UNL A   1      50.752  26.508  28.931  1.00  0.00     0.059 A 
ATOM     98  C   UNL A   1      50.544  27.470  26.711  1.00  0.00     0.059 A 
ATOM     99  F   UNL A   1      48.494  28.377  26.024  1.00  0.00    -0.206 F 
ATOM    100  C   UNL A   1      51.309  26.850  27.696  1.00  0.00     0.060 A 
BRANCH 100 101
ATOM    101  S   UNL A   1      53.041  26.441  27.384  1.00  0.00     0.124 S 
ATOM    102  O   UNL A   1      53.557  26.292  28.741  1.00  0.00    -0.237 OA
ATOM    103  O   UNL A   1      52.937  25.210  26.607  1.00  0.00    -0.237 OA
ATOM    104  O   UNL A   1      53.536  27.600  26.648  1.00  0.00    -0.744 OA
ENDBRANCH 100 101
ENDBRANCH  68  93
ENDBRANCH  42  43
ENDBRANCH  35  37
ENDBRANCH  34  35
ENDBRANCH  33  34
ENDBRANCH  32  33
ENDBRANCH  31  32
ENDBRANCH  30  31
ENDBRANCH   1  30
TORSDOF 24
ENDMDL
MODEL 2
REMARK VINA RESULT:     -10.6      4.567      8.683
REMARK SMILES COc1ccc2c(CC(=O)OCCOCCOCCOC(=O)c3ccc(-c4c5nc(c(-c6c(F)cc(S(=O)(=O)[O-])cc6F)c6ccc([nH]6)c(-c6c(F)cc(S(=O)(=O)[O-])cc6F)c6nc(c(-c7c(F)cc(S(=O)(=O)[O-])cc7F)c7ccc4[nH]7)C=C6)C=C5)cc3)c(C(=O)c3cc(C)ccn3)[nH]c2c1
REMARK SMILES IDX 15 1 14 2 13 3 12 4 11 5 9 6 10 7 8 8 7 9 3 10 4 11 101 12
REMARK SMILES IDX 5 13 100 14 6 15 99 16 89 17 2 19 1 20 90 21 91 22 92 23
REMARK SMILES IDX 93 24 98 25 94 26 97 27 95 28 96 29 16 30 17 31 18 32 19 33
REMARK SMILES IDX 20 34 21 35 22 36 23 37 24 38 88 39 25 40 87 41 26 42 27 43
REMARK SMILES IDX 28 44 81 45 29 46 86 47 80 48 82 49 30 50 85 51 79 52 78 53
REMARK SMILES IDX 31 55 65 56 44 57 64 58 45 59 48 60 63 61 83 62 46 63 47 64
REMARK SMILES IDX 62 66 84 67 49 68 32 69 33 70 42 71 34 72 35 73 41 74 43 75
REMARK SMILES IDX 36 76 37 77 38 78 39 79 40 80 66 81 67 82 76 83 68 84 69 85
REMARK SMILES IDX 75 86 77 87 70 88 71 89 72 90 73 91 74 92 50 93 51 94 60 95
REMARK SMILES IDX 52 96 53 97 59 98 61 99 54 100 55 101 56 102 57 103 58 104
REMARK H PARENT 99 18 82 54 48 65
REMARK Flexibility Score: inf
ROOT
ATOM      1  C   UNL A   1      31.549  28.507  22.975  1.00  0.00     0.188 C 
ENDROOT
BRANCH   1   2
ATOM      2  O   UNL A   1      32.034  27.347  22.300  1.00  0.00    -0.376 OA
BRANCH   2   3
ATOM      3  C   UNL A   1      31.415  26.100  22.584  1.00  0.00     0.202 C 
BRANCH   3   4
ATOM      4  C   UNL A   1      32.140  25.215  23.606  1.00  0.00     0.261 C 
BRANCH   4   5
ATOM      5  O   UNL A   1      33.490  24.922  23.191  1.00  0.00    -0.463 OA
BRANCH   5   6
ATOM      6  C   UNL A   1      33.764  23.635  22.850  1.00  0.00     0.310 C 
ATOM      7  O   UNL A   1      34.856  23.270  22.424  1.00  0.00    -0.252 OA
BRANCH   6   8
ATOM      8  C   UNL A   1      32.650  22.659  23.212  1.00  0.00     0.161 C 
BRANCH   8   9
ATOM      9  C   UNL A   1      32.953  21.566  24.212  1.00  0.00     0.000 A 
ATOM     10  C   UNL A   1      33.112  17.385  23.976  1.00  0.00     0.120 A 
ATOM     11  C   UNL A   1      32.510  18.011  22.888  1.00  0.00     0.047 A 
ATOM     12  C   UNL A   1      33.450  18.093  25.129  1.00  0.00     0.073 A 
ATOM     13  C   UNL A   1      32.323  19.399  22.882  1.00  0.00     0.014 A 
ATOM     14  C   UNL A   1      33.300  19.483  25.081  1.00  0.00     0.050 A 
ATOM     15  C   UNL A   1      32.781  20.159  23.979  1.00  0.00     0.004 A 
ATOM     16  N   UNL A   1      33.647  20.435  26.005  1.00  0.00    -0.351 N 
ATOM     17  C   UNL A   1      33.702  21.669  25.395  1.00  0.00     0.093 A 
ATOM     18  H   UNL A   1      33.829  20.262  26.957  1.00  0.00     0.167 HD
BRANCH  10  19
ATOM     19  O   UNL A   1      33.391  16.042  23.959  1.00  0.00    -0.497 OA
ATOM     20  C   UNL A   1      34.013  15.651  25.186  1.00  0.00     0.278 C 
ENDBRANCH  10  19
BRANCH  17  21
ATOM     21  C   UNL A   1      34.502  22.775  25.904  1.00  0.00     0.227 C 
ATOM     22  O   UNL A   1      34.005  23.799  26.364  1.00  0.00    -0.285 OA
BRANCH  21  23
ATOM     23  C   UNL A   1      35.993  22.702  25.815  1.00  0.00     0.113 A 
ATOM     24  C   UNL A   1      36.780  23.781  26.213  1.00  0.00     0.036 A 
ATOM     25  N   UNL A   1      36.494  21.516  25.386  1.00  0.00    -0.253 NA
ATOM     26  C   UNL A   1      38.171  23.624  26.203  1.00  0.00    -0.047 A 
ATOM     27  C   UNL A   1      37.837  21.373  25.461  1.00  0.00     0.112 A 
ATOM     28  C   UNL A   1      39.105  24.740  26.571  1.00  0.00     0.044 C 
ATOM     29  C   UNL A   1      38.701  22.378  25.861  1.00  0.00     0.023 A 
ENDBRANCH  21  23
ENDBRANCH  17  21
ENDBRANCH   8   9
ENDBRANCH   6   8
ENDBRANCH   5   6
ENDBRANCH   4   5
ENDBRANCH   3   4
ENDBRANCH   2   3
ENDBRANCH   1   2
BRANCH   1  30
ATOM     30  C   UNL A   1      32.130  28.847  24.365  1.00  0.00     0.188 C 
BRANCH  30  31
ATOM     31  O   UNL A   1      31.389  28.285  25.442  1.00  0.00    -0.376 OA
BRANCH  31  32
ATOM     32  C   UNL A   1      31.837  28.685  26.729  1.00  0.00     0.202 C 
BRANCH  32  33
ATOM     33  C   UNL A   1      32.427  30.095  26.721  1.00  0.00     0.261 C 
BRANCH  33  34
ATOM     34  O   UNL A   1      33.849  30.073  26.964  1.00  0.00    -0.460 OA
BRANCH  34  35
ATOM     35  C   UNL A   1      34.427  31.192  27.445  1.00  0.00     0.338 C 
ATOM     36  O   UNL A   1      34.020  32.331  27.304  1.00  0.00    -0.246 OA
BRANCH  35  37
ATOM     37  C   UNL A   1      35.697  30.852  28.144  1.00  0.00     0.060 A 
ATOM     38  C   UNL A   1      35.909  29.618  28.769  1.00  0.00     0.016 A 
ATOM     39  C   UNL A   1      36.680  31.834  28.239  1.00  0.00     0.016 A 
ATOM     40  C   UNL A   1      37.074  29.376  29.508  1.00  0.00     0.010 A 
ATOM     41  C   UNL A   1      37.871  31.570  28.927  1.00  0.00     0.010 A 
ATOM     42  C   UNL A   1      38.081  30.341  29.577  1.00  0.00    -0.014 A 
BRANCH  42  43
ATOM     43  C   UNL A   1      39.359  30.101  30.304  1.00  0.00     0.031 A 
ATOM     44  C   UNL A   1      40.337  29.078  29.790  1.00  0.00     0.074 A 
ATOM     45  C   UNL A   1      39.623  30.737  31.464  1.00  0.00     0.049 A 
ATOM     46  N   UNL A   1      41.328  28.491  30.409  1.00  0.00    -0.248 NA
ATOM     47  C   UNL A   1      40.167  28.657  28.390  1.00  0.00     0.031 C 
ATOM     48  C   UNL A   1      38.820  31.812  32.047  1.00  0.00     0.029 A 
ATOM     49  N   UNL A   1      40.632  30.544  32.379  1.00  0.00    -0.354 N 
ATOM     50  C   UNL A   1      41.873  27.597  29.496  1.00  0.00     0.074 A 
ATOM     51  C   UNL A   1      41.102  27.723  28.275  1.00  0.00     0.031 C 
ATOM     52  C   UNL A   1      39.354  32.171  33.224  1.00  0.00     0.029 A 
ATOM     53  C   UNL A   1      40.483  31.296  33.522  1.00  0.00     0.049 A 
ATOM     54  H   UNL A   1      41.386  29.929  32.231  1.00  0.00     0.167 HD
ATOM     55  C   UNL A   1      42.911  26.742  29.668  1.00  0.00     0.037 A 
ATOM     56  C   UNL A   1      41.130  31.244  34.704  1.00  0.00     0.037 A 
ATOM     57  C   UNL A   1      43.687  26.641  30.880  1.00  0.00     0.049 A 
ATOM     58  C   UNL A   1      42.215  30.223  34.909  1.00  0.00     0.074 A 
ATOM     59  C   UNL A   1      44.758  25.806  31.149  1.00  0.00     0.029 A 
ATOM     60  N   UNL A   1      43.479  27.399  32.023  1.00  0.00    -0.354 N 
ATOM     61  N   UNL A   1      42.686  29.336  34.065  1.00  0.00    -0.248 NA
ATOM     62  C   UNL A   1      42.845  30.180  36.238  1.00  0.00     0.031 C 
ATOM     63  C   UNL A   1      45.167  26.026  32.469  1.00  0.00     0.029 A 
ATOM     64  C   UNL A   1      44.385  27.034  33.008  1.00  0.00     0.049 A 
ATOM     65  H   UNL A   1      42.789  28.095  32.121  1.00  0.00     0.167 HD
ATOM     66  C   UNL A   1      43.675  28.641  34.753  1.00  0.00     0.074 A 
ATOM     67  C   UNL A   1      43.747  29.221  36.079  1.00  0.00     0.031 C 
ATOM     68  C   UNL A   1      44.451  27.616  34.325  1.00  0.00     0.037 A 
BRANCH  55  69
ATOM     69  C   UNL A   1      43.244  25.807  28.538  1.00  0.00     0.058 A 
ATOM     70  C   UNL A   1      44.366  25.996  27.718  1.00  0.00     0.135 A 
ATOM     71  C   UNL A   1      42.446  24.675  28.302  1.00  0.00     0.135 A 
ATOM     72  F   UNL A   1      45.156  27.068  27.889  1.00  0.00    -0.206 F 
ATOM     73  C   UNL A   1      44.672  25.111  26.689  1.00  0.00     0.059 A 
ATOM     74  C   UNL A   1      42.745  23.762  27.294  1.00  0.00     0.059 A 
ATOM     75  F   UNL A   1      41.360  24.444  29.057  1.00  0.00    -0.206 F 
ATOM     76  C   UNL A   1      43.853  23.998  26.482  1.00  0.00     0.060 A 
BRANCH  76  77
ATOM     77  S   UNL A   1      44.255  22.868  25.133  1.00  0.00     0.124 S 
ATOM     78  O   UNL A   1      44.708  23.797  24.103  1.00  0.00    -0.237 OA
ATOM     79  O   UNL A   1      45.290  22.027  25.727  1.00  0.00    -0.237 OA
ATOM     80  O   UNL A   1      42.987  22.198  24.860  1.00  0.00    -0.744 OA
ENDBRANCH  76  77
ENDBRANCH  55  69
BRANCH  56  81
ATOM     81  C   UNL A   1      40.721  32.150  35.811  1.00  0.00     0.058 A 
ATOM     82  C   UNL A   1      39.611  31.855  36.615  1.00  0.00     0.135 A 
ATOM     83  C   UNL A   1      41.438  33.326  36.093  1.00  0.00     0.135 A 
ATOM     84  F   UNL A   1      38.884  30.754  36.374  1.00  0.00    -0.206 F 
ATOM     85  C   UNL A   1      39.221  32.693  37.655  1.00  0.00     0.059 A 
ATOM     86  C   UNL A   1      41.085  34.164  37.145  1.00  0.00     0.059 A 
ATOM     87  F   UNL A   1      42.511  33.654  35.355  1.00  0.00    -0.206 F 
ATOM     88  C   UNL A   1      39.969  33.844  37.915  1.00  0.00     0.060 A 
BRANCH  88  89
ATOM     89  S   UNL A   1      39.485  34.898  39.300  1.00  0.00     0.124 S 
ATOM     90  O   UNL A   1      40.696  34.887  40.112  1.00  0.00    -0.237 OA
ATOM     91  O   UNL A   1      39.174  36.158  38.633  1.00  0.00    -0.237 OA
ATOM     92  O   UNL A   1      38.337  34.197  39.869  1.00  0.00    -0.744 OA
ENDBRANCH  88  89
ENDBRANCH  56  81
BRANCH  68  93
ATOM     93  C   UNL A   1      45.471  27.069  35.288  1.00  0.00     0.058 A 
ATOM     94  C   UNL A   1      45.159  26.036  36.184  1.00  0.00     0.135 A 
ATOM     95  C   UNL A   1      46.789  27.555  35.282  1.00  0.00     0.135 A 
ATOM     96  F   UNL A   1      43.912  25.540  36.237  1.00  0.00    -0.206 F 
ATOM     97  C   UNL A   1      46.113  25.515  37.055  1.00  0.00     0.059 A 
ATOM     98  C   UNL A   1      47.765  27.033  36.126  1.00  0.00     0.059 A 
ATOM     99  F   UNL A   1      47.143  28.538  34.439  1.00  0.00    -0.206 F 
ATOM    100  C   UNL A   1      47.414  26.021  37.017  1.00  0.00     0.060 A 
BRANCH 100 101
ATOM    101  S   UNL A   1      48.651  25.313  38.126  1.00  0.00     0.124 S 
ATOM    102  O   UNL A   1      48.720  26.325  39.175  1.00  0.00    -0.237 OA
ATOM    103  O   UNL A   1      48.040  24.043  38.508  1.00  0.00    -0.237 OA
ATOM    104  O   UNL A   1      49.839  25.201  37.284  1.00  0.00    -0.744 OA
ENDBRANCH 100 101
ENDBRANCH  68  93
ENDBRANCH  42  43
ENDBRANCH  35  37
ENDBRANCH  34  35
ENDBRANCH  33  34
ENDBRANCH  32  33
ENDBRANCH  31  32
ENDBRANCH  30  31
ENDBRANCH   1  30
TORSDOF 24
ENDMDL
MODEL 3
REMARK VINA RESULT:     -10.2      3.231      8.599
REMARK SMILES COc1ccc2c(CC(=O)OCCOCCOCCOC(=O)c3ccc(-c4c5nc(c(-c6c(F)cc(S(=O)(=O)[O-])cc6F)c6ccc([nH]6)c(-c6c(F)cc(S(=O)(=O)[O-])cc6F)c6nc(c(-c7c(F)cc(S(=O)(=O)[O-])cc7F)c7ccc4[nH]7)C=C6)C=C5)cc3)c(C(=O)c3cc(C)ccn3)[nH]c2c1
REMARK SMILES IDX 15 1 14 2 13 3 12 4 11 5 9 6 10 7 8 8 7 9 3 10 4 11 101 12
REMARK SMILES IDX 5 13 100 14 6 15 99 16 89 17 2 19 1 20 90 21 91 22 92 23
REMARK SMILES IDX 93 24 98 25 94 26 97 27 95 28 96 29 16 30 17 31 18 32 19 33
REMARK SMILES IDX 20 34 21 35 22 36 23 37 24 38 88 39 25 40 87 41 26 42 27 43
REMARK SMILES IDX 28 44 81 45 29 46 86 47 80 48 82 49 30 50 85 51 79 52 78 53
REMARK SMILES IDX 31 55 65 56 44 57 64 58 45 59 48 60 63 61 83 62 46 63 47 64
REMARK SMILES IDX 62 66 84 67 49 68 32 69 33 70 42 71 34 72 35 73 41 74 43 75
REMARK SMILES IDX 36 76 37 77 38 78 39 79 40 80 66 81 67 82 76 83 68 84 69 85
REMARK SMILES IDX 75 86 77 87 70 88 71 89 72 90 73 91 74 92 50 93 51 94 60 95
REMARK SMILES IDX 52 96 53 97 59 98 61 99 54 100 55 101 56 102 57 103 58 104
REMARK H PARENT 99 18 82 54 48 65
REMARK Flexibility Score: inf
ROOT
ATOM      1  C   UNL A   1      35.732  23.148  24.309  1.00  0.00     0.188 C 
ENDROOT
BRANCH   1   2
ATOM      2  O   UNL A   1      35.346  23.246  22.939  1.00  0.00    -0.376 OA
BRANCH   2   3
ATOM      3  C   UNL A   1      33.969  23.443  22.643  1.00  0.00     0.202 C 
BRANCH   3   4
ATOM      4  C   UNL A   1      33.238  24.458  23.531  1.00  0.00     0.261 C 
BRANCH   4   5
ATOM      5  O   UNL A   1      32.091  25.021  22.861  1.00  0.00    -0.463 OA
BRANCH   5   6
ATOM      6  C   UNL A   1      30.914  25.007  23.538  1.00  0.00     0.310 C 
ATOM      7  O   UNL A   1      30.270  23.983  23.749  1.00  0.00    -0.252 OA
BRANCH   6   8
ATOM      8  C   UNL A   1      30.555  26.351  24.165  1.00  0.00     0.161 C 
BRANCH   8   9
ATOM      9  C   UNL A   1      30.708  27.597  23.322  1.00  0.00     0.000 A 
ATOM     10  C   UNL A   1      28.018  30.468  21.881  1.00  0.00     0.120 A 
ATOM     11  C   UNL A   1      27.427  29.313  22.386  1.00  0.00     0.047 A 
ATOM     12  C   UNL A   1      29.397  30.562  21.698  1.00  0.00     0.073 A 
ATOM     13  C   UNL A   1      28.220  28.244  22.823  1.00  0.00     0.014 A 
ATOM     14  C   UNL A   1      30.170  29.504  22.187  1.00  0.00     0.050 A 
ATOM     15  C   UNL A   1      29.624  28.365  22.777  1.00  0.00     0.004 A 
ATOM     16  N   UNL A   1      31.534  29.369  22.247  1.00  0.00    -0.351 N 
ATOM     17  C   UNL A   1      31.859  28.385  23.155  1.00  0.00     0.093 A 
ATOM     18  H   UNL A   1      32.180  29.894  21.722  1.00  0.00     0.167 HD
BRANCH  10  19
ATOM     19  O   UNL A   1      27.262  31.561  21.538  1.00  0.00    -0.497 OA
ATOM     20  C   UNL A   1      27.926  32.321  20.525  1.00  0.00     0.278 C 
ENDBRANCH  10  19
BRANCH  17  21
ATOM     21  C   UNL A   1      33.143  28.324  23.840  1.00  0.00     0.227 C 
ATOM     22  O   UNL A   1      34.079  27.640  23.437  1.00  0.00    -0.285 OA
BRANCH  21  23
ATOM     23  C   UNL A   1      33.326  29.074  25.120  1.00  0.00     0.113 A 
ATOM     24  C   UNL A   1      32.468  30.118  25.459  1.00  0.00     0.036 A 
ATOM     25  N   UNL A   1      34.327  28.626  25.921  1.00  0.00    -0.253 NA
ATOM     26  C   UNL A   1      32.622  30.721  26.713  1.00  0.00    -0.047 A 
ATOM     27  C   UNL A   1      34.399  29.179  27.152  1.00  0.00     0.112 A 
ATOM     28  C   UNL A   1      31.777  31.881  27.152  1.00  0.00     0.044 C 
ATOM     29  C   UNL A   1      33.581  30.207  27.588  1.00  0.00     0.023 A 
ENDBRANCH  21  23
ENDBRANCH  17  21
ENDBRANCH   8   9
ENDBRANCH   6   8
ENDBRANCH   5   6
ENDBRANCH   4   5
ENDBRANCH   3   4
ENDBRANCH   2   3
ENDBRANCH   1   2
BRANCH   1  30
ATOM     30  C   UNL A   1      37.020  22.371  24.659  1.00  0.00     0.188 C 
BRANCH  30  31
ATOM     31  O   UNL A   1      36.841  20.960  24.684  1.00  0.00    -0.376 OA
BRANCH  31  32
ATOM     32  C   UNL A   1      38.030  20.227  24.939  1.00  0.00     0.202 C 
BRANCH  32  33
ATOM     33  C   UNL A   1      39.032  21.027  25.770  1.00  0.00     0.261 C 
BRANCH  33  34
ATOM     34  O   UNL A   1      39.965  20.160  26.448  1.00  0.00    -0.460 OA
BRANCH  34  35
ATOM     35  C   UNL A   1      41.245  20.149  26.023  1.00  0.00     0.338 C 
ATOM     36  O   UNL A   1      41.778  19.273  25.365  1.00  0.00    -0.246 OA
BRANCH  35  37
ATOM     37  C   UNL A   1      41.963  21.353  26.525  1.00  0.00     0.060 A 
ATOM     38  C   UNL A   1      42.256  21.548  27.879  1.00  0.00     0.016 A 
ATOM     39  C   UNL A   1      42.286  22.356  25.614  1.00  0.00     0.016 A 
ATOM     40  C   UNL A   1      42.835  22.742  28.326  1.00  0.00     0.010 A 
ATOM     41  C   UNL A   1      42.920  23.524  26.052  1.00  0.00     0.010 A 
ATOM     42  C   UNL A   1      43.197  23.737  27.414  1.00  0.00    -0.014 A 
BRANCH  42  43
ATOM     43  C   UNL A   1      43.868  24.997  27.843  1.00  0.00     0.031 A 
ATOM     44  C   UNL A   1      43.050  26.139  28.383  1.00  0.00     0.074 A 
ATOM     45  C   UNL A   1      45.198  25.157  27.686  1.00  0.00     0.049 A 
ATOM     46  N   UNL A   1      43.368  27.400  28.513  1.00  0.00    -0.248 NA
ATOM     47  C   UNL A   1      41.686  25.812  28.831  1.00  0.00     0.031 C 
ATOM     48  C   UNL A   1      46.136  24.120  27.258  1.00  0.00     0.029 A 
ATOM     49  N   UNL A   1      45.987  26.273  27.841  1.00  0.00    -0.354 N 
ATOM     50  C   UNL A   1      42.234  28.031  29.010  1.00  0.00     0.074 A 
ATOM     51  C   UNL A   1      41.219  27.008  29.164  1.00  0.00     0.031 C 
ATOM     52  C   UNL A   1      47.366  24.649  27.168  1.00  0.00     0.029 A 
ATOM     53  C   UNL A   1      47.290  26.080  27.445  1.00  0.00     0.049 A 
ATOM     54  H   UNL A   1      45.652  27.127  28.199  1.00  0.00     0.167 HD
ATOM     55  C   UNL A   1      42.056  29.344  29.298  1.00  0.00     0.037 A 
ATOM     56  C   UNL A   1      48.296  26.958  27.255  1.00  0.00     0.037 A 
ATOM     57  C   UNL A   1      43.081  30.350  29.164  1.00  0.00     0.049 A 
ATOM     58  C   UNL A   1      48.051  28.424  27.487  1.00  0.00     0.074 A 
ATOM     59  C   UNL A   1      42.996  31.706  29.432  1.00  0.00     0.029 A 
ATOM     60  N   UNL A   1      44.376  30.113  28.728  1.00  0.00    -0.354 N 
ATOM     61  N   UNL A   1      46.960  29.025  27.896  1.00  0.00    -0.248 NA
ATOM     62  C   UNL A   1      49.171  29.337  27.209  1.00  0.00     0.031 C 
ATOM     63  C   UNL A   1      44.224  32.295  29.113  1.00  0.00     0.029 A 
ATOM     64  C   UNL A   1      45.092  31.301  28.695  1.00  0.00     0.049 A 
ATOM     65  H   UNL A   1      44.735  29.231  28.478  1.00  0.00     0.167 HD
ATOM     66  C   UNL A   1      47.265  30.382  27.941  1.00  0.00     0.074 A 
ATOM     67  C   UNL A   1      48.648  30.512  27.531  1.00  0.00     0.031 C 
ATOM     68  C   UNL A   1      46.470  31.423  28.287  1.00  0.00     0.037 A 
BRANCH  55  69
ATOM     69  C   UNL A   1      40.688  29.785  29.741  1.00  0.00     0.058 A 
ATOM     70  C   UNL A   1      40.401  30.099  31.078  1.00  0.00     0.135 A 
ATOM     71  C   UNL A   1      39.658  29.940  28.798  1.00  0.00     0.135 A 
ATOM     72  F   UNL A   1      41.342  29.955  32.023  1.00  0.00    -0.206 F 
ATOM     73  C   UNL A   1      39.135  30.525  31.469  1.00  0.00     0.059 A 
ATOM     74  C   UNL A   1      38.391  30.388  29.161  1.00  0.00     0.059 A 
ATOM     75  F   UNL A   1      39.878  29.656  27.504  1.00  0.00    -0.206 F 
ATOM     76  C   UNL A   1      38.134  30.663  30.503  1.00  0.00     0.060 A 
BRANCH  76  77
ATOM     77  S   UNL A   1      36.494  31.203  31.029  1.00  0.00     0.124 S 
ATOM     78  O   UNL A   1      36.816  32.405  31.791  1.00  0.00    -0.237 OA
ATOM     79  O   UNL A   1      35.814  31.422  29.756  1.00  0.00    -0.237 OA
ATOM     80  O   UNL A   1      36.000  30.076  31.815  1.00  0.00    -0.744 OA
ENDBRANCH  76  77
ENDBRANCH  55  69
BRANCH  56  81
ATOM     81  C   UNL A   1      49.613  26.478  26.757  1.00  0.00     0.058 A 
ATOM     82  C   UNL A   1      49.896  26.436  25.384  1.00  0.00     0.135 A 
ATOM     83  C   UNL A   1      50.619  26.058  27.645  1.00  0.00     0.135 A 
ATOM     84  F   UNL A   1      48.962  26.808  24.496  1.00  0.00    -0.206 F 
ATOM     85  C   UNL A   1      51.125  25.992  24.907  1.00  0.00     0.059 A 
ATOM     86  C   UNL A   1      51.866  25.638  27.193  1.00  0.00     0.059 A 
ATOM     87  F   UNL A   1      50.401  26.082  28.969  1.00  0.00    -0.206 F 
ATOM     88  C   UNL A   1      52.106  25.599  25.821  1.00  0.00     0.060 A 
BRANCH  88  89
ATOM     89  S   UNL A   1      53.716  25.074  25.193  1.00  0.00     0.124 S 
ATOM     90  O   UNL A   1      54.620  25.682  26.162  1.00  0.00    -0.237 OA
ATOM     91  O   UNL A   1      53.607  23.619  25.247  1.00  0.00    -0.237 OA
ATOM     92  O   UNL A   1      53.753  25.644  23.849  1.00  0.00    -0.744 OA
ENDBRANCH  88  89
ENDBRANCH  56  81
BRANCH  68  93
ATOM     93  C   UNL A   1      47.081  32.798  28.271  1.00  0.00     0.058 A 
ATOM     94  C   UNL A   1      46.978  33.638  27.151  1.00  0.00     0.135 A 
ATOM     95  C   UNL A   1      47.741  33.299  29.405  1.00  0.00     0.135 A 
ATOM     96  F   UNL A   1      46.365  33.206  26.037  1.00  0.00    -0.206 F 
ATOM     97  C   UNL A   1      47.522  34.919  27.149  1.00  0.00     0.059 A 
ATOM     98  C   UNL A   1      48.271  34.585  29.435  1.00  0.00     0.059 A 
ATOM     99  F   UNL A   1      47.861  32.540  30.506  1.00  0.00    -0.206 F 
ATOM    100  C   UNL A   1      48.167  35.384  28.298  1.00  0.00     0.060 A 
BRANCH 100 101
ATOM    101  S   UNL A   1      48.838  37.061  28.296  1.00  0.00     0.124 S 
ATOM    102  O   UNL A   1      48.703  37.433  29.701  1.00  0.00    -0.237 OA
ATOM    103  O   UNL A   1      50.203  36.851  27.824  1.00  0.00    -0.237 OA
ATOM    104  O   UNL A   1      47.964  37.776  27.371  1.00  0.00    -0.744 OA
ENDBRANCH 100 101
ENDBRANCH  68  93
ENDBRANCH  42  43
ENDBRANCH  35  37
ENDBRANCH  34  35
ENDBRANCH  33  34
ENDBRANCH  32  33
ENDBRANCH  31  32
ENDBRANCH  30  31
ENDBRANCH   1  30
TORSDOF 24
ENDMDL
