MODEL 1
REMARK VINA RESULT:     -10.1      0.000      0.000
REMARK SMILES O=C(OCCOCCOCCOC(=O)[C@@H](Cc1c[nH]c2ccccc12)NC(=O)c1ccc(F)cc1F)c1ccc(-c2c3nc(c(-c4c(F)cc(S(=O)(=O)[O-])cc4F)c4ccc([nH]4)c(-c4c(F)cc(S(=O)(=O)[O-])cc4F)c4nc(c(-c5c(F)cc(S(=O)(=O)[O-])cc5F)c5ccc2[nH]5)C=C4)C=C3)cc1
REMARK SMILES IDX 7 1 6 2 5 3 4 4 3 5 2 6 1 7 37 8 38 9 102 10 39 11 101 12
REMARK SMILES IDX 40 13 41 14 42 15 95 16 43 17 100 18 94 19 96 20 44 21 99 22
REMARK SMILES IDX 93 23 92 24 45 26 79 27 58 28 78 29 59 30 62 31 77 32 97 33
REMARK SMILES IDX 60 34 61 35 76 37 98 38 63 39 46 40 47 41 56 42 48 43 49 44
REMARK SMILES IDX 55 45 57 46 50 47 51 48 52 49 53 50 54 51 80 52 81 53 90 54
REMARK SMILES IDX 82 55 83 56 89 57 91 58 84 59 85 60 86 61 87 62 88 63 64 64
REMARK SMILES IDX 65 65 74 66 66 67 67 68 73 69 75 70 68 71 69 72 70 73 71 74
REMARK SMILES IDX 72 75 8 76 9 77 10 78 11 79 12 80 13 81 14 82 15 83 16 84
REMARK SMILES IDX 17 85 18 86 25 87 19 88 20 89 24 90 21 92 23 93 22 94 26 95
REMARK SMILES IDX 27 96 28 98 29 99 30 100 35 101 31 102 34 103 36 104 32 105
REMARK SMILES IDX 33 106
REMARK H PARENT 96 25 62 36 19 91 26 97
REMARK Flexibility Score: inf
ROOT
ATOM      1  C   UNL A   1      46.826  40.063  26.618  1.00  0.00     0.188 C 
ENDROOT
BRANCH   1   2
ATOM      2  O   UNL A   1      47.957  40.662  27.257  1.00  0.00    -0.376 OA
BRANCH   2   3
ATOM      3  C   UNL A   1      48.488  39.871  28.327  1.00  0.00     0.202 C 
BRANCH   3   4
ATOM      4  C   UNL A   1      48.077  38.397  28.235  1.00  0.00     0.261 C 
BRANCH   4   5
ATOM      5  O   UNL A   1      48.967  37.581  29.027  1.00  0.00    -0.460 OA
BRANCH   5   6
ATOM      6  C   UNL A   1      49.500  36.370  28.728  1.00  0.00     0.338 C 
ATOM      7  O   UNL A   1      50.717  36.265  28.597  1.00  0.00    -0.246 OA
BRANCH   6   8
ATOM      8  C   UNL A   1      48.673  35.139  28.576  1.00  0.00     0.060 A 
ATOM      9  C   UNL A   1      48.401  34.266  29.625  1.00  0.00     0.016 A 
ATOM     10  C   UNL A   1      48.070  34.889  27.333  1.00  0.00     0.016 A 
ATOM     11  C   UNL A   1      47.677  33.093  29.412  1.00  0.00     0.010 A 
ATOM     12  C   UNL A   1      47.280  33.746  27.132  1.00  0.00     0.010 A 
ATOM     13  C   UNL A   1      47.117  32.814  28.163  1.00  0.00    -0.014 A 
BRANCH  13  14
ATOM     14  C   UNL A   1      46.503  31.479  27.946  1.00  0.00     0.031 A 
ATOM     15  C   UNL A   1      47.386  30.335  27.536  1.00  0.00     0.074 A 
ATOM     16  C   UNL A   1      45.212  31.253  28.260  1.00  0.00     0.049 A 
ATOM     17  N   UNL A   1      47.067  29.093  27.286  1.00  0.00    -0.248 NA
ATOM     18  C   UNL A   1      48.820  30.631  27.385  1.00  0.00     0.031 C 
ATOM     19  C   UNL A   1      44.278  32.267  28.746  1.00  0.00     0.029 A 
ATOM     20  N   UNL A   1      44.479  30.093  28.281  1.00  0.00    -0.354 N 
ATOM     21  C   UNL A   1      48.245  28.477  26.884  1.00  0.00     0.074 A 
ATOM     22  C   UNL A   1      49.291  29.472  26.951  1.00  0.00     0.031 C 
ATOM     23  C   UNL A   1      43.136  31.669  29.123  1.00  0.00     0.029 A 
ATOM     24  C   UNL A   1      43.230  30.241  28.839  1.00  0.00     0.049 A 
ATOM     25  H   UNL A   1      44.816  29.236  27.931  1.00  0.00     0.167 HD
ATOM     26  C   UNL A   1      48.427  27.201  26.470  1.00  0.00     0.037 A 
ATOM     27  C   UNL A   1      42.277  29.322  29.095  1.00  0.00     0.037 A 
ATOM     28  C   UNL A   1      47.382  26.216  26.431  1.00  0.00     0.049 A 
ATOM     29  C   UNL A   1      42.509  27.899  28.658  1.00  0.00     0.074 A 
ATOM     30  C   UNL A   1      47.416  24.934  25.912  1.00  0.00     0.029 A 
ATOM     31  N   UNL A   1      46.115  26.400  26.964  1.00  0.00    -0.354 N 
ATOM     32  N   UNL A   1      43.588  27.362  28.140  1.00  0.00    -0.248 NA
ATOM     33  C   UNL A   1      41.381  26.967  28.800  1.00  0.00     0.031 C 
ATOM     34  C   UNL A   1      46.162  24.348  26.119  1.00  0.00     0.029 A 
ATOM     35  C   UNL A   1      45.360  25.253  26.797  1.00  0.00     0.049 A 
ATOM     36  H   UNL A   1      45.800  27.226  27.397  1.00  0.00     0.167 HD
ATOM     37  C   UNL A   1      43.262  26.038  27.870  1.00  0.00     0.074 A 
ATOM     38  C   UNL A   1      41.902  25.841  28.329  1.00  0.00     0.031 C 
ATOM     39  C   UNL A   1      44.010  25.080  27.269  1.00  0.00     0.037 A 
BRANCH  26  40
ATOM     40  C   UNL A   1      49.786  26.856  25.939  1.00  0.00     0.058 A 
ATOM     41  C   UNL A   1      50.098  27.124  24.595  1.00  0.00     0.135 A 
ATOM     42  C   UNL A   1      50.797  26.331  26.757  1.00  0.00     0.135 A 
ATOM     43  F   UNL A   1      49.169  27.638  23.776  1.00  0.00    -0.206 F 
ATOM     44  C   UNL A   1      51.372  26.903  24.084  1.00  0.00     0.059 A 
ATOM     45  C   UNL A   1      52.085  26.121  26.272  1.00  0.00     0.059 A 
ATOM     46  F   UNL A   1      50.558  26.091  28.056  1.00  0.00    -0.206 F 
ATOM     47  C   UNL A   1      52.365  26.423  24.937  1.00  0.00     0.060 A 
BRANCH  47  48
ATOM     48  S   UNL A   1      54.054  26.212  24.336  1.00  0.00     0.124 S 
ATOM     49  O   UNL A   1      53.876  26.412  22.901  1.00  0.00    -0.237 OA
ATOM     50  O   UNL A   1      54.772  27.268  25.040  1.00  0.00    -0.237 OA
ATOM     51  O   UNL A   1      54.391  24.851  24.742  1.00  0.00    -0.744 OA
ENDBRANCH  47  48
ENDBRANCH  26  40
BRANCH  27  52
ATOM     52  C   UNL A   1      41.018  29.702  29.794  1.00  0.00     0.058 A 
ATOM     53  C   UNL A   1      39.815  29.904  29.099  1.00  0.00     0.135 A 
ATOM     54  C   UNL A   1      40.997  29.858  31.188  1.00  0.00     0.135 A 
ATOM     55  F   UNL A   1      39.781  29.779  27.764  1.00  0.00    -0.206 F 
ATOM     56  C   UNL A   1      38.639  30.255  29.757  1.00  0.00     0.059 A 
ATOM     57  C   UNL A   1      39.828  30.177  31.872  1.00  0.00     0.059 A 
ATOM     58  F   UNL A   1      42.121  29.683  31.900  1.00  0.00    -0.206 F 
ATOM     59  C   UNL A   1      38.653  30.372  31.147  1.00  0.00     0.060 A 
BRANCH  59  60
ATOM     60  S   UNL A   1      37.150  30.817  32.043  1.00  0.00     0.124 S 
ATOM     61  O   UNL A   1      36.701  31.986  31.295  1.00  0.00    -0.237 OA
ATOM     62  O   UNL A   1      36.338  29.613  31.892  1.00  0.00    -0.237 OA
ATOM     63  O   UNL A   1      37.632  31.080  33.396  1.00  0.00    -0.744 OA
ENDBRANCH  59  60
ENDBRANCH  27  52
BRANCH  39  64
ATOM     64  C   UNL A   1      43.374  23.737  27.063  1.00  0.00     0.058 A 
ATOM     65  C   UNL A   1      43.304  22.811  28.115  1.00  0.00     0.135 A 
ATOM     66  C   UNL A   1      42.907  23.341  25.801  1.00  0.00     0.135 A 
ATOM     67  F   UNL A   1      43.746  23.141  29.338  1.00  0.00    -0.206 F 
ATOM     68  C   UNL A   1      42.796  21.530  27.921  1.00  0.00     0.059 A 
ATOM     69  C   UNL A   1      42.381  22.073  25.588  1.00  0.00     0.059 A 
ATOM     70  F   UNL A   1      42.952  24.195  24.766  1.00  0.00    -0.206 F 
ATOM     71  C   UNL A   1      42.333  21.173  26.655  1.00  0.00     0.060 A 
BRANCH  71  72
ATOM     72  S   UNL A   1      41.695  19.510  26.354  1.00  0.00     0.124 S 
ATOM     73  O   UNL A   1      42.032  18.836  27.603  1.00  0.00    -0.237 OA
ATOM     74  O   UNL A   1      40.274  19.756  26.130  1.00  0.00    -0.237 OA
ATOM     75  O   UNL A   1      42.441  19.069  25.180  1.00  0.00    -0.744 OA
ENDBRANCH  71  72
ENDBRANCH  39  64
ENDBRANCH  13  14
ENDBRANCH   6   8
ENDBRANCH   5   6
ENDBRANCH   4   5
ENDBRANCH   3   4
ENDBRANCH   2   3
ENDBRANCH   1   2
BRANCH   1  76
ATOM     76  C   UNL A   1      46.662  40.545  25.173  1.00  0.00     0.188 C 
BRANCH  76  77
ATOM     77  O   UNL A   1      46.492  41.956  25.026  1.00  0.00    -0.376 OA
BRANCH  77  78
ATOM     78  C   UNL A   1      45.227  42.500  25.433  1.00  0.00     0.202 C 
BRANCH  78  79
ATOM     79  C   UNL A   1      44.044  42.109  24.543  1.00  0.00     0.261 C 
BRANCH  79  80
ATOM     80  O   UNL A   1      44.286  42.582  23.207  1.00  0.00    -0.462 OA
BRANCH  80  81
ATOM     81  C   UNL A   1      43.190  42.827  22.441  1.00  0.00     0.329 C 
ATOM     82  O   UNL A   1      42.089  43.134  22.890  1.00  0.00    -0.250 OA
BRANCH  81  83
ATOM     83  C   UNL A   1      43.561  42.883  20.951  1.00  0.00     0.197 C 
BRANCH  83  84
ATOM     84  C   UNL A   1      43.509  44.290  20.349  1.00  0.00     0.074 C 
BRANCH  84  85
ATOM     85  C   UNL A   1      42.842  44.471  19.014  1.00  0.00    -0.020 A 
ATOM     86  C   UNL A   1      41.914  43.634  18.424  1.00  0.00     0.087 A 
ATOM     87  C   UNL A   1      42.931  45.634  18.167  1.00  0.00     0.003 A 
ATOM     88  N   UNL A   1      41.410  44.253  17.309  1.00  0.00    -0.361 N 
ATOM     89  C   UNL A   1      41.982  45.493  17.156  1.00  0.00     0.046 A 
ATOM     90  C   UNL A   1      43.680  46.831  18.207  1.00  0.00     0.010 A 
ATOM     91  H   UNL A   1      40.736  43.865  16.705  1.00  0.00     0.166 HD
ATOM     92  C   UNL A   1      41.711  46.501  16.221  1.00  0.00     0.026 A 
ATOM     93  C   UNL A   1      43.412  47.857  17.294  1.00  0.00     0.001 A 
ATOM     94  C   UNL A   1      42.432  47.695  16.320  1.00  0.00     0.002 A 
ENDBRANCH  84  85
ENDBRANCH  83  84
BRANCH  83  95
ATOM     95  N   UNL A   1      44.843  42.214  20.700  1.00  0.00    -0.338 N 
ATOM     96  C   UNL A   1      46.081  42.756  20.491  1.00  0.00     0.254 C 
ATOM     97  H   UNL A   1      44.806  41.231  20.679  1.00  0.00     0.164 HD
ATOM     98  O   UNL A   1      47.001  42.061  20.062  1.00  0.00    -0.269 OA
BRANCH  96  99
ATOM     99  C   UNL A   1      46.366  44.158  20.829  1.00  0.00     0.075 A 
ATOM    100  C   UNL A   1      46.613  44.536  22.155  1.00  0.00     0.020 A 
ATOM    101  C   UNL A   1      46.538  45.084  19.796  1.00  0.00     0.138 A 
ATOM    102  C   UNL A   1      47.012  45.847  22.434  1.00  0.00     0.040 A 
ATOM    103  C   UNL A   1      46.936  46.388  20.072  1.00  0.00     0.079 A 
ATOM    104  F   UNL A   1      46.314  44.744  18.519  1.00  0.00    -0.206 F 
ATOM    105  C   UNL A   1      47.171  46.757  21.390  1.00  0.00     0.126 A 
ATOM    106  F   UNL A   1      47.571  48.007  21.660  1.00  0.00    -0.207 F 
ENDBRANCH  96  99
ENDBRANCH  83  95
ENDBRANCH  81  83
ENDBRANCH  80  81
ENDBRANCH  79  80
ENDBRANCH  78  79
ENDBRANCH  77  78
ENDBRANCH  76  77
ENDBRANCH   1  76
TORSDOF 24
ENDMDL
MODEL 2
REMARK VINA RESULT:     -10.0      4.005      9.266
REMARK SMILES O=C(OCCOCCOCCOC(=O)[C@@H](Cc1c[nH]c2ccccc12)NC(=O)c1ccc(F)cc1F)c1ccc(-c2c3nc(c(-c4c(F)cc(S(=O)(=O)[O-])cc4F)c4ccc([nH]4)c(-c4c(F)cc(S(=O)(=O)[O-])cc4F)c4nc(c(-c5c(F)cc(S(=O)(=O)[O-])cc5F)c5ccc2[nH]5)C=C4)C=C3)cc1
REMARK SMILES IDX 7 1 6 2 5 3 4 4 3 5 2 6 1 7 37 8 38 9 102 10 39 11 101 12
REMARK SMILES IDX 40 13 41 14 42 15 95 16 43 17 100 18 94 19 96 20 44 21 99 22
REMARK SMILES IDX 93 23 92 24 45 26 79 27 58 28 78 29 59 30 62 31 77 32 97 33
REMARK SMILES IDX 60 34 61 35 76 37 98 38 63 39 46 40 47 41 56 42 48 43 49 44
REMARK SMILES IDX 55 45 57 46 50 47 51 48 52 49 53 50 54 51 80 52 81 53 90 54
REMARK SMILES IDX 82 55 83 56 89 57 91 58 84 59 85 60 86 61 87 62 88 63 64 64
REMARK SMILES IDX 65 65 74 66 66 67 67 68 73 69 75 70 68 71 69 72 70 73 71 74
REMARK SMILES IDX 72 75 8 76 9 77 10 78 11 79 12 80 13 81 14 82 15 83 16 84
REMARK SMILES IDX 17 85 18 86 25 87 19 88 20 89 24 90 21 92 23 93 22 94 26 95
REMARK SMILES IDX 27 96 28 98 29 99 30 100 35 101 31 102 34 103 36 104 32 105
REMARK SMILES IDX 33 106
REMARK H PARENT 96 25 62 36 19 91 26 97
REMARK Flexibility Score: inf
ROOT
ATOM      1  C   UNL A   1      44.398  42.163  25.329  1.00  0.00     0.188 C 
ENDROOT
BRANCH   1   2
ATOM      2  O   UNL A   1      43.832  42.022  26.635  1.00  0.00    -0.376 OA
BRANCH   2   3
ATOM      3  C   UNL A   1      42.818  41.012  26.707  1.00  0.00     0.202 C 
BRANCH   3   4
ATOM      4  C   UNL A   1      42.718  40.370  28.095  1.00  0.00     0.261 C 
BRANCH   4   5
ATOM      5  O   UNL A   1      43.349  39.071  28.090  1.00  0.00    -0.460 OA
BRANCH   5   6
ATOM      6  C   UNL A   1      42.861  37.893  27.625  1.00  0.00     0.338 C 
ATOM      7  O   UNL A   1      42.017  37.903  26.733  1.00  0.00    -0.246 OA
BRANCH   6   8
ATOM      8  C   UNL A   1      43.326  36.571  28.131  1.00  0.00     0.060 A 
ATOM      9  C   UNL A   1      42.961  35.358  27.553  1.00  0.00     0.016 A 
ATOM     10  C   UNL A   1      44.243  36.547  29.195  1.00  0.00     0.016 A 
ATOM     11  C   UNL A   1      43.371  34.147  28.109  1.00  0.00     0.010 A 
ATOM     12  C   UNL A   1      44.716  35.331  29.713  1.00  0.00     0.010 A 
ATOM     13  C   UNL A   1      44.243  34.118  29.199  1.00  0.00    -0.014 A 
BRANCH  13  14
ATOM     14  C   UNL A   1      44.513  32.812  29.854  1.00  0.00     0.031 A 
ATOM     15  C   UNL A   1      43.586  32.342  30.938  1.00  0.00     0.074 A 
ATOM     16  C   UNL A   1      45.473  31.990  29.387  1.00  0.00     0.049 A 
ATOM     17  N   UNL A   1      43.632  31.245  31.648  1.00  0.00    -0.248 NA
ATOM     18  C   UNL A   1      42.456  33.226  31.268  1.00  0.00     0.031 C 
ATOM     19  C   UNL A   1      46.382  32.304  28.286  1.00  0.00     0.029 A 
ATOM     20  N   UNL A   1      45.803  30.702  29.730  1.00  0.00    -0.354 N 
ATOM     21  C   UNL A   1      42.581  31.339  32.551  1.00  0.00     0.074 A 
ATOM     22  C   UNL A   1      41.897  32.584  32.282  1.00  0.00     0.031 C 
ATOM     23  C   UNL A   1      47.086  31.204  27.970  1.00  0.00     0.029 A 
ATOM     24  C   UNL A   1      46.731  30.130  28.891  1.00  0.00     0.049 A 
ATOM     25  H   UNL A   1      45.411  30.233  30.502  1.00  0.00     0.167 HD
ATOM     26  C   UNL A   1      42.239  30.474  33.535  1.00  0.00     0.037 A 
ATOM     27  C   UNL A   1      47.229  28.877  28.870  1.00  0.00     0.037 A 
ATOM     28  C   UNL A   1      42.914  29.230  33.775  1.00  0.00     0.049 A 
ATOM     29  C   UNL A   1      46.812  27.915  29.952  1.00  0.00     0.074 A 
ATOM     30  C   UNL A   1      42.742  28.336  34.817  1.00  0.00     0.029 A 
ATOM     31  N   UNL A   1      43.878  28.689  32.938  1.00  0.00    -0.354 N 
ATOM     32  N   UNL A   1      45.915  28.076  30.896  1.00  0.00    -0.248 NA
ATOM     33  C   UNL A   1      47.506  26.619  29.994  1.00  0.00     0.031 C 
ATOM     34  C   UNL A   1      43.614  27.259  34.614  1.00  0.00     0.029 A 
ATOM     35  C   UNL A   1      44.303  27.468  33.430  1.00  0.00     0.049 A 
ATOM     36  H   UNL A   1      44.210  29.112  32.113  1.00  0.00     0.167 HD
ATOM     37  C   UNL A   1      45.953  26.915  31.658  1.00  0.00     0.074 A 
ATOM     38  C   UNL A   1      46.926  26.038  31.037  1.00  0.00     0.031 C 
ATOM     39  C   UNL A   1      45.268  26.612  32.788  1.00  0.00     0.037 A 
BRANCH  26  40
ATOM     40  C   UNL A   1      41.150  30.916  34.466  1.00  0.00     0.058 A 
ATOM     41  C   UNL A   1      39.874  30.336  34.371  1.00  0.00     0.135 A 
ATOM     42  C   UNL A   1      41.374  31.849  35.489  1.00  0.00     0.135 A 
ATOM     43  F   UNL A   1      39.614  29.429  33.417  1.00  0.00    -0.206 F 
ATOM     44  C   UNL A   1      38.861  30.650  35.270  1.00  0.00     0.059 A 
ATOM     45  C   UNL A   1      40.381  32.163  36.413  1.00  0.00     0.059 A 
ATOM     46  F   UNL A   1      42.586  32.405  35.643  1.00  0.00    -0.206 F 
ATOM     47  C   UNL A   1      39.132  31.547  36.302  1.00  0.00     0.060 A 
BRANCH  47  48
ATOM     48  S   UNL A   1      37.873  31.909  37.544  1.00  0.00     0.124 S 
ATOM     49  O   UNL A   1      38.694  32.372  38.660  1.00  0.00    -0.237 OA
ATOM     50  O   UNL A   1      37.066  32.930  36.885  1.00  0.00    -0.237 OA
ATOM     51  O   UNL A   1      37.212  30.623  37.743  1.00  0.00    -0.744 OA
ENDBRANCH  47  48
ENDBRANCH  26  40
BRANCH  27  52
ATOM     52  C   UNL A   1      48.174  28.449  27.802  1.00  0.00     0.058 A 
ATOM     53  C   UNL A   1      49.566  28.499  27.977  1.00  0.00     0.135 A 
ATOM     54  C   UNL A   1      47.690  27.964  26.576  1.00  0.00     0.135 A 
ATOM     55  F   UNL A   1      50.082  28.966  29.124  1.00  0.00    -0.206 F 
ATOM     56  C   UNL A   1      50.445  28.093  26.977  1.00  0.00     0.059 A 
ATOM     57  C   UNL A   1      48.548  27.522  25.574  1.00  0.00     0.059 A 
ATOM     58  F   UNL A   1      46.369  27.900  26.354  1.00  0.00    -0.206 F 
ATOM     59  C   UNL A   1      49.925  27.590  25.785  1.00  0.00     0.060 A 
BRANCH  59  60
ATOM     60  S   UNL A   1      51.029  27.045  24.463  1.00  0.00     0.124 S 
ATOM     61  O   UNL A   1      50.080  26.757  23.393  1.00  0.00    -0.237 OA
ATOM     62  O   UNL A   1      51.872  28.221  24.267  1.00  0.00    -0.237 OA
ATOM     63  O   UNL A   1      51.699  25.885  25.043  1.00  0.00    -0.744 OA
ENDBRANCH  59  60
ENDBRANCH  27  52
BRANCH  39  64
ATOM     64  C   UNL A   1      45.550  25.287  33.432  1.00  0.00     0.058 A 
ATOM     65  C   UNL A   1      44.804  24.150  33.087  1.00  0.00     0.135 A 
ATOM     66  C   UNL A   1      46.508  25.164  34.450  1.00  0.00     0.135 A 
ATOM     67  F   UNL A   1      43.871  24.221  32.124  1.00  0.00    -0.206 F 
ATOM     68  C   UNL A   1      44.993  22.934  33.734  1.00  0.00     0.059 A 
ATOM     69  C   UNL A   1      46.725  23.955  35.099  1.00  0.00     0.059 A 
ATOM     70  F   UNL A   1      47.248  26.224  34.813  1.00  0.00    -0.206 F 
ATOM     71  C   UNL A   1      45.960  22.845  34.735  1.00  0.00     0.060 A 
BRANCH  71  72
ATOM     72  S   UNL A   1      46.214  21.292  35.620  1.00  0.00     0.124 S 
ATOM     73  O   UNL A   1      45.787  21.649  36.969  1.00  0.00    -0.237 OA
ATOM     74  O   UNL A   1      45.338  20.374  34.900  1.00  0.00    -0.237 OA
ATOM     75  O   UNL A   1      47.643  21.040  35.458  1.00  0.00    -0.744 OA
ENDBRANCH  71  72
ENDBRANCH  39  64
ENDBRANCH  13  14
ENDBRANCH   6   8
ENDBRANCH   5   6
ENDBRANCH   4   5
ENDBRANCH   3   4
ENDBRANCH   2   3
ENDBRANCH   1   2
BRANCH   1  76
ATOM     76  C   UNL A   1      44.222  43.582  24.778  1.00  0.00     0.188 C 
BRANCH  76  77
ATOM     77  O   UNL A   1      43.213  43.716  23.776  1.00  0.00    -0.376 OA
BRANCH  77  78
ATOM     78  C   UNL A   1      42.474  42.531  23.441  1.00  0.00     0.202 C 
BRANCH  78  79
ATOM     79  C   UNL A   1      41.494  42.695  22.276  1.00  0.00     0.261 C 
BRANCH  79  80
ATOM     80  O   UNL A   1      42.165  42.365  21.049  1.00  0.00    -0.462 OA
BRANCH  80  81
ATOM     81  C   UNL A   1      41.949  43.197  19.995  1.00  0.00     0.329 C 
ATOM     82  O   UNL A   1      40.837  43.553  19.614  1.00  0.00    -0.250 OA
BRANCH  81  83
ATOM     83  C   UNL A   1      43.269  43.797  19.488  1.00  0.00     0.197 C 
BRANCH  83  84
ATOM     84  C   UNL A   1      44.473  43.499  20.386  1.00  0.00     0.074 C 
BRANCH  84  85
ATOM     85  C   UNL A   1      45.771  44.203  20.098  1.00  0.00    -0.020 A 
ATOM     86  C   UNL A   1      46.889  43.672  19.485  1.00  0.00     0.087 A 
ATOM     87  C   UNL A   1      46.033  45.609  20.266  1.00  0.00     0.003 A 
ATOM     88  N   UNL A   1      47.777  44.687  19.233  1.00  0.00    -0.361 N 
ATOM     89  C   UNL A   1      47.257  45.886  19.660  1.00  0.00     0.046 A 
ATOM     90  C   UNL A   1      45.309  46.692  20.814  1.00  0.00     0.010 A 
ATOM     91  H   UNL A   1      48.657  44.573  18.808  1.00  0.00     0.166 HD
ATOM     92  C   UNL A   1      47.767  47.185  19.531  1.00  0.00     0.026 A 
ATOM     93  C   UNL A   1      45.791  47.998  20.679  1.00  0.00     0.001 A 
ATOM     94  C   UNL A   1      47.001  48.240  20.037  1.00  0.00     0.002 A 
ENDBRANCH  84  85
ENDBRANCH  83  84
BRANCH  83  95
ATOM     95  N   UNL A   1      43.512  43.433  18.087  1.00  0.00    -0.338 N 
ATOM     96  C   UNL A   1      43.415  44.200  16.959  1.00  0.00     0.254 C 
ATOM     97  H   UNL A   1      43.786  42.500  17.938  1.00  0.00     0.164 HD
ATOM     98  O   UNL A   1      43.425  43.675  15.847  1.00  0.00    -0.269 OA
BRANCH  96  99
ATOM     99  C   UNL A   1      43.359  45.667  17.038  1.00  0.00     0.075 A 
ATOM    100  C   UNL A   1      42.144  46.321  17.281  1.00  0.00     0.020 A 
ATOM    101  C   UNL A   1      44.552  46.395  17.021  1.00  0.00     0.138 A 
ATOM    102  C   UNL A   1      42.137  47.705  17.484  1.00  0.00     0.040 A 
ATOM    103  C   UNL A   1      44.546  47.770  17.224  1.00  0.00     0.079 A 
ATOM    104  F   UNL A   1      45.727  45.790  16.798  1.00  0.00    -0.206 F 
ATOM    105  C   UNL A   1      43.337  48.413  17.457  1.00  0.00     0.126 A 
ATOM    106  F   UNL A   1      43.327  49.736  17.670  1.00  0.00    -0.207 F 
ENDBRANCH  96  99
ENDBRANCH  83  95
ENDBRANCH  81  83
ENDBRANCH  80  81
ENDBRANCH  79  80
ENDBRANCH  78  79
ENDBRANCH  77  78
ENDBRANCH  76  77
ENDBRANCH   1  76
TORSDOF 24
ENDMDL
MODEL 3
REMARK VINA RESULT:     -10.0     10.580     16.845
REMARK SMILES O=C(OCCOCCOCCOC(=O)[C@@H](Cc1c[nH]c2ccccc12)NC(=O)c1ccc(F)cc1F)c1ccc(-c2c3nc(c(-c4c(F)cc(S(=O)(=O)[O-])cc4F)c4ccc([nH]4)c(-c4c(F)cc(S(=O)(=O)[O-])cc4F)c4nc(c(-c5c(F)cc(S(=O)(=O)[O-])cc5F)c5ccc2[nH]5)C=C4)C=C3)cc1
REMARK SMILES IDX 7 1 6 2 5 3 4 4 3 5 2 6 1 7 37 8 38 9 102 10 39 11 101 12
REMARK SMILES IDX 40 13 41 14 42 15 95 16 43 17 100 18 94 19 96 20 44 21 99 22
REMARK SMILES IDX 93 23 92 24 45 26 79 27 58 28 78 29 59 30 62 31 77 32 97 33
REMARK SMILES IDX 60 34 61 35 76 37 98 38 63 39 46 40 47 41 56 42 48 43 49 44
REMARK SMILES IDX 55 45 57 46 50 47 51 48 52 49 53 50 54 51 80 52 81 53 90 54
REMARK SMILES IDX 82 55 83 56 89 57 91 58 84 59 85 60 86 61 87 62 88 63 64 64
REMARK SMILES IDX 65 65 74 66 66 67 67 68 73 69 75 70 68 71 69 72 70 73 71 74
REMARK SMILES IDX 72 75 8 76 9 77 10 78 11 79 12 80 13 81 14 82 15 83 16 84
REMARK SMILES IDX 17 85 18 86 25 87 19 88 20 89 24 90 21 92 23 93 22 94 26 95
REMARK SMILES IDX 27 96 28 98 29 99 30 100 35 101 31 102 34 103 36 104 32 105
REMARK SMILES IDX 33 106
REMARK H PARENT 96 25 62 36 19 91 26 97
REMARK Flexibility Score: inf
ROOT
ATOM      1  C   UNL A   1      38.501  22.262  25.399  1.00  0.00     0.188 C 
ENDROOT
BRANCH   1   2
ATOM      2  O   UNL A   1      39.254  22.033  26.593  1.00  0.00    -0.376 OA
BRANCH   2   3
ATOM      3  C   UNL A   1      39.969  23.190  27.042  1.00  0.00     0.202 C 
BRANCH   3   4
ATOM      4  C   UNL A   1      41.406  23.242  26.512  1.00  0.00     0.261 C 
BRANCH   4   5
ATOM      5  O   UNL A   1      41.667  24.526  25.904  1.00  0.00    -0.460 OA
BRANCH   5   6
ATOM      6  C   UNL A   1      42.598  25.453  26.246  1.00  0.00     0.338 C 
ATOM      7  O   UNL A   1      43.592  25.594  25.539  1.00  0.00    -0.246 OA
BRANCH   6   8
ATOM      8  C   UNL A   1      42.456  26.337  27.437  1.00  0.00     0.060 A 
ATOM      9  C   UNL A   1      42.138  25.866  28.708  1.00  0.00     0.016 A 
ATOM     10  C   UNL A   1      42.737  27.705  27.290  1.00  0.00     0.016 A 
ATOM     11  C   UNL A   1      41.952  26.746  29.773  1.00  0.00     0.010 A 
ATOM     12  C   UNL A   1      42.622  28.586  28.377  1.00  0.00     0.010 A 
ATOM     13  C   UNL A   1      42.181  28.115  29.619  1.00  0.00    -0.014 A 
BRANCH  13  14
ATOM     14  C   UNL A   1      41.808  29.024  30.734  1.00  0.00     0.031 A 
ATOM     15  C   UNL A   1      42.823  29.313  31.802  1.00  0.00     0.074 A 
ATOM     16  C   UNL A   1      40.644  29.702  30.711  1.00  0.00     0.049 A 
ATOM     17  N   UNL A   1      42.715  30.066  32.864  1.00  0.00    -0.248 NA
ATOM     18  C   UNL A   1      44.137  28.665  31.655  1.00  0.00     0.031 C 
ATOM     19  C   UNL A   1      39.615  29.567  29.682  1.00  0.00     0.029 A 
ATOM     20  N   UNL A   1      40.157  30.685  31.537  1.00  0.00    -0.354 N 
ATOM     21  C   UNL A   1      43.917  29.928  33.546  1.00  0.00     0.074 A 
ATOM     22  C   UNL A   1      44.753  29.045  32.764  1.00  0.00     0.031 C 
ATOM     23  C   UNL A   1      38.676  30.509  29.873  1.00  0.00     0.029 A 
ATOM     24  C   UNL A   1      38.998  31.267  31.077  1.00  0.00     0.049 A 
ATOM     25  H   UNL A   1      40.596  30.949  32.378  1.00  0.00     0.167 HD
ATOM     26  C   UNL A   1      44.277  30.471  34.732  1.00  0.00     0.037 A 
ATOM     27  C   UNL A   1      38.286  32.298  31.573  1.00  0.00     0.037 A 
ATOM     28  C   UNL A   1      43.446  31.367  35.487  1.00  0.00     0.049 A 
ATOM     29  C   UNL A   1      38.719  32.914  32.879  1.00  0.00     0.074 A 
ATOM     30  C   UNL A   1      43.647  31.876  36.757  1.00  0.00     0.029 A 
ATOM     31  N   UNL A   1      42.258  31.911  35.021  1.00  0.00    -0.354 N 
ATOM     32  N   UNL A   1      39.793  32.666  33.590  1.00  0.00    -0.248 NA
ATOM     33  C   UNL A   1      37.822  33.918  33.471  1.00  0.00     0.031 C 
ATOM     34  C   UNL A   1      42.572  32.719  37.063  1.00  0.00     0.029 A 
ATOM     35  C   UNL A   1      41.720  32.759  35.971  1.00  0.00     0.049 A 
ATOM     36  H   UNL A   1      41.858  31.720  34.142  1.00  0.00     0.167 HD
ATOM     37  C   UNL A   1      39.690  33.463  34.724  1.00  0.00     0.074 A 
ATOM     38  C   UNL A   1      38.474  34.239  34.581  1.00  0.00     0.031 C 
ATOM     39  C   UNL A   1      40.511  33.525  35.801  1.00  0.00     0.037 A 
BRANCH  26  40
ATOM     40  C   UNL A   1      45.585  30.017  35.308  1.00  0.00     0.058 A 
ATOM     41  C   UNL A   1      45.637  28.842  36.078  1.00  0.00     0.135 A 
ATOM     42  C   UNL A   1      46.788  30.689  35.051  1.00  0.00     0.135 A 
ATOM     43  F   UNL A   1      44.514  28.157  36.342  1.00  0.00    -0.206 F 
ATOM     44  C   UNL A   1      46.840  28.337  36.557  1.00  0.00     0.059 A 
ATOM     45  C   UNL A   1      48.007  30.190  35.503  1.00  0.00     0.059 A 
ATOM     46  F   UNL A   1      46.796  31.796  34.292  1.00  0.00    -0.206 F 
ATOM     47  C   UNL A   1      48.023  29.006  36.244  1.00  0.00     0.060 A 
BRANCH  47  48
ATOM     48  S   UNL A   1      49.613  28.330  36.766  1.00  0.00     0.124 S 
ATOM     49  O   UNL A   1      50.024  27.602  35.569  1.00  0.00    -0.237 OA
ATOM     50  O   UNL A   1      50.379  29.533  37.071  1.00  0.00    -0.237 OA
ATOM     51  O   UNL A   1      49.268  27.501  37.917  1.00  0.00    -0.744 OA
ENDBRANCH  47  48
ENDBRANCH  26  40
BRANCH  27  52
ATOM     52  C   UNL A   1      37.093  32.821  30.851  1.00  0.00     0.058 A 
ATOM     53  C   UNL A   1      35.787  32.458  31.215  1.00  0.00     0.135 A 
ATOM     54  C   UNL A   1      37.246  33.712  29.778  1.00  0.00     0.135 A 
ATOM     55  F   UNL A   1      35.584  31.600  32.225  1.00  0.00    -0.206 F 
ATOM     56  C   UNL A   1      34.675  32.953  30.539  1.00  0.00     0.059 A 
ATOM     57  C   UNL A   1      36.149  34.245  29.107  1.00  0.00     0.059 A 
ATOM     58  F   UNL A   1      38.473  34.086  29.385  1.00  0.00    -0.206 F 
ATOM     59  C   UNL A   1      34.867  33.860  29.497  1.00  0.00     0.060 A 
BRANCH  59  60
ATOM     60  S   UNL A   1      33.453  34.533  28.596  1.00  0.00     0.124 S 
ATOM     61  O   UNL A   1      33.077  33.401  27.758  1.00  0.00    -0.237 OA
ATOM     62  O   UNL A   1      32.530  34.858  29.680  1.00  0.00    -0.237 OA
ATOM     63  O   UNL A   1      34.019  35.681  27.894  1.00  0.00    -0.744 OA
ENDBRANCH  59  60
ENDBRANCH  27  52
BRANCH  39  64
ATOM     64  C   UNL A   1      40.121  34.452  36.913  1.00  0.00     0.058 A 
ATOM     65  C   UNL A   1      40.584  35.777  36.937  1.00  0.00     0.135 A 
ATOM     66  C   UNL A   1      39.351  34.003  37.997  1.00  0.00     0.135 A 
ATOM     67  F   UNL A   1      41.330  36.250  35.926  1.00  0.00    -0.206 F 
ATOM     68  C   UNL A   1      40.304  36.625  38.002  1.00  0.00     0.059 A 
ATOM     69  C   UNL A   1      39.045  34.838  39.064  1.00  0.00     0.059 A 
ATOM     70  F   UNL A   1      38.884  32.744  38.017  1.00  0.00    -0.206 F 
ATOM     71  C   UNL A   1      39.529  36.148  39.059  1.00  0.00     0.060 A 
BRANCH  71  72
ATOM     72  S   UNL A   1      39.168  37.208  40.476  1.00  0.00     0.124 S 
ATOM     73  O   UNL A   1      38.331  38.236  39.867  1.00  0.00    -0.237 OA
ATOM     74  O   UNL A   1      38.486  36.292  41.386  1.00  0.00    -0.237 OA
ATOM     75  O   UNL A   1      40.489  37.649  40.914  1.00  0.00    -0.744 OA
ENDBRANCH  71  72
ENDBRANCH  39  64
ENDBRANCH  13  14
ENDBRANCH   6   8
ENDBRANCH   5   6
ENDBRANCH   4   5
ENDBRANCH   3   4
ENDBRANCH   2   3
ENDBRANCH   1   2
BRANCH   1  76
ATOM     76  C   UNL A   1      37.010  21.968  25.596  1.00  0.00     0.188 C 
BRANCH  76  77
ATOM     77  O   UNL A   1      36.430  22.558  26.760  1.00  0.00    -0.376 OA
BRANCH  77  78
ATOM     78  C   UNL A   1      35.212  23.296  26.573  1.00  0.00     0.202 C 
BRANCH  78  79
ATOM     79  C   UNL A   1      34.077  22.910  27.526  1.00  0.00     0.261 C 
BRANCH  79  80
ATOM     80  O   UNL A   1      32.964  22.425  26.756  1.00  0.00    -0.462 OA
BRANCH  80  81
ATOM     81  C   UNL A   1      31.983  23.324  26.474  1.00  0.00     0.329 C 
ATOM     82  O   UNL A   1      31.097  23.647  27.259  1.00  0.00    -0.250 OA
BRANCH  81  83
ATOM     83  C   UNL A   1      32.255  24.034  25.139  1.00  0.00     0.197 C 
BRANCH  83  84
ATOM     84  C   UNL A   1      33.149  23.239  24.182  1.00  0.00     0.074 C 
BRANCH  84  85
ATOM     85  C   UNL A   1      32.545  22.079  23.439  1.00  0.00    -0.020 A 
ATOM     86  C   UNL A   1      31.888  22.118  22.224  1.00  0.00     0.087 A 
ATOM     87  C   UNL A   1      32.676  20.686  23.782  1.00  0.00     0.003 A 
ATOM     88  N   UNL A   1      31.668  20.832  21.801  1.00  0.00    -0.361 N 
ATOM     89  C   UNL A   1      32.180  19.940  22.714  1.00  0.00     0.046 A 
ATOM     90  C   UNL A   1      33.238  19.984  24.872  1.00  0.00     0.010 A 
ATOM     91  H   UNL A   1      31.211  20.584  20.966  1.00  0.00     0.166 HD
ATOM     92  C   UNL A   1      32.262  18.543  22.658  1.00  0.00     0.026 A 
ATOM     93  C   UNL A   1      33.346  18.590  24.827  1.00  0.00     0.001 A 
ATOM     94  C   UNL A   1      32.873  17.882  23.728  1.00  0.00     0.002 A 
ENDBRANCH  84  85
ENDBRANCH  83  84
BRANCH  83  95
ATOM     95  N   UNL A   1      31.004  24.467  24.506  1.00  0.00    -0.338 N 
ATOM     96  C   UNL A   1      30.392  25.690  24.535  1.00  0.00     0.254 C 
ATOM     97  H   UNL A   1      30.538  23.776  23.982  1.00  0.00     0.164 HD
ATOM     98  O   UNL A   1      29.231  25.814  24.147  1.00  0.00    -0.269 OA
BRANCH  96  99
ATOM     99  C   UNL A   1      31.115  26.893  24.969  1.00  0.00     0.075 A 
ATOM    100  C   UNL A   1      31.263  27.183  26.333  1.00  0.00     0.020 A 
ATOM    101  C   UNL A   1      31.785  27.665  24.016  1.00  0.00     0.138 A 
ATOM    102  C   UNL A   1      32.066  28.258  26.724  1.00  0.00     0.040 A 
ATOM    103  C   UNL A   1      32.585  28.734  24.405  1.00  0.00     0.079 A 
ATOM    104  F   UNL A   1      31.665  27.403  22.707  1.00  0.00    -0.206 F 
ATOM    105  C   UNL A   1      32.721  29.020  25.757  1.00  0.00     0.126 A 
ATOM    106  F   UNL A   1      33.504  30.037  26.138  1.00  0.00    -0.207 F 
ENDBRANCH  96  99
ENDBRANCH  83  95
ENDBRANCH  81  83
ENDBRANCH  80  81
ENDBRANCH  79  80
ENDBRANCH  78  79
ENDBRANCH  77  78
ENDBRANCH  76  77
ENDBRANCH   1  76
TORSDOF 24
ENDMDL
