MODEL 1
REMARK VINA RESULT:     -10.5      0.000      0.000
REMARK SMILES Cc1ccc(-c2cnnc(-n3nc(C)c4c3NC(=O)C[C@@H]4c3ccc(C(=O)OCCOCCOCCOC(=O)c4ccc(-c5c6nc(c(-c7c(F)cc(S(=O)(=O)[O-])cc7F)c7ccc([nH]7)c(-c7c(F)cc(S(=O)(=O)[O-])cc7F)c7nc(c(-c8c(F)cc(S(=O)(=O)[O-])cc8F)c8ccc5[nH]8)C=C7)C=C6)cc4)cc3)n2)cc1
REMARK SMILES IDX 32 1 31 2 30 3 29 4 28 5 26 6 27 7 25 8 22 9 23 10 107 11
REMARK SMILES IDX 24 12 106 13 21 14 11 15 12 16 16 17 13 18 15 19 17 20 14 21
REMARK SMILES IDX 18 22 20 24 19 25 10 26 6 27 7 28 108 29 8 30 9 31 5 32 1 33
REMARK SMILES IDX 2 34 3 35 110 36 4 37 109 38 33 39 34 40 35 41 36 42 37 43
REMARK SMILES IDX 38 44 39 45 40 46 41 47 105 48 42 49 104 50 43 51 44 52
REMARK SMILES IDX 45 53 98 54 46 55 103 56 97 57 99 58 47 59 102 60 96 61
REMARK SMILES IDX 95 62 48 64 82 65 61 66 81 67 62 68 65 69 80 70 100 71 63 72
REMARK SMILES IDX 64 73 79 75 101 76 66 77 49 78 50 79 59 80 51 81 52 82 58 83
REMARK SMILES IDX 60 84 53 85 54 86 55 87 56 88 57 89 83 90 84 91 93 92 85 93
REMARK SMILES IDX 86 94 92 95 94 96 87 97 88 98 89 99 90 100 91 101 67 102
REMARK SMILES IDX 68 103 77 104 69 105 70 106 76 107 78 108 71 109 72 110
REMARK SMILES IDX 73 111 74 112 75 113
REMARK H PARENT 17 23 99 63 65 74
REMARK Flexibility Score: inf
ROOT
ATOM      1  C   UNL A   1      33.481  32.388  28.003  1.00  0.00     0.188 C 
ENDROOT
BRANCH   1   2
ATOM      2  O   UNL A   1      33.884  31.235  27.237  1.00  0.00    -0.376 OA
BRANCH   2   3
ATOM      3  C   UNL A   1      33.096  30.041  27.110  1.00  0.00     0.202 C 
BRANCH   3   4
ATOM      4  C   UNL A   1      31.736  30.069  26.259  1.00  0.00     0.261 C 
BRANCH   4   5
ATOM      5  O   UNL A   1      31.743  29.746  24.794  1.00  0.00    -0.460 OA
BRANCH   5   6
ATOM      6  C   UNL A   1      30.901  28.921  24.101  1.00  0.00     0.338 C 
ATOM      7  O   UNL A   1      30.034  29.337  23.339  1.00  0.00    -0.246 OA
BRANCH   6   8
ATOM      8  C   UNL A   1      31.023  27.385  24.408  1.00  0.00     0.060 A 
ATOM      9  C   UNL A   1      31.335  24.527  24.692  1.00  0.00    -0.040 A 
ATOM     10  C   UNL A   1      32.359  25.345  25.041  1.00  0.00     0.005 A 
ATOM     11  C   UNL A   1      30.072  25.140  24.481  1.00  0.00     0.005 A 
ATOM     12  C   UNL A   1      32.161  26.704  24.854  1.00  0.00     0.016 A 
ATOM     13  C   UNL A   1      29.929  26.546  24.315  1.00  0.00     0.016 A 
BRANCH   9  14
ATOM     14  C   UNL A   1      31.788  23.144  24.289  1.00  0.00     0.064 C 
ATOM     15  N   UNL A   1      35.034  22.584  25.696  1.00  0.00    -0.180 N 
ATOM     16  N   UNL A   1      34.394  22.839  26.868  1.00  0.00    -0.168 NA
ATOM     17  C   UNL A   1      34.244  22.924  24.616  1.00  0.00     0.143 A 
ATOM     18  C   UNL A   1      33.105  22.863  26.534  1.00  0.00     0.066 A 
ATOM     19  C   UNL A   1      32.971  22.918  25.122  1.00  0.00     0.026 A 
ATOM     20  N   UNL A   1      34.477  23.182  23.276  1.00  0.00    -0.310 N 
ATOM     21  C   UNL A   1      32.076  22.969  27.600  1.00  0.00     0.069 C 
ATOM     22  C   UNL A   1      33.368  23.358  22.372  1.00  0.00     0.226 C 
ATOM     23  H   UNL A   1      35.400  23.244  22.939  1.00  0.00     0.171 HD
ATOM     24  C   UNL A   1      32.014  22.881  22.812  1.00  0.00     0.113 C 
ATOM     25  O   UNL A   1      33.641  23.734  21.244  1.00  0.00    -0.275 OA
BRANCH  15  26
ATOM     26  C   UNL A   1      36.155  21.731  25.685  1.00  0.00     0.272 A 
ATOM     27  C   UNL A   1      38.390  21.411  25.764  1.00  0.00     0.095 A 
ATOM     28  C   UNL A   1      38.233  20.265  25.001  1.00  0.00     0.164 A 
ATOM     29  N   UNL A   1      37.348  22.206  26.091  1.00  0.00    -0.208 NA
ATOM     30  N   UNL A   1      37.022  19.833  24.634  1.00  0.00    -0.153 NA
ATOM     31  N   UNL A   1      35.967  20.557  25.023  1.00  0.00    -0.109 NA
BRANCH  27  32
ATOM     32  C   UNL A   1      39.674  21.731  26.377  1.00  0.00     0.002 A 
ATOM     33  C   UNL A   1      43.186  22.579  28.728  1.00  0.00     0.044 C 
ATOM     34  C   UNL A   1      41.982  22.304  27.881  1.00  0.00    -0.051 A 
ATOM     35  C   UNL A   1      41.801  21.037  27.319  1.00  0.00     0.004 A 
ATOM     36  C   UNL A   1      41.029  23.300  27.651  1.00  0.00     0.004 A 
ATOM     37  C   UNL A   1      40.660  20.753  26.570  1.00  0.00     0.011 A 
ATOM     38  C   UNL A   1      39.890  23.015  26.901  1.00  0.00     0.011 A 
ENDBRANCH  27  32
ENDBRANCH  15  26
ENDBRANCH   9  14
ENDBRANCH   6   8
ENDBRANCH   5   6
ENDBRANCH   4   5
ENDBRANCH   3   4
ENDBRANCH   2   3
ENDBRANCH   1   2
BRANCH   1  39
ATOM     39  C   UNL A   1      34.252  33.724  28.009  1.00  0.00     0.188 C 
BRANCH  39  40
ATOM     40  O   UNL A   1      34.069  34.422  29.233  1.00  0.00    -0.376 OA
BRANCH  40  41
ATOM     41  C   UNL A   1      35.034  34.206  30.255  1.00  0.00     0.202 C 
BRANCH  41  42
ATOM     42  C   UNL A   1      36.434  33.802  29.747  1.00  0.00     0.261 C 
BRANCH  42  43
ATOM     43  O   UNL A   1      37.052  32.777  30.573  1.00  0.00    -0.460 OA
BRANCH  43  44
ATOM     44  C   UNL A   1      36.892  31.466  30.181  1.00  0.00     0.338 C 
ATOM     45  O   UNL A   1      35.795  30.951  30.055  1.00  0.00    -0.246 OA
BRANCH  44  46
ATOM     46  C   UNL A   1      38.202  30.843  29.795  1.00  0.00     0.060 A 
ATOM     47  C   UNL A   1      38.401  29.617  29.146  1.00  0.00     0.016 A 
ATOM     48  C   UNL A   1      39.328  31.466  30.234  1.00  0.00     0.016 A 
ATOM     49  C   UNL A   1      39.712  28.994  29.060  1.00  0.00     0.010 A 
ATOM     50  C   UNL A   1      40.503  30.725  30.333  1.00  0.00     0.010 A 
ATOM     51  C   UNL A   1      40.842  29.526  29.697  1.00  0.00    -0.014 A 
BRANCH  51  52
ATOM     52  C   UNL A   1      42.310  28.936  29.856  1.00  0.00     0.031 A 
ATOM     53  C   UNL A   1      43.093  28.127  31.053  1.00  0.00     0.074 A 
ATOM     54  C   UNL A   1      42.974  28.905  28.686  1.00  0.00     0.049 A 
ATOM     55  N   UNL A   1      43.993  27.200  30.823  1.00  0.00    -0.248 NA
ATOM     56  C   UNL A   1      42.994  28.259  32.547  1.00  0.00     0.031 C 
ATOM     57  C   UNL A   1      44.060  28.031  28.277  1.00  0.00     0.029 A 
ATOM     58  N   UNL A   1      42.975  29.928  27.748  1.00  0.00    -0.354 N 
ATOM     59  C   UNL A   1      44.336  26.550  31.994  1.00  0.00     0.074 A 
ATOM     60  C   UNL A   1      43.646  27.210  33.049  1.00  0.00     0.031 C 
ATOM     61  C   UNL A   1      44.811  28.670  27.377  1.00  0.00     0.029 A 
ATOM     62  C   UNL A   1      44.291  30.014  27.257  1.00  0.00     0.049 A 
ATOM     63  H   UNL A   1      42.207  30.483  27.478  1.00  0.00     0.167 HD
ATOM     64  C   UNL A   1      45.323  25.621  32.087  1.00  0.00     0.037 A 
ATOM     65  C   UNL A   1      44.996  31.160  27.469  1.00  0.00     0.037 A 
ATOM     66  C   UNL A   1      46.394  25.985  31.186  1.00  0.00     0.049 A 
ATOM     67  C   UNL A   1      46.176  30.995  28.408  1.00  0.00     0.074 A 
ATOM     68  C   UNL A   1      46.737  25.720  29.877  1.00  0.00     0.029 A 
ATOM     69  N   UNL A   1      47.131  27.098  31.554  1.00  0.00    -0.354 N 
ATOM     70  N   UNL A   1      46.640  29.853  28.845  1.00  0.00    -0.248 NA
ATOM     71  C   UNL A   1      46.890  32.135  28.986  1.00  0.00     0.031 C 
ATOM     72  C   UNL A   1      47.500  26.844  29.409  1.00  0.00     0.029 A 
ATOM     73  C   UNL A   1      47.655  27.747  30.453  1.00  0.00     0.049 A 
ATOM     74  H   UNL A   1      47.266  27.390  32.485  1.00  0.00     0.167 HD
ATOM     75  C   UNL A   1      47.584  30.087  29.813  1.00  0.00     0.074 A 
ATOM     76  C   UNL A   1      47.744  31.530  29.828  1.00  0.00     0.031 C 
ATOM     77  C   UNL A   1      48.130  29.120  30.608  1.00  0.00     0.037 A 
BRANCH  64  78
ATOM     78  C   UNL A   1      45.320  24.486  33.094  1.00  0.00     0.058 A 
ATOM     79  C   UNL A   1      46.307  24.397  34.098  1.00  0.00     0.135 A 
ATOM     80  C   UNL A   1      44.487  23.343  32.983  1.00  0.00     0.135 A 
ATOM     81  F   UNL A   1      47.181  25.397  34.288  1.00  0.00    -0.206 F 
ATOM     82  C   UNL A   1      46.472  23.259  34.903  1.00  0.00     0.059 A 
ATOM     83  C   UNL A   1      44.607  22.217  33.801  1.00  0.00     0.059 A 
ATOM     84  F   UNL A   1      43.557  23.238  32.023  1.00  0.00    -0.206 F 
ATOM     85  C   UNL A   1      45.627  22.165  34.735  1.00  0.00     0.060 A 
BRANCH  85  86
ATOM     86  S   UNL A   1      45.911  20.651  35.681  1.00  0.00     0.124 S 
ATOM     87  O   UNL A   1      45.665  21.104  37.047  1.00  0.00    -0.237 OA
ATOM     88  O   UNL A   1      44.918  19.740  35.124  1.00  0.00    -0.237 OA
ATOM     89  O   UNL A   1      47.300  20.316  35.378  1.00  0.00    -0.744 OA
ENDBRANCH  85  86
ENDBRANCH  64  78
BRANCH  65  90
ATOM     90  C   UNL A   1      44.119  32.354  27.266  1.00  0.00     0.058 A 
ATOM     91  C   UNL A   1      43.648  32.972  28.448  1.00  0.00     0.135 A 
ATOM     92  C   UNL A   1      44.152  33.136  26.103  1.00  0.00     0.135 A 
ATOM     93  F   UNL A   1      43.606  32.275  29.596  1.00  0.00    -0.206 F 
ATOM     94  C   UNL A   1      43.414  34.339  28.522  1.00  0.00     0.059 A 
ATOM     95  C   UNL A   1      43.868  34.507  26.145  1.00  0.00     0.059 A 
ATOM     96  F   UNL A   1      44.621  32.627  24.953  1.00  0.00    -0.206 F 
ATOM     97  C   UNL A   1      43.586  35.106  27.375  1.00  0.00     0.060 A 
BRANCH  97  98
ATOM     98  S   UNL A   1      43.661  36.903  27.579  1.00  0.00     0.124 S 
ATOM     99  O   UNL A   1      42.495  37.347  26.825  1.00  0.00    -0.237 OA
ATOM    100  O   UNL A   1      43.568  37.030  29.032  1.00  0.00    -0.237 OA
ATOM    101  O   UNL A   1      44.958  37.245  27.003  1.00  0.00    -0.744 OA
ENDBRANCH  97  98
ENDBRANCH  65  90
BRANCH  77 102
ATOM    102  C   UNL A   1      49.146  29.473  31.660  1.00  0.00     0.058 A 
ATOM    103  C   UNL A   1      50.522  29.408  31.389  1.00  0.00     0.135 A 
ATOM    104  C   UNL A   1      48.779  29.780  32.985  1.00  0.00     0.135 A 
ATOM    105  F   UNL A   1      50.955  29.143  30.146  1.00  0.00    -0.206 F 
ATOM    106  C   UNL A   1      51.480  29.618  32.380  1.00  0.00     0.059 A 
ATOM    107  C   UNL A   1      49.715  29.944  34.001  1.00  0.00     0.059 A 
ATOM    108  F   UNL A   1      47.489  29.941  33.322  1.00  0.00    -0.206 F 
ATOM    109  C   UNL A   1      51.067  29.873  33.688  1.00  0.00     0.060 A 
BRANCH 109 110
ATOM    110  S   UNL A   1      52.294  30.083  34.994  1.00  0.00     0.124 S 
ATOM    111  O   UNL A   1      53.310  30.913  34.354  1.00  0.00    -0.237 OA
ATOM    112  O   UNL A   1      51.501  30.739  36.029  1.00  0.00    -0.237 OA
ATOM    113  O   UNL A   1      52.703  28.713  35.284  1.00  0.00    -0.744 OA
ENDBRANCH 109 110
ENDBRANCH  77 102
ENDBRANCH  51  52
ENDBRANCH  44  46
ENDBRANCH  43  44
ENDBRANCH  42  43
ENDBRANCH  41  42
ENDBRANCH  40  41
ENDBRANCH  39  40
ENDBRANCH   1  39
TORSDOF 23
ENDMDL
MODEL 2
REMARK VINA RESULT:     -10.4      3.733      4.882
REMARK SMILES Cc1ccc(-c2cnnc(-n3nc(C)c4c3NC(=O)C[C@@H]4c3ccc(C(=O)OCCOCCOCCOC(=O)c4ccc(-c5c6nc(c(-c7c(F)cc(S(=O)(=O)[O-])cc7F)c7ccc([nH]7)c(-c7c(F)cc(S(=O)(=O)[O-])cc7F)c7nc(c(-c8c(F)cc(S(=O)(=O)[O-])cc8F)c8ccc5[nH]8)C=C7)C=C6)cc4)cc3)n2)cc1
REMARK SMILES IDX 32 1 31 2 30 3 29 4 28 5 26 6 27 7 25 8 22 9 23 10 107 11
REMARK SMILES IDX 24 12 106 13 21 14 11 15 12 16 16 17 13 18 15 19 17 20 14 21
REMARK SMILES IDX 18 22 20 24 19 25 10 26 6 27 7 28 108 29 8 30 9 31 5 32 1 33
REMARK SMILES IDX 2 34 3 35 110 36 4 37 109 38 33 39 34 40 35 41 36 42 37 43
REMARK SMILES IDX 38 44 39 45 40 46 41 47 105 48 42 49 104 50 43 51 44 52
REMARK SMILES IDX 45 53 98 54 46 55 103 56 97 57 99 58 47 59 102 60 96 61
REMARK SMILES IDX 95 62 48 64 82 65 61 66 81 67 62 68 65 69 80 70 100 71 63 72
REMARK SMILES IDX 64 73 79 75 101 76 66 77 49 78 50 79 59 80 51 81 52 82 58 83
REMARK SMILES IDX 60 84 53 85 54 86 55 87 56 88 57 89 83 90 84 91 93 92 85 93
REMARK SMILES IDX 86 94 92 95 94 96 87 97 88 98 89 99 90 100 91 101 67 102
REMARK SMILES IDX 68 103 77 104 69 105 70 106 76 107 78 108 71 109 72 110
REMARK SMILES IDX 73 111 74 112 75 113
REMARK H PARENT 17 23 99 63 65 74
REMARK Flexibility Score: inf
ROOT
ATOM      1  C   UNL A   1      34.469  32.632  28.163  1.00  0.00     0.188 C 
ENDROOT
BRANCH   1   2
ATOM      2  O   UNL A   1      33.236  32.034  27.717  1.00  0.00    -0.376 OA
BRANCH   2   3
ATOM      3  C   UNL A   1      33.147  30.730  27.120  1.00  0.00     0.202 C 
BRANCH   3   4
ATOM      4  C   UNL A   1      31.819  30.305  26.327  1.00  0.00     0.261 C 
BRANCH   4   5
ATOM      5  O   UNL A   1      31.902  29.762  24.931  1.00  0.00    -0.460 OA
BRANCH   5   6
ATOM      6  C   UNL A   1      30.999  28.979  24.267  1.00  0.00     0.338 C 
ATOM      7  O   UNL A   1      30.105  29.438  23.564  1.00  0.00    -0.246 OA
BRANCH   6   8
ATOM      8  C   UNL A   1      31.093  27.433  24.532  1.00  0.00     0.060 A 
ATOM      9  C   UNL A   1      31.360  24.564  24.740  1.00  0.00    -0.040 A 
ATOM     10  C   UNL A   1      32.383  25.358  25.144  1.00  0.00     0.005 A 
ATOM     11  C   UNL A   1      30.112  25.199  24.508  1.00  0.00     0.005 A 
ATOM     12  C   UNL A   1      32.208  26.723  24.992  1.00  0.00     0.016 A 
ATOM     13  C   UNL A   1      29.992  26.612  24.380  1.00  0.00     0.016 A 
BRANCH   9  14
ATOM     14  C   UNL A   1      31.809  23.187  24.309  1.00  0.00     0.064 C 
ATOM     15  N   UNL A   1      35.034  22.571  25.741  1.00  0.00    -0.180 N 
ATOM     16  N   UNL A   1      34.381  22.803  26.911  1.00  0.00    -0.168 NA
ATOM     17  C   UNL A   1      34.259  22.942  24.660  1.00  0.00     0.143 A 
ATOM     18  C   UNL A   1      33.096  22.844  26.562  1.00  0.00     0.066 A 
ATOM     19  C   UNL A   1      32.980  22.934  25.150  1.00  0.00     0.026 A 
ATOM     20  N   UNL A   1      34.509  23.230  23.330  1.00  0.00    -0.310 N 
ATOM     21  C   UNL A   1      32.056  22.933  27.619  1.00  0.00     0.069 C 
ATOM     22  C   UNL A   1      33.413  23.435  22.417  1.00  0.00     0.226 C 
ATOM     23  H   UNL A   1      35.437  23.293  23.005  1.00  0.00     0.171 HD
ATOM     24  C   UNL A   1      32.050  22.958  22.830  1.00  0.00     0.113 C 
ATOM     25  O   UNL A   1      33.702  23.836  21.301  1.00  0.00    -0.275 OA
BRANCH  15  26
ATOM     26  C   UNL A   1      36.148  21.710  25.724  1.00  0.00     0.272 A 
ATOM     27  C   UNL A   1      38.381  21.374  25.805  1.00  0.00     0.095 A 
ATOM     28  C   UNL A   1      38.218  20.239  25.028  1.00  0.00     0.164 A 
ATOM     29  N   UNL A   1      37.343  22.172  26.138  1.00  0.00    -0.208 NA
ATOM     30  N   UNL A   1      37.005  19.819  24.652  1.00  0.00    -0.153 NA
ATOM     31  N   UNL A   1      35.954  20.546  25.047  1.00  0.00    -0.109 NA
BRANCH  27  32
ATOM     32  C   UNL A   1      39.665  21.678  26.426  1.00  0.00     0.002 A 
ATOM     33  C   UNL A   1      43.147  22.610  28.790  1.00  0.00     0.044 C 
ATOM     34  C   UNL A   1      41.957  22.298  27.936  1.00  0.00    -0.051 A 
ATOM     35  C   UNL A   1      41.664  20.971  27.608  1.00  0.00     0.004 A 
ATOM     36  C   UNL A   1      41.126  23.320  27.468  1.00  0.00     0.004 A 
ATOM     37  C   UNL A   1      40.531  20.663  26.855  1.00  0.00     0.011 A 
ATOM     38  C   UNL A   1      39.996  23.011  26.715  1.00  0.00     0.011 A 
ENDBRANCH  27  32
ENDBRANCH  15  26
ENDBRANCH   9  14
ENDBRANCH   6   8
ENDBRANCH   5   6
ENDBRANCH   4   5
ENDBRANCH   3   4
ENDBRANCH   2   3
ENDBRANCH   1   2
BRANCH   1  39
ATOM     39  C   UNL A   1      35.575  31.859  28.911  1.00  0.00     0.188 C 
BRANCH  39  40
ATOM     40  O   UNL A   1      35.219  31.629  30.267  1.00  0.00    -0.376 OA
BRANCH  40  41
ATOM     41  C   UNL A   1      35.695  30.433  30.871  1.00  0.00     0.202 C 
BRANCH  41  42
ATOM     42  C   UNL A   1      36.566  30.646  32.127  1.00  0.00     0.261 C 
BRANCH  42  43
ATOM     43  O   UNL A   1      37.897  31.134  31.806  1.00  0.00    -0.460 OA
BRANCH  43  44
ATOM     44  C   UNL A   1      38.917  30.812  32.674  1.00  0.00     0.338 C 
ATOM     45  O   UNL A   1      38.832  30.991  33.876  1.00  0.00    -0.246 OA
BRANCH  44  46
ATOM     46  C   UNL A   1      40.032  30.094  31.971  1.00  0.00     0.060 A 
ATOM     47  C   UNL A   1      41.317  29.831  32.465  1.00  0.00     0.016 A 
ATOM     48  C   UNL A   1      39.827  29.776  30.666  1.00  0.00     0.016 A 
ATOM     49  C   UNL A   1      42.393  29.366  31.605  1.00  0.00     0.010 A 
ATOM     50  C   UNL A   1      40.935  29.563  29.850  1.00  0.00     0.010 A 
ATOM     51  C   UNL A   1      42.246  29.240  30.216  1.00  0.00    -0.014 A 
BRANCH  51  52
ATOM     52  C   UNL A   1      43.319  28.902  29.092  1.00  0.00     0.031 A 
ATOM     53  C   UNL A   1      44.046  27.517  28.585  1.00  0.00     0.074 A 
ATOM     54  C   UNL A   1      43.502  29.927  28.240  1.00  0.00     0.049 A 
ATOM     55  N   UNL A   1      44.370  27.293  27.334  1.00  0.00    -0.248 NA
ATOM     56  C   UNL A   1      44.492  26.309  29.360  1.00  0.00     0.031 C 
ATOM     57  C   UNL A   1      43.949  29.896  26.859  1.00  0.00     0.029 A 
ATOM     58  N   UNL A   1      43.615  31.258  28.615  1.00  0.00    -0.354 N 
ATOM     59  C   UNL A   1      44.776  25.983  27.161  1.00  0.00     0.074 A 
ATOM     60  C   UNL A   1      44.788  25.382  28.450  1.00  0.00     0.031 C 
ATOM     61  C   UNL A   1      44.563  31.048  26.579  1.00  0.00     0.029 A 
ATOM     62  C   UNL A   1      44.621  31.814  27.804  1.00  0.00     0.049 A 
ATOM     63  H   UNL A   1      43.095  31.723  29.311  1.00  0.00     0.167 HD
ATOM     64  C   UNL A   1      45.278  25.490  25.999  1.00  0.00     0.037 A 
ATOM     65  C   UNL A   1      45.756  32.283  28.395  1.00  0.00     0.037 A 
ATOM     66  C   UNL A   1      46.055  26.522  25.349  1.00  0.00     0.049 A 
ATOM     67  C   UNL A   1      47.001  31.482  28.064  1.00  0.00     0.074 A 
ATOM     68  C   UNL A   1      45.824  27.521  24.427  1.00  0.00     0.029 A 
ATOM     69  N   UNL A   1      47.254  26.842  25.964  1.00  0.00    -0.354 N 
ATOM     70  N   UNL A   1      47.078  30.548  27.151  1.00  0.00    -0.248 NA
ATOM     71  C   UNL A   1      48.258  31.637  28.798  1.00  0.00     0.031 C 
ATOM     72  C   UNL A   1      46.782  28.559  24.687  1.00  0.00     0.029 A 
ATOM     73  C   UNL A   1      47.613  28.154  25.724  1.00  0.00     0.049 A 
ATOM     74  H   UNL A   1      47.785  26.213  26.505  1.00  0.00     0.167 HD
ATOM     75  C   UNL A   1      48.291  29.914  27.251  1.00  0.00     0.074 A 
ATOM     76  C   UNL A   1      49.015  30.666  28.261  1.00  0.00     0.031 C 
ATOM     77  C   UNL A   1      48.624  28.772  26.579  1.00  0.00     0.037 A 
BRANCH  64  78
ATOM     78  C   UNL A   1      45.139  24.041  25.568  1.00  0.00     0.058 A 
ATOM     79  C   UNL A   1      43.929  23.549  25.038  1.00  0.00     0.135 A 
ATOM     80  C   UNL A   1      46.108  23.044  25.853  1.00  0.00     0.135 A 
ATOM     81  F   UNL A   1      42.918  24.383  24.753  1.00  0.00    -0.206 F 
ATOM     82  C   UNL A   1      43.689  22.180  24.835  1.00  0.00     0.059 A 
ATOM     83  C   UNL A   1      45.905  21.682  25.619  1.00  0.00     0.059 A 
ATOM     84  F   UNL A   1      47.277  23.341  26.438  1.00  0.00    -0.206 F 
ATOM     85  C   UNL A   1      44.678  21.251  25.145  1.00  0.00     0.060 A 
BRANCH  85  86
ATOM     86  S   UNL A   1      44.332  19.483  25.004  1.00  0.00     0.124 S 
ATOM     87  O   UNL A   1      45.272  19.080  23.962  1.00  0.00    -0.237 OA
ATOM     88  O   UNL A   1      44.623  18.996  26.347  1.00  0.00    -0.237 OA
ATOM     89  O   UNL A   1      42.923  19.441  24.621  1.00  0.00    -0.744 OA
ENDBRANCH  85  86
ENDBRANCH  64  78
BRANCH  65  90
ATOM     90  C   UNL A   1      45.420  33.015  29.654  1.00  0.00     0.058 A 
ATOM     91  C   UNL A   1      45.647  32.301  30.855  1.00  0.00     0.135 A 
ATOM     92  C   UNL A   1      45.390  34.414  29.738  1.00  0.00     0.135 A 
ATOM     93  F   UNL A   1      45.700  30.958  30.833  1.00  0.00    -0.206 F 
ATOM     94  C   UNL A   1      46.021  32.936  32.031  1.00  0.00     0.059 A 
ATOM     95  C   UNL A   1      45.713  35.076  30.929  1.00  0.00     0.059 A 
ATOM     96  F   UNL A   1      45.216  35.158  28.634  1.00  0.00    -0.206 F 
ATOM     97  C   UNL A   1      46.109  34.324  32.039  1.00  0.00     0.060 A 
BRANCH  97  98
ATOM     98  S   UNL A   1      46.963  35.096  33.435  1.00  0.00     0.124 S 
ATOM     99  O   UNL A   1      45.950  36.010  33.947  1.00  0.00    -0.237 OA
ATOM    100  O   UNL A   1      47.254  33.933  34.270  1.00  0.00    -0.237 OA
ATOM    101  O   UNL A   1      48.123  35.720  32.805  1.00  0.00    -0.744 OA
ENDBRANCH  97  98
ENDBRANCH  65  90
BRANCH  77 102
ATOM    102  C   UNL A   1      49.973  28.135  26.767  1.00  0.00     0.058 A 
ATOM    103  C   UNL A   1      51.063  28.494  25.959  1.00  0.00     0.135 A 
ATOM    104  C   UNL A   1      50.185  27.083  27.679  1.00  0.00     0.135 A 
ATOM    105  F   UNL A   1      50.950  29.502  25.079  1.00  0.00    -0.206 F 
ATOM    106  C   UNL A   1      52.290  27.835  26.038  1.00  0.00     0.059 A 
ATOM    107  C   UNL A   1      51.383  26.378  27.742  1.00  0.00     0.059 A 
ATOM    108  F   UNL A   1      49.227  26.721  28.548  1.00  0.00    -0.206 F 
ATOM    109  C   UNL A   1      52.437  26.769  26.924  1.00  0.00     0.060 A 
BRANCH 109 110
ATOM    110  S   UNL A   1      53.998  25.865  26.992  1.00  0.00     0.124 S 
ATOM    111  O   UNL A   1      54.904  26.726  26.240  1.00  0.00    -0.237 OA
ATOM    112  O   UNL A   1      54.230  25.806  28.432  1.00  0.00    -0.237 OA
ATOM    113  O   UNL A   1      53.670  24.596  26.352  1.00  0.00    -0.744 OA
ENDBRANCH 109 110
ENDBRANCH  77 102
ENDBRANCH  51  52
ENDBRANCH  44  46
ENDBRANCH  43  44
ENDBRANCH  42  43
ENDBRANCH  41  42
ENDBRANCH  40  41
ENDBRANCH  39  40
ENDBRANCH   1  39
TORSDOF 23
ENDMDL
MODEL 3
REMARK VINA RESULT:      -9.8      4.342      6.271
REMARK SMILES Cc1ccc(-c2cnnc(-n3nc(C)c4c3NC(=O)C[C@@H]4c3ccc(C(=O)OCCOCCOCCOC(=O)c4ccc(-c5c6nc(c(-c7c(F)cc(S(=O)(=O)[O-])cc7F)c7ccc([nH]7)c(-c7c(F)cc(S(=O)(=O)[O-])cc7F)c7nc(c(-c8c(F)cc(S(=O)(=O)[O-])cc8F)c8ccc5[nH]8)C=C7)C=C6)cc4)cc3)n2)cc1
REMARK SMILES IDX 32 1 31 2 30 3 29 4 28 5 26 6 27 7 25 8 22 9 23 10 107 11
REMARK SMILES IDX 24 12 106 13 21 14 11 15 12 16 16 17 13 18 15 19 17 20 14 21
REMARK SMILES IDX 18 22 20 24 19 25 10 26 6 27 7 28 108 29 8 30 9 31 5 32 1 33
REMARK SMILES IDX 2 34 3 35 110 36 4 37 109 38 33 39 34 40 35 41 36 42 37 43
REMARK SMILES IDX 38 44 39 45 40 46 41 47 105 48 42 49 104 50 43 51 44 52
REMARK SMILES IDX 45 53 98 54 46 55 103 56 97 57 99 58 47 59 102 60 96 61
REMARK SMILES IDX 95 62 48 64 82 65 61 66 81 67 62 68 65 69 80 70 100 71 63 72
REMARK SMILES IDX 64 73 79 75 101 76 66 77 49 78 50 79 59 80 51 81 52 82 58 83
REMARK SMILES IDX 60 84 53 85 54 86 55 87 56 88 57 89 83 90 84 91 93 92 85 93
REMARK SMILES IDX 86 94 92 95 94 96 87 97 88 98 89 99 90 100 91 101 67 102
REMARK SMILES IDX 68 103 77 104 69 105 70 106 76 107 78 108 71 109 72 110
REMARK SMILES IDX 73 111 74 112 75 113
REMARK H PARENT 17 23 99 63 65 74
REMARK Flexibility Score: inf
ROOT
ATOM      1  C   UNL A   1      34.248  32.785  27.975  1.00  0.00     0.188 C 
ENDROOT
BRANCH   1   2
ATOM      2  O   UNL A   1      33.052  32.098  27.556  1.00  0.00    -0.376 OA
BRANCH   2   3
ATOM      3  C   UNL A   1      33.040  30.779  26.989  1.00  0.00     0.202 C 
BRANCH   3   4
ATOM      4  C   UNL A   1      31.743  30.260  26.201  1.00  0.00     0.261 C 
BRANCH   4   5
ATOM      5  O   UNL A   1      31.863  29.697  24.816  1.00  0.00    -0.460 OA
BRANCH   5   6
ATOM      6  C   UNL A   1      30.995  28.872  24.154  1.00  0.00     0.338 C 
ATOM      7  O   UNL A   1      30.115  29.289  23.408  1.00  0.00    -0.246 OA
BRANCH   6   8
ATOM      8  C   UNL A   1      31.110  27.339  24.476  1.00  0.00     0.060 A 
ATOM      9  C   UNL A   1      31.414  24.484  24.791  1.00  0.00    -0.040 A 
ATOM     10  C   UNL A   1      32.427  25.305  25.163  1.00  0.00     0.005 A 
ATOM     11  C   UNL A   1      30.158  25.093  24.538  1.00  0.00     0.005 A 
ATOM     12  C   UNL A   1      32.234  26.662  24.961  1.00  0.00     0.016 A 
ATOM     13  C   UNL A   1      30.019  26.498  24.357  1.00  0.00     0.016 A 
BRANCH   9  14
ATOM     14  C   UNL A   1      31.880  23.097  24.412  1.00  0.00     0.064 C 
ATOM     15  N   UNL A   1      35.154  22.612  25.782  1.00  0.00    -0.180 N 
ATOM     16  N   UNL A   1      34.528  22.885  26.957  1.00  0.00    -0.168 NA
ATOM     17  C   UNL A   1      34.344  22.918  24.707  1.00  0.00     0.143 A 
ATOM     18  C   UNL A   1      33.234  22.884  26.642  1.00  0.00     0.066 A 
ATOM     19  C   UNL A   1      33.078  22.906  25.232  1.00  0.00     0.026 A 
ATOM     20  N   UNL A   1      34.553  23.148  23.358  1.00  0.00    -0.310 N 
ATOM     21  C   UNL A   1      32.220  23.002  27.722  1.00  0.00     0.069 C 
ATOM     22  C   UNL A   1      33.428  23.289  22.467  1.00  0.00     0.226 C 
ATOM     23  H   UNL A   1      35.470  23.215  23.006  1.00  0.00     0.171 HD
ATOM     24  C   UNL A   1      32.087  22.805  22.938  1.00  0.00     0.113 C 
ATOM     25  O   UNL A   1      33.680  23.644  21.327  1.00  0.00    -0.275 OA
BRANCH  15  26
ATOM     26  C   UNL A   1      36.286  21.774  25.774  1.00  0.00     0.272 A 
ATOM     27  C   UNL A   1      38.525  21.484  25.854  1.00  0.00     0.095 A 
ATOM     28  C   UNL A   1      38.384  20.335  25.093  1.00  0.00     0.164 A 
ATOM     29  N   UNL A   1      37.472  22.266  26.179  1.00  0.00    -0.208 NA
ATOM     30  N   UNL A   1      37.178  19.886  24.726  1.00  0.00    -0.153 NA
ATOM     31  N   UNL A   1      36.114  20.597  25.113  1.00  0.00    -0.109 NA
BRANCH  27  32
ATOM     32  C   UNL A   1      39.805  21.822  26.467  1.00  0.00     0.002 A 
ATOM     33  C   UNL A   1      43.300  22.731  28.818  1.00  0.00     0.044 C 
ATOM     34  C   UNL A   1      42.102  22.434  27.971  1.00  0.00    -0.051 A 
ATOM     35  C   UNL A   1      41.931  21.156  27.431  1.00  0.00     0.004 A 
ATOM     36  C   UNL A   1      41.145  23.421  27.718  1.00  0.00     0.004 A 
ATOM     37  C   UNL A   1      40.794  20.853  26.682  1.00  0.00     0.011 A 
ATOM     38  C   UNL A   1      40.011  23.117  26.968  1.00  0.00     0.011 A 
ENDBRANCH  27  32
ENDBRANCH  15  26
ENDBRANCH   9  14
ENDBRANCH   6   8
ENDBRANCH   5   6
ENDBRANCH   4   5
ENDBRANCH   3   4
ENDBRANCH   2   3
ENDBRANCH   1   2
BRANCH   1  39
ATOM     39  C   UNL A   1      35.317  32.158  28.895  1.00  0.00     0.188 C 
BRANCH  39  40
ATOM     40  O   UNL A   1      34.894  32.154  30.251  1.00  0.00    -0.376 OA
BRANCH  40  41
ATOM     41  C   UNL A   1      35.758  31.542  31.200  1.00  0.00     0.202 C 
BRANCH  41  42
ATOM     42  C   UNL A   1      36.325  32.500  32.269  1.00  0.00     0.261 C 
BRANCH  42  43
ATOM     43  O   UNL A   1      37.160  33.543  31.697  1.00  0.00    -0.460 OA
BRANCH  43  44
ATOM     44  C   UNL A   1      37.997  34.226  32.552  1.00  0.00     0.338 C 
ATOM     45  O   UNL A   1      37.603  34.727  33.590  1.00  0.00    -0.246 OA
BRANCH  44  46
ATOM     46  C   UNL A   1      39.430  34.128  32.115  1.00  0.00     0.060 A 
ATOM     47  C   UNL A   1      40.543  34.732  32.714  1.00  0.00     0.016 A 
ATOM     48  C   UNL A   1      39.667  33.492  30.937  1.00  0.00     0.016 A 
ATOM     49  C   UNL A   1      41.839  34.784  32.055  1.00  0.00     0.010 A 
ATOM     50  C   UNL A   1      40.848  33.774  30.255  1.00  0.00     0.010 A 
ATOM     51  C   UNL A   1      42.039  34.319  30.748  1.00  0.00    -0.014 A 
BRANCH  51  52
ATOM     52  C   UNL A   1      43.313  34.417  29.801  1.00  0.00     0.031 A 
ATOM     53  C   UNL A   1      44.619  33.454  29.539  1.00  0.00     0.074 A 
ATOM     54  C   UNL A   1      43.180  35.379  28.870  1.00  0.00     0.049 A 
ATOM     55  N   UNL A   1      45.194  33.329  28.367  1.00  0.00    -0.248 NA
ATOM     56  C   UNL A   1      45.402  32.593  30.489  1.00  0.00     0.031 C 
ATOM     57  C   UNL A   1      43.806  35.474  27.562  1.00  0.00     0.029 A 
ATOM     58  N   UNL A   1      42.670  36.647  29.107  1.00  0.00    -0.354 N 
ATOM     59  C   UNL A   1      46.130  32.312  28.387  1.00  0.00     0.074 A 
ATOM     60  C   UNL A   1      46.194  31.837  29.727  1.00  0.00     0.031 C 
ATOM     61  C   UNL A   1      43.919  36.763  27.232  1.00  0.00     0.029 A 
ATOM     62  C   UNL A   1      43.464  37.539  28.364  1.00  0.00     0.049 A 
ATOM     63  H   UNL A   1      41.903  36.878  29.682  1.00  0.00     0.167 HD
ATOM     64  C   UNL A   1      46.963  32.023  27.354  1.00  0.00     0.037 A 
ATOM     65  C   UNL A   1      44.195  38.477  29.029  1.00  0.00     0.037 A 
ATOM     66  C   UNL A   1      47.329  33.256  26.691  1.00  0.00     0.049 A 
ATOM     67  C   UNL A   1      45.695  38.271  28.936  1.00  0.00     0.074 A 
ATOM     68  C   UNL A   1      46.847  34.012  25.644  1.00  0.00     0.029 A 
ATOM     69  N   UNL A   1      48.176  34.088  27.404  1.00  0.00    -0.354 N 
ATOM     70  N   UNL A   1      46.293  37.416  28.147  1.00  0.00    -0.248 NA
ATOM     71  C   UNL A   1      46.644  38.985  29.792  1.00  0.00     0.031 C 
ATOM     72  C   UNL A   1      47.233  35.373  25.899  1.00  0.00     0.029 A 
ATOM     73  C   UNL A   1      47.988  35.413  27.065  1.00  0.00     0.049 A 
ATOM     74  H   UNL A   1      48.831  33.774  28.069  1.00  0.00     0.167 HD
ATOM     75  C   UNL A   1      47.629  37.368  28.458  1.00  0.00     0.074 A 
ATOM     76  C   UNL A   1      47.810  38.406  29.457  1.00  0.00     0.031 C 
ATOM     77  C   UNL A   1      48.505  36.446  27.959  1.00  0.00     0.037 A 
BRANCH  64  78
ATOM     78  C   UNL A   1      47.508  30.636  27.072  1.00  0.00     0.058 A 
ATOM     79  C   UNL A   1      46.646  29.550  26.812  1.00  0.00     0.135 A 
ATOM     80  C   UNL A   1      48.869  30.278  27.252  1.00  0.00     0.135 A 
ATOM     81  F   UNL A   1      45.328  29.747  26.653  1.00  0.00    -0.206 F 
ATOM     82  C   UNL A   1      47.091  28.220  26.766  1.00  0.00     0.059 A 
ATOM     83  C   UNL A   1      49.341  28.966  27.168  1.00  0.00     0.059 A 
ATOM     84  F   UNL A   1      49.799  31.183  27.588  1.00  0.00    -0.206 F 
ATOM     85  C   UNL A   1      48.440  27.935  26.962  1.00  0.00     0.060 A 
BRANCH  85  86
ATOM     86  S   UNL A   1      49.000  26.217  27.026  1.00  0.00     0.124 S 
ATOM     87  O   UNL A   1      49.878  26.148  25.862  1.00  0.00    -0.237 OA
ATOM     88  O   UNL A   1      49.658  26.149  28.326  1.00  0.00    -0.237 OA
ATOM     89  O   UNL A   1      47.761  25.451  26.918  1.00  0.00    -0.744 OA
ENDBRANCH  85  86
ENDBRANCH  64  78
BRANCH  65  90
ATOM     90  C   UNL A   1      43.396  39.057  30.152  1.00  0.00     0.058 A 
ATOM     91  C   UNL A   1      43.707  38.562  31.441  1.00  0.00     0.135 A 
ATOM     92  C   UNL A   1      42.780  40.314  30.080  1.00  0.00     0.135 A 
ATOM     93  F   UNL A   1      44.310  37.368  31.571  1.00  0.00    -0.206 F 
ATOM     94  C   UNL A   1      43.599  39.350  32.579  1.00  0.00     0.059 A 
ATOM     95  C   UNL A   1      42.613  41.105  31.224  1.00  0.00     0.059 A 
ATOM     96  F   UNL A   1      42.490  40.863  28.890  1.00  0.00    -0.206 F 
ATOM     97  C   UNL A   1      43.106  40.643  32.448  1.00  0.00     0.060 A 
BRANCH  97  98
ATOM     98  S   UNL A   1      43.338  41.768  33.846  1.00  0.00     0.124 S 
ATOM     99  O   UNL A   1      41.973  42.192  34.130  1.00  0.00    -0.237 OA
ATOM    100  O   UNL A   1      43.947  40.877  34.832  1.00  0.00    -0.237 OA
ATOM    101  O   UNL A   1      44.222  42.793  33.300  1.00  0.00    -0.744 OA
ENDBRANCH  97  98
ENDBRANCH  65  90
BRANCH  77 102
ATOM    102  C   UNL A   1      49.951  36.458  28.373  1.00  0.00     0.058 A 
ATOM    103  C   UNL A   1      50.950  36.926  27.505  1.00  0.00     0.135 A 
ATOM    104  C   UNL A   1      50.386  35.910  29.596  1.00  0.00     0.135 A 
ATOM    105  F   UNL A   1      50.618  37.483  26.330  1.00  0.00    -0.206 F 
ATOM    106  C   UNL A   1      52.305  36.838  27.823  1.00  0.00     0.059 A 
ATOM    107  C   UNL A   1      51.733  35.766  29.914  1.00  0.00     0.059 A 
ATOM    108  F   UNL A   1      49.501  35.508  30.523  1.00  0.00    -0.206 F 
ATOM    109  C   UNL A   1      52.688  36.244  29.025  1.00  0.00     0.060 A 
BRANCH 109 110
ATOM    110  S   UNL A   1      54.440  36.065  29.422  1.00  0.00     0.124 S 
ATOM    111  O   UNL A   1      54.744  34.719  28.948  1.00  0.00    -0.237 OA
ATOM    112  O   UNL A   1      55.021  37.156  28.645  1.00  0.00    -0.237 OA
ATOM    113  O   UNL A   1      54.467  36.236  30.871  1.00  0.00    -0.744 OA
ENDBRANCH 109 110
ENDBRANCH  77 102
ENDBRANCH  51  52
ENDBRANCH  44  46
ENDBRANCH  43  44
ENDBRANCH  42  43
ENDBRANCH  41  42
ENDBRANCH  40  41
ENDBRANCH  39  40
ENDBRANCH   1  39
TORSDOF 23
ENDMDL
