MODEL 1
REMARK VINA RESULT:      -9.3      0.000      0.000
REMARK SMILES C[C@@H](NC(=O)NCCC(=O)NC1CC1)C(=O)OCCOCCOCCOC(=O)c1ccc(-c2c3nc(c(-c4c(F)cc(S(=O)(=O)[O-])cc4F)c4ccc([nH]4)c(-c4c(F)cc(S(=O)(=O)[O-])cc4F)c4nc(c(-c5c(F)cc(S(=O)(=O)[O-])cc5F)c5ccc2[nH]5)C=C4)C=C3)cc1
REMARK SMILES IDX 21 1 20 2 19 3 18 4 17 5 15 6 16 7 2 8 1 9 3 10 4 11 5 13
REMARK SMILES IDX 6 14 7 16 8 17 9 18 10 19 11 20 12 22 13 23 14 24 22 25
REMARK SMILES IDX 23 26 24 27 25 28 26 29 27 30 28 31 29 32 30 33 94 34 31 35
REMARK SMILES IDX 93 36 32 37 33 38 34 39 87 40 35 41 92 42 86 43 88 44 36 45
REMARK SMILES IDX 91 46 85 47 84 48 37 50 71 51 50 52 70 53 51 54 54 55 69 56
REMARK SMILES IDX 89 57 52 58 53 59 68 61 90 62 55 63 38 64 39 65 48 66 40 67
REMARK SMILES IDX 41 68 47 69 49 70 42 71 43 72 44 73 45 74 46 75 72 76 73 77
REMARK SMILES IDX 82 78 74 79 75 80 81 81 83 82 76 83 77 84 78 85 79 86 80 87
REMARK SMILES IDX 56 88 57 89 66 90 58 91 59 92 65 93 67 94 60 95 61 96 62 97
REMARK SMILES IDX 63 98 64 99
REMARK H PARENT 3 12 6 15 11 21 88 49 54 60
REMARK Flexibility Score: inf
ROOT
ATOM      1  C   UNL A   1      37.254  22.809  25.809  1.00  0.00     0.188 C 
ENDROOT
BRANCH   1   2
ATOM      2  O   UNL A   1      36.744  21.614  25.234  1.00  0.00    -0.376 OA
BRANCH   2   3
ATOM      3  C   UNL A   1      35.504  21.208  25.796  1.00  0.00     0.202 C 
BRANCH   3   4
ATOM      4  C   UNL A   1      34.351  21.077  24.796  1.00  0.00     0.261 C 
BRANCH   4   5
ATOM      5  O   UNL A   1      33.203  21.971  24.747  1.00  0.00    -0.462 OA
BRANCH   5   6
ATOM      6  C   UNL A   1      33.131  23.321  24.857  1.00  0.00     0.328 C 
ATOM      7  O   UNL A   1      33.916  24.067  25.428  1.00  0.00    -0.250 OA
BRANCH   6   8
ATOM      8  C   UNL A   1      31.835  23.833  24.261  1.00  0.00     0.190 C 
ATOM      9  C   UNL A   1      31.561  23.155  22.918  1.00  0.00     0.043 C 
BRANCH   8  10
ATOM     10  N   UNL A   1      30.707  23.807  25.200  1.00  0.00    -0.325 N 
ATOM     11  C   UNL A   1      30.728  24.186  26.494  1.00  0.00     0.315 C 
ATOM     12  H   UNL A   1      29.847  23.480  24.849  1.00  0.00     0.166 HD
ATOM     13  O   UNL A   1      30.363  23.391  27.360  1.00  0.00    -0.249 OA
ATOM     14  N   UNL A   1      31.090  25.435  26.858  1.00  0.00    -0.338 N 
ATOM     15  H   UNL A   1      31.276  25.525  27.820  1.00  0.00     0.165 HD
BRANCH  14  16
ATOM     16  C   UNL A   1      31.261  26.681  26.113  1.00  0.00     0.127 C 
BRANCH  16  17
ATOM     17  C   UNL A   1      32.173  27.765  26.662  1.00  0.00     0.121 C 
BRANCH  17  18
ATOM     18  C   UNL A   1      32.870  28.541  25.567  1.00  0.00     0.221 C 
ATOM     19  O   UNL A   1      32.800  28.221  24.380  1.00  0.00    -0.275 OA
ATOM     20  N   UNL A   1      33.638  29.615  25.936  1.00  0.00    -0.353 N 
ATOM     21  H   UNL A   1      33.951  30.202  25.211  1.00  0.00     0.163 HD
BRANCH  20  22
ATOM     22  C   UNL A   1      34.031  29.971  27.260  1.00  0.00     0.082 C 
ATOM     23  C   UNL A   1      35.328  29.393  27.769  1.00  0.00     0.027 C 
ATOM     24  C   UNL A   1      35.177  30.872  27.575  1.00  0.00     0.027 C 
ENDBRANCH  20  22
ENDBRANCH  17  18
ENDBRANCH  16  17
ENDBRANCH  14  16
ENDBRANCH   8  10
ENDBRANCH   6   8
ENDBRANCH   5   6
ENDBRANCH   4   5
ENDBRANCH   3   4
ENDBRANCH   2   3
ENDBRANCH   1   2
BRANCH   1  25
ATOM     25  C   UNL A   1      38.755  22.706  26.091  1.00  0.00     0.188 C 
BRANCH  25  26
ATOM     26  O   UNL A   1      39.335  21.431  25.975  1.00  0.00    -0.376 OA
BRANCH  26  27
ATOM     27  C   UNL A   1      40.447  21.116  26.791  1.00  0.00     0.202 C 
BRANCH  27  28
ATOM     28  C   UNL A   1      41.908  21.548  26.509  1.00  0.00     0.261 C 
BRANCH  28  29
ATOM     29  O   UNL A   1      42.445  22.762  27.067  1.00  0.00    -0.460 OA
BRANCH  29  30
ATOM     30  C   UNL A   1      42.529  23.881  26.303  1.00  0.00     0.338 C 
ATOM     31  O   UNL A   1      42.695  23.921  25.109  1.00  0.00    -0.246 OA
BRANCH  30  32
ATOM     32  C   UNL A   1      42.071  25.029  27.160  1.00  0.00     0.060 A 
ATOM     33  C   UNL A   1      42.761  26.255  27.086  1.00  0.00     0.016 A 
ATOM     34  C   UNL A   1      40.945  24.927  27.978  1.00  0.00     0.016 A 
ATOM     35  C   UNL A   1      42.353  27.357  27.849  1.00  0.00     0.010 A 
ATOM     36  C   UNL A   1      40.566  26.016  28.779  1.00  0.00     0.010 A 
ATOM     37  C   UNL A   1      41.292  27.223  28.750  1.00  0.00    -0.014 A 
BRANCH  37  38
ATOM     38  C   UNL A   1      41.139  28.204  29.859  1.00  0.00     0.031 A 
ATOM     39  C   UNL A   1      42.058  28.050  31.046  1.00  0.00     0.074 A 
ATOM     40  C   UNL A   1      40.239  29.204  29.839  1.00  0.00     0.049 A 
ATOM     41  N   UNL A   1      42.066  28.689  32.186  1.00  0.00    -0.248 NA
ATOM     42  C   UNL A   1      43.108  27.023  30.925  1.00  0.00     0.031 C 
ATOM     43  C   UNL A   1      39.332  29.512  28.735  1.00  0.00     0.029 A 
ATOM     44  N   UNL A   1      39.931  30.143  30.798  1.00  0.00    -0.354 N 
ATOM     45  C   UNL A   1      43.102  28.127  32.924  1.00  0.00     0.074 A 
ATOM     46  C   UNL A   1      43.687  27.083  32.113  1.00  0.00     0.031 C 
ATOM     47  C   UNL A   1      38.549  30.548  29.092  1.00  0.00     0.029 A 
ATOM     48  C   UNL A   1      38.874  30.955  30.460  1.00  0.00     0.049 A 
ATOM     49  H   UNL A   1      40.422  30.224  31.646  1.00  0.00     0.167 HD
ATOM     50  C   UNL A   1      43.532  28.450  34.167  1.00  0.00     0.037 A 
ATOM     51  C   UNL A   1      38.224  31.892  31.183  1.00  0.00     0.037 A 
ATOM     52  C   UNL A   1      42.956  29.492  34.972  1.00  0.00     0.049 A 
ATOM     53  C   UNL A   1      38.674  32.193  32.593  1.00  0.00     0.074 A 
ATOM     54  C   UNL A   1      43.336  29.908  36.236  1.00  0.00     0.029 A 
ATOM     55  N   UNL A   1      41.875  30.277  34.600  1.00  0.00    -0.354 N 
ATOM     56  N   UNL A   1      39.661  31.662  33.277  1.00  0.00    -0.248 NA
ATOM     57  C   UNL A   1      37.924  33.221  33.331  1.00  0.00     0.031 C 
ATOM     58  C   UNL A   1      42.449  30.906  36.651  1.00  0.00     0.029 A 
ATOM     59  C   UNL A   1      41.557  31.156  35.621  1.00  0.00     0.049 A 
ATOM     60  H   UNL A   1      41.404  30.217  33.737  1.00  0.00     0.167 HD
ATOM     61  C   UNL A   1      39.667  32.313  34.510  1.00  0.00     0.074 A 
ATOM     62  C   UNL A   1      38.593  33.282  34.474  1.00  0.00     0.031 C 
ATOM     63  C   UNL A   1      40.490  32.126  35.573  1.00  0.00     0.037 A 
BRANCH  50  64
ATOM     64  C   UNL A   1      44.657  27.639  34.746  1.00  0.00     0.058 A 
ATOM     65  C   UNL A   1      46.001  28.026  34.612  1.00  0.00     0.135 A 
ATOM     66  C   UNL A   1      44.383  26.471  35.476  1.00  0.00     0.135 A 
ATOM     67  F   UNL A   1      46.322  29.121  33.903  1.00  0.00    -0.206 F 
ATOM     68  C   UNL A   1      47.032  27.273  35.162  1.00  0.00     0.059 A 
ATOM     69  C   UNL A   1      45.396  25.719  36.061  1.00  0.00     0.059 A 
ATOM     70  F   UNL A   1      43.116  26.051  35.627  1.00  0.00    -0.206 F 
ATOM     71  C   UNL A   1      46.719  26.122  35.888  1.00  0.00     0.060 A 
BRANCH  71  72
ATOM     72  S   UNL A   1      48.068  25.166  36.612  1.00  0.00     0.124 S 
ATOM     73  O   UNL A   1      48.928  26.224  37.132  1.00  0.00    -0.237 OA
ATOM     74  O   UNL A   1      47.376  24.363  37.615  1.00  0.00    -0.237 OA
ATOM     75  O   UNL A   1      48.606  24.422  35.478  1.00  0.00    -0.744 OA
ENDBRANCH  71  72
ENDBRANCH  50  64
BRANCH  51  76
ATOM     76  C   UNL A   1      37.052  32.605  30.599  1.00  0.00     0.058 A 
ATOM     77  C   UNL A   1      37.207  33.532  29.557  1.00  0.00     0.135 A 
ATOM     78  C   UNL A   1      35.752  32.383  31.081  1.00  0.00     0.135 A 
ATOM     79  F   UNL A   1      38.430  33.801  29.074  1.00  0.00    -0.206 F 
ATOM     80  C   UNL A   1      36.120  34.215  29.018  1.00  0.00     0.059 A 
ATOM     81  C   UNL A   1      34.647  33.032  30.540  1.00  0.00     0.059 A 
ATOM     82  F   UNL A   1      35.547  31.507  32.078  1.00  0.00    -0.206 F 
ATOM     83  C   UNL A   1      34.841  33.952  29.511  1.00  0.00     0.060 A 
BRANCH  83  84
ATOM     84  S   UNL A   1      33.431  34.792  28.758  1.00  0.00     0.124 S 
ATOM     85  O   UNL A   1      33.068  33.864  27.693  1.00  0.00    -0.237 OA
ATOM     86  O   UNL A   1      32.495  34.879  29.876  1.00  0.00    -0.237 OA
ATOM     87  O   UNL A   1      33.992  36.067  28.321  1.00  0.00    -0.744 OA
ENDBRANCH  83  84
ENDBRANCH  51  76
BRANCH  63  88
ATOM     88  C   UNL A   1      40.303  33.013  36.775  1.00  0.00     0.058 A 
ATOM     89  C   UNL A   1      39.327  32.749  37.749  1.00  0.00     0.135 A 
ATOM     90  C   UNL A   1      41.159  34.106  36.991  1.00  0.00     0.135 A 
ATOM     91  F   UNL A   1      38.480  31.719  37.595  1.00  0.00    -0.206 F 
ATOM     92  C   UNL A   1      39.191  33.550  38.880  1.00  0.00     0.059 A 
ATOM     93  C   UNL A   1      41.062  34.903  38.127  1.00  0.00     0.059 A 
ATOM     94  F   UNL A   1      42.120  34.397  36.099  1.00  0.00    -0.206 F 
ATOM     95  C   UNL A   1      40.066  34.624  39.061  1.00  0.00     0.060 A 
BRANCH  95  96
ATOM     96  S   UNL A   1      39.898  35.637  40.547  1.00  0.00     0.124 S 
ATOM     97  O   UNL A   1      39.429  36.901  39.991  1.00  0.00    -0.237 OA
ATOM     98  O   UNL A   1      38.921  34.885  41.329  1.00  0.00    -0.237 OA
ATOM     99  O   UNL A   1      41.251  35.657  41.099  1.00  0.00    -0.744 OA
ENDBRANCH  95  96
ENDBRANCH  63  88
ENDBRANCH  37  38
ENDBRANCH  30  32
ENDBRANCH  29  30
ENDBRANCH  28  29
ENDBRANCH  27  28
ENDBRANCH  26  27
ENDBRANCH  25  26
ENDBRANCH   1  25
TORSDOF 25
ENDMDL
MODEL 2
REMARK VINA RESULT:      -9.1      3.095      9.822
REMARK SMILES C[C@@H](NC(=O)NCCC(=O)NC1CC1)C(=O)OCCOCCOCCOC(=O)c1ccc(-c2c3nc(c(-c4c(F)cc(S(=O)(=O)[O-])cc4F)c4ccc([nH]4)c(-c4c(F)cc(S(=O)(=O)[O-])cc4F)c4nc(c(-c5c(F)cc(S(=O)(=O)[O-])cc5F)c5ccc2[nH]5)C=C4)C=C3)cc1
REMARK SMILES IDX 21 1 20 2 19 3 18 4 17 5 15 6 16 7 2 8 1 9 3 10 4 11 5 13
REMARK SMILES IDX 6 14 7 16 8 17 9 18 10 19 11 20 12 22 13 23 14 24 22 25
REMARK SMILES IDX 23 26 24 27 25 28 26 29 27 30 28 31 29 32 30 33 94 34 31 35
REMARK SMILES IDX 93 36 32 37 33 38 34 39 87 40 35 41 92 42 86 43 88 44 36 45
REMARK SMILES IDX 91 46 85 47 84 48 37 50 71 51 50 52 70 53 51 54 54 55 69 56
REMARK SMILES IDX 89 57 52 58 53 59 68 61 90 62 55 63 38 64 39 65 48 66 40 67
REMARK SMILES IDX 41 68 47 69 49 70 42 71 43 72 44 73 45 74 46 75 72 76 73 77
REMARK SMILES IDX 82 78 74 79 75 80 81 81 83 82 76 83 77 84 78 85 79 86 80 87
REMARK SMILES IDX 56 88 57 89 66 90 58 91 59 92 65 93 67 94 60 95 61 96 62 97
REMARK SMILES IDX 63 98 64 99
REMARK H PARENT 3 12 6 15 11 21 88 49 54 60
REMARK Flexibility Score: inf
ROOT
ATOM      1  C   UNL A   1      31.370  26.481  25.895  1.00  0.00     0.188 C 
ENDROOT
BRANCH   1   2
ATOM      2  O   UNL A   1      30.482  26.254  24.810  1.00  0.00    -0.376 OA
BRANCH   2   3
ATOM      3  C   UNL A   1      31.150  25.987  23.585  1.00  0.00     0.202 C 
BRANCH   3   4
ATOM      4  C   UNL A   1      32.613  26.441  23.532  1.00  0.00     0.261 C 
BRANCH   4   5
ATOM      5  O   UNL A   1      33.754  25.554  23.706  1.00  0.00    -0.462 OA
BRANCH   5   6
ATOM      6  C   UNL A   1      33.941  24.270  23.311  1.00  0.00     0.328 C 
ATOM      7  O   UNL A   1      33.694  23.781  22.216  1.00  0.00    -0.250 OA
BRANCH   6   8
ATOM      8  C   UNL A   1      34.411  23.420  24.475  1.00  0.00     0.190 C 
ATOM      9  C   UNL A   1      35.558  24.114  25.212  1.00  0.00     0.043 C 
BRANCH   8  10
ATOM     10  N   UNL A   1      33.319  22.957  25.341  1.00  0.00    -0.325 N 
ATOM     11  C   UNL A   1      32.072  22.624  24.954  1.00  0.00     0.315 C 
ATOM     12  H   UNL A   1      33.519  22.883  26.302  1.00  0.00     0.166 HD
ATOM     13  O   UNL A   1      31.109  23.183  25.479  1.00  0.00    -0.249 OA
ATOM     14  N   UNL A   1      31.852  21.652  24.042  1.00  0.00    -0.338 N 
ATOM     15  H   UNL A   1      30.935  21.650  23.685  1.00  0.00     0.165 HD
BRANCH  14  16
ATOM     16  C   UNL A   1      32.698  20.602  23.480  1.00  0.00     0.127 C 
BRANCH  16  17
ATOM     17  C   UNL A   1      32.542  19.170  23.965  1.00  0.00     0.121 C 
BRANCH  17  18
ATOM     18  C   UNL A   1      32.908  19.012  25.423  1.00  0.00     0.221 C 
ATOM     19  O   UNL A   1      33.309  19.951  26.111  1.00  0.00    -0.275 OA
ATOM     20  N   UNL A   1      32.824  17.758  25.970  1.00  0.00    -0.353 N 
ATOM     21  H   UNL A   1      32.908  17.697  26.949  1.00  0.00     0.163 HD
BRANCH  20  22
ATOM     22  C   UNL A   1      32.628  16.531  25.269  1.00  0.00     0.082 C 
ATOM     23  C   UNL A   1      33.751  15.525  25.320  1.00  0.00     0.027 C 
ATOM     24  C   UNL A   1      32.421  15.214  25.937  1.00  0.00     0.027 C 
ENDBRANCH  20  22
ENDBRANCH  17  18
ENDBRANCH  16  17
ENDBRANCH  14  16
ENDBRANCH   8  10
ENDBRANCH   6   8
ENDBRANCH   5   6
ENDBRANCH   4   5
ENDBRANCH   3   4
ENDBRANCH   2   3
ENDBRANCH   1   2
BRANCH   1  25
ATOM     25  C   UNL A   1      31.246  27.907  26.438  1.00  0.00     0.188 C 
BRANCH  25  26
ATOM     26  O   UNL A   1      31.251  28.948  25.494  1.00  0.00    -0.376 OA
BRANCH  26  27
ATOM     27  C   UNL A   1      32.415  29.741  25.365  1.00  0.00     0.202 C 
BRANCH  27  28
ATOM     28  C   UNL A   1      33.638  29.687  26.317  1.00  0.00     0.261 C 
BRANCH  28  29
ATOM     29  O   UNL A   1      33.620  30.362  27.589  1.00  0.00    -0.460 OA
BRANCH  29  30
ATOM     30  C   UNL A   1      34.542  31.320  27.861  1.00  0.00     0.338 C 
ATOM     31  O   UNL A   1      34.329  32.498  28.009  1.00  0.00    -0.246 OA
BRANCH  30  32
ATOM     32  C   UNL A   1      35.808  30.606  28.250  1.00  0.00     0.060 A 
ATOM     33  C   UNL A   1      35.829  29.848  29.437  1.00  0.00     0.016 A 
ATOM     34  C   UNL A   1      36.939  30.626  27.432  1.00  0.00     0.016 A 
ATOM     35  C   UNL A   1      36.979  29.148  29.823  1.00  0.00     0.010 A 
ATOM     36  C   UNL A   1      38.107  29.965  27.843  1.00  0.00     0.010 A 
ATOM     37  C   UNL A   1      38.147  29.257  29.061  1.00  0.00    -0.014 A 
BRANCH  37  38
ATOM     38  C   UNL A   1      39.460  28.908  29.670  1.00  0.00     0.031 A 
ATOM     39  C   UNL A   1      39.928  29.755  30.828  1.00  0.00     0.074 A 
ATOM     40  C   UNL A   1      40.222  27.884  29.242  1.00  0.00     0.049 A 
ATOM     41  N   UNL A   1      41.068  29.743  31.465  1.00  0.00    -0.248 NA
ATOM     42  C   UNL A   1      38.971  30.759  31.326  1.00  0.00     0.031 C 
ATOM     43  C   UNL A   1      39.869  26.946  28.179  1.00  0.00     0.029 A 
ATOM     44  N   UNL A   1      41.471  27.476  29.650  1.00  0.00    -0.354 N 
ATOM     45  C   UNL A   1      40.976  30.750  32.420  1.00  0.00     0.074 A 
ATOM     46  C   UNL A   1      39.677  31.365  32.267  1.00  0.00     0.031 C 
ATOM     47  C   UNL A   1      40.892  26.089  27.998  1.00  0.00     0.029 A 
ATOM     48  C   UNL A   1      41.985  26.438  28.906  1.00  0.00     0.049 A 
ATOM     49  H   UNL A   1      41.952  27.888  30.402  1.00  0.00     0.167 HD
ATOM     50  C   UNL A   1      41.889  31.129  33.345  1.00  0.00     0.037 A 
ATOM     51  C   UNL A   1      43.207  25.863  28.934  1.00  0.00     0.037 A 
ATOM     52  C   UNL A   1      43.178  30.514  33.504  1.00  0.00     0.049 A 
ATOM     53  C   UNL A   1      44.237  26.344  29.928  1.00  0.00     0.074 A 
ATOM     54  C   UNL A   1      44.164  30.815  34.426  1.00  0.00     0.029 A 
ATOM     55  N   UNL A   1      43.666  29.480  32.718  1.00  0.00    -0.354 N 
ATOM     56  N   UNL A   1      44.135  27.290  30.833  1.00  0.00    -0.248 NA
ATOM     57  C   UNL A   1      45.550  25.680  29.907  1.00  0.00     0.031 C 
ATOM     58  C   UNL A   1      45.271  30.002  34.162  1.00  0.00     0.029 A 
ATOM     59  C   UNL A   1      44.950  29.150  33.117  1.00  0.00     0.049 A 
ATOM     60  H   UNL A   1      43.172  29.046  31.985  1.00  0.00     0.167 HD
ATOM     61  C   UNL A   1      45.356  27.312  31.505  1.00  0.00     0.074 A 
ATOM     62  C   UNL A   1      46.177  26.279  30.910  1.00  0.00     0.031 C 
ATOM     63  C   UNL A   1      45.758  28.113  32.525  1.00  0.00     0.037 A 
BRANCH  50  64
ATOM     64  C   UNL A   1      41.538  32.291  34.233  1.00  0.00     0.058 A 
ATOM     65  C   UNL A   1      40.922  32.114  35.482  1.00  0.00     0.135 A 
ATOM     66  C   UNL A   1      41.853  33.601  33.838  1.00  0.00     0.135 A 
ATOM     67  F   UNL A   1      40.577  30.885  35.899  1.00  0.00    -0.206 F 
ATOM     68  C   UNL A   1      40.613  33.197  36.299  1.00  0.00     0.059 A 
ATOM     69  C   UNL A   1      41.580  34.696  34.652  1.00  0.00     0.059 A 
ATOM     70  F   UNL A   1      42.434  33.827  32.648  1.00  0.00    -0.206 F 
ATOM     71  C   UNL A   1      40.949  34.484  35.876  1.00  0.00     0.060 A 
BRANCH  71  72
ATOM     72  S   UNL A   1      40.558  35.876  36.956  1.00  0.00     0.124 S 
ATOM     73  O   UNL A   1      39.834  36.757  36.044  1.00  0.00    -0.237 OA
ATOM     74  O   UNL A   1      39.754  35.244  37.997  1.00  0.00    -0.237 OA
ATOM     75  O   UNL A   1      41.868  36.355  37.382  1.00  0.00    -0.744 OA
ENDBRANCH  71  72
ENDBRANCH  50  64
BRANCH  51  76
ATOM     76  C   UNL A   1      43.541  24.776  27.970  1.00  0.00     0.058 A 
ATOM     77  C   UNL A   1      44.197  25.049  26.760  1.00  0.00     0.135 A 
ATOM     78  C   UNL A   1      43.200  23.440  28.236  1.00  0.00     0.135 A 
ATOM     79  F   UNL A   1      44.525  26.312  26.445  1.00  0.00    -0.206 F 
ATOM     80  C   UNL A   1      44.497  24.042  25.847  1.00  0.00     0.059 A 
ATOM     81  C   UNL A   1      43.515  22.412  27.353  1.00  0.00     0.059 A 
ATOM     82  F   UNL A   1      42.571  23.122  29.379  1.00  0.00    -0.206 F 
ATOM     83  C   UNL A   1      44.159  22.723  26.156  1.00  0.00     0.060 A 
BRANCH  83  84
ATOM     84  S   UNL A   1      44.615  21.416  24.997  1.00  0.00     0.124 S 
ATOM     85  O   UNL A   1      43.593  20.411  25.267  1.00  0.00    -0.237 OA
ATOM     86  O   UNL A   1      44.514  22.100  23.711  1.00  0.00    -0.237 OA
ATOM     87  O   UNL A   1      45.971  21.062  25.405  1.00  0.00    -0.744 OA
ENDBRANCH  83  84
ENDBRANCH  51  76
BRANCH  63  88
ATOM     88  C   UNL A   1      47.129  27.884  33.104  1.00  0.00     0.058 A 
ATOM     89  C   UNL A   1      47.352  26.972  34.148  1.00  0.00     0.135 A 
ATOM     90  C   UNL A   1      48.248  28.536  32.558  1.00  0.00     0.135 A 
ATOM     91  F   UNL A   1      46.322  26.322  34.710  1.00  0.00    -0.206 F 
ATOM     92  C   UNL A   1      48.631  26.736  34.647  1.00  0.00     0.059 A 
ATOM     93  C   UNL A   1      49.538  28.292  33.018  1.00  0.00     0.059 A 
ATOM     94  F   UNL A   1      48.094  29.407  31.547  1.00  0.00    -0.206 F 
ATOM     95  C   UNL A   1      49.718  27.400  34.073  1.00  0.00     0.060 A 
BRANCH  95  96
ATOM     96  S   UNL A   1      51.374  27.059  34.708  1.00  0.00     0.124 S 
ATOM     97  O   UNL A   1      51.523  25.642  34.395  1.00  0.00    -0.237 OA
ATOM     98  O   UNL A   1      52.202  27.972  33.928  1.00  0.00    -0.237 OA
ATOM     99  O   UNL A   1      51.266  27.379  36.129  1.00  0.00    -0.744 OA
ENDBRANCH  95  96
ENDBRANCH  63  88
ENDBRANCH  37  38
ENDBRANCH  30  32
ENDBRANCH  29  30
ENDBRANCH  28  29
ENDBRANCH  27  28
ENDBRANCH  26  27
ENDBRANCH  25  26
ENDBRANCH   1  25
TORSDOF 25
ENDMDL
MODEL 3
REMARK VINA RESULT:      -9.0      1.412      8.306
REMARK SMILES C[C@@H](NC(=O)NCCC(=O)NC1CC1)C(=O)OCCOCCOCCOC(=O)c1ccc(-c2c3nc(c(-c4c(F)cc(S(=O)(=O)[O-])cc4F)c4ccc([nH]4)c(-c4c(F)cc(S(=O)(=O)[O-])cc4F)c4nc(c(-c5c(F)cc(S(=O)(=O)[O-])cc5F)c5ccc2[nH]5)C=C4)C=C3)cc1
REMARK SMILES IDX 21 1 20 2 19 3 18 4 17 5 15 6 16 7 2 8 1 9 3 10 4 11 5 13
REMARK SMILES IDX 6 14 7 16 8 17 9 18 10 19 11 20 12 22 13 23 14 24 22 25
REMARK SMILES IDX 23 26 24 27 25 28 26 29 27 30 28 31 29 32 30 33 94 34 31 35
REMARK SMILES IDX 93 36 32 37 33 38 34 39 87 40 35 41 92 42 86 43 88 44 36 45
REMARK SMILES IDX 91 46 85 47 84 48 37 50 71 51 50 52 70 53 51 54 54 55 69 56
REMARK SMILES IDX 89 57 52 58 53 59 68 61 90 62 55 63 38 64 39 65 48 66 40 67
REMARK SMILES IDX 41 68 47 69 49 70 42 71 43 72 44 73 45 74 46 75 72 76 73 77
REMARK SMILES IDX 82 78 74 79 75 80 81 81 83 82 76 83 77 84 78 85 79 86 80 87
REMARK SMILES IDX 56 88 57 89 66 90 58 91 59 92 65 93 67 94 60 95 61 96 62 97
REMARK SMILES IDX 63 98 64 99
REMARK H PARENT 3 12 6 15 11 21 88 49 54 60
REMARK Flexibility Score: inf
ROOT
ATOM      1  C   UNL A   1      38.141  22.909  25.841  1.00  0.00     0.188 C 
ENDROOT
BRANCH   1   2
ATOM      2  O   UNL A   1      37.218  21.846  26.031  1.00  0.00    -0.376 OA
BRANCH   2   3
ATOM      3  C   UNL A   1      36.571  21.444  24.831  1.00  0.00     0.202 C 
BRANCH   3   4
ATOM      4  C   UNL A   1      35.414  20.458  25.017  1.00  0.00     0.261 C 
BRANCH   4   5
ATOM      5  O   UNL A   1      34.148  20.790  25.654  1.00  0.00    -0.462 OA
BRANCH   5   6
ATOM      6  C   UNL A   1      32.877  20.711  25.188  1.00  0.00     0.328 C 
ATOM      7  O   UNL A   1      32.141  19.733  25.189  1.00  0.00    -0.250 OA
BRANCH   6   8
ATOM      8  C   UNL A   1      32.476  22.010  24.517  1.00  0.00     0.190 C 
ATOM      9  C   UNL A   1      32.249  21.788  23.020  1.00  0.00     0.043 C 
BRANCH   8  10
ATOM     10  N   UNL A   1      31.385  22.711  25.204  1.00  0.00    -0.325 N 
ATOM     11  C   UNL A   1      31.425  23.249  26.439  1.00  0.00     0.315 C 
ATOM     12  H   UNL A   1      30.536  22.798  24.711  1.00  0.00     0.166 HD
ATOM     13  O   UNL A   1      30.588  22.906  27.273  1.00  0.00    -0.249 OA
ATOM     14  N   UNL A   1      32.331  24.196  26.767  1.00  0.00    -0.338 N 
ATOM     15  H   UNL A   1      32.405  24.349  27.737  1.00  0.00     0.165 HD
BRANCH  14  16
ATOM     16  C   UNL A   1      33.223  25.040  25.975  1.00  0.00     0.127 C 
BRANCH  16  17
ATOM     17  C   UNL A   1      32.641  26.157  25.125  1.00  0.00     0.121 C 
BRANCH  17  18
ATOM     18  C   UNL A   1      31.680  27.031  25.900  1.00  0.00     0.221 C 
ATOM     19  O   UNL A   1      31.444  26.858  27.095  1.00  0.00    -0.275 OA
ATOM     20  N   UNL A   1      31.026  28.022  25.214  1.00  0.00    -0.353 N 
ATOM     21  H   UNL A   1      30.532  28.679  25.756  1.00  0.00     0.163 HD
BRANCH  20  22
ATOM     22  C   UNL A   1      30.985  28.201  23.800  1.00  0.00     0.082 C 
ATOM     23  C   UNL A   1      29.660  27.972  23.118  1.00  0.00     0.027 C 
ATOM     24  C   UNL A   1      30.289  29.333  23.124  1.00  0.00     0.027 C 
ENDBRANCH  20  22
ENDBRANCH  17  18
ENDBRANCH  16  17
ENDBRANCH  14  16
ENDBRANCH   8  10
ENDBRANCH   6   8
ENDBRANCH   5   6
ENDBRANCH   4   5
ENDBRANCH   3   4
ENDBRANCH   2   3
ENDBRANCH   1   2
BRANCH   1  25
ATOM     25  C   UNL A   1      39.445  22.669  26.605  1.00  0.00     0.188 C 
BRANCH  25  26
ATOM     26  O   UNL A   1      40.338  21.732  26.056  1.00  0.00    -0.376 OA
BRANCH  26  27
ATOM     27  C   UNL A   1      41.727  21.941  26.222  1.00  0.00     0.202 C 
BRANCH  27  28
ATOM     28  C   UNL A   1      42.380  22.670  27.424  1.00  0.00     0.261 C 
BRANCH  28  29
ATOM     29  O   UNL A   1      43.109  23.899  27.241  1.00  0.00    -0.460 OA
BRANCH  29  30
ATOM     30  C   UNL A   1      42.547  24.925  26.553  1.00  0.00     0.338 C 
ATOM     31  O   UNL A   1      42.264  24.931  25.381  1.00  0.00    -0.246 OA
BRANCH  30  32
ATOM     32  C   UNL A   1      42.064  25.920  27.573  1.00  0.00     0.060 A 
ATOM     33  C   UNL A   1      42.794  27.109  27.767  1.00  0.00     0.016 A 
ATOM     34  C   UNL A   1      40.880  25.721  28.284  1.00  0.00     0.016 A 
ATOM     35  C   UNL A   1      42.366  28.073  28.689  1.00  0.00     0.010 A 
ATOM     36  C   UNL A   1      40.478  26.664  29.243  1.00  0.00     0.010 A 
ATOM     37  C   UNL A   1      41.241  27.824  29.480  1.00  0.00    -0.014 A 
BRANCH  37  38
ATOM     38  C   UNL A   1      41.038  28.597  30.737  1.00  0.00     0.031 A 
ATOM     39  C   UNL A   1      39.935  29.627  30.740  1.00  0.00     0.074 A 
ATOM     40  C   UNL A   1      41.778  28.409  31.845  1.00  0.00     0.049 A 
ATOM     41  N   UNL A   1      39.616  30.508  31.652  1.00  0.00    -0.248 NA
ATOM     42  C   UNL A   1      39.080  29.667  29.541  1.00  0.00     0.031 C 
ATOM     43  C   UNL A   1      42.831  27.410  32.007  1.00  0.00     0.029 A 
ATOM     44  N   UNL A   1      41.760  29.076  33.049  1.00  0.00    -0.354 N 
ATOM     45  C   UNL A   1      38.543  31.221  31.127  1.00  0.00     0.074 A 
ATOM     46  C   UNL A   1      38.278  30.684  29.811  1.00  0.00     0.031 C 
ATOM     47  C   UNL A   1      43.379  27.549  33.229  1.00  0.00     0.029 A 
ATOM     48  C   UNL A   1      42.741  28.668  33.924  1.00  0.00     0.049 A 
ATOM     49  H   UNL A   1      41.106  29.779  33.264  1.00  0.00     0.167 HD
ATOM     50  C   UNL A   1      37.839  32.231  31.688  1.00  0.00     0.037 A 
ATOM     51  C   UNL A   1      43.101  29.164  35.127  1.00  0.00     0.037 A 
ATOM     52  C   UNL A   1      38.097  32.761  32.999  1.00  0.00     0.049 A 
ATOM     53  C   UNL A   1      42.347  30.336  35.710  1.00  0.00     0.074 A 
ATOM     54  C   UNL A   1      37.424  33.771  33.664  1.00  0.00     0.029 A 
ATOM     55  N   UNL A   1      39.111  32.333  33.842  1.00  0.00    -0.354 N 
ATOM     56  N   UNL A   1      41.328  30.995  35.208  1.00  0.00    -0.248 NA
ATOM     57  C   UNL A   1      42.789  30.832  37.022  1.00  0.00     0.031 C 
ATOM     58  C   UNL A   1      38.067  33.993  34.885  1.00  0.00     0.029 A 
ATOM     59  C   UNL A   1      39.100  33.077  35.010  1.00  0.00     0.049 A 
ATOM     60  H   UNL A   1      39.746  31.607  33.640  1.00  0.00     0.167 HD
ATOM     61  C   UNL A   1      40.993  31.960  36.156  1.00  0.00     0.074 A 
ATOM     62  C   UNL A   1      41.909  31.793  37.264  1.00  0.00     0.031 C 
ATOM     63  C   UNL A   1      40.011  32.897  36.113  1.00  0.00     0.037 A 
BRANCH  50  64
ATOM     64  C   UNL A   1      36.745  32.856  30.868  1.00  0.00     0.058 A 
ATOM     65  C   UNL A   1      35.393  32.527  31.055  1.00  0.00     0.135 A 
ATOM     66  C   UNL A   1      37.054  33.825  29.899  1.00  0.00     0.135 A 
ATOM     67  F   UNL A   1      35.043  31.589  31.951  1.00  0.00    -0.206 F 
ATOM     68  C   UNL A   1      34.389  33.120  30.297  1.00  0.00     0.059 A 
ATOM     69  C   UNL A   1      36.064  34.453  29.151  1.00  0.00     0.059 A 
ATOM     70  F   UNL A   1      38.332  34.170  29.673  1.00  0.00    -0.206 F 
ATOM     71  C   UNL A   1      34.735  34.085  29.349  1.00  0.00     0.060 A 
BRANCH  71  72
ATOM     72  S   UNL A   1      33.419  34.859  28.388  1.00  0.00     0.124 S 
ATOM     73  O   UNL A   1      34.165  35.846  27.613  1.00  0.00    -0.237 OA
ATOM     74  O   UNL A   1      32.884  33.732  27.630  1.00  0.00    -0.237 OA
ATOM     75  O   UNL A   1      32.528  35.405  29.406  1.00  0.00    -0.744 OA
ENDBRANCH  71  72
ENDBRANCH  50  64
BRANCH  51  76
ATOM     76  C   UNL A   1      44.254  28.571  35.863  1.00  0.00     0.058 A 
ATOM     77  C   UNL A   1      45.560  29.053  35.685  1.00  0.00     0.135 A 
ATOM     78  C   UNL A   1      44.074  27.498  36.751  1.00  0.00     0.135 A 
ATOM     79  F   UNL A   1      45.792  30.061  34.830  1.00  0.00    -0.206 F 
ATOM     80  C   UNL A   1      46.644  28.493  36.355  1.00  0.00     0.059 A 
ATOM     81  C   UNL A   1      45.138  26.940  37.454  1.00  0.00     0.059 A 
ATOM     82  F   UNL A   1      42.846  26.996  36.958  1.00  0.00    -0.206 F 
ATOM     83  C   UNL A   1      46.422  27.441  37.245  1.00  0.00     0.060 A 
BRANCH  83  84
ATOM     84  S   UNL A   1      47.826  26.768  38.161  1.00  0.00     0.124 S 
ATOM     85  O   UNL A   1      47.514  27.181  39.524  1.00  0.00    -0.237 OA
ATOM     86  O   UNL A   1      47.713  25.339  37.885  1.00  0.00    -0.237 OA
ATOM     87  O   UNL A   1      48.975  27.428  37.549  1.00  0.00    -0.744 OA
ENDBRANCH  83  84
ENDBRANCH  51  76
BRANCH  63  88
ATOM     88  C   UNL A   1      39.836  33.791  37.313  1.00  0.00     0.058 A 
ATOM     89  C   UNL A   1      38.960  33.466  38.361  1.00  0.00     0.135 A 
ATOM     90  C   UNL A   1      40.607  34.958  37.446  1.00  0.00     0.135 A 
ATOM     91  F   UNL A   1      38.197  32.365  38.287  1.00  0.00    -0.206 F 
ATOM     92  C   UNL A   1      38.838  34.278  39.486  1.00  0.00     0.059 A 
ATOM     93  C   UNL A   1      40.525  35.768  38.574  1.00  0.00     0.059 A 
ATOM     94  F   UNL A   1      41.472  35.310  36.480  1.00  0.00    -0.206 F 
ATOM     95  C   UNL A   1      39.628  35.426  39.584  1.00  0.00     0.060 A 
BRANCH  95  96
ATOM     96  S   UNL A   1      39.483  36.452  41.063  1.00  0.00     0.124 S 
ATOM     97  O   UNL A   1      38.730  35.577  41.955  1.00  0.00    -0.237 OA
ATOM     98  O   UNL A   1      40.878  36.679  41.424  1.00  0.00    -0.237 OA
ATOM     99  O   UNL A   1      38.764  37.633  40.589  1.00  0.00    -0.744 OA
ENDBRANCH  95  96
ENDBRANCH  63  88
ENDBRANCH  37  38
ENDBRANCH  30  32
ENDBRANCH  29  30
ENDBRANCH  28  29
ENDBRANCH  27  28
ENDBRANCH  26  27
ENDBRANCH  25  26
ENDBRANCH   1  25
TORSDOF 25
ENDMDL
