MODEL 1
REMARK VINA RESULT:     -11.7      0.000      0.000
REMARK SMILES O=C(OCCOCCOCCOC(=O)c1ccc(-c2c3nc(c(-c4c(F)cc(S(=O)(=O)[O-])cc4F)c4ccc([nH]4)c(-c4c(F)cc(S(=O)(=O)[O-])cc4F)c4nc(c(-c5c(F)cc(S(=O)(=O)[O-])cc5F)c5ccc2[nH]5)C=C4)C=C3)cc1)C1=Cc2c(Cl)ccc(Cl)c2O[C@@H]1C(F)(F)F
REMARK SMILES IDX 8 1 7 2 6 3 5 4 4 5 3 6 2 7 1 8 81 9 82 10 92 11 83 12 91 13
REMARK SMILES IDX 84 14 90 15 85 16 86 17 88 18 87 19 89 20 93 21 94 22 95 23
REMARK SMILES IDX 96 24 9 25 10 26 11 27 12 28 13 29 14 30 15 31 16 32 80 33
REMARK SMILES IDX 17 34 79 35 18 36 19 37 20 38 73 39 21 40 78 41 72 42 74 43
REMARK SMILES IDX 22 44 77 45 71 46 70 47 23 49 57 50 36 51 56 52 37 53 40 54
REMARK SMILES IDX 55 55 75 56 38 57 39 58 54 60 76 61 41 62 24 63 25 64 34 65
REMARK SMILES IDX 26 66 27 67 33 68 35 69 28 70 29 71 30 72 31 73 32 74 58 75
REMARK SMILES IDX 59 76 68 77 60 78 61 79 67 80 69 81 62 82 63 83 64 84 65 85
REMARK SMILES IDX 66 86 42 87 43 88 52 89 44 90 45 91 51 92 53 93 46 94 47 95
REMARK SMILES IDX 48 96 49 97 50 98
REMARK H PARENT 74 48 40 59
REMARK Flexibility Score: inf
ROOT
ATOM      1  C   UNL A   1      43.692  20.924  25.984  1.00  0.00     0.188 C 
ENDROOT
BRANCH   1   2
ATOM      2  C   UNL A   1      42.161  20.820  26.085  1.00  0.00     0.188 C 
BRANCH   2   3
ATOM      3  O   UNL A   1      41.351  21.544  27.103  1.00  0.00    -0.376 OA
BRANCH   3   4
ATOM      4  C   UNL A   1      39.924  22.474  26.876  1.00  0.00     0.202 C 
BRANCH   4   5
ATOM      5  C   UNL A   1      38.156  21.823  25.791  1.00  0.00     0.261 C 
BRANCH   5   6
ATOM      6  O   UNL A   1      36.771  22.437  25.869  1.00  0.00    -0.460 OA
BRANCH   6   7
ATOM      7  C   UNL A   1      36.411  23.003  24.708  1.00  0.00     0.338 C 
ATOM      8  O   UNL A   1      37.123  23.506  23.876  1.00  0.00    -0.246 OA
BRANCH   7   9
ATOM      9  C   UNL A   1      35.021  23.249  25.061  1.00  0.00     0.087 C 
ATOM     10  C   UNL A   1      34.683  24.633  25.382  1.00  0.00     0.029 C 
ATOM     11  C   UNL A   1      34.352  22.285  23.546  1.00  0.00     0.316 C 
ATOM     12  C   UNL A   1      33.835  25.768  24.256  1.00  0.00     0.037 A 
ATOM     13  O   UNL A   1      33.583  23.507  22.232  1.00  0.00    -0.474 OA
ATOM     14  C   UNL A   1      33.673  27.096  24.576  1.00  0.00     0.052 A 
ATOM     15  C   UNL A   1      33.339  25.270  22.670  1.00  0.00     0.148 A 
ATOM     16  Cl  UNL A   1      34.202  27.788  26.051  1.00  0.00    -0.084 Cl
ATOM     17  C   UNL A   1      33.077  27.903  23.588  1.00  0.00     0.023 A 
ATOM     18  C   UNL A   1      32.792  26.136  21.758  1.00  0.00     0.083 A 
ATOM     19  C   UNL A   1      32.659  27.450  22.267  1.00  0.00     0.026 A 
ATOM     20  Cl  UNL A   1      32.379  25.777  20.153  1.00  0.00    -0.080 Cl
BRANCH  11  21
ATOM     21  C   UNL A   1      33.686  21.086  24.518  1.00  0.00     0.430 C 
ATOM     22  F   UNL A   1      32.870  21.374  25.526  1.00  0.00    -0.167 F 
ATOM     23  F   UNL A   1      32.993  20.239  23.711  1.00  0.00    -0.167 F 
ATOM     24  F   UNL A   1      34.651  20.303  25.093  1.00  0.00    -0.167 F 
ENDBRANCH  11  21
ENDBRANCH   7   9
ENDBRANCH   6   7
ENDBRANCH   5   6
ENDBRANCH   4   5
ENDBRANCH   3   4
ENDBRANCH   2   3
ENDBRANCH   1   2
BRANCH   1  25
ATOM     25  O   UNL A   1      44.328  22.141  26.271  1.00  0.00    -0.376 OA
BRANCH  25  26
ATOM     26  C   UNL A   1      44.555  22.997  25.161  1.00  0.00     0.202 C 
BRANCH  26  27
ATOM     27  C   UNL A   1      43.559  24.140  24.921  1.00  0.00     0.261 C 
BRANCH  27  28
ATOM     28  O   UNL A   1      42.730  24.441  26.061  1.00  0.00    -0.460 OA
BRANCH  28  29
ATOM     29  C   UNL A   1      41.949  25.546  25.977  1.00  0.00     0.338 C 
ATOM     30  O   UNL A   1      41.284  25.908  25.021  1.00  0.00    -0.246 OA
BRANCH  29  31
ATOM     31  C   UNL A   1      41.894  26.212  27.293  1.00  0.00     0.060 A 
ATOM     32  C   UNL A   1      40.795  25.983  28.136  1.00  0.00     0.016 A 
ATOM     33  C   UNL A   1      42.894  27.111  27.661  1.00  0.00     0.016 A 
ATOM     34  C   UNL A   1      40.696  26.653  29.356  1.00  0.00     0.010 A 
ATOM     35  C   UNL A   1      42.771  27.817  28.859  1.00  0.00     0.010 A 
ATOM     36  C   UNL A   1      41.657  27.615  29.694  1.00  0.00    -0.014 A 
BRANCH  36  37
ATOM     37  C   UNL A   1      41.337  28.622  30.733  1.00  0.00     0.031 A 
ATOM     38  C   UNL A   1      42.175  28.602  31.984  1.00  0.00     0.074 A 
ATOM     39  C   UNL A   1      40.350  29.521  30.585  1.00  0.00     0.049 A 
ATOM     40  N   UNL A   1      42.097  29.345  33.054  1.00  0.00    -0.248 NA
ATOM     41  C   UNL A   1      43.244  27.589  32.030  1.00  0.00     0.031 C 
ATOM     42  C   UNL A   1      39.501  29.662  29.404  1.00  0.00     0.029 A 
ATOM     43  N   UNL A   1      39.894  30.486  31.448  1.00  0.00    -0.354 N 
ATOM     44  C   UNL A   1      43.100  28.888  33.901  1.00  0.00     0.074 A 
ATOM     45  C   UNL A   1      43.744  27.776  33.239  1.00  0.00     0.031 C 
ATOM     46  C   UNL A   1      38.619  30.654  29.621  1.00  0.00     0.029 A 
ATOM     47  C   UNL A   1      38.822  31.198  30.964  1.00  0.00     0.049 A 
ATOM     48  H   UNL A   1      40.295  30.652  32.331  1.00  0.00     0.167 HD
ATOM     49  C   UNL A   1      43.457  29.355  35.120  1.00  0.00     0.037 A 
ATOM     50  C   UNL A   1      38.088  32.167  31.549  1.00  0.00     0.037 A 
ATOM     51  C   UNL A   1      42.784  30.441  35.783  1.00  0.00     0.049 A 
ATOM     52  C   UNL A   1      38.449  32.621  32.944  1.00  0.00     0.074 A 
ATOM     53  C   UNL A   1      43.064  31.003  37.014  1.00  0.00     0.029 A 
ATOM     54  N   UNL A   1      41.679  31.112  35.277  1.00  0.00    -0.354 N 
ATOM     55  N   UNL A   1      39.421  32.207  33.725  1.00  0.00    -0.248 NA
ATOM     56  C   UNL A   1      37.619  33.681  33.533  1.00  0.00     0.031 C 
ATOM     57  C   UNL A   1      42.081  31.959  37.287  1.00  0.00     0.029 A 
ATOM     58  C   UNL A   1      41.243  32.059  36.187  1.00  0.00     0.049 A 
ATOM     59  H   UNL A   1      41.265  30.938  34.400  1.00  0.00     0.167 HD
ATOM     60  C   UNL A   1      39.347  32.987  34.877  1.00  0.00     0.074 A 
ATOM     61  C   UNL A   1      38.234  33.896  34.688  1.00  0.00     0.031 C 
ATOM     62  C   UNL A   1      40.134  32.962  35.983  1.00  0.00     0.037 A 
BRANCH  49  63
ATOM     63  C   UNL A   1      44.586  28.649  35.826  1.00  0.00     0.058 A 
ATOM     64  C   UNL A   1      44.362  27.587  36.720  1.00  0.00     0.135 A 
ATOM     65  C   UNL A   1      45.914  29.058  35.621  1.00  0.00     0.135 A 
ATOM     66  F   UNL A   1      43.112  27.166  36.972  1.00  0.00    -0.206 F 
ATOM     67  C   UNL A   1      45.406  26.994  37.422  1.00  0.00     0.059 A 
ATOM     68  C   UNL A   1      46.977  28.451  36.281  1.00  0.00     0.059 A 
ATOM     69  F   UNL A   1      46.189  30.069  34.782  1.00  0.00    -0.206 F 
ATOM     70  C   UNL A   1      46.710  27.434  37.197  1.00  0.00     0.060 A 
BRANCH  70  71
ATOM     71  S   UNL A   1      48.052  26.669  38.130  1.00  0.00     0.124 S 
ATOM     72  O   UNL A   1      49.069  26.501  37.097  1.00  0.00    -0.237 OA
ATOM     73  O   UNL A   1      48.339  27.679  39.144  1.00  0.00    -0.237 OA
ATOM     74  O   UNL A   1      47.459  25.433  38.630  1.00  0.00    -0.744 OA
ENDBRANCH  70  71
ENDBRANCH  49  63
BRANCH  50  75
ATOM     75  C   UNL A   1      36.953  32.789  30.812  1.00  0.00     0.058 A 
ATOM     76  C   UNL A   1      35.625  32.415  31.077  1.00  0.00     0.135 A 
ATOM     77  C   UNL A   1      37.166  33.777  29.838  1.00  0.00     0.135 A 
ATOM     78  F   UNL A   1      35.366  31.460  31.984  1.00  0.00    -0.206 F 
ATOM     79  C   UNL A   1      34.554  32.996  30.406  1.00  0.00     0.059 A 
ATOM     80  C   UNL A   1      36.110  34.393  29.173  1.00  0.00     0.059 A 
ATOM     81  F   UNL A   1      38.414  34.172  29.544  1.00  0.00    -0.206 F 
ATOM     82  C   UNL A   1      34.806  33.994  29.463  1.00  0.00     0.060 A 
BRANCH  82  83
ATOM     83  S   UNL A   1      33.401  34.792  28.655  1.00  0.00     0.124 S 
ATOM     84  O   UNL A   1      32.988  33.772  27.700  1.00  0.00    -0.237 OA
ATOM     85  O   UNL A   1      32.496  35.021  29.776  1.00  0.00    -0.237 OA
ATOM     86  O   UNL A   1      33.986  35.998  28.074  1.00  0.00    -0.744 OA
ENDBRANCH  82  83
ENDBRANCH  50  75
BRANCH  62  87
ATOM     87  C   UNL A   1      39.870  33.988  37.056  1.00  0.00     0.058 A 
ATOM     88  C   UNL A   1      39.113  33.700  38.204  1.00  0.00     0.135 A 
ATOM     89  C   UNL A   1      40.436  35.271  36.955  1.00  0.00     0.135 A 
ATOM     90  F   UNL A   1      38.548  32.492  38.356  1.00  0.00    -0.206 F 
ATOM     91  C   UNL A   1      38.897  34.657  39.191  1.00  0.00     0.059 A 
ATOM     92  C   UNL A   1      40.265  36.230  37.949  1.00  0.00     0.059 A 
ATOM     93  F   UNL A   1      41.182  35.600  35.889  1.00  0.00    -0.206 F 
ATOM     94  C   UNL A   1      39.480  35.919  39.055  1.00  0.00     0.060 A 
BRANCH  94  95
ATOM     95  S   UNL A   1      39.208  37.143  40.354  1.00  0.00     0.124 S 
ATOM     96  O   UNL A   1      38.511  38.196  39.624  1.00  0.00    -0.237 OA
ATOM     97  O   UNL A   1      38.402  36.399  41.317  1.00  0.00    -0.237 OA
ATOM     98  O   UNL A   1      40.558  37.475  40.799  1.00  0.00    -0.744 OA
ENDBRANCH  94  95
ENDBRANCH  62  87
ENDBRANCH  36  37
ENDBRANCH  29  31
ENDBRANCH  28  29
ENDBRANCH  27  28
ENDBRANCH  26  27
ENDBRANCH  25  26
ENDBRANCH   1  25
TORSDOF 21
ENDMDL
MODEL 2
REMARK VINA RESULT:     -11.5      6.206     12.009
REMARK SMILES O=C(OCCOCCOCCOC(=O)c1ccc(-c2c3nc(c(-c4c(F)cc(S(=O)(=O)[O-])cc4F)c4ccc([nH]4)c(-c4c(F)cc(S(=O)(=O)[O-])cc4F)c4nc(c(-c5c(F)cc(S(=O)(=O)[O-])cc5F)c5ccc2[nH]5)C=C4)C=C3)cc1)C1=Cc2c(Cl)ccc(Cl)c2O[C@@H]1C(F)(F)F
REMARK SMILES IDX 8 1 7 2 6 3 5 4 4 5 3 6 2 7 1 8 81 9 82 10 92 11 83 12 91 13
REMARK SMILES IDX 84 14 90 15 85 16 86 17 88 18 87 19 89 20 93 21 94 22 95 23
REMARK SMILES IDX 96 24 9 25 10 26 11 27 12 28 13 29 14 30 15 31 16 32 80 33
REMARK SMILES IDX 17 34 79 35 18 36 19 37 20 38 73 39 21 40 78 41 72 42 74 43
REMARK SMILES IDX 22 44 77 45 71 46 70 47 23 49 57 50 36 51 56 52 37 53 40 54
REMARK SMILES IDX 55 55 75 56 38 57 39 58 54 60 76 61 41 62 24 63 25 64 34 65
REMARK SMILES IDX 26 66 27 67 33 68 35 69 28 70 29 71 30 72 31 73 32 74 58 75
REMARK SMILES IDX 59 76 68 77 60 78 61 79 67 80 69 81 62 82 63 83 64 84 65 85
REMARK SMILES IDX 66 86 42 87 43 88 52 89 44 90 45 91 51 92 53 93 46 94 47 95
REMARK SMILES IDX 48 96 49 97 50 98
REMARK H PARENT 74 48 40 59
REMARK Flexibility Score: inf
ROOT
ATOM      1  C   UNL A   1      35.288  33.703  28.327  1.00  0.00     0.188 C 
ENDROOT
BRANCH   1   2
ATOM      2  C   UNL A   1      33.971  32.938  28.120  1.00  0.00     0.188 C 
BRANCH   2   3
ATOM      3  O   UNL A   1      33.894  31.461  27.947  1.00  0.00    -0.376 OA
BRANCH   3   4
ATOM      4  C   UNL A   1      32.738  30.540  27.071  1.00  0.00     0.202 C 
BRANCH   4   5
ATOM      5  C   UNL A   1      32.450  28.391  27.241  1.00  0.00     0.261 C 
BRANCH   5   6
ATOM      6  O   UNL A   1      33.224  27.315  26.505  1.00  0.00    -0.460 OA
BRANCH   6   7
ATOM      7  C   UNL A   1      32.433  26.297  26.134  1.00  0.00     0.338 C 
ATOM      8  O   UNL A   1      31.639  25.691  26.809  1.00  0.00    -0.246 OA
BRANCH   7   9
ATOM      9  C   UNL A   1      33.201  25.900  24.964  1.00  0.00     0.087 C 
ATOM     10  C   UNL A   1      34.466  25.222  25.234  1.00  0.00     0.029 C 
ATOM     11  C   UNL A   1      31.687  25.091  24.111  1.00  0.00     0.316 C 
ATOM     12  C   UNL A   1      34.718  23.435  25.099  1.00  0.00     0.037 A 
ATOM     13  O   UNL A   1      31.854  23.146  24.105  1.00  0.00    -0.474 OA
ATOM     14  C   UNL A   1      35.897  22.852  25.501  1.00  0.00     0.052 A 
ATOM     15  C   UNL A   1      33.436  22.372  24.612  1.00  0.00     0.148 A 
ATOM     16  Cl  UNL A   1      37.231  23.736  26.114  1.00  0.00    -0.084 Cl
ATOM     17  C   UNL A   1      35.949  21.447  25.432  1.00  0.00     0.023 A 
ATOM     18  C   UNL A   1      33.567  21.007  24.604  1.00  0.00     0.083 A 
ATOM     19  C   UNL A   1      34.856  20.582  25.006  1.00  0.00     0.026 A 
ATOM     20  Cl  UNL A   1      32.348  19.882  24.255  1.00  0.00    -0.080 Cl
BRANCH  11  21
ATOM     21  C   UNL A   1      31.679  26.241  22.884  1.00  0.00     0.430 C 
ATOM     22  F   UNL A   1      32.694  27.080  22.703  1.00  0.00    -0.167 F 
ATOM     23  F   UNL A   1      31.527  25.583  21.704  1.00  0.00    -0.167 F 
ATOM     24  F   UNL A   1      30.587  27.062  22.964  1.00  0.00    -0.167 F 
ENDBRANCH  11  21
ENDBRANCH   7   9
ENDBRANCH   6   7
ENDBRANCH   5   6
ENDBRANCH   4   5
ENDBRANCH   3   4
ENDBRANCH   2   3
ENDBRANCH   1   2
BRANCH   1  25
ATOM     25  O   UNL A   1      36.218  33.246  29.272  1.00  0.00    -0.376 OA
BRANCH  25  26
ATOM     26  C   UNL A   1      35.878  33.468  30.633  1.00  0.00     0.202 C 
BRANCH  26  27
ATOM     27  C   UNL A   1      35.431  32.260  31.468  1.00  0.00     0.261 C 
BRANCH  27  28
ATOM     28  O   UNL A   1      36.510  31.381  31.846  1.00  0.00    -0.460 OA
BRANCH  28  29
ATOM     29  C   UNL A   1      36.684  30.265  31.096  1.00  0.00     0.338 C 
ATOM     30  O   UNL A   1      35.832  29.455  30.771  1.00  0.00    -0.246 OA
BRANCH  29  31
ATOM     31  C   UNL A   1      38.068  30.226  30.586  1.00  0.00     0.060 A 
ATOM     32  C   UNL A   1      38.291  30.166  29.201  1.00  0.00     0.016 A 
ATOM     33  C   UNL A   1      39.138  30.179  31.478  1.00  0.00     0.016 A 
ATOM     34  C   UNL A   1      39.591  30.064  28.705  1.00  0.00     0.010 A 
ATOM     35  C   UNL A   1      40.435  30.029  30.983  1.00  0.00     0.010 A 
ATOM     36  C   UNL A   1      40.662  29.937  29.598  1.00  0.00    -0.014 A 
BRANCH  36  37
ATOM     37  C   UNL A   1      41.952  29.394  29.109  1.00  0.00     0.031 A 
ATOM     38  C   UNL A   1      43.111  30.351  29.033  1.00  0.00     0.074 A 
ATOM     39  C   UNL A   1      42.099  28.109  28.745  1.00  0.00     0.049 A 
ATOM     40  N   UNL A   1      44.334  30.152  28.621  1.00  0.00    -0.248 NA
ATOM     41  C   UNL A   1      42.842  31.730  29.478  1.00  0.00     0.031 C 
ATOM     42  C   UNL A   1      41.061  27.084  28.813  1.00  0.00     0.029 A 
ATOM     43  N   UNL A   1      43.193  27.453  28.237  1.00  0.00    -0.354 N 
ATOM     44  C   UNL A   1      44.977  31.377  28.752  1.00  0.00     0.074 A 
ATOM     45  C   UNL A   1      43.999  32.323  29.241  1.00  0.00     0.031 C 
ATOM     46  C   UNL A   1      41.567  25.924  28.355  1.00  0.00     0.029 A 
ATOM     47  C   UNL A   1      42.953  26.133  27.936  1.00  0.00     0.049 A 
ATOM     48  H   UNL A   1      44.066  27.886  28.101  1.00  0.00     0.167 HD
ATOM     49  C   UNL A   1      46.269  31.687  28.494  1.00  0.00     0.037 A 
ATOM     50  C   UNL A   1      43.763  25.210  27.376  1.00  0.00     0.037 A 
ATOM     51  C   UNL A   1      47.223  30.744  27.975  1.00  0.00     0.049 A 
ATOM     52  C   UNL A   1      45.179  25.595  27.017  1.00  0.00     0.074 A 
ATOM     53  C   UNL A   1      48.560  30.944  27.683  1.00  0.00     0.029 A 
ATOM     54  N   UNL A   1      46.934  29.426  27.647  1.00  0.00    -0.354 N 
ATOM     55  N   UNL A   1      45.790  26.747  27.175  1.00  0.00    -0.248 NA
ATOM     56  C   UNL A   1      46.017  24.552  26.413  1.00  0.00     0.031 C 
ATOM     57  C   UNL A   1      49.057  29.772  27.106  1.00  0.00     0.029 A 
ATOM     58  C   UNL A   1      48.058  28.811  27.123  1.00  0.00     0.049 A 
ATOM     59  H   UNL A   1      46.058  28.993  27.768  1.00  0.00     0.167 HD
ATOM     60  C   UNL A   1      47.096  26.553  26.733  1.00  0.00     0.074 A 
ATOM     61  C   UNL A   1      47.184  25.173  26.301  1.00  0.00     0.031 C 
ATOM     62  C   UNL A   1      48.131  27.431  26.700  1.00  0.00     0.037 A 
BRANCH  49  63
ATOM     63  C   UNL A   1      46.693  33.116  28.716  1.00  0.00     0.058 A 
ATOM     64  C   UNL A   1      46.613  34.086  27.702  1.00  0.00     0.135 A 
ATOM     65  C   UNL A   1      47.210  33.515  29.959  1.00  0.00     0.135 A 
ATOM     66  F   UNL A   1      46.146  33.759  26.486  1.00  0.00    -0.206 F 
ATOM     67  C   UNL A   1      47.078  35.383  27.897  1.00  0.00     0.059 A 
ATOM     68  C   UNL A   1      47.642  34.817  30.189  1.00  0.00     0.059 A 
ATOM     69  F   UNL A   1      47.314  32.631  30.965  1.00  0.00    -0.206 F 
ATOM     70  C   UNL A   1      47.593  35.738  29.144  1.00  0.00     0.060 A 
BRANCH  70  71
ATOM     71  S   UNL A   1      48.211  37.417  29.375  1.00  0.00     0.124 S 
ATOM     72  O   UNL A   1      49.521  37.338  28.737  1.00  0.00    -0.237 OA
ATOM     73  O   UNL A   1      47.211  38.214  28.672  1.00  0.00    -0.237 OA
ATOM     74  O   UNL A   1      48.231  37.578  30.825  1.00  0.00    -0.744 OA
ENDBRANCH  70  71
ENDBRANCH  49  63
BRANCH  50  75
ATOM     75  C   UNL A   1      43.263  23.827  27.138  1.00  0.00     0.058 A 
ATOM     76  C   UNL A   1      42.823  23.424  25.867  1.00  0.00     0.135 A 
ATOM     77  C   UNL A   1      43.224  22.876  28.170  1.00  0.00     0.135 A 
ATOM     78  F   UNL A   1      42.819  24.300  24.850  1.00  0.00    -0.206 F 
ATOM     79  C   UNL A   1      42.365  22.132  25.627  1.00  0.00     0.059 A 
ATOM     80  C   UNL A   1      42.797  21.569  27.948  1.00  0.00     0.059 A 
ATOM     81  F   UNL A   1      43.631  23.206  29.404  1.00  0.00    -0.206 F 
ATOM     82  C   UNL A   1      42.367  21.207  26.672  1.00  0.00     0.060 A 
BRANCH  82  83
ATOM     83  S   UNL A   1      41.842  19.514  26.327  1.00  0.00     0.124 S 
ATOM     84  O   UNL A   1      40.409  19.683  26.120  1.00  0.00    -0.237 OA
ATOM     85  O   UNL A   1      42.625  19.189  25.139  1.00  0.00    -0.237 OA
ATOM     86  O   UNL A   1      42.222  18.789  27.537  1.00  0.00    -0.744 OA
ENDBRANCH  82  83
ENDBRANCH  50  75
BRANCH  62  87
ATOM     87  C   UNL A   1      49.473  26.919  26.239  1.00  0.00     0.058 A 
ATOM     88  C   UNL A   1      50.319  26.169  27.072  1.00  0.00     0.135 A 
ATOM     89  C   UNL A   1      49.892  27.141  24.915  1.00  0.00     0.135 A 
ATOM     90  F   UNL A   1      49.973  25.925  28.346  1.00  0.00    -0.206 F 
ATOM     91  C   UNL A   1      51.546  25.691  26.620  1.00  0.00     0.059 A 
ATOM     92  C   UNL A   1      51.095  26.638  24.432  1.00  0.00     0.059 A 
ATOM     93  F   UNL A   1      49.118  27.837  24.068  1.00  0.00    -0.206 F 
ATOM     94  C   UNL A   1      51.923  25.928  25.297  1.00  0.00     0.060 A 
BRANCH  94  95
ATOM     95  S   UNL A   1      53.507  25.284  24.719  1.00  0.00     0.124 S 
ATOM     96  O   UNL A   1      53.449  25.591  23.294  1.00  0.00    -0.237 OA
ATOM     97  O   UNL A   1      54.463  26.067  25.497  1.00  0.00    -0.237 OA
ATOM     98  O   UNL A   1      53.444  23.866  25.059  1.00  0.00    -0.744 OA
ENDBRANCH  94  95
ENDBRANCH  62  87
ENDBRANCH  36  37
ENDBRANCH  29  31
ENDBRANCH  28  29
ENDBRANCH  27  28
ENDBRANCH  26  27
ENDBRANCH  25  26
ENDBRANCH   1  25
TORSDOF 21
ENDMDL
MODEL 3
REMARK VINA RESULT:     -11.3      1.184      1.994
REMARK SMILES O=C(OCCOCCOCCOC(=O)c1ccc(-c2c3nc(c(-c4c(F)cc(S(=O)(=O)[O-])cc4F)c4ccc([nH]4)c(-c4c(F)cc(S(=O)(=O)[O-])cc4F)c4nc(c(-c5c(F)cc(S(=O)(=O)[O-])cc5F)c5ccc2[nH]5)C=C4)C=C3)cc1)C1=Cc2c(Cl)ccc(Cl)c2O[C@@H]1C(F)(F)F
REMARK SMILES IDX 8 1 7 2 6 3 5 4 4 5 3 6 2 7 1 8 81 9 82 10 92 11 83 12 91 13
REMARK SMILES IDX 84 14 90 15 85 16 86 17 88 18 87 19 89 20 93 21 94 22 95 23
REMARK SMILES IDX 96 24 9 25 10 26 11 27 12 28 13 29 14 30 15 31 16 32 80 33
REMARK SMILES IDX 17 34 79 35 18 36 19 37 20 38 73 39 21 40 78 41 72 42 74 43
REMARK SMILES IDX 22 44 77 45 71 46 70 47 23 49 57 50 36 51 56 52 37 53 40 54
REMARK SMILES IDX 55 55 75 56 38 57 39 58 54 60 76 61 41 62 24 63 25 64 34 65
REMARK SMILES IDX 26 66 27 67 33 68 35 69 28 70 29 71 30 72 31 73 32 74 58 75
REMARK SMILES IDX 59 76 68 77 60 78 61 79 67 80 69 81 62 82 63 83 64 84 65 85
REMARK SMILES IDX 66 86 42 87 43 88 52 89 44 90 45 91 51 92 53 93 46 94 47 95
REMARK SMILES IDX 48 96 49 97 50 98
REMARK H PARENT 74 48 40 59
REMARK Flexibility Score: inf
ROOT
ATOM      1  C   UNL A   1      41.208  21.747  27.569  1.00  0.00     0.188 C 
ENDROOT
BRANCH   1   2
ATOM      2  C   UNL A   1      39.799  22.171  27.125  1.00  0.00     0.188 C 
BRANCH   2   3
ATOM      3  O   UNL A   1      39.309  22.061  25.724  1.00  0.00    -0.376 OA
BRANCH   3   4
ATOM      4  C   UNL A   1      37.773  21.535  25.161  1.00  0.00     0.202 C 
BRANCH   4   5
ATOM      5  C   UNL A   1      35.918  22.655  25.335  1.00  0.00     0.261 C 
BRANCH   5   6
ATOM      6  O   UNL A   1      35.681  24.086  24.893  1.00  0.00    -0.460 OA
BRANCH   6   7
ATOM      7  C   UNL A   1      34.557  24.207  24.171  1.00  0.00     0.338 C 
ATOM      8  O   UNL A   1      34.454  24.370  22.981  1.00  0.00    -0.246 OA
BRANCH   7   9
ATOM      9  C   UNL A   1      33.685  24.582  25.274  1.00  0.00     0.087 C 
ATOM     10  C   UNL A   1      33.874  25.930  25.802  1.00  0.00     0.029 C 
ATOM     11  C   UNL A   1      32.106  23.972  24.375  1.00  0.00     0.316 C 
ATOM     12  C   UNL A   1      32.795  27.336  25.432  1.00  0.00     0.037 A 
ATOM     13  O   UNL A   1      31.004  25.481  23.811  1.00  0.00    -0.474 OA
ATOM     14  C   UNL A   1      33.113  28.605  25.855  1.00  0.00     0.052 A 
ATOM     15  C   UNL A   1      31.411  27.169  24.400  1.00  0.00     0.148 A 
ATOM     16  Cl  UNL A   1      34.502  28.975  26.788  1.00  0.00    -0.084 Cl
ATOM     17  C   UNL A   1      32.247  29.633  25.435  1.00  0.00     0.023 A 
ATOM     18  C   UNL A   1      30.639  28.235  24.017  1.00  0.00     0.083 A 
ATOM     19  C   UNL A   1      31.083  29.457  24.576  1.00  0.00     0.026 A 
ATOM     20  Cl  UNL A   1      29.339  28.197  22.929  1.00  0.00    -0.080 Cl
BRANCH  11  21
ATOM     21  C   UNL A   1      31.868  22.736  25.490  1.00  0.00     0.430 C 
ATOM     22  F   UNL A   1      32.561  22.670  26.622  1.00  0.00    -0.167 F 
ATOM     23  F   UNL A   1      30.559  22.761  25.858  1.00  0.00    -0.167 F 
ATOM     24  F   UNL A   1      32.044  21.502  24.927  1.00  0.00    -0.167 F 
ENDBRANCH  11  21
ENDBRANCH   7   9
ENDBRANCH   6   7
ENDBRANCH   5   6
ENDBRANCH   4   5
ENDBRANCH   3   4
ENDBRANCH   2   3
ENDBRANCH   1   2
BRANCH   1  25
ATOM     25  O   UNL A   1      42.210  21.540  26.610  1.00  0.00    -0.376 OA
BRANCH  25  26
ATOM     26  C   UNL A   1      43.190  22.562  26.508  1.00  0.00     0.202 C 
BRANCH  26  27
ATOM     27  C   UNL A   1      42.967  23.670  25.469  1.00  0.00     0.261 C 
BRANCH  27  28
ATOM     28  O   UNL A   1      41.919  24.596  25.820  1.00  0.00    -0.460 OA
BRANCH  28  29
ATOM     29  C   UNL A   1      42.214  25.917  25.736  1.00  0.00     0.338 C 
ATOM     30  O   UNL A   1      42.387  26.571  24.721  1.00  0.00    -0.246 OA
BRANCH  29  31
ATOM     31  C   UNL A   1      42.160  26.521  27.082  1.00  0.00     0.060 A 
ATOM     32  C   UNL A   1      41.129  26.154  27.961  1.00  0.00     0.016 A 
ATOM     33  C   UNL A   1      43.088  27.496  27.445  1.00  0.00     0.016 A 
ATOM     34  C   UNL A   1      41.026  26.762  29.213  1.00  0.00     0.010 A 
ATOM     35  C   UNL A   1      42.957  28.138  28.678  1.00  0.00     0.010 A 
ATOM     36  C   UNL A   1      41.907  27.797  29.551  1.00  0.00    -0.014 A 
BRANCH  36  37
ATOM     37  C   UNL A   1      41.545  28.726  30.647  1.00  0.00     0.031 A 
ATOM     38  C   UNL A   1      42.367  28.651  31.906  1.00  0.00     0.074 A 
ATOM     39  C   UNL A   1      40.533  29.603  30.542  1.00  0.00     0.049 A 
ATOM     40  N   UNL A   1      42.253  29.321  33.020  1.00  0.00    -0.248 NA
ATOM     41  C   UNL A   1      43.465  27.668  31.903  1.00  0.00     0.031 C 
ATOM     42  C   UNL A   1      39.696  29.794  29.360  1.00  0.00     0.029 A 
ATOM     43  N   UNL A   1      40.038  30.498  31.458  1.00  0.00    -0.354 N 
ATOM     44  C   UNL A   1      43.259  28.840  33.851  1.00  0.00     0.074 A 
ATOM     45  C   UNL A   1      43.945  27.793  33.129  1.00  0.00     0.031 C 
ATOM     46  C   UNL A   1      38.781  30.745  29.627  1.00  0.00     0.029 A 
ATOM     47  C   UNL A   1      38.951  31.208  31.004  1.00  0.00     0.049 A 
ATOM     48  H   UNL A   1      40.423  30.619  32.355  1.00  0.00     0.167 HD
ATOM     49  C   UNL A   1      43.587  29.240  35.101  1.00  0.00     0.037 A 
ATOM     50  C   UNL A   1      38.182  32.116  31.639  1.00  0.00     0.037 A 
ATOM     51  C   UNL A   1      42.874  30.261  35.822  1.00  0.00     0.049 A 
ATOM     52  C   UNL A   1      38.511  32.491  33.065  1.00  0.00     0.074 A 
ATOM     53  C   UNL A   1      43.121  30.751  37.090  1.00  0.00     0.029 A 
ATOM     54  N   UNL A   1      41.755  30.930  35.343  1.00  0.00    -0.354 N 
ATOM     55  N   UNL A   1      39.485  32.056  33.832  1.00  0.00    -0.248 NA
ATOM     56  C   UNL A   1      37.643  33.486  33.707  1.00  0.00     0.031 C 
ATOM     57  C   UNL A   1      42.107  31.659  37.409  1.00  0.00     0.029 A 
ATOM     58  C   UNL A   1      41.280  31.805  36.306  1.00  0.00     0.049 A 
ATOM     59  H   UNL A   1      41.358  30.801  34.452  1.00  0.00     0.167 HD
ATOM     60  C   UNL A   1      39.373  32.758  35.029  1.00  0.00     0.074 A 
ATOM     61  C   UNL A   1      38.237  33.645  34.883  1.00  0.00     0.031 C 
ATOM     62  C   UNL A   1      40.147  32.687  36.143  1.00  0.00     0.037 A 
BRANCH  49  63
ATOM     63  C   UNL A   1      44.728  28.523  35.777  1.00  0.00     0.058 A 
ATOM     64  C   UNL A   1      46.069  28.884  35.564  1.00  0.00     0.135 A 
ATOM     65  C   UNL A   1      44.473  27.441  36.635  1.00  0.00     0.135 A 
ATOM     66  F   UNL A   1      46.376  29.897  34.738  1.00  0.00    -0.206 F 
ATOM     67  C   UNL A   1      47.115  28.166  36.135  1.00  0.00     0.059 A 
ATOM     68  C   UNL A   1      45.503  26.735  37.250  1.00  0.00     0.059 A 
ATOM     69  F   UNL A   1      43.211  27.048  36.874  1.00  0.00    -0.206 F 
ATOM     70  C   UNL A   1      46.822  27.092  36.975  1.00  0.00     0.060 A 
BRANCH  70  71
ATOM     71  S   UNL A   1      48.190  26.159  37.692  1.00  0.00     0.124 S 
ATOM     72  O   UNL A   1      47.656  25.819  39.007  1.00  0.00    -0.237 OA
ATOM     73  O   UNL A   1      48.327  25.046  36.757  1.00  0.00    -0.237 OA
ATOM     74  O   UNL A   1      49.293  27.114  37.692  1.00  0.00    -0.744 OA
ENDBRANCH  70  71
ENDBRANCH  49  63
BRANCH  50  75
ATOM     75  C   UNL A   1      37.037  32.750  30.926  1.00  0.00     0.058 A 
ATOM     76  C   UNL A   1      37.247  33.760  29.973  1.00  0.00     0.135 A 
ATOM     77  C   UNL A   1      35.712  32.354  31.171  1.00  0.00     0.135 A 
ATOM     78  F   UNL A   1      38.491  34.191  29.716  1.00  0.00    -0.206 F 
ATOM     79  C   UNL A   1      36.189  34.352  29.291  1.00  0.00     0.059 A 
ATOM     80  C   UNL A   1      34.640  32.911  30.481  1.00  0.00     0.059 A 
ATOM     81  F   UNL A   1      35.454  31.394  32.072  1.00  0.00    -0.206 F 
ATOM     82  C   UNL A   1      34.888  33.912  29.543  1.00  0.00     0.060 A 
BRANCH  82  83
ATOM     83  S   UNL A   1      33.533  34.637  28.594  1.00  0.00     0.124 S 
ATOM     84  O   UNL A   1      33.195  33.552  27.680  1.00  0.00    -0.237 OA
ATOM     85  O   UNL A   1      32.552  34.922  29.636  1.00  0.00    -0.237 OA
ATOM     86  O   UNL A   1      34.143  35.812  27.978  1.00  0.00    -0.744 OA
ENDBRANCH  82  83
ENDBRANCH  50  75
BRANCH  62  87
ATOM     87  C   UNL A   1      39.839  33.634  37.275  1.00  0.00     0.058 A 
ATOM     88  C   UNL A   1      39.008  33.278  38.350  1.00  0.00     0.135 A 
ATOM     89  C   UNL A   1      40.435  34.907  37.307  1.00  0.00     0.135 A 
ATOM     90  F   UNL A   1      38.411  32.076  38.375  1.00  0.00    -0.206 F 
ATOM     91  C   UNL A   1      38.752  34.162  39.394  1.00  0.00     0.059 A 
ATOM     92  C   UNL A   1      40.225  35.790  38.360  1.00  0.00     0.059 A 
ATOM     93  F   UNL A   1      41.251  35.297  36.315  1.00  0.00    -0.206 F 
ATOM     94  C   UNL A   1      39.368  35.416  39.391  1.00  0.00     0.060 A 
BRANCH  94  95
ATOM     95  S   UNL A   1      39.042  36.543  40.762  1.00  0.00     0.124 S 
ATOM     96  O   UNL A   1      38.714  37.778  40.057  1.00  0.00    -0.237 OA
ATOM     97  O   UNL A   1      37.929  35.889  41.445  1.00  0.00    -0.237 OA
ATOM     98  O   UNL A   1      40.301  36.557  41.501  1.00  0.00    -0.744 OA
ENDBRANCH  94  95
ENDBRANCH  62  87
ENDBRANCH  36  37
ENDBRANCH  29  31
ENDBRANCH  28  29
ENDBRANCH  27  28
ENDBRANCH  26  27
ENDBRANCH  25  26
ENDBRANCH   1  25
TORSDOF 21
ENDMDL
