MODEL 1
REMARK VINA RESULT:     -10.2      0.000      0.000
REMARK SMILES C[C@@H]1[C@H](C(=O)OCCOCCOCCOC(=O)c2ccc(-c3c4nc(c(-c5c(F)cc(S(=O)(=O)[O-])cc5F)c5ccc([nH]5)c(-c5c(F)cc(S(=O)(=O)[O-])cc5F)c5nc(c(-c6c(F)cc(S(=O)(=O)[O-])cc6F)c6ccc3[nH]6)C=C5)C=C4)cc2)CC[N@@H+]1[C@@H](C)c1cc(F)cc(F)c1
REMARK SMILES IDX 11 1 10 2 9 3 8 4 7 5 6 6 4 7 5 8 3 9 1 10 2 11 86 12 84 13
REMARK SMILES IDX 85 14 87 16 88 17 89 18 90 19 96 20 91 21 94 22 92 23 93 24
REMARK SMILES IDX 95 25 12 26 13 27 14 28 15 29 16 30 17 31 18 32 19 33 83 34
REMARK SMILES IDX 20 35 82 36 21 37 22 38 23 39 76 40 24 41 81 42 75 43 77 44
REMARK SMILES IDX 25 45 80 46 74 47 73 48 26 50 60 51 39 52 59 53 40 54 43 55
REMARK SMILES IDX 58 56 78 57 41 58 42 59 57 61 79 62 44 63 27 64 28 65 37 66
REMARK SMILES IDX 29 67 30 68 36 69 38 70 31 71 32 72 33 73 34 74 35 75 61 76
REMARK SMILES IDX 62 77 71 78 63 79 64 80 70 81 72 82 65 83 66 84 67 85 68 86
REMARK SMILES IDX 69 87 45 88 46 89 55 90 47 91 48 92 54 93 56 94 49 95 50 96
REMARK SMILES IDX 51 97 52 98 53 99
REMARK H PARENT 86 15 77 49 43 60
REMARK Flexibility Score: inf
ROOT
ATOM      1  C   UNL A   1      34.481  31.332  28.286  1.00  0.00     0.188 C 
ENDROOT
BRANCH   1   2
ATOM      2  C   UNL A   1      33.734  30.548  27.200  1.00  0.00     0.188 C 
BRANCH   2   3
ATOM      3  O   UNL A   1      32.366  30.828  26.975  1.00  0.00    -0.376 OA
BRANCH   3   4
ATOM      4  C   UNL A   1      31.766  30.282  25.804  1.00  0.00     0.202 C 
BRANCH   4   5
ATOM      5  C   UNL A   1      31.716  28.761  25.656  1.00  0.00     0.261 C 
BRANCH   5   6
ATOM      6  O   UNL A   1      31.283  28.391  24.333  1.00  0.00    -0.463 OA
BRANCH   6   7
ATOM      7  C   UNL A   1      31.006  27.083  24.143  1.00  0.00     0.315 C 
ATOM      8  O   UNL A   1      29.866  26.628  24.171  1.00  0.00    -0.252 OA
BRANCH   7   9
ATOM      9  C   UNL A   1      32.210  26.216  23.803  1.00  0.00     0.162 C 
ATOM     10  C   UNL A   1      32.394  25.214  26.205  1.00  0.00     0.076 C 
ATOM     11  C   UNL A   1      33.019  25.389  24.832  1.00  0.00     0.196 C 
ATOM     12  N   UNL A   1      33.373  24.140  24.125  1.00  0.00    -0.326 N 
ATOM     13  C   UNL A   1      31.730  25.169  22.805  1.00  0.00     0.083 C 
ATOM     14  C   UNL A   1      32.816  24.125  22.784  1.00  0.00     0.264 C 
ATOM     15  H   UNL A   1      34.389  24.213  24.086  1.00  0.00     0.348 HD
BRANCH  12  16
ATOM     16  C   UNL A   1      33.651  22.871  24.801  1.00  0.00     0.212 C 
ATOM     17  C   UNL A   1      33.062  21.625  24.106  1.00  0.00     0.081 C 
BRANCH  16  18
ATOM     18  C   UNL A   1      35.148  22.664  25.092  1.00  0.00     0.015 A 
ATOM     19  C   UNL A   1      35.927  23.641  25.745  1.00  0.00     0.049 A 
ATOM     20  C   UNL A   1      35.792  21.486  24.684  1.00  0.00     0.049 A 
ATOM     21  C   UNL A   1      37.298  23.472  25.911  1.00  0.00     0.126 A 
ATOM     22  C   UNL A   1      37.167  21.330  24.879  1.00  0.00     0.126 A 
ATOM     23  F   UNL A   1      38.011  24.449  26.489  1.00  0.00    -0.207 F 
ATOM     24  C   UNL A   1      37.932  22.324  25.475  1.00  0.00     0.078 A 
ATOM     25  F   UNL A   1      37.768  20.206  24.467  1.00  0.00    -0.207 F 
ENDBRANCH  16  18
ENDBRANCH  12  16
ENDBRANCH   7   9
ENDBRANCH   6   7
ENDBRANCH   5   6
ENDBRANCH   4   5
ENDBRANCH   3   4
ENDBRANCH   2   3
ENDBRANCH   1   2
BRANCH   1  26
ATOM     26  O   UNL A   1      34.669  32.735  28.246  1.00  0.00    -0.376 OA
BRANCH  26  27
ATOM     27  C   UNL A   1      35.438  33.386  29.246  1.00  0.00     0.202 C 
BRANCH  27  28
ATOM     28  C   UNL A   1      35.652  32.756  30.631  1.00  0.00     0.261 C 
BRANCH  28  29
ATOM     29  O   UNL A   1      36.972  32.276  30.878  1.00  0.00    -0.460 OA
BRANCH  29  30
ATOM     30  C   UNL A   1      37.056  30.939  31.108  1.00  0.00     0.338 C 
ATOM     31  O   UNL A   1      36.184  30.211  31.554  1.00  0.00    -0.246 OA
BRANCH  30  32
ATOM     32  C   UNL A   1      38.303  30.451  30.479  1.00  0.00     0.060 A 
ATOM     33  C   UNL A   1      39.350  30.040  31.320  1.00  0.00     0.016 A 
ATOM     34  C   UNL A   1      38.406  30.309  29.095  1.00  0.00     0.016 A 
ATOM     35  C   UNL A   1      40.517  29.510  30.773  1.00  0.00     0.010 A 
ATOM     36  C   UNL A   1      39.584  29.803  28.548  1.00  0.00     0.010 A 
ATOM     37  C   UNL A   1      40.654  29.432  29.381  1.00  0.00    -0.014 A 
BRANCH  37  38
ATOM     38  C   UNL A   1      41.987  29.200  28.781  1.00  0.00     0.031 A 
ATOM     39  C   UNL A   1      42.303  27.803  28.320  1.00  0.00     0.074 A 
ATOM     40  C   UNL A   1      42.895  30.184  28.653  1.00  0.00     0.049 A 
ATOM     41  N   UNL A   1      43.425  27.309  27.872  1.00  0.00    -0.248 NA
ATOM     42  C   UNL A   1      41.198  26.830  28.385  1.00  0.00     0.031 C 
ATOM     43  C   UNL A   1      42.688  31.584  29.014  1.00  0.00     0.029 A 
ATOM     44  N   UNL A   1      44.188  30.141  28.195  1.00  0.00    -0.354 N 
ATOM     45  C   UNL A   1      43.165  25.970  27.607  1.00  0.00     0.074 A 
ATOM     46  C   UNL A   1      41.790  25.720  27.976  1.00  0.00     0.031 C 
ATOM     47  C   UNL A   1      43.824  32.267  28.779  1.00  0.00     0.029 A 
ATOM     48  C   UNL A   1      44.848  31.344  28.289  1.00  0.00     0.049 A 
ATOM     49  H   UNL A   1      44.604  29.326  27.834  1.00  0.00     0.167 HD
ATOM     50  C   UNL A   1      43.996  25.033  27.094  1.00  0.00     0.037 A 
ATOM     51  C   UNL A   1      46.136  31.650  28.033  1.00  0.00     0.037 A 
ATOM     52  C   UNL A   1      45.365  25.287  26.737  1.00  0.00     0.049 A 
ATOM     53  C   UNL A   1      47.070  30.566  27.550  1.00  0.00     0.074 A 
ATOM     54  C   UNL A   1      46.294  24.405  26.214  1.00  0.00     0.029 A 
ATOM     55  N   UNL A   1      46.004  26.510  26.871  1.00  0.00    -0.354 N 
ATOM     56  N   UNL A   1      46.814  29.304  27.298  1.00  0.00    -0.248 NA
ATOM     57  C   UNL A   1      48.471  30.948  27.318  1.00  0.00     0.031 C 
ATOM     58  C   UNL A   1      47.509  25.083  26.077  1.00  0.00     0.029 A 
ATOM     59  C   UNL A   1      47.322  26.402  26.459  1.00  0.00     0.049 A 
ATOM     60  H   UNL A   1      45.583  27.334  27.209  1.00  0.00     0.167 HD
ATOM     61  C   UNL A   1      48.011  28.754  26.843  1.00  0.00     0.074 A 
ATOM     62  C   UNL A   1      48.988  29.822  26.849  1.00  0.00     0.031 C 
ATOM     63  C   UNL A   1      48.277  27.482  26.452  1.00  0.00     0.037 A 
BRANCH  50  64
ATOM     64  C   UNL A   1      43.448  23.648  26.912  1.00  0.00     0.058 A 
ATOM     65  C   UNL A   1      43.131  23.141  25.641  1.00  0.00     0.135 A 
ATOM     66  C   UNL A   1      43.259  22.806  28.019  1.00  0.00     0.135 A 
ATOM     67  F   UNL A   1      43.267  23.913  24.551  1.00  0.00    -0.206 F 
ATOM     68  C   UNL A   1      42.627  21.855  25.477  1.00  0.00     0.059 A 
ATOM     69  C   UNL A   1      42.784  21.506  27.875  1.00  0.00     0.059 A 
ATOM     70  F   UNL A   1      43.535  23.245  29.257  1.00  0.00    -0.206 F 
ATOM     71  C   UNL A   1      42.460  21.044  26.600  1.00  0.00     0.060 A 
BRANCH  71  72
ATOM     72  S   UNL A   1      41.820  19.373  26.367  1.00  0.00     0.124 S 
ATOM     73  O   UNL A   1      40.382  19.618  26.309  1.00  0.00    -0.237 OA
ATOM     74  O   UNL A   1      42.447  18.972  25.112  1.00  0.00    -0.237 OA
ATOM     75  O   UNL A   1      42.287  18.661  27.554  1.00  0.00    -0.744 OA
ENDBRANCH  71  72
ENDBRANCH  50  64
BRANCH  51  76
ATOM     76  C   UNL A   1      46.639  33.036  28.245  1.00  0.00     0.058 A 
ATOM     77  C   UNL A   1      46.636  33.973  27.200  1.00  0.00     0.135 A 
ATOM     78  C   UNL A   1      47.163  33.443  29.482  1.00  0.00     0.135 A 
ATOM     79  F   UNL A   1      46.161  33.630  25.993  1.00  0.00    -0.206 F 
ATOM     80  C   UNL A   1      47.156  35.253  27.365  1.00  0.00     0.059 A 
ATOM     81  C   UNL A   1      47.662  34.727  29.681  1.00  0.00     0.059 A 
ATOM     82  F   UNL A   1      47.184  32.589  30.517  1.00  0.00    -0.206 F 
ATOM     83  C   UNL A   1      47.668  35.621  28.610  1.00  0.00     0.060 A 
BRANCH  83  84
ATOM     84  S   UNL A   1      48.315  37.293  28.822  1.00  0.00     0.124 S 
ATOM     85  O   UNL A   1      49.337  37.346  27.783  1.00  0.00    -0.237 OA
ATOM     86  O   UNL A   1      47.128  38.112  28.592  1.00  0.00    -0.237 OA
ATOM     87  O   UNL A   1      48.809  37.291  30.195  1.00  0.00    -0.744 OA
ENDBRANCH  83  84
ENDBRANCH  51  76
BRANCH  63  88
ATOM     88  C   UNL A   1      49.662  27.179  25.948  1.00  0.00     0.058 A 
ATOM     89  C   UNL A   1      50.683  26.730  26.800  1.00  0.00     0.135 A 
ATOM     90  C   UNL A   1      49.949  27.273  24.575  1.00  0.00     0.135 A 
ATOM     91  F   UNL A   1      50.463  26.626  28.120  1.00  0.00    -0.206 F 
ATOM     92  C   UNL A   1      51.946  26.410  26.313  1.00  0.00     0.059 A 
ATOM     93  C   UNL A   1      51.197  26.928  24.063  1.00  0.00     0.059 A 
ATOM     94  F   UNL A   1      49.006  27.682  23.713  1.00  0.00    -0.206 F 
ATOM     95  C   UNL A   1      52.193  26.508  24.943  1.00  0.00     0.060 A 
BRANCH  95  96
ATOM     96  S   UNL A   1      53.825  26.050  24.321  1.00  0.00     0.124 S 
ATOM     97  O   UNL A   1      53.591  26.007  22.882  1.00  0.00    -0.237 OA
ATOM     98  O   UNL A   1      54.659  27.150  24.796  1.00  0.00    -0.237 OA
ATOM     99  O   UNL A   1      54.081  24.760  24.954  1.00  0.00    -0.744 OA
ENDBRANCH  95  96
ENDBRANCH  63  88
ENDBRANCH  37  38
ENDBRANCH  30  32
ENDBRANCH  29  30
ENDBRANCH  28  29
ENDBRANCH  27  28
ENDBRANCH  26  27
ENDBRANCH   1  26
TORSDOF 22
ENDMDL
MODEL 2
REMARK VINA RESULT:      -9.8      6.616     11.821
REMARK SMILES C[C@@H]1[C@H](C(=O)OCCOCCOCCOC(=O)c2ccc(-c3c4nc(c(-c5c(F)cc(S(=O)(=O)[O-])cc5F)c5ccc([nH]5)c(-c5c(F)cc(S(=O)(=O)[O-])cc5F)c5nc(c(-c6c(F)cc(S(=O)(=O)[O-])cc6F)c6ccc3[nH]6)C=C5)C=C4)cc2)CC[N@@H+]1[C@@H](C)c1cc(F)cc(F)c1
REMARK SMILES IDX 11 1 10 2 9 3 8 4 7 5 6 6 4 7 5 8 3 9 1 10 2 11 86 12 84 13
REMARK SMILES IDX 85 14 87 16 88 17 89 18 90 19 96 20 91 21 94 22 92 23 93 24
REMARK SMILES IDX 95 25 12 26 13 27 14 28 15 29 16 30 17 31 18 32 19 33 83 34
REMARK SMILES IDX 20 35 82 36 21 37 22 38 23 39 76 40 24 41 81 42 75 43 77 44
REMARK SMILES IDX 25 45 80 46 74 47 73 48 26 50 60 51 39 52 59 53 40 54 43 55
REMARK SMILES IDX 58 56 78 57 41 58 42 59 57 61 79 62 44 63 27 64 28 65 37 66
REMARK SMILES IDX 29 67 30 68 36 69 38 70 31 71 32 72 33 73 34 74 35 75 61 76
REMARK SMILES IDX 62 77 71 78 63 79 64 80 70 81 72 82 65 83 66 84 67 85 68 86
REMARK SMILES IDX 69 87 45 88 46 89 55 90 47 91 48 92 54 93 56 94 49 95 50 96
REMARK SMILES IDX 51 97 52 98 53 99
REMARK H PARENT 86 15 77 49 43 60
REMARK Flexibility Score: inf
ROOT
ATOM      1  C   UNL A   1      37.710  22.345  25.021  1.00  0.00     0.188 C 
ENDROOT
BRANCH   1   2
ATOM      2  C   UNL A   1      36.845  23.315  25.836  1.00  0.00     0.188 C 
BRANCH   2   3
ATOM      3  O   UNL A   1      35.688  22.821  26.481  1.00  0.00    -0.376 OA
BRANCH   3   4
ATOM      4  C   UNL A   1      35.237  21.519  26.117  1.00  0.00     0.202 C 
BRANCH   4   5
ATOM      5  C   UNL A   1      33.825  21.374  25.548  1.00  0.00     0.261 C 
BRANCH   5   6
ATOM      6  O   UNL A   1      33.872  21.062  24.142  1.00  0.00    -0.463 OA
BRANCH   6   7
ATOM      7  C   UNL A   1      32.697  21.129  23.481  1.00  0.00     0.315 C 
ATOM      8  O   UNL A   1      31.911  20.187  23.412  1.00  0.00    -0.252 OA
BRANCH   7   9
ATOM      9  C   UNL A   1      32.369  22.494  22.892  1.00  0.00     0.162 C 
ATOM     10  C   UNL A   1      31.054  23.289  25.001  1.00  0.00     0.076 C 
ATOM     11  C   UNL A   1      31.433  23.536  23.551  1.00  0.00     0.196 C 
ATOM     12  N   UNL A   1      32.058  24.845  23.266  1.00  0.00    -0.326 N 
ATOM     13  C   UNL A   1      33.690  23.241  22.752  1.00  0.00     0.083 C 
ATOM     14  C   UNL A   1      33.302  24.680  22.534  1.00  0.00     0.264 C 
ATOM     15  H   UNL A   1      31.352  25.279  22.672  1.00  0.00     0.348 HD
BRANCH  12  16
ATOM     16  C   UNL A   1      31.864  26.039  24.092  1.00  0.00     0.212 C 
ATOM     17  C   UNL A   1      33.151  26.842  24.381  1.00  0.00     0.081 C 
BRANCH  16  18
ATOM     18  C   UNL A   1      30.763  26.968  23.551  1.00  0.00     0.015 A 
ATOM     19  C   UNL A   1      31.054  28.070  22.722  1.00  0.00     0.049 A 
ATOM     20  C   UNL A   1      29.420  26.751  23.897  1.00  0.00     0.049 A 
ATOM     21  C   UNL A   1      30.054  28.951  22.323  1.00  0.00     0.126 A 
ATOM     22  C   UNL A   1      28.430  27.639  23.469  1.00  0.00     0.126 A 
ATOM     23  F   UNL A   1      30.381  30.017  21.579  1.00  0.00    -0.207 F 
ATOM     24  C   UNL A   1      28.738  28.751  22.696  1.00  0.00     0.078 A 
ATOM     25  F   UNL A   1      27.156  27.426  23.823  1.00  0.00    -0.207 F 
ENDBRANCH  16  18
ENDBRANCH  12  16
ENDBRANCH   7   9
ENDBRANCH   6   7
ENDBRANCH   5   6
ENDBRANCH   4   5
ENDBRANCH   3   4
ENDBRANCH   2   3
ENDBRANCH   1   2
BRANCH   1  26
ATOM     26  O   UNL A   1      38.513  21.337  25.607  1.00  0.00    -0.376 OA
BRANCH  26  27
ATOM     27  C   UNL A   1      39.745  21.671  26.229  1.00  0.00     0.202 C 
BRANCH  27  28
ATOM     28  C   UNL A   1      39.953  23.028  26.920  1.00  0.00     0.261 C 
BRANCH  28  29
ATOM     29  O   UNL A   1      41.293  23.297  27.330  1.00  0.00    -0.460 OA
BRANCH  29  30
ATOM     30  C   UNL A   1      41.832  24.427  26.800  1.00  0.00     0.338 C 
ATOM     31  O   UNL A   1      42.322  24.560  25.690  1.00  0.00    -0.246 OA
BRANCH  30  32
ATOM     32  C   UNL A   1      41.490  25.553  27.696  1.00  0.00     0.060 A 
ATOM     33  C   UNL A   1      42.371  26.645  27.749  1.00  0.00     0.016 A 
ATOM     34  C   UNL A   1      40.284  25.577  28.397  1.00  0.00     0.016 A 
ATOM     35  C   UNL A   1      42.056  27.758  28.528  1.00  0.00     0.010 A 
ATOM     36  C   UNL A   1      39.983  26.680  29.196  1.00  0.00     0.010 A 
ATOM     37  C   UNL A   1      40.881  27.758  29.289  1.00  0.00    -0.014 A 
BRANCH  37  38
ATOM     38  C   UNL A   1      40.697  28.756  30.367  1.00  0.00     0.031 A 
ATOM     39  C   UNL A   1      41.569  28.625  31.585  1.00  0.00     0.074 A 
ATOM     40  C   UNL A   1      39.785  29.741  30.282  1.00  0.00     0.049 A 
ATOM     41  N   UNL A   1      41.533  29.287  32.709  1.00  0.00    -0.248 NA
ATOM     42  C   UNL A   1      42.622  27.595  31.524  1.00  0.00     0.031 C 
ATOM     43  C   UNL A   1      38.919  30.001  29.134  1.00  0.00     0.029 A 
ATOM     44  N   UNL A   1      39.428  30.698  31.198  1.00  0.00    -0.354 N 
ATOM     45  C   UNL A   1      42.550  28.753  33.491  1.00  0.00     0.074 A 
ATOM     46  C   UNL A   1      43.164  27.690  32.728  1.00  0.00     0.031 C 
ATOM     47  C   UNL A   1      38.116  31.042  29.423  1.00  0.00     0.029 A 
ATOM     48  C   UNL A   1      38.385  31.495  30.788  1.00  0.00     0.049 A 
ATOM     49  H   UNL A   1      39.876  30.804  32.068  1.00  0.00     0.167 HD
ATOM     50  C   UNL A   1      42.944  29.121  34.732  1.00  0.00     0.037 A 
ATOM     51  C   UNL A   1      37.712  32.456  31.453  1.00  0.00     0.037 A 
ATOM     52  C   UNL A   1      42.324  30.174  35.490  1.00  0.00     0.049 A 
ATOM     53  C   UNL A   1      38.109  32.786  32.872  1.00  0.00     0.074 A 
ATOM     54  C   UNL A   1      42.644  30.621  36.759  1.00  0.00     0.029 A 
ATOM     55  N   UNL A   1      41.254  30.939  35.051  1.00  0.00    -0.354 N 
ATOM     56  N   UNL A   1      39.074  32.279  33.602  1.00  0.00    -0.248 NA
ATOM     57  C   UNL A   1      37.321  33.820  33.561  1.00  0.00     0.031 C 
ATOM     58  C   UNL A   1      41.735  31.627  37.107  1.00  0.00     0.029 A 
ATOM     59  C   UNL A   1      40.888  31.845  36.033  1.00  0.00     0.049 A 
ATOM     60  H   UNL A   1      40.819  30.852  34.171  1.00  0.00     0.167 HD
ATOM     61  C   UNL A   1      39.033  32.958  34.819  1.00  0.00     0.074 A 
ATOM     62  C   UNL A   1      37.952  33.915  34.723  1.00  0.00     0.031 C 
ATOM     63  C   UNL A   1      39.820  32.806  35.913  1.00  0.00     0.037 A 
BRANCH  50  64
ATOM     64  C   UNL A   1      44.083  28.363  35.350  1.00  0.00     0.058 A 
ATOM     65  C   UNL A   1      45.416  28.771  35.185  1.00  0.00     0.135 A 
ATOM     66  C   UNL A   1      43.837  27.227  36.138  1.00  0.00     0.135 A 
ATOM     67  F   UNL A   1      45.709  29.834  34.420  1.00  0.00    -0.206 F 
ATOM     68  C   UNL A   1      46.467  28.067  35.764  1.00  0.00     0.059 A 
ATOM     69  C   UNL A   1      44.871  26.525  36.749  1.00  0.00     0.059 A 
ATOM     70  F   UNL A   1      42.582  26.788  36.318  1.00  0.00    -0.206 F 
ATOM     71  C   UNL A   1      46.185  26.947  36.546  1.00  0.00     0.060 A 
BRANCH  71  72
ATOM     72  S   UNL A   1      47.560  26.055  37.301  1.00  0.00     0.124 S 
ATOM     73  O   UNL A   1      48.701  26.846  36.852  1.00  0.00    -0.237 OA
ATOM     74  O   UNL A   1      47.245  26.145  38.723  1.00  0.00    -0.237 OA
ATOM     75  O   UNL A   1      47.457  24.718  36.722  1.00  0.00    -0.744 OA
ENDBRANCH  71  72
ENDBRANCH  50  64
BRANCH  51  76
ATOM     76  C   UNL A   1      36.578  33.170  30.804  1.00  0.00     0.058 A 
ATOM     77  C   UNL A   1      36.805  34.129  29.805  1.00  0.00     0.135 A 
ATOM     78  C   UNL A   1      35.249  32.936  31.191  1.00  0.00     0.135 A 
ATOM     79  F   UNL A   1      38.058  34.402  29.410  1.00  0.00    -0.206 F 
ATOM     80  C   UNL A   1      35.761  34.847  29.230  1.00  0.00     0.059 A 
ATOM     81  C   UNL A   1      34.185  33.620  30.611  1.00  0.00     0.059 A 
ATOM     82  F   UNL A   1      34.975  32.025  32.138  1.00  0.00    -0.206 F 
ATOM     83  C   UNL A   1      34.453  34.585  29.641  1.00  0.00     0.060 A 
BRANCH  83  84
ATOM     84  S   UNL A   1      33.102  35.503  28.870  1.00  0.00     0.124 S 
ATOM     85  O   UNL A   1      32.449  34.462  28.085  1.00  0.00    -0.237 OA
ATOM     86  O   UNL A   1      32.360  35.988  30.030  1.00  0.00    -0.237 OA
ATOM     87  O   UNL A   1      33.792  36.535  28.101  1.00  0.00    -0.744 OA
ENDBRANCH  83  84
ENDBRANCH  51  76
BRANCH  63  88
ATOM     88  C   UNL A   1      39.582  33.726  37.080  1.00  0.00     0.058 A 
ATOM     89  C   UNL A   1      38.807  33.341  38.185  1.00  0.00     0.135 A 
ATOM     90  C   UNL A   1      40.200  34.988  37.122  1.00  0.00     0.135 A 
ATOM     91  F   UNL A   1      38.192  32.147  38.195  1.00  0.00    -0.206 F 
ATOM     92  C   UNL A   1      38.632  34.183  39.278  1.00  0.00     0.059 A 
ATOM     93  C   UNL A   1      40.063  35.834  38.219  1.00  0.00     0.059 A 
ATOM     94  F   UNL A   1      40.964  35.401  36.099  1.00  0.00    -0.206 F 
ATOM     95  C   UNL A   1      39.267  35.426  39.288  1.00  0.00     0.060 A 
BRANCH  95  96
ATOM     96  S   UNL A   1      39.064  36.492  40.732  1.00  0.00     0.124 S 
ATOM     97  O   UNL A   1      38.482  37.689  40.134  1.00  0.00    -0.237 OA
ATOM     98  O   UNL A   1      38.169  35.706  41.576  1.00  0.00    -0.237 OA
ATOM     99  O   UNL A   1      40.424  36.641  41.240  1.00  0.00    -0.744 OA
ENDBRANCH  95  96
ENDBRANCH  63  88
ENDBRANCH  37  38
ENDBRANCH  30  32
ENDBRANCH  29  30
ENDBRANCH  28  29
ENDBRANCH  27  28
ENDBRANCH  26  27
ENDBRANCH   1  26
TORSDOF 22
ENDMDL
MODEL 3
REMARK VINA RESULT:      -9.7      6.703     11.844
REMARK SMILES C[C@@H]1[C@H](C(=O)OCCOCCOCCOC(=O)c2ccc(-c3c4nc(c(-c5c(F)cc(S(=O)(=O)[O-])cc5F)c5ccc([nH]5)c(-c5c(F)cc(S(=O)(=O)[O-])cc5F)c5nc(c(-c6c(F)cc(S(=O)(=O)[O-])cc6F)c6ccc3[nH]6)C=C5)C=C4)cc2)CC[N@@H+]1[C@@H](C)c1cc(F)cc(F)c1
REMARK SMILES IDX 11 1 10 2 9 3 8 4 7 5 6 6 4 7 5 8 3 9 1 10 2 11 86 12 84 13
REMARK SMILES IDX 85 14 87 16 88 17 89 18 90 19 96 20 91 21 94 22 92 23 93 24
REMARK SMILES IDX 95 25 12 26 13 27 14 28 15 29 16 30 17 31 18 32 19 33 83 34
REMARK SMILES IDX 20 35 82 36 21 37 22 38 23 39 76 40 24 41 81 42 75 43 77 44
REMARK SMILES IDX 25 45 80 46 74 47 73 48 26 50 60 51 39 52 59 53 40 54 43 55
REMARK SMILES IDX 58 56 78 57 41 58 42 59 57 61 79 62 44 63 27 64 28 65 37 66
REMARK SMILES IDX 29 67 30 68 36 69 38 70 31 71 32 72 33 73 34 74 35 75 61 76
REMARK SMILES IDX 62 77 71 78 63 79 64 80 70 81 72 82 65 83 66 84 67 85 68 86
REMARK SMILES IDX 69 87 45 88 46 89 55 90 47 91 48 92 54 93 56 94 49 95 50 96
REMARK SMILES IDX 51 97 52 98 53 99
REMARK H PARENT 86 15 77 49 43 60
REMARK Flexibility Score: inf
ROOT
ATOM      1  C   UNL A   1      36.769  22.716  24.120  1.00  0.00     0.188 C 
ENDROOT
BRANCH   1   2
ATOM      2  C   UNL A   1      35.494  23.476  24.512  1.00  0.00     0.188 C 
BRANCH   2   3
ATOM      3  O   UNL A   1      34.356  22.738  24.911  1.00  0.00    -0.376 OA
BRANCH   3   4
ATOM      4  C   UNL A   1      33.839  21.777  23.995  1.00  0.00     0.202 C 
BRANCH   4   5
ATOM      5  C   UNL A   1      32.644  22.174  23.127  1.00  0.00     0.261 C 
BRANCH   5   6
ATOM      6  O   UNL A   1      32.567  23.606  22.989  1.00  0.00    -0.463 OA
BRANCH   6   7
ATOM      7  C   UNL A   1      31.522  24.205  23.598  1.00  0.00     0.315 C 
ATOM      8  O   UNL A   1      30.352  23.947  23.330  1.00  0.00    -0.252 OA
BRANCH   7   9
ATOM      9  C   UNL A   1      31.898  25.173  24.712  1.00  0.00     0.162 C 
ATOM     10  C   UNL A   1      33.239  26.756  23.129  1.00  0.00     0.076 C 
ATOM     11  C   UNL A   1      32.869  26.367  24.550  1.00  0.00     0.196 C 
ATOM     12  N   UNL A   1      32.290  27.446  25.380  1.00  0.00    -0.326 N 
ATOM     13  C   UNL A   1      30.604  25.829  25.179  1.00  0.00     0.083 C 
ATOM     14  C   UNL A   1      31.042  27.021  25.989  1.00  0.00     0.264 C 
ATOM     15  H   UNL A   1      33.011  27.559  26.092  1.00  0.00     0.348 HD
BRANCH  12  16
ATOM     16  C   UNL A   1      32.527  28.872  25.144  1.00  0.00     0.212 C 
ATOM     17  C   UNL A   1      31.251  29.707  24.905  1.00  0.00     0.081 C 
BRANCH  16  18
ATOM     18  C   UNL A   1      33.396  29.522  26.235  1.00  0.00     0.015 A 
ATOM     19  C   UNL A   1      33.064  30.763  26.816  1.00  0.00     0.049 A 
ATOM     20  C   UNL A   1      34.575  28.896  26.668  1.00  0.00     0.049 A 
ATOM     21  C   UNL A   1      33.914  31.376  27.731  1.00  0.00     0.126 A 
ATOM     22  C   UNL A   1      35.403  29.522  27.602  1.00  0.00     0.126 A 
ATOM     23  F   UNL A   1      33.588  32.581  28.220  1.00  0.00    -0.207 F 
ATOM     24  C   UNL A   1      35.091  30.770  28.127  1.00  0.00     0.078 A 
ATOM     25  F   UNL A   1      36.534  28.918  27.991  1.00  0.00    -0.207 F 
ENDBRANCH  16  18
ENDBRANCH  12  16
ENDBRANCH   7   9
ENDBRANCH   6   7
ENDBRANCH   5   6
ENDBRANCH   4   5
ENDBRANCH   3   4
ENDBRANCH   2   3
ENDBRANCH   1   2
BRANCH   1  26
ATOM     26  O   UNL A   1      37.486  21.884  25.013  1.00  0.00    -0.376 OA
BRANCH  26  27
ATOM     27  C   UNL A   1      38.404  22.447  25.939  1.00  0.00     0.202 C 
BRANCH  27  28
ATOM     28  C   UNL A   1      38.388  23.947  26.273  1.00  0.00     0.261 C 
BRANCH  28  29
ATOM     29  O   UNL A   1      39.344  24.357  27.249  1.00  0.00    -0.460 OA
BRANCH  29  30
ATOM     30  C   UNL A   1      40.081  25.445  26.900  1.00  0.00     0.338 C 
ATOM     31  O   UNL A   1      40.576  25.681  25.810  1.00  0.00    -0.246 OA
BRANCH  30  32
ATOM     32  C   UNL A   1      39.965  26.437  27.991  1.00  0.00     0.060 A 
ATOM     33  C   UNL A   1      40.539  27.704  27.795  1.00  0.00     0.016 A 
ATOM     34  C   UNL A   1      39.226  26.161  29.142  1.00  0.00     0.016 A 
ATOM     35  C   UNL A   1      40.396  28.692  28.768  1.00  0.00     0.010 A 
ATOM     36  C   UNL A   1      39.106  27.143  30.126  1.00  0.00     0.010 A 
ATOM     37  C   UNL A   1      39.716  28.399  29.956  1.00  0.00    -0.014 A 
BRANCH  37  38
ATOM     38  C   UNL A   1      39.845  29.299  31.125  1.00  0.00     0.031 A 
ATOM     39  C   UNL A   1      40.990  29.048  32.066  1.00  0.00     0.074 A 
ATOM     40  C   UNL A   1      38.976  30.299  31.356  1.00  0.00     0.049 A 
ATOM     41  N   UNL A   1      41.261  29.608  33.214  1.00  0.00    -0.248 NA
ATOM     42  C   UNL A   1      41.957  28.014  31.655  1.00  0.00     0.031 C 
ATOM     43  C   UNL A   1      37.859  30.672  30.491  1.00  0.00     0.029 A 
ATOM     44  N   UNL A   1      38.895  31.175  32.409  1.00  0.00    -0.354 N 
ATOM     45  C   UNL A   1      42.423  28.993  33.665  1.00  0.00     0.074 A 
ATOM     46  C   UNL A   1      42.787  27.994  32.685  1.00  0.00     0.031 C 
ATOM     47  C   UNL A   1      37.192  31.694  31.059  1.00  0.00     0.029 A 
ATOM     48  C   UNL A   1      37.811  32.019  32.344  1.00  0.00     0.049 A 
ATOM     49  H   UNL A   1      39.551  31.197  33.142  1.00  0.00     0.167 HD
ATOM     50  C   UNL A   1      43.129  29.244  34.791  1.00  0.00     0.037 A 
ATOM     51  C   UNL A   1      37.361  32.926  33.236  1.00  0.00     0.037 A 
ATOM     52  C   UNL A   1      42.757  30.233  35.766  1.00  0.00     0.049 A 
ATOM     53  C   UNL A   1      38.114  33.123  34.530  1.00  0.00     0.074 A 
ATOM     54  C   UNL A   1      43.401  30.561  36.945  1.00  0.00     0.029 A 
ATOM     55  N   UNL A   1      41.639  31.048  35.678  1.00  0.00    -0.354 N 
ATOM     56  N   UNL A   1      39.213  32.540  34.946  1.00  0.00    -0.248 NA
ATOM     57  C   UNL A   1      37.561  34.101  35.480  1.00  0.00     0.031 C 
ATOM     58  C   UNL A   1      42.646  31.543  37.595  1.00  0.00     0.029 A 
ATOM     59  C   UNL A   1      41.564  31.867  36.792  1.00  0.00     0.049 A 
ATOM     60  H   UNL A   1      40.994  31.046  34.934  1.00  0.00     0.167 HD
ATOM     61  C   UNL A   1      39.503  33.108  36.186  1.00  0.00     0.074 A 
ATOM     62  C   UNL A   1      38.467  34.084  36.447  1.00  0.00     0.031 C 
ATOM     63  C   UNL A   1      40.534  32.849  37.028  1.00  0.00     0.037 A 
BRANCH  50  64
ATOM     64  C   UNL A   1      44.359  28.419  35.035  1.00  0.00     0.058 A 
ATOM     65  C   UNL A   1      44.314  27.228  35.778  1.00  0.00     0.135 A 
ATOM     66  C   UNL A   1      45.597  28.809  34.498  1.00  0.00     0.135 A 
ATOM     67  F   UNL A   1      43.162  26.822  36.336  1.00  0.00    -0.206 F 
ATOM     68  C   UNL A   1      45.456  26.465  35.998  1.00  0.00     0.059 A 
ATOM     69  C   UNL A   1      46.745  28.046  34.681  1.00  0.00     0.059 A 
ATOM     70  F   UNL A   1      45.698  29.945  33.790  1.00  0.00    -0.206 F 
ATOM     71  C   UNL A   1      46.666  26.881  35.442  1.00  0.00     0.060 A 
BRANCH  71  72
ATOM     72  S   UNL A   1      48.135  25.870  35.725  1.00  0.00     0.124 S 
ATOM     73  O   UNL A   1      47.998  24.860  34.680  1.00  0.00    -0.237 OA
ATOM     74  O   UNL A   1      49.215  26.834  35.539  1.00  0.00    -0.237 OA
ATOM     75  O   UNL A   1      47.957  25.386  37.091  1.00  0.00    -0.744 OA
ENDBRANCH  71  72
ENDBRANCH  50  64
BRANCH  51  76
ATOM     76  C   UNL A   1      36.126  33.710  32.957  1.00  0.00     0.058 A 
ATOM     77  C   UNL A   1      36.198  35.028  32.482  1.00  0.00     0.135 A 
ATOM     78  C   UNL A   1      34.851  33.172  33.193  1.00  0.00     0.135 A 
ATOM     79  F   UNL A   1      37.394  35.594  32.255  1.00  0.00    -0.206 F 
ATOM     80  C   UNL A   1      35.055  35.793  32.272  1.00  0.00     0.059 A 
ATOM     81  C   UNL A   1      33.691  33.907  32.963  1.00  0.00     0.059 A 
ATOM     82  F   UNL A   1      34.723  31.914  33.642  1.00  0.00    -0.206 F 
ATOM     83  C   UNL A   1      33.805  35.223  32.517  1.00  0.00     0.060 A 
BRANCH  83  84
ATOM     84  S   UNL A   1      32.327  36.216  32.217  1.00  0.00     0.124 S 
ATOM     85  O   UNL A   1      32.413  37.204  33.286  1.00  0.00    -0.237 OA
ATOM     86  O   UNL A   1      32.563  36.716  30.865  1.00  0.00    -0.237 OA
ATOM     87  O   UNL A   1      31.241  35.248  32.337  1.00  0.00    -0.744 OA
ENDBRANCH  83  84
ENDBRANCH  51  76
BRANCH  63  88
ATOM     88  C   UNL A   1      40.630  33.664  38.290  1.00  0.00     0.058 A 
ATOM     89  C   UNL A   1      41.469  34.785  38.389  1.00  0.00     0.135 A 
ATOM     90  C   UNL A   1      39.815  33.357  39.393  1.00  0.00     0.135 A 
ATOM     91  F   UNL A   1      42.271  35.121  37.366  1.00  0.00    -0.206 F 
ATOM     92  C   UNL A   1      41.515  35.557  39.546  1.00  0.00     0.059 A 
ATOM     93  C   UNL A   1      39.823  34.133  40.548  1.00  0.00     0.059 A 
ATOM     94  F   UNL A   1      38.983  32.304  39.346  1.00  0.00    -0.206 F 
ATOM     95  C   UNL A   1      40.686  35.225  40.618  1.00  0.00     0.060 A 
BRANCH  95  96
ATOM     96  S   UNL A   1      40.727  36.260  42.098  1.00  0.00     0.124 S 
ATOM     97  O   UNL A   1      39.547  37.096  41.907  1.00  0.00    -0.237 OA
ATOM     98  O   UNL A   1      40.639  35.274  43.170  1.00  0.00    -0.237 OA
ATOM     99  O   UNL A   1      42.009  36.951  41.995  1.00  0.00    -0.744 OA
ENDBRANCH  95  96
ENDBRANCH  63  88
ENDBRANCH  37  38
ENDBRANCH  30  32
ENDBRANCH  29  30
ENDBRANCH  28  29
ENDBRANCH  27  28
ENDBRANCH  26  27
ENDBRANCH   1  26
TORSDOF 22
ENDMDL
