MODEL 1
REMARK VINA RESULT:     -10.9      0.000      0.000
REMARK SMILES O=C(OCCOCCOCCOC(=O)[C@H]1CC2(CC[NH+](C(=O)C3CC3)CC2)CN1C(=O)CCn1cccn1)c1ccc(-c2c3nc(c(-c4c(F)cc(S(=O)(=O)[O-])cc4F)c4ccc([nH]4)c(-c4c(F)cc(S(=O)(=O)[O-])cc4F)c4nc(c(-c5c(F)cc(S(=O)(=O)[O-])cc5F)c5ccc2[nH]5)C=C4)C=C3)cc1
REMARK SMILES IDX 8 1 7 2 6 3 5 4 4 5 3 6 2 7 1 8 39 9 40 10 104 11 41 12
REMARK SMILES IDX 103 13 42 14 43 15 44 16 97 17 45 18 102 19 96 20 98 21
REMARK SMILES IDX 46 22 101 23 95 24 94 25 47 27 81 28 60 29 80 30 61 31 64 32
REMARK SMILES IDX 79 33 99 34 62 35 63 36 78 38 100 39 65 40 48 41 49 42 58 43
REMARK SMILES IDX 50 44 51 45 57 46 59 47 52 48 53 49 54 50 55 51 56 52 82 53
REMARK SMILES IDX 83 54 92 55 84 56 85 57 91 58 93 59 86 60 87 61 88 62 89 63
REMARK SMILES IDX 90 64 66 65 67 66 76 67 68 68 69 69 75 70 77 71 70 72 71 73
REMARK SMILES IDX 72 74 73 75 74 76 9 77 10 78 11 79 12 80 13 81 14 82 15 83
REMARK SMILES IDX 16 84 29 85 17 86 28 87 18 88 27 89 19 90 26 91 20 92 30 94
REMARK SMILES IDX 31 95 32 96 33 97 34 98 35 99 38 100 36 101 37 102 21 103
REMARK SMILES IDX 22 104 23 105 24 106 25 107
REMARK H PARENT 98 26 64 37 20 93
REMARK Flexibility Score: inf
ROOT
ATOM      1  C   UNL A   1      37.758  21.797  25.509  1.00  0.00     0.188 C 
ENDROOT
BRANCH   1   2
ATOM      2  C   UNL A   1      39.017  22.423  26.114  1.00  0.00     0.188 C 
BRANCH   2   3
ATOM      3  O   UNL A   1      40.230  21.689  26.194  1.00  0.00    -0.376 OA
BRANCH   3   4
ATOM      4  C   UNL A   1      40.148  20.308  26.490  1.00  0.00     0.202 C 
BRANCH   4   5
ATOM      5  C   UNL A   1      41.203  19.405  25.854  1.00  0.00     0.261 C 
BRANCH   5   6
ATOM      6  O   UNL A   1      42.553  19.748  26.205  1.00  0.00    -0.460 OA
BRANCH   6   7
ATOM      7  C   UNL A   1      43.487  20.505  25.586  1.00  0.00     0.338 C 
ATOM      8  O   UNL A   1      44.202  19.934  24.759  1.00  0.00    -0.246 OA
BRANCH   7   9
ATOM      9  C   UNL A   1      43.802  21.941  25.880  1.00  0.00     0.060 A 
ATOM     10  C   UNL A   1      44.588  22.427  26.924  1.00  0.00     0.016 A 
ATOM     11  C   UNL A   1      43.175  22.881  25.033  1.00  0.00     0.016 A 
ATOM     12  C   UNL A   1      44.540  23.772  27.263  1.00  0.00     0.010 A 
ATOM     13  C   UNL A   1      43.178  24.236  25.328  1.00  0.00     0.010 A 
ATOM     14  C   UNL A   1      43.757  24.651  26.516  1.00  0.00    -0.014 A 
BRANCH  14  15
ATOM     15  C   UNL A   1      43.503  25.971  27.071  1.00  0.00     0.031 A 
ATOM     16  C   UNL A   1      44.521  27.005  26.771  1.00  0.00     0.074 A 
ATOM     17  C   UNL A   1      42.411  26.226  27.820  1.00  0.00     0.049 A 
ATOM     18  N   UNL A   1      45.404  27.508  27.571  1.00  0.00    -0.248 NA
ATOM     19  C   UNL A   1      44.669  27.426  25.373  1.00  0.00     0.031 C 
ATOM     20  C   UNL A   1      41.217  25.392  28.000  1.00  0.00     0.029 A 
ATOM     21  N   UNL A   1      42.106  27.346  28.529  1.00  0.00    -0.354 N 
ATOM     22  C   UNL A   1      46.066  28.489  26.837  1.00  0.00     0.074 A 
ATOM     23  C   UNL A   1      45.709  28.258  25.461  1.00  0.00     0.031 C 
ATOM     24  C   UNL A   1      40.237  26.131  28.566  1.00  0.00     0.029 A 
ATOM     25  C   UNL A   1      40.779  27.427  28.929  1.00  0.00     0.049 A 
ATOM     26  H   UNL A   1      42.771  28.041  28.741  1.00  0.00     0.167 HD
ATOM     27  C   UNL A   1      46.655  29.555  27.451  1.00  0.00     0.037 A 
ATOM     28  C   UNL A   1      40.160  28.507  29.468  1.00  0.00     0.037 A 
ATOM     29  C   UNL A   1      46.862  29.292  28.857  1.00  0.00     0.049 A 
ATOM     30  C   UNL A   1      41.219  29.371  30.052  1.00  0.00     0.074 A 
ATOM     31  C   UNL A   1      47.552  28.337  29.578  1.00  0.00     0.029 A 
ATOM     32  N   UNL A   1      46.012  29.891  29.756  1.00  0.00    -0.354 N 
ATOM     33  N   UNL A   1      41.948  29.029  31.082  1.00  0.00    -0.248 NA
ATOM     34  C   UNL A   1      41.782  30.419  29.214  1.00  0.00     0.031 C 
ATOM     35  C   UNL A   1      46.742  28.082  30.725  1.00  0.00     0.029 A 
ATOM     36  C   UNL A   1      45.642  28.937  30.668  1.00  0.00     0.049 A 
ATOM     37  H   UNL A   1      45.722  30.833  29.747  1.00  0.00     0.167 HD
ATOM     38  C   UNL A   1      43.221  29.495  30.788  1.00  0.00     0.074 A 
ATOM     39  C   UNL A   1      43.037  30.422  29.673  1.00  0.00     0.031 C 
ATOM     40  C   UNL A   1      44.335  28.879  31.287  1.00  0.00     0.037 A 
BRANCH  27  41
ATOM     41  C   UNL A   1      46.673  30.967  26.891  1.00  0.00     0.058 A 
ATOM     42  C   UNL A   1      47.882  31.697  26.922  1.00  0.00     0.135 A 
ATOM     43  C   UNL A   1      45.516  31.736  26.627  1.00  0.00     0.135 A 
ATOM     44  F   UNL A   1      49.055  31.074  27.128  1.00  0.00    -0.206 F 
ATOM     45  C   UNL A   1      47.921  33.090  26.842  1.00  0.00     0.059 A 
ATOM     46  C   UNL A   1      45.540  33.119  26.494  1.00  0.00     0.059 A 
ATOM     47  F   UNL A   1      44.290  31.207  26.576  1.00  0.00    -0.206 F 
ATOM     48  C   UNL A   1      46.736  33.793  26.661  1.00  0.00     0.060 A 
BRANCH  48  49
ATOM     49  S   UNL A   1      46.754  35.591  26.723  1.00  0.00     0.124 S 
ATOM     50  O   UNL A   1      47.793  35.900  25.746  1.00  0.00    -0.237 OA
ATOM     51  O   UNL A   1      45.387  35.921  26.332  1.00  0.00    -0.237 OA
ATOM     52  O   UNL A   1      47.089  35.875  28.115  1.00  0.00    -0.744 OA
ENDBRANCH  48  49
ENDBRANCH  27  41
BRANCH  28  53
ATOM     53  C   UNL A   1      38.783  28.989  29.175  1.00  0.00     0.058 A 
ATOM     54  C   UNL A   1      37.853  29.219  30.203  1.00  0.00     0.135 A 
ATOM     55  C   UNL A   1      38.438  29.497  27.904  1.00  0.00     0.135 A 
ATOM     56  F   UNL A   1      38.107  28.789  31.449  1.00  0.00    -0.206 F 
ATOM     57  C   UNL A   1      36.677  29.950  29.997  1.00  0.00     0.059 A 
ATOM     58  C   UNL A   1      37.268  30.218  27.672  1.00  0.00     0.059 A 
ATOM     59  F   UNL A   1      39.275  29.388  26.862  1.00  0.00    -0.206 F 
ATOM     60  C   UNL A   1      36.403  30.463  28.730  1.00  0.00     0.060 A 
BRANCH  60  61
ATOM     61  S   UNL A   1      34.978  31.552  28.495  1.00  0.00     0.124 S 
ATOM     62  O   UNL A   1      35.509  32.549  27.572  1.00  0.00    -0.237 OA
ATOM     63  O   UNL A   1      33.980  30.641  27.945  1.00  0.00    -0.237 OA
ATOM     64  O   UNL A   1      34.696  32.038  29.843  1.00  0.00    -0.744 OA
ENDBRANCH  60  61
ENDBRANCH  28  53
BRANCH  40  65
ATOM     65  C   UNL A   1      44.166  27.887  32.407  1.00  0.00     0.058 A 
ATOM     66  C   UNL A   1      44.006  28.236  33.760  1.00  0.00     0.135 A 
ATOM     67  C   UNL A   1      43.994  26.536  32.071  1.00  0.00     0.135 A 
ATOM     68  F   UNL A   1      44.047  29.517  34.153  1.00  0.00    -0.206 F 
ATOM     69  C   UNL A   1      43.723  27.278  34.737  1.00  0.00     0.059 A 
ATOM     70  C   UNL A   1      43.681  25.569  33.023  1.00  0.00     0.059 A 
ATOM     71  F   UNL A   1      44.071  26.148  30.786  1.00  0.00    -0.206 F 
ATOM     72  C   UNL A   1      43.557  25.947  34.358  1.00  0.00     0.060 A 
BRANCH  72  73
ATOM     73  S   UNL A   1      43.098  24.726  35.607  1.00  0.00     0.124 S 
ATOM     74  O   UNL A   1      44.377  24.093  35.906  1.00  0.00    -0.237 OA
ATOM     75  O   UNL A   1      42.537  25.557  36.670  1.00  0.00    -0.237 OA
ATOM     76  O   UNL A   1      42.128  23.879  34.917  1.00  0.00    -0.744 OA
ENDBRANCH  72  73
ENDBRANCH  40  65
ENDBRANCH  14  15
ENDBRANCH   7   9
ENDBRANCH   6   7
ENDBRANCH   5   6
ENDBRANCH   4   5
ENDBRANCH   3   4
ENDBRANCH   2   3
ENDBRANCH   1   2
BRANCH   1  77
ATOM     77  O   UNL A   1      36.659  22.712  25.388  1.00  0.00    -0.376 OA
BRANCH  77  78
ATOM     78  C   UNL A   1      36.536  23.350  24.121  1.00  0.00     0.202 C 
BRANCH  78  79
ATOM     79  C   UNL A   1      35.269  24.220  24.037  1.00  0.00     0.261 C 
BRANCH  79  80
ATOM     80  O   UNL A   1      34.606  24.229  22.742  1.00  0.00    -0.462 OA
BRANCH  80  81
ATOM     81  C   UNL A   1      33.787  25.290  22.568  1.00  0.00     0.328 C 
ATOM     82  O   UNL A   1      33.814  25.958  21.530  1.00  0.00    -0.250 OA
BRANCH  81  83
ATOM     83  C   UNL A   1      32.829  25.693  23.738  1.00  0.00     0.195 C 
ATOM     84  C   UNL A   1      31.997  26.883  23.241  1.00  0.00     0.046 C 
ATOM     85  N   UNL A   1      31.957  25.221  24.843  1.00  0.00    -0.328 N 
ATOM     86  C   UNL A   1      31.202  27.402  24.471  1.00  0.00     0.001 C 
ATOM     87  C   UNL A   1      31.613  26.430  25.601  1.00  0.00     0.128 C 
ATOM     88  C   UNL A   1      29.677  27.331  24.230  1.00  0.00     0.071 C 
ATOM     89  C   UNL A   1      31.578  28.860  24.760  1.00  0.00     0.071 C 
ATOM     90  C   UNL A   1      29.209  28.295  23.146  1.00  0.00     0.270 C 
ATOM     91  C   UNL A   1      31.104  29.783  23.630  1.00  0.00     0.270 C 
ATOM     92  N   UNL A   1      29.662  29.660  23.412  1.00  0.00    -0.272 N 
ATOM     93  H   UNL A   1      29.841  29.210  22.555  1.00  0.00     0.356 HD
BRANCH  85  94
ATOM     94  C   UNL A   1      30.948  24.263  24.861  1.00  0.00     0.225 C 
ATOM     95  O   UNL A   1      30.482  23.767  23.831  1.00  0.00    -0.275 OA
BRANCH  94  96
ATOM     96  C   UNL A   1      30.373  23.833  26.165  1.00  0.00     0.124 C 
BRANCH  96  97
ATOM     97  C   UNL A   1      30.538  22.347  26.443  1.00  0.00     0.154 C 
BRANCH  97  98
ATOM     98  N   UNL A   1      31.932  21.935  26.496  1.00  0.00    -0.272 N 
ATOM     99  C   UNL A   1      32.592  21.193  25.560  1.00  0.00     0.108 A 
ATOM    100  N   UNL A   1      32.728  22.297  27.521  1.00  0.00    -0.182 NA
ATOM    101  C   UNL A   1      33.867  21.005  26.024  1.00  0.00     0.042 A 
ATOM    102  C   UNL A   1      33.907  21.743  27.218  1.00  0.00     0.135 A 
ENDBRANCH  97  98
ENDBRANCH  96  97
ENDBRANCH  94  96
ENDBRANCH  85  94
BRANCH  92 103
ATOM    103  C   UNL A   1      28.925  30.839  23.336  1.00  0.00     0.315 C 
ATOM    104  O   UNL A   1      28.979  31.671  24.247  1.00  0.00    -0.231 OA
BRANCH 103 105
ATOM    105  C   UNL A   1      27.984  31.186  22.230  1.00  0.00     0.119 C 
ATOM    106  C   UNL A   1      28.220  32.026  21.009  1.00  0.00     0.019 C 
ATOM    107  C   UNL A   1      28.040  30.534  20.874  1.00  0.00     0.019 C 
ENDBRANCH 103 105
ENDBRANCH  92 103
ENDBRANCH  81  83
ENDBRANCH  80  81
ENDBRANCH  79  80
ENDBRANCH  78  79
ENDBRANCH  77  78
ENDBRANCH   1  77
TORSDOF 26
ENDMDL
MODEL 2
REMARK VINA RESULT:     -10.0      2.419      4.647
REMARK SMILES O=C(OCCOCCOCCOC(=O)[C@H]1CC2(CC[NH+](C(=O)C3CC3)CC2)CN1C(=O)CCn1cccn1)c1ccc(-c2c3nc(c(-c4c(F)cc(S(=O)(=O)[O-])cc4F)c4ccc([nH]4)c(-c4c(F)cc(S(=O)(=O)[O-])cc4F)c4nc(c(-c5c(F)cc(S(=O)(=O)[O-])cc5F)c5ccc2[nH]5)C=C4)C=C3)cc1
REMARK SMILES IDX 8 1 7 2 6 3 5 4 4 5 3 6 2 7 1 8 39 9 40 10 104 11 41 12
REMARK SMILES IDX 103 13 42 14 43 15 44 16 97 17 45 18 102 19 96 20 98 21
REMARK SMILES IDX 46 22 101 23 95 24 94 25 47 27 81 28 60 29 80 30 61 31 64 32
REMARK SMILES IDX 79 33 99 34 62 35 63 36 78 38 100 39 65 40 48 41 49 42 58 43
REMARK SMILES IDX 50 44 51 45 57 46 59 47 52 48 53 49 54 50 55 51 56 52 82 53
REMARK SMILES IDX 83 54 92 55 84 56 85 57 91 58 93 59 86 60 87 61 88 62 89 63
REMARK SMILES IDX 90 64 66 65 67 66 76 67 68 68 69 69 75 70 77 71 70 72 71 73
REMARK SMILES IDX 72 74 73 75 74 76 9 77 10 78 11 79 12 80 13 81 14 82 15 83
REMARK SMILES IDX 16 84 29 85 17 86 28 87 18 88 27 89 19 90 26 91 20 92 30 94
REMARK SMILES IDX 31 95 32 96 33 97 34 98 35 99 38 100 36 101 37 102 21 103
REMARK SMILES IDX 22 104 23 105 24 106 25 107
REMARK H PARENT 98 26 64 37 20 93
REMARK Flexibility Score: inf
ROOT
ATOM      1  C   UNL A   1      34.569  22.043  24.752  1.00  0.00     0.188 C 
ENDROOT
BRANCH   1   2
ATOM      2  C   UNL A   1      34.980  20.601  25.057  1.00  0.00     0.188 C 
BRANCH   2   3
ATOM      3  O   UNL A   1      36.333  20.186  24.934  1.00  0.00    -0.376 OA
BRANCH   3   4
ATOM      4  C   UNL A   1      37.324  21.189  24.824  1.00  0.00     0.202 C 
BRANCH   4   5
ATOM      5  C   UNL A   1      38.519  21.081  25.769  1.00  0.00     0.261 C 
BRANCH   5   6
ATOM      6  O   UNL A   1      39.248  22.307  25.932  1.00  0.00    -0.460 OA
BRANCH   6   7
ATOM      7  C   UNL A   1      38.930  23.481  26.523  1.00  0.00     0.338 C 
ATOM      8  O   UNL A   1      37.731  23.769  26.568  1.00  0.00    -0.246 OA
BRANCH   7   9
ATOM      9  C   UNL A   1      39.896  24.506  27.036  1.00  0.00     0.060 A 
ATOM     10  C   UNL A   1      40.722  24.390  28.152  1.00  0.00     0.016 A 
ATOM     11  C   UNL A   1      39.906  25.731  26.333  1.00  0.00     0.016 A 
ATOM     12  C   UNL A   1      41.326  25.518  28.691  1.00  0.00     0.010 A 
ATOM     13  C   UNL A   1      40.563  26.845  26.829  1.00  0.00     0.010 A 
ATOM     14  C   UNL A   1      41.163  26.757  28.075  1.00  0.00    -0.014 A 
BRANCH  14  15
ATOM     15  C   UNL A   1      41.558  27.941  28.820  1.00  0.00     0.031 A 
ATOM     16  C   UNL A   1      42.789  28.619  28.351  1.00  0.00     0.074 A 
ATOM     17  C   UNL A   1      40.848  28.382  29.878  1.00  0.00     0.049 A 
ATOM     18  N   UNL A   1      43.956  28.625  28.908  1.00  0.00    -0.248 NA
ATOM     19  C   UNL A   1      42.755  29.247  27.024  1.00  0.00     0.031 C 
ATOM     20  C   UNL A   1      39.506  27.972  30.307  1.00  0.00     0.029 A 
ATOM     21  N   UNL A   1      41.158  29.367  30.763  1.00  0.00    -0.354 N 
ATOM     22  C   UNL A   1      44.747  29.462  28.124  1.00  0.00     0.074 A 
ATOM     23  C   UNL A   1      44.020  29.651  26.896  1.00  0.00     0.031 C 
ATOM     24  C   UNL A   1      39.034  28.859  31.211  1.00  0.00     0.029 A 
ATOM     25  C   UNL A   1      40.091  29.798  31.539  1.00  0.00     0.049 A 
ATOM     26  H   UNL A   1      42.064  29.744  30.846  1.00  0.00     0.167 HD
ATOM     27  C   UNL A   1      45.817  30.121  28.652  1.00  0.00     0.037 A 
ATOM     28  C   UNL A   1      40.064  30.886  32.349  1.00  0.00     0.037 A 
ATOM     29  C   UNL A   1      46.232  29.520  29.898  1.00  0.00     0.049 A 
ATOM     30  C   UNL A   1      41.475  31.211  32.689  1.00  0.00     0.074 A 
ATOM     31  C   UNL A   1      46.661  28.264  30.279  1.00  0.00     0.029 A 
ATOM     32  N   UNL A   1      45.902  30.166  31.066  1.00  0.00    -0.354 N 
ATOM     33  N   UNL A   1      42.240  30.442  33.418  1.00  0.00    -0.248 NA
ATOM     34  C   UNL A   1      42.178  32.163  31.843  1.00  0.00     0.031 C 
ATOM     35  C   UNL A   1      46.106  28.059  31.577  1.00  0.00     0.029 A 
ATOM     36  C   UNL A   1      45.426  29.222  31.937  1.00  0.00     0.049 A 
ATOM     37  H   UNL A   1      45.993  31.131  31.244  1.00  0.00     0.167 HD
ATOM     38  C   UNL A   1      43.489  30.511  32.818  1.00  0.00     0.074 A 
ATOM     39  C   UNL A   1      43.412  31.655  31.912  1.00  0.00     0.031 C 
ATOM     40  C   UNL A   1      44.374  29.473  32.900  1.00  0.00     0.037 A 
BRANCH  27  41
ATOM     41  C   UNL A   1      46.232  31.532  28.268  1.00  0.00     0.058 A 
ATOM     42  C   UNL A   1      45.291  32.578  28.401  1.00  0.00     0.135 A 
ATOM     43  C   UNL A   1      47.371  31.846  27.493  1.00  0.00     0.135 A 
ATOM     44  F   UNL A   1      44.183  32.415  29.144  1.00  0.00    -0.206 F 
ATOM     45  C   UNL A   1      45.404  33.782  27.705  1.00  0.00     0.059 A 
ATOM     46  C   UNL A   1      47.527  33.059  26.832  1.00  0.00     0.059 A 
ATOM     47  F   UNL A   1      48.350  30.969  27.256  1.00  0.00    -0.206 F 
ATOM     48  C   UNL A   1      46.513  33.997  26.895  1.00  0.00     0.060 A 
BRANCH  48  49
ATOM     49  S   UNL A   1      46.588  35.472  25.867  1.00  0.00     0.124 S 
ATOM     50  O   UNL A   1      45.465  36.242  26.390  1.00  0.00    -0.237 OA
ATOM     51  O   UNL A   1      47.918  35.987  26.173  1.00  0.00    -0.237 OA
ATOM     52  O   UNL A   1      46.420  34.946  24.515  1.00  0.00    -0.744 OA
ENDBRANCH  48  49
ENDBRANCH  27  41
BRANCH  28  53
ATOM     53  C   UNL A   1      38.941  31.845  32.524  1.00  0.00     0.058 A 
ATOM     54  C   UNL A   1      38.388  32.533  31.431  1.00  0.00     0.135 A 
ATOM     55  C   UNL A   1      38.205  31.901  33.727  1.00  0.00     0.135 A 
ATOM     56  F   UNL A   1      39.009  32.518  30.241  1.00  0.00    -0.206 F 
ATOM     57  C   UNL A   1      37.156  33.194  31.509  1.00  0.00     0.059 A 
ATOM     58  C   UNL A   1      36.982  32.562  33.833  1.00  0.00     0.059 A 
ATOM     59  F   UNL A   1      38.606  31.234  34.819  1.00  0.00    -0.206 F 
ATOM     60  C   UNL A   1      36.451  33.186  32.712  1.00  0.00     0.060 A 
BRANCH  60  61
ATOM     61  S   UNL A   1      34.784  33.887  32.776  1.00  0.00     0.124 S 
ATOM     62  O   UNL A   1      34.668  34.260  34.182  1.00  0.00    -0.237 OA
ATOM     63  O   UNL A   1      34.876  34.992  31.828  1.00  0.00    -0.237 OA
ATOM     64  O   UNL A   1      33.933  32.777  32.354  1.00  0.00    -0.744 OA
ENDBRANCH  60  61
ENDBRANCH  28  53
BRANCH  40  65
ATOM     65  C   UNL A   1      44.112  28.383  33.906  1.00  0.00     0.058 A 
ATOM     66  C   UNL A   1      44.492  28.442  35.259  1.00  0.00     0.135 A 
ATOM     67  C   UNL A   1      43.296  27.310  33.518  1.00  0.00     0.135 A 
ATOM     68  F   UNL A   1      45.181  29.488  35.737  1.00  0.00    -0.206 F 
ATOM     69  C   UNL A   1      44.107  27.459  36.173  1.00  0.00     0.059 A 
ATOM     70  C   UNL A   1      42.875  26.335  34.419  1.00  0.00     0.059 A 
ATOM     71  F   UNL A   1      42.847  27.230  32.254  1.00  0.00    -0.206 F 
ATOM     72  C   UNL A   1      43.293  26.411  35.745  1.00  0.00     0.060 A 
BRANCH  72  73
ATOM     73  S   UNL A   1      42.718  25.194  36.949  1.00  0.00     0.124 S 
ATOM     74  O   UNL A   1      42.019  24.231  36.105  1.00  0.00    -0.237 OA
ATOM     75  O   UNL A   1      43.966  24.726  37.546  1.00  0.00    -0.237 OA
ATOM     76  O   UNL A   1      41.866  25.973  37.843  1.00  0.00    -0.744 OA
ENDBRANCH  72  73
ENDBRANCH  40  65
ENDBRANCH  14  15
ENDBRANCH   7   9
ENDBRANCH   6   7
ENDBRANCH   5   6
ENDBRANCH   4   5
ENDBRANCH   3   4
ENDBRANCH   2   3
ENDBRANCH   1   2
BRANCH   1  77
ATOM     77  O   UNL A   1      33.773  22.179  23.566  1.00  0.00    -0.376 OA
BRANCH  77  78
ATOM     78  C   UNL A   1      34.031  23.345  22.791  1.00  0.00     0.202 C 
BRANCH  78  79
ATOM     79  C   UNL A   1      32.740  23.940  22.199  1.00  0.00     0.261 C 
BRANCH  79  80
ATOM     80  O   UNL A   1      32.926  25.094  21.335  1.00  0.00    -0.462 OA
BRANCH  80  81
ATOM     81  C   UNL A   1      33.172  26.237  22.015  1.00  0.00     0.328 C 
ATOM     82  O   UNL A   1      33.944  27.094  21.574  1.00  0.00    -0.250 OA
BRANCH  81  83
ATOM     83  C   UNL A   1      32.492  26.435  23.410  1.00  0.00     0.195 C 
ATOM     84  C   UNL A   1      33.148  27.665  24.054  1.00  0.00     0.046 C 
ATOM     85  N   UNL A   1      31.229  26.388  24.191  1.00  0.00    -0.328 N 
ATOM     86  C   UNL A   1      32.616  27.729  25.512  1.00  0.00     0.001 C 
ATOM     87  C   UNL A   1      31.642  26.530  25.592  1.00  0.00     0.128 C 
ATOM     88  C   UNL A   1      31.862  29.052  25.781  1.00  0.00     0.071 C 
ATOM     89  C   UNL A   1      33.783  27.628  26.500  1.00  0.00     0.071 C 
ATOM     90  C   UNL A   1      32.781  30.267  25.747  1.00  0.00     0.270 C 
ATOM     91  C   UNL A   1      34.687  28.864  26.410  1.00  0.00     0.270 C 
ATOM     92  N   UNL A   1      33.929  30.095  26.637  1.00  0.00    -0.272 N 
ATOM     93  H   UNL A   1      34.038  30.325  25.686  1.00  0.00     0.356 HD
BRANCH  85  94
ATOM     94  C   UNL A   1      29.978  26.939  23.934  1.00  0.00     0.225 C 
ATOM     95  O   UNL A   1      28.936  26.475  24.403  1.00  0.00    -0.275 OA
BRANCH  94  96
ATOM     96  C   UNL A   1      29.872  28.117  23.029  1.00  0.00     0.124 C 
BRANCH  96  97
ATOM     97  C   UNL A   1      28.450  28.627  22.857  1.00  0.00     0.154 C 
BRANCH  97  98
ATOM     98  N   UNL A   1      28.398  29.995  22.364  1.00  0.00    -0.272 N 
ATOM     99  C   UNL A   1      28.682  31.123  23.078  1.00  0.00     0.108 A 
ATOM    100  N   UNL A   1      28.071  30.264  21.085  1.00  0.00    -0.182 NA
ATOM    101  C   UNL A   1      28.469  32.189  22.244  1.00  0.00     0.042 A 
ATOM    102  C   UNL A   1      28.134  31.598  21.015  1.00  0.00     0.135 A 
ENDBRANCH  97  98
ENDBRANCH  96  97
ENDBRANCH  94  96
ENDBRANCH  85  94
BRANCH  92 103
ATOM    103  C   UNL A   1      34.455  31.010  27.545  1.00  0.00     0.315 C 
ATOM    104  O   UNL A   1      35.645  30.954  27.871  1.00  0.00    -0.231 OA
BRANCH 103 105
ATOM    105  C   UNL A   1      33.666  32.068  28.244  1.00  0.00     0.119 C 
ATOM    106  C   UNL A   1      34.145  33.313  28.930  1.00  0.00     0.019 C 
ATOM    107  C   UNL A   1      33.382  33.414  27.632  1.00  0.00     0.019 C 
ENDBRANCH 103 105
ENDBRANCH  92 103
ENDBRANCH  81  83
ENDBRANCH  80  81
ENDBRANCH  79  80
ENDBRANCH  78  79
ENDBRANCH  77  78
ENDBRANCH   1  77
TORSDOF 26
ENDMDL
MODEL 3
REMARK VINA RESULT:      -9.8      2.794      8.800
REMARK SMILES O=C(OCCOCCOCCOC(=O)[C@H]1CC2(CC[NH+](C(=O)C3CC3)CC2)CN1C(=O)CCn1cccn1)c1ccc(-c2c3nc(c(-c4c(F)cc(S(=O)(=O)[O-])cc4F)c4ccc([nH]4)c(-c4c(F)cc(S(=O)(=O)[O-])cc4F)c4nc(c(-c5c(F)cc(S(=O)(=O)[O-])cc5F)c5ccc2[nH]5)C=C4)C=C3)cc1
REMARK SMILES IDX 8 1 7 2 6 3 5 4 4 5 3 6 2 7 1 8 39 9 40 10 104 11 41 12
REMARK SMILES IDX 103 13 42 14 43 15 44 16 97 17 45 18 102 19 96 20 98 21
REMARK SMILES IDX 46 22 101 23 95 24 94 25 47 27 81 28 60 29 80 30 61 31 64 32
REMARK SMILES IDX 79 33 99 34 62 35 63 36 78 38 100 39 65 40 48 41 49 42 58 43
REMARK SMILES IDX 50 44 51 45 57 46 59 47 52 48 53 49 54 50 55 51 56 52 82 53
REMARK SMILES IDX 83 54 92 55 84 56 85 57 91 58 93 59 86 60 87 61 88 62 89 63
REMARK SMILES IDX 90 64 66 65 67 66 76 67 68 68 69 69 75 70 77 71 70 72 71 73
REMARK SMILES IDX 72 74 73 75 74 76 9 77 10 78 11 79 12 80 13 81 14 82 15 83
REMARK SMILES IDX 16 84 29 85 17 86 28 87 18 88 27 89 19 90 26 91 20 92 30 94
REMARK SMILES IDX 31 95 32 96 33 97 34 98 35 99 38 100 36 101 37 102 21 103
REMARK SMILES IDX 22 104 23 105 24 106 25 107
REMARK H PARENT 98 26 64 37 20 93
REMARK Flexibility Score: inf
ROOT
ATOM      1  C   UNL A   1      31.844  30.077  26.672  1.00  0.00     0.188 C 
ENDROOT
BRANCH   1   2
ATOM      2  C   UNL A   1      33.324  30.456  26.763  1.00  0.00     0.188 C 
BRANCH   2   3
ATOM      3  O   UNL A   1      33.875  30.962  27.971  1.00  0.00    -0.376 OA
BRANCH   3   4
ATOM      4  C   UNL A   1      34.687  32.118  27.894  1.00  0.00     0.202 C 
BRANCH   4   5
ATOM      5  C   UNL A   1      34.492  33.168  28.986  1.00  0.00     0.261 C 
BRANCH   5   6
ATOM      6  O   UNL A   1      34.880  32.729  30.296  1.00  0.00    -0.460 OA
BRANCH   6   7
ATOM      7  C   UNL A   1      35.970  32.987  31.054  1.00  0.00     0.338 C 
ATOM      8  O   UNL A   1      36.075  34.134  31.497  1.00  0.00    -0.246 OA
BRANCH   7   9
ATOM      9  C   UNL A   1      37.106  32.047  31.324  1.00  0.00     0.060 A 
ATOM     10  C   UNL A   1      37.860  31.962  32.493  1.00  0.00     0.016 A 
ATOM     11  C   UNL A   1      37.469  31.214  30.242  1.00  0.00     0.016 A 
ATOM     12  C   UNL A   1      39.067  31.276  32.494  1.00  0.00     0.010 A 
ATOM     13  C   UNL A   1      38.640  30.473  30.261  1.00  0.00     0.010 A 
ATOM     14  C   UNL A   1      39.493  30.614  31.344  1.00  0.00    -0.014 A 
BRANCH  14  15
ATOM     15  C   UNL A   1      40.875  30.166  31.293  1.00  0.00     0.031 A 
ATOM     16  C   UNL A   1      41.787  30.975  30.451  1.00  0.00     0.074 A 
ATOM     17  C   UNL A   1      41.290  29.072  31.964  1.00  0.00     0.049 A 
ATOM     18  N   UNL A   1      42.284  30.671  29.297  1.00  0.00    -0.248 NA
ATOM     19  C   UNL A   1      42.064  32.351  30.880  1.00  0.00     0.031 C 
ATOM     20  C   UNL A   1      40.581  28.322  33.007  1.00  0.00     0.029 A 
ATOM     21  N   UNL A   1      42.492  28.438  31.902  1.00  0.00    -0.354 N 
ATOM     22  C   UNL A   1      43.135  31.723  28.962  1.00  0.00     0.074 A 
ATOM     23  C   UNL A   1      42.808  32.795  29.866  1.00  0.00     0.031 C 
ATOM     24  C   UNL A   1      41.449  27.497  33.634  1.00  0.00     0.029 A 
ATOM     25  C   UNL A   1      42.722  27.544  32.939  1.00  0.00     0.049 A 
ATOM     26  H   UNL A   1      43.145  28.601  31.184  1.00  0.00     0.167 HD
ATOM     27  C   UNL A   1      44.198  31.534  28.129  1.00  0.00     0.037 A 
ATOM     28  C   UNL A   1      43.896  26.932  33.237  1.00  0.00     0.037 A 
ATOM     29  C   UNL A   1      44.049  30.316  27.367  1.00  0.00     0.049 A 
ATOM     30  C   UNL A   1      44.717  26.939  31.997  1.00  0.00     0.074 A 
ATOM     31  C   UNL A   1      43.110  29.830  26.479  1.00  0.00     0.029 A 
ATOM     32  N   UNL A   1      44.798  29.225  27.744  1.00  0.00    -0.354 N 
ATOM     33  N   UNL A   1      44.411  26.263  30.921  1.00  0.00    -0.248 NA
ATOM     34  C   UNL A   1      45.632  28.051  31.792  1.00  0.00     0.031 C 
ATOM     35  C   UNL A   1      43.031  28.431  26.749  1.00  0.00     0.029 A 
ATOM     36  C   UNL A   1      43.968  28.136  27.739  1.00  0.00     0.049 A 
ATOM     37  H   UNL A   1      45.756  29.227  27.973  1.00  0.00     0.167 HD
ATOM     38  C   UNL A   1      44.737  27.105  29.867  1.00  0.00     0.074 A 
ATOM     39  C   UNL A   1      45.570  28.149  30.461  1.00  0.00     0.031 C 
ATOM     40  C   UNL A   1      44.078  27.035  28.672  1.00  0.00     0.037 A 
BRANCH  27  41
ATOM     41  C   UNL A   1      45.546  32.216  28.290  1.00  0.00     0.058 A 
ATOM     42  C   UNL A   1      46.173  32.763  27.148  1.00  0.00     0.135 A 
ATOM     43  C   UNL A   1      46.380  32.079  29.423  1.00  0.00     0.135 A 
ATOM     44  F   UNL A   1      45.477  32.978  26.019  1.00  0.00    -0.206 F 
ATOM     45  C   UNL A   1      47.545  33.017  27.093  1.00  0.00     0.059 A 
ATOM     46  C   UNL A   1      47.739  32.373  29.404  1.00  0.00     0.059 A 
ATOM     47  F   UNL A   1      45.952  31.566  30.580  1.00  0.00    -0.206 F 
ATOM     48  C   UNL A   1      48.324  32.784  28.221  1.00  0.00     0.060 A 
BRANCH  48  49
ATOM     49  S   UNL A   1      50.112  32.948  28.111  1.00  0.00     0.124 S 
ATOM     50  O   UNL A   1      50.240  34.097  27.220  1.00  0.00    -0.237 OA
ATOM     51  O   UNL A   1      50.481  33.173  29.505  1.00  0.00    -0.237 OA
ATOM     52  O   UNL A   1      50.533  31.666  27.555  1.00  0.00    -0.744 OA
ENDBRANCH  48  49
ENDBRANCH  27  41
BRANCH  28  53
ATOM     53  C   UNL A   1      44.464  26.693  34.590  1.00  0.00     0.058 A 
ATOM     54  C   UNL A   1      44.849  27.758  35.422  1.00  0.00     0.135 A 
ATOM     55  C   UNL A   1      44.385  25.426  35.206  1.00  0.00     0.135 A 
ATOM     56  F   UNL A   1      44.932  29.004  34.927  1.00  0.00    -0.206 F 
ATOM     57  C   UNL A   1      45.093  27.588  36.790  1.00  0.00     0.059 A 
ATOM     58  C   UNL A   1      44.634  25.229  36.563  1.00  0.00     0.059 A 
ATOM     59  F   UNL A   1      43.971  24.347  34.525  1.00  0.00    -0.206 F 
ATOM     60  C   UNL A   1      44.963  26.320  37.356  1.00  0.00     0.060 A 
BRANCH  60  61
ATOM     61  S   UNL A   1      45.106  26.122  39.149  1.00  0.00     0.124 S 
ATOM     62  O   UNL A   1      45.290  24.681  39.278  1.00  0.00    -0.237 OA
ATOM     63  O   UNL A   1      46.271  26.944  39.458  1.00  0.00    -0.237 OA
ATOM     64  O   UNL A   1      43.834  26.636  39.649  1.00  0.00    -0.744 OA
ENDBRANCH  60  61
ENDBRANCH  28  53
BRANCH  40  65
ATOM     65  C   UNL A   1      43.211  25.834  28.399  1.00  0.00     0.058 A 
ATOM     66  C   UNL A   1      41.837  25.763  28.691  1.00  0.00     0.135 A 
ATOM     67  C   UNL A   1      43.764  24.776  27.661  1.00  0.00     0.135 A 
ATOM     68  F   UNL A   1      41.207  26.778  29.298  1.00  0.00    -0.206 F 
ATOM     69  C   UNL A   1      41.058  24.672  28.297  1.00  0.00     0.059 A 
ATOM     70  C   UNL A   1      43.000  23.694  27.231  1.00  0.00     0.059 A 
ATOM     71  F   UNL A   1      45.056  24.815  27.296  1.00  0.00    -0.206 F 
ATOM     72  C   UNL A   1      41.648  23.644  27.561  1.00  0.00     0.060 A 
BRANCH  72  73
ATOM     73  S   UNL A   1      40.619  22.282  26.970  1.00  0.00     0.124 S 
ATOM     74  O   UNL A   1      39.330  22.934  26.769  1.00  0.00    -0.237 OA
ATOM     75  O   UNL A   1      41.315  21.864  25.756  1.00  0.00    -0.237 OA
ATOM     76  O   UNL A   1      40.667  21.317  28.065  1.00  0.00    -0.744 OA
ENDBRANCH  72  73
ENDBRANCH  40  65
ENDBRANCH  14  15
ENDBRANCH   7   9
ENDBRANCH   6   7
ENDBRANCH   5   6
ENDBRANCH   4   5
ENDBRANCH   3   4
ENDBRANCH   2   3
ENDBRANCH   1   2
BRANCH   1  77
ATOM     77  O   UNL A   1      31.570  28.722  27.056  1.00  0.00    -0.376 OA
BRANCH  77  78
ATOM     78  C   UNL A   1      31.885  27.737  26.077  1.00  0.00     0.202 C 
BRANCH  78  79
ATOM     79  C   UNL A   1      31.126  26.421  26.321  1.00  0.00     0.261 C 
BRANCH  79  80
ATOM     80  O   UNL A   1      31.782  25.482  27.217  1.00  0.00    -0.462 OA
BRANCH  80  81
ATOM     81  C   UNL A   1      31.716  24.201  26.791  1.00  0.00     0.328 C 
ATOM     82  O   UNL A   1      31.213  23.316  27.491  1.00  0.00    -0.250 OA
BRANCH  81  83
ATOM     83  C   UNL A   1      32.341  23.844  25.402  1.00  0.00     0.195 C 
ATOM     84  C   UNL A   1      32.328  22.313  25.289  1.00  0.00     0.046 C 
ATOM     85  N   UNL A   1      32.449  24.200  23.964  1.00  0.00    -0.328 N 
ATOM     86  C   UNL A   1      33.132  21.965  24.006  1.00  0.00     0.001 C 
ATOM     87  C   UNL A   1      33.524  23.349  23.441  1.00  0.00     0.128 C 
ATOM     88  C   UNL A   1      32.263  21.195  22.985  1.00  0.00     0.071 C 
ATOM     89  C   UNL A   1      34.341  21.093  24.366  1.00  0.00     0.071 C 
ATOM     90  C   UNL A   1      31.874  19.805  23.477  1.00  0.00     0.270 C 
ATOM     91  C   UNL A   1      33.893  19.717  24.875  1.00  0.00     0.270 C 
ATOM     92  N   UNL A   1      33.046  19.037  23.894  1.00  0.00    -0.272 N 
ATOM     93  H   UNL A   1      32.271  19.169  24.488  1.00  0.00     0.356 HD
BRANCH  85  94
ATOM     94  C   UNL A   1      31.468  24.479  23.019  1.00  0.00     0.225 C 
ATOM     95  O   UNL A   1      30.381  23.895  22.993  1.00  0.00    -0.275 OA
BRANCH  94  96
ATOM     96  C   UNL A   1      31.736  25.499  21.968  1.00  0.00     0.124 C 
BRANCH  96  97
ATOM     97  C   UNL A   1      31.966  26.898  22.519  1.00  0.00     0.154 C 
BRANCH  97  98
ATOM     98  N   UNL A   1      30.744  27.684  22.589  1.00  0.00    -0.272 N 
ATOM     99  C   UNL A   1      29.592  27.331  23.230  1.00  0.00     0.108 A 
ATOM    100  N   UNL A   1      30.662  28.898  22.012  1.00  0.00    -0.182 NA
ATOM    101  C   UNL A   1      28.687  28.336  23.010  1.00  0.00     0.042 A 
ATOM    102  C   UNL A   1      29.415  29.296  22.287  1.00  0.00     0.135 A 
ENDBRANCH  97  98
ENDBRANCH  96  97
ENDBRANCH  94  96
ENDBRANCH  85  94
BRANCH  92 103
ATOM    103  C   UNL A   1      33.358  17.715  23.589  1.00  0.00     0.315 C 
ATOM    104  O   UNL A   1      33.959  17.438  22.546  1.00  0.00    -0.231 OA
BRANCH 103 105
ATOM    105  C   UNL A   1      32.965  16.534  24.414  1.00  0.00     0.119 C 
ATOM    106  C   UNL A   1      33.834  15.556  25.148  1.00  0.00     0.019 C 
ATOM    107  C   UNL A   1      32.992  16.543  25.919  1.00  0.00     0.019 C 
ENDBRANCH 103 105
ENDBRANCH  92 103
ENDBRANCH  81  83
ENDBRANCH  80  81
ENDBRANCH  79  80
ENDBRANCH  78  79
ENDBRANCH  77  78
ENDBRANCH   1  77
TORSDOF 26
ENDMDL
