MODEL 1
REMARK VINA RESULT:     -11.1      0.000      0.000
REMARK SMILES C[C@]12CCC[C@](C)(C(=O)OCCOCCOCCOC(=O)c3ccc(-c4c5nc(c(-c6c(F)cc(S(=O)(=O)[O-])cc6F)c6ccc([nH]6)c(-c6c(F)cc(S(=O)(=O)[O-])cc6F)c6nc(c(-c7c(F)cc(S(=O)(=O)[O-])cc7F)c7ccc4[nH]7)C=C6)C=C5)cc3)[C@@H]1CC[C@]13C=C(CO)[C@H](CC[C@H]12)C3
REMARK SMILES IDX 15 1 14 2 13 3 12 4 11 5 10 6 8 7 9 8 6 9 1 10 2 11 3 12
REMARK SMILES IDX 88 13 99 14 4 15 89 16 91 17 98 18 5 19 7 20 90 21 92 22
REMARK SMILES IDX 100 23 97 24 93 25 96 26 94 27 95 28 16 30 17 31 18 32 19 33
REMARK SMILES IDX 20 34 21 35 22 36 23 37 87 38 24 39 86 40 25 41 26 42 27 43
REMARK SMILES IDX 80 44 28 45 85 46 79 47 81 48 29 49 84 50 78 51 77 52 30 54
REMARK SMILES IDX 64 55 43 56 63 57 44 58 47 59 62 60 82 61 45 62 46 63 61 65
REMARK SMILES IDX 83 66 48 67 31 68 32 69 41 70 33 71 34 72 40 73 42 74 35 75
REMARK SMILES IDX 36 76 37 77 38 78 39 79 65 80 66 81 75 82 67 83 68 84 74 85
REMARK SMILES IDX 76 86 69 87 70 88 71 89 72 90 73 91 49 92 50 93 59 94 51 95
REMARK SMILES IDX 52 96 58 97 60 98 53 99 54 100 55 101 56 102 57 103
REMARK H PARENT 95 29 81 53 47 64
REMARK Flexibility Score: inf
ROOT
ATOM      1  C   UNL A   1      33.700  33.208  27.966  1.00  0.00     0.188 C 
ENDROOT
BRANCH   1   2
ATOM      2  C   UNL A   1      33.122  31.827  27.656  1.00  0.00     0.188 C 
BRANCH   2   3
ATOM      3  O   UNL A   1      34.073  30.836  27.363  1.00  0.00    -0.376 OA
BRANCH   3   4
ATOM      4  C   UNL A   1      33.587  29.538  27.034  1.00  0.00     0.202 C 
BRANCH   4   5
ATOM      5  C   UNL A   1      32.083  29.153  27.045  1.00  0.00     0.261 C 
BRANCH   5   6
ATOM      6  O   UNL A   1      31.571  28.724  25.765  1.00  0.00    -0.463 OA
BRANCH   6   7
ATOM      7  C   UNL A   1      31.157  27.449  25.622  1.00  0.00     0.312 C 
ATOM      8  O   UNL A   1      30.774  26.785  26.580  1.00  0.00    -0.252 OA
BRANCH   7   9
ATOM      9  C   UNL A   1      31.140  26.970  24.106  1.00  0.00     0.069 C 
ATOM     10  C   UNL A   1      32.824  25.212  25.909  1.00  0.00     0.012 C 
ATOM     11  C   UNL A   1      32.985  25.147  24.355  1.00  0.00    -0.025 C 
ATOM     12  C   UNL A   1      34.035  26.173  23.879  1.00  0.00     0.007 C 
ATOM     13  C   UNL A   1      31.638  25.472  23.668  1.00  0.00     0.012 C 
ATOM     14  C   UNL A   1      33.524  23.715  24.109  1.00  0.00     0.005 C 
ATOM     15  C   UNL A   1      33.628  27.642  23.862  1.00  0.00     0.002 C 
ATOM     16  C   UNL A   1      30.657  24.255  23.586  1.00  0.00     0.006 C 
ATOM     17  C   UNL A   1      32.508  22.512  24.176  1.00  0.00    -0.008 C 
ATOM     18  C   UNL A   1      34.753  23.315  23.303  1.00  0.00     0.006 C 
ATOM     19  C   UNL A   1      32.184  27.919  23.430  1.00  0.00     0.019 C 
ATOM     20  C   UNL A   1      29.755  27.337  23.543  1.00  0.00     0.024 C 
ATOM     21  C   UNL A   1      31.280  22.839  23.334  1.00  0.00     0.012 C 
ATOM     22  C   UNL A   1      32.306  22.229  25.638  1.00  0.00    -0.018 C 
ATOM     23  C   UNL A   1      33.244  21.159  23.901  1.00  0.00     0.019 C 
ATOM     24  C   UNL A   1      35.442  22.240  24.230  1.00  0.00     0.008 C 
ATOM     25  C   UNL A   1      33.482  21.773  26.125  1.00  0.00    -0.045 C 
ATOM     26  C   UNL A   1      34.387  21.288  24.939  1.00  0.00     0.018 C 
BRANCH  25  27
ATOM     27  C   UNL A   1      33.873  21.796  27.568  1.00  0.00     0.187 C 
BRANCH  27  28
ATOM     28  O   UNL A   1      34.789  22.863  27.845  1.00  0.00    -0.392 OA
ATOM     29  H   UNL A   1      34.482  23.359  28.621  1.00  0.00     0.211 HD
ENDBRANCH  27  28
ENDBRANCH  25  27
ENDBRANCH   7   9
ENDBRANCH   6   7
ENDBRANCH   5   6
ENDBRANCH   4   5
ENDBRANCH   3   4
ENDBRANCH   2   3
ENDBRANCH   1   2
BRANCH   1  30
ATOM     30  O   UNL A   1      32.954  34.231  28.602  1.00  0.00    -0.376 OA
BRANCH  30  31
ATOM     31  C   UNL A   1      33.650  35.190  29.388  1.00  0.00     0.202 C 
BRANCH  31  32
ATOM     32  C   UNL A   1      34.217  34.840  30.784  1.00  0.00     0.261 C 
BRANCH  32  33
ATOM     33  O   UNL A   1      35.425  34.065  30.825  1.00  0.00    -0.460 OA
BRANCH  33  34
ATOM     34  C   UNL A   1      35.267  32.785  31.283  1.00  0.00     0.338 C 
ATOM     35  O   UNL A   1      34.265  32.309  31.763  1.00  0.00    -0.246 OA
BRANCH  34  36
ATOM     36  C   UNL A   1      36.433  31.970  30.827  1.00  0.00     0.060 A 
ATOM     37  C   UNL A   1      37.073  31.140  31.768  1.00  0.00     0.016 A 
ATOM     38  C   UNL A   1      36.859  31.976  29.501  1.00  0.00     0.016 A 
ATOM     39  C   UNL A   1      38.180  30.371  31.400  1.00  0.00     0.010 A 
ATOM     40  C   UNL A   1      37.990  31.233  29.142  1.00  0.00     0.010 A 
ATOM     41  C   UNL A   1      38.686  30.468  30.099  1.00  0.00    -0.014 A 
BRANCH  41  42
ATOM     42  C   UNL A   1      40.079  30.033  29.810  1.00  0.00     0.031 A 
ATOM     43  C   UNL A   1      41.166  31.074  29.922  1.00  0.00     0.074 A 
ATOM     44  C   UNL A   1      40.393  28.773  29.460  1.00  0.00     0.049 A 
ATOM     45  N   UNL A   1      42.434  30.993  29.620  1.00  0.00    -0.248 NA
ATOM     46  C   UNL A   1      40.753  32.391  30.438  1.00  0.00     0.031 C 
ATOM     47  C   UNL A   1      39.457  27.656  29.367  1.00  0.00     0.029 A 
ATOM     48  N   UNL A   1      41.603  28.232  29.094  1.00  0.00    -0.354 N 
ATOM     49  C   UNL A   1      42.965  32.252  29.886  1.00  0.00     0.074 A 
ATOM     50  C   UNL A   1      41.877  33.083  30.349  1.00  0.00     0.031 C 
ATOM     51  C   UNL A   1      40.124  26.566  28.942  1.00  0.00     0.029 A 
ATOM     52  C   UNL A   1      41.524  26.918  28.698  1.00  0.00     0.049 A 
ATOM     53  H   UNL A   1      42.448  28.738  29.115  1.00  0.00     0.167 HD
ATOM     54  C   UNL A   1      44.244  32.679  29.757  1.00  0.00     0.037 A 
ATOM     55  C   UNL A   1      42.464  26.105  28.170  1.00  0.00     0.037 A 
ATOM     56  C   UNL A   1      45.327  31.852  29.296  1.00  0.00     0.049 A 
ATOM     57  C   UNL A   1      43.871  26.618  27.969  1.00  0.00     0.074 A 
ATOM     58  C   UNL A   1      46.662  32.187  29.154  1.00  0.00     0.029 A 
ATOM     59  N   UNL A   1      45.201  30.532  28.889  1.00  0.00    -0.354 N 
ATOM     60  N   UNL A   1      44.367  27.804  28.241  1.00  0.00    -0.248 NA
ATOM     61  C   UNL A   1      44.848  25.683  27.392  1.00  0.00     0.031 C 
ATOM     62  C   UNL A   1      47.331  31.091  28.602  1.00  0.00     0.029 A 
ATOM     63  C   UNL A   1      46.428  30.048  28.466  1.00  0.00     0.049 A 
ATOM     64  H   UNL A   1      44.362  30.016  28.899  1.00  0.00     0.167 HD
ATOM     65  C   UNL A   1      45.716  27.744  27.896  1.00  0.00     0.074 A 
ATOM     66  C   UNL A   1      45.960  26.404  27.406  1.00  0.00     0.031 C 
ATOM     67  C   UNL A   1      46.666  28.709  27.985  1.00  0.00     0.037 A 
BRANCH  54  68
ATOM     68  C   UNL A   1      44.527  34.121  30.080  1.00  0.00     0.058 A 
ATOM     69  C   UNL A   1      44.341  35.147  29.140  1.00  0.00     0.135 A 
ATOM     70  C   UNL A   1      44.984  34.482  31.358  1.00  0.00     0.135 A 
ATOM     71  F   UNL A   1      43.927  34.859  27.896  1.00  0.00    -0.206 F 
ATOM     72  C   UNL A   1      44.631  36.474  29.444  1.00  0.00     0.059 A 
ATOM     73  C   UNL A   1      45.248  35.805  31.695  1.00  0.00     0.059 A 
ATOM     74  F   UNL A   1      45.183  33.541  32.296  1.00  0.00    -0.206 F 
ATOM     75  C   UNL A   1      45.085  36.792  30.725  1.00  0.00     0.060 A 
BRANCH  75  76
ATOM     76  S   UNL A   1      45.464  38.516  31.103  1.00  0.00     0.124 S 
ATOM     77  O   UNL A   1      44.127  39.074  31.286  1.00  0.00    -0.237 OA
ATOM     78  O   UNL A   1      46.272  38.400  32.311  1.00  0.00    -0.237 OA
ATOM     79  O   UNL A   1      46.177  38.977  29.915  1.00  0.00    -0.744 OA
ENDBRANCH  75  76
ENDBRANCH  54  68
BRANCH  55  80
ATOM     80  C   UNL A   1      42.104  24.716  27.773  1.00  0.00     0.058 A 
ATOM     81  C   UNL A   1      42.304  23.634  28.643  1.00  0.00     0.135 A 
ATOM     82  C   UNL A   1      41.551  24.441  26.511  1.00  0.00     0.135 A 
ATOM     83  F   UNL A   1      42.850  23.838  29.851  1.00  0.00    -0.206 F 
ATOM     84  C   UNL A   1      41.970  22.332  28.281  1.00  0.00     0.059 A 
ATOM     85  C   UNL A   1      41.181  23.153  26.136  1.00  0.00     0.059 A 
ATOM     86  F   UNL A   1      41.339  25.439  25.639  1.00  0.00    -0.206 F 
ATOM     87  C   UNL A   1      41.398  22.104  27.027  1.00  0.00     0.060 A 
BRANCH  87  88
ATOM     88  S   UNL A   1      40.895  20.423  26.601  1.00  0.00     0.124 S 
ATOM     89  O   UNL A   1      39.588  20.648  25.995  1.00  0.00    -0.237 OA
ATOM     90  O   UNL A   1      41.959  20.008  25.690  1.00  0.00    -0.237 OA
ATOM     91  O   UNL A   1      40.885  19.737  27.891  1.00  0.00    -0.744 OA
ENDBRANCH  87  88
ENDBRANCH  55  80
BRANCH  67  92
ATOM     92  C   UNL A   1      48.076  28.351  27.588  1.00  0.00     0.058 A 
ATOM     93  C   UNL A   1      49.041  27.961  28.531  1.00  0.00     0.135 A 
ATOM     94  C   UNL A   1      48.448  28.338  26.233  1.00  0.00     0.135 A 
ATOM     95  F   UNL A   1      48.743  27.955  29.840  1.00  0.00    -0.206 F 
ATOM     96  C   UNL A   1      50.330  27.599  28.147  1.00  0.00     0.059 A 
ATOM     97  C   UNL A   1      49.721  27.948  25.824  1.00  0.00     0.059 A 
ATOM     98  F   UNL A   1      47.564  28.686  25.286  1.00  0.00    -0.206 F 
ATOM     99  C   UNL A   1      50.660  27.592  26.790  1.00  0.00     0.060 A 
BRANCH  99 100
ATOM    100  S   UNL A   1      52.326  27.095  26.305  1.00  0.00     0.124 S 
ATOM    101  O   UNL A   1      52.482  25.838  27.028  1.00  0.00    -0.237 OA
ATOM    102  O   UNL A   1      52.208  26.983  24.854  1.00  0.00    -0.237 OA
ATOM    103  O   UNL A   1      53.162  28.196  26.776  1.00  0.00    -0.744 OA
ENDBRANCH  99 100
ENDBRANCH  67  92
ENDBRANCH  41  42
ENDBRANCH  34  36
ENDBRANCH  33  34
ENDBRANCH  32  33
ENDBRANCH  31  32
ENDBRANCH  30  31
ENDBRANCH   1  30
TORSDOF 22
ENDMDL
MODEL 2
REMARK VINA RESULT:     -11.0      1.747      8.097
REMARK SMILES C[C@]12CCC[C@](C)(C(=O)OCCOCCOCCOC(=O)c3ccc(-c4c5nc(c(-c6c(F)cc(S(=O)(=O)[O-])cc6F)c6ccc([nH]6)c(-c6c(F)cc(S(=O)(=O)[O-])cc6F)c6nc(c(-c7c(F)cc(S(=O)(=O)[O-])cc7F)c7ccc4[nH]7)C=C6)C=C5)cc3)[C@@H]1CC[C@]13C=C(CO)[C@H](CC[C@H]12)C3
REMARK SMILES IDX 15 1 14 2 13 3 12 4 11 5 10 6 8 7 9 8 6 9 1 10 2 11 3 12
REMARK SMILES IDX 88 13 99 14 4 15 89 16 91 17 98 18 5 19 7 20 90 21 92 22
REMARK SMILES IDX 100 23 97 24 93 25 96 26 94 27 95 28 16 30 17 31 18 32 19 33
REMARK SMILES IDX 20 34 21 35 22 36 23 37 87 38 24 39 86 40 25 41 26 42 27 43
REMARK SMILES IDX 80 44 28 45 85 46 79 47 81 48 29 49 84 50 78 51 77 52 30 54
REMARK SMILES IDX 64 55 43 56 63 57 44 58 47 59 62 60 82 61 45 62 46 63 61 65
REMARK SMILES IDX 83 66 48 67 31 68 32 69 41 70 33 71 34 72 40 73 42 74 35 75
REMARK SMILES IDX 36 76 37 77 38 78 39 79 65 80 66 81 75 82 67 83 68 84 74 85
REMARK SMILES IDX 76 86 69 87 70 88 71 89 72 90 73 91 49 92 50 93 59 94 51 95
REMARK SMILES IDX 52 96 58 97 60 98 53 99 54 100 55 101 56 102 57 103
REMARK H PARENT 95 29 81 53 47 64
REMARK Flexibility Score: inf
ROOT
ATOM      1  C   UNL A   1      34.235  34.188  29.025  1.00  0.00     0.188 C 
ENDROOT
BRANCH   1   2
ATOM      2  C   UNL A   1      33.760  33.157  28.001  1.00  0.00     0.188 C 
BRANCH   2   3
ATOM      3  O   UNL A   1      33.965  31.817  28.367  1.00  0.00    -0.376 OA
BRANCH   3   4
ATOM      4  C   UNL A   1      33.752  30.825  27.367  1.00  0.00     0.202 C 
BRANCH   4   5
ATOM      5  C   UNL A   1      32.348  30.417  26.844  1.00  0.00     0.261 C 
BRANCH   5   6
ATOM      6  O   UNL A   1      32.371  29.639  25.628  1.00  0.00    -0.463 OA
BRANCH   6   7
ATOM      7  C   UNL A   1      31.724  28.456  25.598  1.00  0.00     0.312 C 
ATOM      8  O   UNL A   1      31.366  27.891  26.627  1.00  0.00    -0.252 OA
BRANCH   7   9
ATOM      9  C   UNL A   1      31.416  27.958  24.120  1.00  0.00     0.069 C 
ATOM     10  C   UNL A   1      32.931  25.931  25.786  1.00  0.00     0.012 C 
ATOM     11  C   UNL A   1      32.873  25.800  24.229  1.00  0.00    -0.025 C 
ATOM     12  C   UNL A   1      34.037  26.579  23.580  1.00  0.00     0.007 C 
ATOM     13  C   UNL A   1      31.542  26.380  23.697  1.00  0.00     0.012 C 
ATOM     14  C   UNL A   1      33.077  24.284  23.988  1.00  0.00     0.005 C 
ATOM     15  C   UNL A   1      33.935  28.099  23.542  1.00  0.00     0.002 C 
ATOM     16  C   UNL A   1      30.333  25.389  23.794  1.00  0.00     0.006 C 
ATOM     17  C   UNL A   1      31.857  23.316  24.236  1.00  0.00    -0.008 C 
ATOM     18  C   UNL A   1      34.085  23.621  23.058  1.00  0.00     0.006 C 
ATOM     19  C   UNL A   1      32.532  28.657  23.277  1.00  0.00     0.019 C 
ATOM     20  C   UNL A   1      30.071  28.589  23.714  1.00  0.00     0.024 C 
ATOM     21  C   UNL A   1      30.622  23.870  23.536  1.00  0.00     0.012 C 
ATOM     22  C   UNL A   1      31.794  23.114  25.724  1.00  0.00    -0.018 C 
ATOM     23  C   UNL A   1      32.265  21.835  23.938  1.00  0.00     0.019 C 
ATOM     24  C   UNL A   1      34.659  22.449  23.945  1.00  0.00     0.008 C 
ATOM     25  C   UNL A   1      32.907  22.436  26.084  1.00  0.00    -0.045 C 
ATOM     26  C   UNL A   1      33.534  21.750  24.822  1.00  0.00     0.018 C 
BRANCH  25  27
ATOM     27  C   UNL A   1      33.478  22.411  27.466  1.00  0.00     0.187 C 
BRANCH  27  28
ATOM     28  O   UNL A   1      34.624  21.554  27.544  1.00  0.00    -0.392 OA
ATOM     29  H   UNL A   1      34.522  20.945  28.293  1.00  0.00     0.211 HD
ENDBRANCH  27  28
ENDBRANCH  25  27
ENDBRANCH   7   9
ENDBRANCH   6   7
ENDBRANCH   5   6
ENDBRANCH   4   5
ENDBRANCH   3   4
ENDBRANCH   2   3
ENDBRANCH   1   2
BRANCH   1  30
ATOM     30  O   UNL A   1      33.838  34.164  30.385  1.00  0.00    -0.376 OA
BRANCH  30  31
ATOM     31  C   UNL A   1      34.679  33.512  31.327  1.00  0.00     0.202 C 
BRANCH  31  32
ATOM     32  C   UNL A   1      36.221  33.581  31.227  1.00  0.00     0.261 C 
BRANCH  32  33
ATOM     33  O   UNL A   1      36.884  32.495  30.562  1.00  0.00    -0.460 OA
BRANCH  33  34
ATOM     34  C   UNL A   1      37.362  31.521  31.396  1.00  0.00     0.338 C 
ATOM     35  O   UNL A   1      36.827  31.099  32.394  1.00  0.00    -0.246 OA
BRANCH  34  36
ATOM     36  C   UNL A   1      38.512  30.842  30.725  1.00  0.00     0.060 A 
ATOM     37  C   UNL A   1      39.533  30.308  31.534  1.00  0.00     0.016 A 
ATOM     38  C   UNL A   1      38.567  30.687  29.342  1.00  0.00     0.016 A 
ATOM     39  C   UNL A   1      40.640  29.680  30.958  1.00  0.00     0.010 A 
ATOM     40  C   UNL A   1      39.693  30.090  28.764  1.00  0.00     0.010 A 
ATOM     41  C   UNL A   1      40.758  29.630  29.565  1.00  0.00    -0.014 A 
BRANCH  41  42
ATOM     42  C   UNL A   1      42.086  29.387  28.941  1.00  0.00     0.031 A 
ATOM     43  C   UNL A   1      42.361  27.998  28.419  1.00  0.00     0.074 A 
ATOM     44  C   UNL A   1      43.027  30.341  28.831  1.00  0.00     0.049 A 
ATOM     45  N   UNL A   1      43.464  27.490  27.937  1.00  0.00    -0.248 NA
ATOM     46  C   UNL A   1      41.232  27.053  28.461  1.00  0.00     0.031 C 
ATOM     47  C   UNL A   1      42.879  31.736  29.239  1.00  0.00     0.029 A 
ATOM     48  N   UNL A   1      44.315  30.264  28.353  1.00  0.00    -0.354 N 
ATOM     49  C   UNL A   1      43.169  26.163  27.641  1.00  0.00     0.074 A 
ATOM     50  C   UNL A   1      41.792  25.939  28.020  1.00  0.00     0.031 C 
ATOM     51  C   UNL A   1      44.043  32.377  29.020  1.00  0.00     0.029 A 
ATOM     52  C   UNL A   1      45.027  31.432  28.492  1.00  0.00     0.049 A 
ATOM     53  H   UNL A   1      44.691  29.448  27.949  1.00  0.00     0.167 HD
ATOM     54  C   UNL A   1      43.970  25.215  27.099  1.00  0.00     0.037 A 
ATOM     55  C   UNL A   1      46.329  31.696  28.251  1.00  0.00     0.037 A 
ATOM     56  C   UNL A   1      45.340  25.437  26.722  1.00  0.00     0.049 A 
ATOM     57  C   UNL A   1      47.227  30.607  27.711  1.00  0.00     0.074 A 
ATOM     58  C   UNL A   1      46.227  24.546  26.144  1.00  0.00     0.029 A 
ATOM     59  N   UNL A   1      46.028  26.629  26.894  1.00  0.00    -0.354 N 
ATOM     60  N   UNL A   1      46.934  29.362  27.417  1.00  0.00    -0.248 NA
ATOM     61  C   UNL A   1      48.634  30.961  27.468  1.00  0.00     0.031 C 
ATOM     62  C   UNL A   1      47.468  25.178  26.026  1.00  0.00     0.029 A 
ATOM     63  C   UNL A   1      47.337  26.487  26.463  1.00  0.00     0.049 A 
ATOM     64  H   UNL A   1      45.642  27.454  27.268  1.00  0.00     0.167 HD
ATOM     65  C   UNL A   1      48.110  28.795  26.928  1.00  0.00     0.074 A 
ATOM     66  C   UNL A   1      49.115  29.836  26.956  1.00  0.00     0.031 C 
ATOM     67  C   UNL A   1      48.332  27.530  26.489  1.00  0.00     0.037 A 
BRANCH  54  68
ATOM     68  C   UNL A   1      43.392  23.836  26.928  1.00  0.00     0.058 A 
ATOM     69  C   UNL A   1      42.980  23.349  25.678  1.00  0.00     0.135 A 
ATOM     70  C   UNL A   1      43.258  22.984  28.038  1.00  0.00     0.135 A 
ATOM     71  F   UNL A   1      43.064  24.126  24.587  1.00  0.00    -0.206 F 
ATOM     72  C   UNL A   1      42.422  22.081  25.539  1.00  0.00     0.059 A 
ATOM     73  C   UNL A   1      42.736  21.700  27.916  1.00  0.00     0.059 A 
ATOM     74  F   UNL A   1      43.634  23.399  29.258  1.00  0.00    -0.206 F 
ATOM     75  C   UNL A   1      42.304  21.265  26.665  1.00  0.00     0.060 A 
BRANCH  75  76
ATOM     76  S   UNL A   1      41.573  19.626  26.470  1.00  0.00     0.124 S 
ATOM     77  O   UNL A   1      42.242  19.152  25.261  1.00  0.00    -0.237 OA
ATOM     78  O   UNL A   1      41.962  18.963  27.710  1.00  0.00    -0.237 OA
ATOM     79  O   UNL A   1      40.147  19.903  26.329  1.00  0.00    -0.744 OA
ENDBRANCH  75  76
ENDBRANCH  54  68
BRANCH  55  80
ATOM     80  C   UNL A   1      46.875  33.053  28.534  1.00  0.00     0.058 A 
ATOM     81  C   UNL A   1      47.406  33.376  29.791  1.00  0.00     0.135 A 
ATOM     82  C   UNL A   1      46.876  34.055  27.550  1.00  0.00     0.135 A 
ATOM     83  F   UNL A   1      47.408  32.462  30.773  1.00  0.00    -0.206 F 
ATOM     84  C   UNL A   1      47.919  34.641  30.065  1.00  0.00     0.059 A 
ATOM     85  C   UNL A   1      47.410  35.318  27.789  1.00  0.00     0.059 A 
ATOM     86  F   UNL A   1      46.380  33.799  26.330  1.00  0.00    -0.206 F 
ATOM     87  C   UNL A   1      47.926  35.602  29.052  1.00  0.00     0.060 A 
BRANCH  87  88
ATOM     88  S   UNL A   1      48.668  37.213  29.396  1.00  0.00     0.124 S 
ATOM     89  O   UNL A   1      49.089  37.056  30.783  1.00  0.00    -0.237 OA
ATOM     90  O   UNL A   1      49.740  37.271  28.405  1.00  0.00    -0.237 OA
ATOM     91  O   UNL A   1      47.568  38.145  29.171  1.00  0.00    -0.744 OA
ENDBRANCH  87  88
ENDBRANCH  55  80
BRANCH  67  92
ATOM     92  C   UNL A   1      49.704  27.200  25.955  1.00  0.00     0.058 A 
ATOM     93  C   UNL A   1      50.707  26.646  26.768  1.00  0.00     0.135 A 
ATOM     94  C   UNL A   1      49.996  27.382  24.593  1.00  0.00     0.135 A 
ATOM     95  F   UNL A   1      50.485  26.451  28.077  1.00  0.00    -0.206 F 
ATOM     96  C   UNL A   1      51.959  26.314  26.254  1.00  0.00     0.059 A 
ATOM     97  C   UNL A   1      51.229  27.026  24.052  1.00  0.00     0.059 A 
ATOM     98  F   UNL A   1      49.071  27.893  23.766  1.00  0.00    -0.206 F 
ATOM     99  C   UNL A   1      52.209  26.504  24.894  1.00  0.00     0.060 A 
BRANCH  99 100
ATOM    100  S   UNL A   1      53.827  26.044  24.237  1.00  0.00     0.124 S 
ATOM    101  O   UNL A   1      54.019  24.723  24.826  1.00  0.00    -0.237 OA
ATOM    102  O   UNL A   1      53.595  26.068  22.795  1.00  0.00    -0.237 OA
ATOM    103  O   UNL A   1      54.711  27.090  24.741  1.00  0.00    -0.744 OA
ENDBRANCH  99 100
ENDBRANCH  67  92
ENDBRANCH  41  42
ENDBRANCH  34  36
ENDBRANCH  33  34
ENDBRANCH  32  33
ENDBRANCH  31  32
ENDBRANCH  30  31
ENDBRANCH   1  30
TORSDOF 22
ENDMDL
MODEL 3
REMARK VINA RESULT:     -10.7      5.556     10.812
REMARK SMILES C[C@]12CCC[C@](C)(C(=O)OCCOCCOCCOC(=O)c3ccc(-c4c5nc(c(-c6c(F)cc(S(=O)(=O)[O-])cc6F)c6ccc([nH]6)c(-c6c(F)cc(S(=O)(=O)[O-])cc6F)c6nc(c(-c7c(F)cc(S(=O)(=O)[O-])cc7F)c7ccc4[nH]7)C=C6)C=C5)cc3)[C@@H]1CC[C@]13C=C(CO)[C@H](CC[C@H]12)C3
REMARK SMILES IDX 15 1 14 2 13 3 12 4 11 5 10 6 8 7 9 8 6 9 1 10 2 11 3 12
REMARK SMILES IDX 88 13 99 14 4 15 89 16 91 17 98 18 5 19 7 20 90 21 92 22
REMARK SMILES IDX 100 23 97 24 93 25 96 26 94 27 95 28 16 30 17 31 18 32 19 33
REMARK SMILES IDX 20 34 21 35 22 36 23 37 87 38 24 39 86 40 25 41 26 42 27 43
REMARK SMILES IDX 80 44 28 45 85 46 79 47 81 48 29 49 84 50 78 51 77 52 30 54
REMARK SMILES IDX 64 55 43 56 63 57 44 58 47 59 62 60 82 61 45 62 46 63 61 65
REMARK SMILES IDX 83 66 48 67 31 68 32 69 41 70 33 71 34 72 40 73 42 74 35 75
REMARK SMILES IDX 36 76 37 77 38 78 39 79 65 80 66 81 75 82 67 83 68 84 74 85
REMARK SMILES IDX 76 86 69 87 70 88 71 89 72 90 73 91 49 92 50 93 59 94 51 95
REMARK SMILES IDX 52 96 58 97 60 98 53 99 54 100 55 101 56 102 57 103
REMARK H PARENT 95 29 81 53 47 64
REMARK Flexibility Score: inf
ROOT
ATOM      1  C   UNL A   1      42.364  21.196  26.690  1.00  0.00     0.188 C 
ENDROOT
BRANCH   1   2
ATOM      2  C   UNL A   1      40.910  20.974  26.275  1.00  0.00     0.188 C 
BRANCH   2   3
ATOM      3  O   UNL A   1      40.206  22.138  25.927  1.00  0.00    -0.376 OA
BRANCH   3   4
ATOM      4  C   UNL A   1      38.802  22.153  26.171  1.00  0.00     0.202 C 
BRANCH   4   5
ATOM      5  C   UNL A   1      37.752  21.562  25.191  1.00  0.00     0.261 C 
BRANCH   5   6
ATOM      6  O   UNL A   1      36.382  21.810  25.571  1.00  0.00    -0.463 OA
BRANCH   6   7
ATOM      7  C   UNL A   1      35.461  22.007  24.605  1.00  0.00     0.312 C 
ATOM      8  O   UNL A   1      35.775  22.416  23.491  1.00  0.00    -0.252 OA
BRANCH   7   9
ATOM      9  C   UNL A   1      33.998  21.570  25.046  1.00  0.00     0.069 C 
ATOM     10  C   UNL A   1      34.263  24.541  24.517  1.00  0.00     0.012 C 
ATOM     11  C   UNL A   1      33.043  23.979  25.317  1.00  0.00    -0.025 C 
ATOM     12  C   UNL A   1      33.371  23.917  26.825  1.00  0.00     0.007 C 
ATOM     13  C   UNL A   1      32.703  22.551  24.832  1.00  0.00     0.012 C 
ATOM     14  C   UNL A   1      31.938  25.038  25.080  1.00  0.00     0.005 C 
ATOM     15  C   UNL A   1      34.303  22.807  27.299  1.00  0.00     0.002 C 
ATOM     16  C   UNL A   1      31.829  22.512  23.534  1.00  0.00     0.006 C 
ATOM     17  C   UNL A   1      31.186  25.037  23.695  1.00  0.00    -0.008 C 
ATOM     18  C   UNL A   1      31.092  25.746  26.131  1.00  0.00     0.006 C 
ATOM     19  C   UNL A   1      34.123  21.455  26.600  1.00  0.00     0.019 C 
ATOM     20  C   UNL A   1      33.779  20.149  24.497  1.00  0.00     0.024 C 
ATOM     21  C   UNL A   1      30.731  23.619  23.368  1.00  0.00     0.012 C 
ATOM     22  C   UNL A   1      32.109  25.722  22.728  1.00  0.00    -0.018 C 
ATOM     23  C   UNL A   1      30.114  26.176  23.653  1.00  0.00     0.019 C 
ATOM     24  C   UNL A   1      31.114  27.246  25.644  1.00  0.00     0.008 C 
ATOM     25  C   UNL A   1      32.208  27.014  23.115  1.00  0.00    -0.045 C 
ATOM     26  C   UNL A   1      31.012  27.370  24.063  1.00  0.00     0.018 C 
BRANCH  25  27
ATOM     27  C   UNL A   1      33.329  27.931  22.742  1.00  0.00     0.187 C 
BRANCH  27  28
ATOM     28  O   UNL A   1      33.902  27.571  21.479  1.00  0.00    -0.392 OA
ATOM     29  H   UNL A   1      33.235  27.120  20.938  1.00  0.00     0.211 HD
ENDBRANCH  27  28
ENDBRANCH  25  27
ENDBRANCH   7   9
ENDBRANCH   6   7
ENDBRANCH   5   6
ENDBRANCH   4   5
ENDBRANCH   3   4
ENDBRANCH   2   3
ENDBRANCH   1   2
BRANCH   1  30
ATOM     30  O   UNL A   1      42.839  22.427  27.206  1.00  0.00    -0.376 OA
BRANCH  30  31
ATOM     31  C   UNL A   1      44.213  22.749  27.035  1.00  0.00     0.202 C 
BRANCH  31  32
ATOM     32  C   UNL A   1      44.664  23.975  26.206  1.00  0.00     0.261 C 
BRANCH  32  33
ATOM     33  O   UNL A   1      44.256  25.269  26.676  1.00  0.00    -0.460 OA
BRANCH  33  34
ATOM     34  C   UNL A   1      43.015  25.665  26.257  1.00  0.00     0.338 C 
ATOM     35  O   UNL A   1      42.398  25.226  25.314  1.00  0.00    -0.246 OA
BRANCH  34  36
ATOM     36  C   UNL A   1      42.402  26.517  27.320  1.00  0.00     0.060 A 
ATOM     37  C   UNL A   1      42.855  27.844  27.452  1.00  0.00     0.016 A 
ATOM     38  C   UNL A   1      41.377  26.048  28.137  1.00  0.00     0.016 A 
ATOM     39  C   UNL A   1      42.331  28.679  28.442  1.00  0.00     0.010 A 
ATOM     40  C   UNL A   1      40.877  26.873  29.151  1.00  0.00     0.010 A 
ATOM     41  C   UNL A   1      41.387  28.173  29.342  1.00  0.00    -0.014 A 
BRANCH  41  42
ATOM     42  C   UNL A   1      41.154  28.863  30.639  1.00  0.00     0.031 A 
ATOM     43  C   UNL A   1      40.026  29.865  30.696  1.00  0.00     0.074 A 
ATOM     44  C   UNL A   1      41.898  28.631  31.735  1.00  0.00     0.049 A 
ATOM     45  N   UNL A   1      39.682  30.681  31.656  1.00  0.00    -0.248 NA
ATOM     46  C   UNL A   1      39.182  29.961  29.493  1.00  0.00     0.031 C 
ATOM     47  C   UNL A   1      42.979  27.655  31.839  1.00  0.00     0.029 A 
ATOM     48  N   UNL A   1      41.861  29.228  32.973  1.00  0.00    -0.354 N 
ATOM     49  C   UNL A   1      38.598  31.402  31.166  1.00  0.00     0.074 A 
ATOM     50  C   UNL A   1      38.359  30.945  29.816  1.00  0.00     0.031 C 
ATOM     51  C   UNL A   1      43.522  27.739  33.069  1.00  0.00     0.029 A 
ATOM     52  C   UNL A   1      42.853  28.800  33.824  1.00  0.00     0.049 A 
ATOM     53  H   UNL A   1      41.187  29.900  33.227  1.00  0.00     0.167 HD
ATOM     54  C   UNL A   1      37.864  32.359  31.784  1.00  0.00     0.037 A 
ATOM     55  C   UNL A   1      43.199  29.236  35.054  1.00  0.00     0.037 A 
ATOM     56  C   UNL A   1      38.102  32.815  33.127  1.00  0.00     0.049 A 
ATOM     57  C   UNL A   1      42.413  30.352  35.702  1.00  0.00     0.074 A 
ATOM     58  C   UNL A   1      37.398  33.762  33.849  1.00  0.00     0.029 A 
ATOM     59  N   UNL A   1      39.127  32.367  33.948  1.00  0.00    -0.354 N 
ATOM     60  N   UNL A   1      41.378  31.015  35.237  1.00  0.00    -0.248 NA
ATOM     61  C   UNL A   1      42.839  30.779  37.043  1.00  0.00     0.031 C 
ATOM     62  C   UNL A   1      38.035  33.934  35.082  1.00  0.00     0.029 A 
ATOM     63  C   UNL A   1      39.093  33.042  35.158  1.00  0.00     0.049 A 
ATOM     64  H   UNL A   1      39.781  31.672  33.706  1.00  0.00     0.167 HD
ATOM     65  C   UNL A   1      41.015  31.912  36.240  1.00  0.00     0.074 A 
ATOM     66  C   UNL A   1      41.933  31.700  37.339  1.00  0.00     0.031 C 
ATOM     67  C   UNL A   1      40.008  32.821  36.251  1.00  0.00     0.037 A 
BRANCH  54  68
ATOM     68  C   UNL A   1      36.763  33.008  30.988  1.00  0.00     0.058 A 
ATOM     69  C   UNL A   1      37.022  33.986  30.015  1.00  0.00     0.135 A 
ATOM     70  C   UNL A   1      35.426  32.633  31.200  1.00  0.00     0.135 A 
ATOM     71  F   UNL A   1      38.278  34.398  29.786  1.00  0.00    -0.206 F 
ATOM     72  C   UNL A   1      35.992  34.595  29.306  1.00  0.00     0.059 A 
ATOM     73  C   UNL A   1      34.383  33.204  30.477  1.00  0.00     0.059 A 
ATOM     74  F   UNL A   1      35.121  31.704  32.120  1.00  0.00    -0.206 F 
ATOM     75  C   UNL A   1      34.675  34.198  29.545  1.00  0.00     0.060 A 
BRANCH  75  76
ATOM     76  S   UNL A   1      33.349  35.003  28.622  1.00  0.00     0.124 S 
ATOM     77  O   UNL A   1      32.771  33.872  27.899  1.00  0.00    -0.237 OA
ATOM     78  O   UNL A   1      32.524  35.561  29.686  1.00  0.00    -0.237 OA
ATOM     79  O   UNL A   1      34.052  35.980  27.796  1.00  0.00    -0.744 OA
ENDBRANCH  75  76
ENDBRANCH  54  68
BRANCH  55  80
ATOM     80  C   UNL A   1      44.363  28.627  35.755  1.00  0.00     0.058 A 
ATOM     81  C   UNL A   1      45.669  29.087  35.534  1.00  0.00     0.135 A 
ATOM     82  C   UNL A   1      44.190  27.570  36.665  1.00  0.00     0.135 A 
ATOM     83  F   UNL A   1      45.891  30.079  34.659  1.00  0.00    -0.206 F 
ATOM     84  C   UNL A   1      46.762  28.524  36.187  1.00  0.00     0.059 A 
ATOM     85  C   UNL A   1      45.263  27.011  37.352  1.00  0.00     0.059 A 
ATOM     86  F   UNL A   1      42.962  27.091  36.913  1.00  0.00    -0.206 F 
ATOM     87  C   UNL A   1      46.547  27.493  37.103  1.00  0.00     0.060 A 
BRANCH  87  88
ATOM     88  S   UNL A   1      47.965  26.827  38.002  1.00  0.00     0.124 S 
ATOM     89  O   UNL A   1      48.177  25.554  37.322  1.00  0.00    -0.237 OA
ATOM     90  O   UNL A   1      48.979  27.852  37.772  1.00  0.00    -0.237 OA
ATOM     91  O   UNL A   1      47.479  26.736  39.376  1.00  0.00    -0.744 OA
ENDBRANCH  87  88
ENDBRANCH  55  80
BRANCH  67  92
ATOM     92  C   UNL A   1      39.805  33.635  37.505  1.00  0.00     0.058 A 
ATOM     93  C   UNL A   1      40.443  34.870  37.705  1.00  0.00     0.135 A 
ATOM     94  C   UNL A   1      38.908  33.198  38.494  1.00  0.00     0.135 A 
ATOM     95  F   UNL A   1      41.312  35.337  36.794  1.00  0.00    -0.206 F 
ATOM     96  C   UNL A   1      40.220  35.627  38.852  1.00  0.00     0.059 A 
ATOM     97  C   UNL A   1      38.644  33.955  39.633  1.00  0.00     0.059 A 
ATOM     98  F   UNL A   1      38.257  32.033  38.350  1.00  0.00    -0.206 F 
ATOM     99  C   UNL A   1      39.316  35.163  39.810  1.00  0.00     0.060 A 
BRANCH  99 100
ATOM    100  S   UNL A   1      39.017  36.168  41.280  1.00  0.00     0.124 S 
ATOM    101  O   UNL A   1      40.232  35.931  42.051  1.00  0.00    -0.237 OA
ATOM    102  O   UNL A   1      38.873  37.507  40.717  1.00  0.00    -0.237 OA
ATOM    103  O   UNL A   1      37.797  35.596  41.842  1.00  0.00    -0.744 OA
ENDBRANCH  99 100
ENDBRANCH  67  92
ENDBRANCH  41  42
ENDBRANCH  34  36
ENDBRANCH  33  34
ENDBRANCH  32  33
ENDBRANCH  31  32
ENDBRANCH  30  31
ENDBRANCH   1  30
TORSDOF 22
ENDMDL
