MODEL 1
REMARK VINA RESULT:     -10.3      0.000      0.000
REMARK SMILES Cc1cnc(C)c(N2CCC[C@@](CC3CC3)(C(=O)OCCOCCOCCOC(=O)c3ccc(-c4c5nc(c(-c6c(F)cc(S(=O)(=O)[O-])cc6F)c6ccc([nH]6)c(-c6c(F)cc(S(=O)(=O)[O-])cc6F)c6nc(c(-c7c(F)cc(S(=O)(=O)[O-])cc7F)c7ccc4[nH]7)C=C6)C=C5)cc3)C2)n1
REMARK SMILES IDX 24 1 23 2 22 3 21 4 20 5 19 6 17 7 18 8 12 9 8 10 9 11 97 12
REMARK SMILES IDX 10 13 11 14 7 15 1 16 2 17 3 18 98 19 4 20 5 21 6 22 13 23
REMARK SMILES IDX 14 24 15 25 16 26 25 27 26 28 27 29 28 30 29 31 30 32 31 33
REMARK SMILES IDX 32 34 96 35 33 36 95 37 34 38 35 39 36 40 89 41 37 42 94 43
REMARK SMILES IDX 88 44 90 45 38 46 93 47 87 48 86 49 39 51 73 52 52 53 72 54
REMARK SMILES IDX 53 55 56 56 71 57 91 58 54 59 55 60 70 62 92 63 57 64 40 65
REMARK SMILES IDX 41 66 50 67 42 68 43 69 49 70 51 71 44 72 45 73 46 74 47 75
REMARK SMILES IDX 48 76 74 77 75 78 84 79 76 80 77 81 83 82 85 83 78 84 79 85
REMARK SMILES IDX 80 86 81 87 82 88 58 89 59 90 68 91 60 92 61 93 67 94 69 95
REMARK SMILES IDX 62 96 63 97 64 98 65 99 66 100
REMARK H PARENT 90 50 56 61
REMARK Flexibility Score: inf
ROOT
ATOM      1  C   UNL A   1      42.090  20.102  26.029  1.00  0.00     0.188 C 
ENDROOT
BRANCH   1   2
ATOM      2  C   UNL A   1      40.831  20.408  26.841  1.00  0.00     0.188 C 
BRANCH   2   3
ATOM      3  O   UNL A   1      39.612  20.545  26.128  1.00  0.00    -0.376 OA
BRANCH   3   4
ATOM      4  C   UNL A   1      38.989  21.828  26.110  1.00  0.00     0.202 C 
BRANCH   4   5
ATOM      5  C   UNL A   1      37.784  22.042  25.181  1.00  0.00     0.261 C 
BRANCH   5   6
ATOM      6  O   UNL A   1      36.492  22.140  25.841  1.00  0.00    -0.463 OA
BRANCH   6   7
ATOM      7  C   UNL A   1      35.844  23.318  25.658  1.00  0.00     0.313 C 
ATOM      8  O   UNL A   1      36.418  24.401  25.759  1.00  0.00    -0.252 OA
BRANCH   7   9
ATOM      9  C   UNL A   1      34.330  23.246  25.379  1.00  0.00     0.086 C 
ATOM     10  N   UNL A   1      32.689  21.411  25.098  1.00  0.00    -0.354 N 
ATOM     11  C   UNL A   1      31.703  21.899  26.044  1.00  0.00     0.118 C 
ATOM     12  C   UNL A   1      34.083  21.702  25.415  1.00  0.00     0.137 C 
ATOM     13  C   UNL A   1      31.827  23.425  26.078  1.00  0.00     0.023 C 
ATOM     14  C   UNL A   1      33.279  23.888  26.337  1.00  0.00     0.022 C 
BRANCH  10  15
ATOM     15  C   UNL A   1      32.474  20.143  24.562  1.00  0.00     0.150 A 
ATOM     16  C   UNL A   1      32.720  16.616  25.603  1.00  0.00     0.068 C 
ATOM     17  C   UNL A   1      32.536  17.842  24.761  1.00  0.00     0.058 A 
ATOM     18  C   UNL A   1      32.318  17.717  23.395  1.00  0.00     0.135 A 
ATOM     19  N   UNL A   1      32.623  19.060  25.360  1.00  0.00    -0.233 NA
ATOM     20  N   UNL A   1      32.143  18.779  22.580  1.00  0.00    -0.256 NA
ATOM     21  C   UNL A   1      32.219  19.995  23.185  1.00  0.00     0.080 A 
ATOM     22  C   UNL A   1      32.157  21.184  22.275  1.00  0.00     0.071 C 
ENDBRANCH  10  15
BRANCH   9  23
ATOM     23  C   UNL A   1      34.152  23.776  23.932  1.00  0.00     0.024 C 
BRANCH  23  24
ATOM     24  C   UNL A   1      33.808  25.233  23.719  1.00  0.00    -0.010 C 
ATOM     25  C   UNL A   1      33.695  25.979  22.405  1.00  0.00     0.004 C 
ATOM     26  C   UNL A   1      32.455  25.615  23.161  1.00  0.00     0.004 C 
ENDBRANCH  23  24
ENDBRANCH   9  23
ENDBRANCH   7   9
ENDBRANCH   6   7
ENDBRANCH   5   6
ENDBRANCH   4   5
ENDBRANCH   3   4
ENDBRANCH   2   3
ENDBRANCH   1   2
BRANCH   1  27
ATOM     27  O   UNL A   1      42.707  21.226  25.436  1.00  0.00    -0.376 OA
BRANCH  27  28
ATOM     28  C   UNL A   1      42.701  22.459  26.140  1.00  0.00     0.202 C 
BRANCH  28  29
ATOM     29  C   UNL A   1      43.054  23.707  25.316  1.00  0.00     0.261 C 
BRANCH  29  30
ATOM     30  O   UNL A   1      43.196  24.921  26.078  1.00  0.00    -0.460 OA
BRANCH  30  31
ATOM     31  C   UNL A   1      42.217  25.853  25.949  1.00  0.00     0.338 C 
ATOM     32  O   UNL A   1      41.404  25.935  25.043  1.00  0.00    -0.246 OA
BRANCH  31  33
ATOM     33  C   UNL A   1      42.114  26.564  27.249  1.00  0.00     0.060 A 
ATOM     34  C   UNL A   1      41.197  26.089  28.201  1.00  0.00     0.016 A 
ATOM     35  C   UNL A   1      42.983  27.609  27.570  1.00  0.00     0.016 A 
ATOM     36  C   UNL A   1      41.126  26.684  29.464  1.00  0.00     0.010 A 
ATOM     37  C   UNL A   1      42.897  28.216  28.825  1.00  0.00     0.010 A 
ATOM     38  C   UNL A   1      41.947  27.779  29.766  1.00  0.00    -0.014 A 
BRANCH  38  39
ATOM     39  C   UNL A   1      41.665  28.611  30.962  1.00  0.00     0.031 A 
ATOM     40  C   UNL A   1      40.509  29.572  30.887  1.00  0.00     0.074 A 
ATOM     41  C   UNL A   1      42.406  28.532  32.081  1.00  0.00     0.049 A 
ATOM     42  N   UNL A   1      40.089  30.438  31.772  1.00  0.00    -0.248 NA
ATOM     43  C   UNL A   1      39.726  29.555  29.640  1.00  0.00     0.031 C 
ATOM     44  C   UNL A   1      43.537  27.632  32.290  1.00  0.00     0.029 A 
ATOM     45  N   UNL A   1      42.316  29.239  33.256  1.00  0.00    -0.354 N 
ATOM     46  C   UNL A   1      38.998  31.072  31.187  1.00  0.00     0.074 A 
ATOM     47  C   UNL A   1      38.841  30.514  29.862  1.00  0.00     0.031 C 
ATOM     48  C   UNL A   1      44.047  27.853  33.516  1.00  0.00     0.029 A 
ATOM     49  C   UNL A   1      43.289  28.919  34.172  1.00  0.00     0.049 A 
ATOM     50  H   UNL A   1      41.619  29.914  33.426  1.00  0.00     0.167 HD
ATOM     51  C   UNL A   1      38.195  32.028  31.708  1.00  0.00     0.037 A 
ATOM     52  C   UNL A   1      43.544  29.434  35.392  1.00  0.00     0.037 A 
ATOM     53  C   UNL A   1      38.354  32.592  33.020  1.00  0.00     0.049 A 
ATOM     54  C   UNL A   1      42.667  30.539  35.931  1.00  0.00     0.074 A 
ATOM     55  C   UNL A   1      37.582  33.558  33.641  1.00  0.00     0.029 A 
ATOM     56  N   UNL A   1      39.361  32.251  33.912  1.00  0.00    -0.354 N 
ATOM     57  N   UNL A   1      41.620  31.107  35.382  1.00  0.00    -0.248 NA
ATOM     58  C   UNL A   1      43.008  31.072  37.259  1.00  0.00     0.031 C 
ATOM     59  C   UNL A   1      38.149  33.836  34.889  1.00  0.00     0.029 A 
ATOM     60  C   UNL A   1      39.243  33.005  35.068  1.00  0.00     0.049 A 
ATOM     61  H   UNL A   1      40.056  31.574  33.747  1.00  0.00     0.167 HD
ATOM     62  C   UNL A   1      41.166  32.048  36.304  1.00  0.00     0.074 A 
ATOM     63  C   UNL A   1      42.043  31.960  37.454  1.00  0.00     0.031 C 
ATOM     64  C   UNL A   1      40.121  32.906  36.208  1.00  0.00     0.037 A 
BRANCH  51  65
ATOM     65  C   UNL A   1      37.085  32.542  30.836  1.00  0.00     0.058 A 
ATOM     66  C   UNL A   1      37.310  33.523  29.857  1.00  0.00     0.135 A 
ATOM     67  C   UNL A   1      35.782  32.036  30.970  1.00  0.00     0.135 A 
ATOM     68  F   UNL A   1      38.532  34.060  29.705  1.00  0.00    -0.206 F 
ATOM     69  C   UNL A   1      36.277  34.003  29.059  1.00  0.00     0.059 A 
ATOM     70  C   UNL A   1      34.740  32.481  30.164  1.00  0.00     0.059 A 
ATOM     71  F   UNL A   1      35.512  31.102  31.896  1.00  0.00    -0.206 F 
ATOM     72  C   UNL A   1      34.995  33.475  29.221  1.00  0.00     0.060 A 
BRANCH  72  73
ATOM     73  S   UNL A   1      33.665  34.105  28.175  1.00  0.00     0.124 S 
ATOM     74  O   UNL A   1      33.131  32.870  27.608  1.00  0.00    -0.237 OA
ATOM     75  O   UNL A   1      32.805  34.783  29.139  1.00  0.00    -0.237 OA
ATOM     76  O   UNL A   1      34.359  34.979  27.234  1.00  0.00    -0.744 OA
ENDBRANCH  72  73
ENDBRANCH  51  65
BRANCH  52  77
ATOM     77  C   UNL A   1      44.687  28.923  36.196  1.00  0.00     0.058 A 
ATOM     78  C   UNL A   1      44.541  27.810  37.036  1.00  0.00     0.135 A 
ATOM     79  C   UNL A   1      45.943  29.549  36.154  1.00  0.00     0.135 A 
ATOM     80  F   UNL A   1      43.359  27.181  37.119  1.00  0.00    -0.206 F 
ATOM     81  C   UNL A   1      45.592  27.345  37.821  1.00  0.00     0.059 A 
ATOM     82  C   UNL A   1      47.017  29.085  36.908  1.00  0.00     0.059 A 
ATOM     83  F   UNL A   1      46.137  30.614  35.361  1.00  0.00    -0.206 F 
ATOM     84  C   UNL A   1      46.828  27.989  37.748  1.00  0.00     0.060 A 
BRANCH  84  85
ATOM     85  S   UNL A   1      48.200  27.345  38.731  1.00  0.00     0.124 S 
ATOM     86  O   UNL A   1      49.077  28.508  38.806  1.00  0.00    -0.237 OA
ATOM     87  O   UNL A   1      47.532  26.968  39.973  1.00  0.00    -0.237 OA
ATOM     88  O   UNL A   1      48.694  26.231  37.929  1.00  0.00    -0.744 OA
ENDBRANCH  84  85
ENDBRANCH  52  77
BRANCH  64  89
ATOM     89  C   UNL A   1      39.841  33.803  37.385  1.00  0.00     0.058 A 
ATOM     90  C   UNL A   1      38.933  33.440  38.392  1.00  0.00     0.135 A 
ATOM     91  C   UNL A   1      40.532  35.016  37.535  1.00  0.00     0.135 A 
ATOM     92  F   UNL A   1      38.243  32.292  38.298  1.00  0.00    -0.206 F 
ATOM     93  C   UNL A   1      38.697  34.261  39.490  1.00  0.00     0.059 A 
ATOM     94  C   UNL A   1      40.334  35.840  38.639  1.00  0.00     0.059 A 
ATOM     95  F   UNL A   1      41.424  35.406  36.610  1.00  0.00    -0.206 F 
ATOM     96  C   UNL A   1      39.403  35.460  39.605  1.00  0.00     0.060 A 
BRANCH  96  97
ATOM     97  S   UNL A   1      39.107  36.508  41.046  1.00  0.00     0.124 S 
ATOM     98  O   UNL A   1      40.468  36.782  41.495  1.00  0.00    -0.237 OA
ATOM     99  O   UNL A   1      38.390  37.640  40.468  1.00  0.00    -0.237 OA
ATOM    100  O   UNL A   1      38.314  35.657  41.928  1.00  0.00    -0.744 OA
ENDBRANCH  96  97
ENDBRANCH  64  89
ENDBRANCH  38  39
ENDBRANCH  31  33
ENDBRANCH  30  31
ENDBRANCH  29  30
ENDBRANCH  28  29
ENDBRANCH  27  28
ENDBRANCH   1  27
TORSDOF 23
ENDMDL
MODEL 2
REMARK VINA RESULT:     -10.3      6.386     12.160
REMARK SMILES Cc1cnc(C)c(N2CCC[C@@](CC3CC3)(C(=O)OCCOCCOCCOC(=O)c3ccc(-c4c5nc(c(-c6c(F)cc(S(=O)(=O)[O-])cc6F)c6ccc([nH]6)c(-c6c(F)cc(S(=O)(=O)[O-])cc6F)c6nc(c(-c7c(F)cc(S(=O)(=O)[O-])cc7F)c7ccc4[nH]7)C=C6)C=C5)cc3)C2)n1
REMARK SMILES IDX 24 1 23 2 22 3 21 4 20 5 19 6 17 7 18 8 12 9 8 10 9 11 97 12
REMARK SMILES IDX 10 13 11 14 7 15 1 16 2 17 3 18 98 19 4 20 5 21 6 22 13 23
REMARK SMILES IDX 14 24 15 25 16 26 25 27 26 28 27 29 28 30 29 31 30 32 31 33
REMARK SMILES IDX 32 34 96 35 33 36 95 37 34 38 35 39 36 40 89 41 37 42 94 43
REMARK SMILES IDX 88 44 90 45 38 46 93 47 87 48 86 49 39 51 73 52 52 53 72 54
REMARK SMILES IDX 53 55 56 56 71 57 91 58 54 59 55 60 70 62 92 63 57 64 40 65
REMARK SMILES IDX 41 66 50 67 42 68 43 69 49 70 51 71 44 72 45 73 46 74 47 75
REMARK SMILES IDX 48 76 74 77 75 78 84 79 76 80 77 81 83 82 85 83 78 84 79 85
REMARK SMILES IDX 80 86 81 87 82 88 58 89 59 90 68 91 60 92 61 93 67 94 69 95
REMARK SMILES IDX 62 96 63 97 64 98 65 99 66 100
REMARK H PARENT 90 50 56 61
REMARK Flexibility Score: inf
ROOT
ATOM      1  C   UNL A   1      34.316  33.273  28.209  1.00  0.00     0.188 C 
ENDROOT
BRANCH   1   2
ATOM      2  C   UNL A   1      34.056  31.794  27.917  1.00  0.00     0.188 C 
BRANCH   2   3
ATOM      3  O   UNL A   1      35.187  30.961  27.714  1.00  0.00    -0.376 OA
BRANCH   3   4
ATOM      4  C   UNL A   1      34.981  29.549  27.701  1.00  0.00     0.202 C 
BRANCH   4   5
ATOM      5  C   UNL A   1      33.619  29.013  27.232  1.00  0.00     0.261 C 
BRANCH   5   6
ATOM      6  O   UNL A   1      33.653  27.740  26.530  1.00  0.00    -0.463 OA
BRANCH   6   7
ATOM      7  C   UNL A   1      33.781  27.833  25.183  1.00  0.00     0.313 C 
ATOM      8  O   UNL A   1      34.557  28.628  24.654  1.00  0.00    -0.252 OA
BRANCH   7   9
ATOM      9  C   UNL A   1      32.858  26.941  24.331  1.00  0.00     0.086 C 
ATOM     10  N   UNL A   1      30.918  27.348  22.844  1.00  0.00    -0.354 N 
ATOM     11  C   UNL A   1      31.405  26.600  21.699  1.00  0.00     0.118 C 
ATOM     12  C   UNL A   1      31.934  28.007  23.658  1.00  0.00     0.137 C 
ATOM     13  C   UNL A   1      32.312  25.491  22.237  1.00  0.00     0.023 C 
ATOM     14  C   UNL A   1      33.406  26.037  23.183  1.00  0.00     0.022 C 
BRANCH  10  15
ATOM     15  C   UNL A   1      29.755  28.091  22.663  1.00  0.00     0.150 A 
ATOM     16  C   UNL A   1      28.731  31.337  21.248  1.00  0.00     0.068 C 
ATOM     17  C   UNL A   1      28.691  30.019  21.958  1.00  0.00     0.058 A 
ATOM     18  C   UNL A   1      27.525  29.609  22.593  1.00  0.00     0.135 A 
ATOM     19  N   UNL A   1      29.823  29.265  21.993  1.00  0.00    -0.233 NA
ATOM     20  N   UNL A   1      27.422  28.433  23.248  1.00  0.00    -0.256 NA
ATOM     21  C   UNL A   1      28.553  27.677  23.269  1.00  0.00     0.080 A 
ATOM     22  C   UNL A   1      28.493  26.432  24.102  1.00  0.00     0.071 C 
ENDBRANCH  10  15
BRANCH   9  23
ATOM     23  C   UNL A   1      32.041  26.102  25.350  1.00  0.00     0.024 C 
BRANCH  23  24
ATOM     24  C   UNL A   1      32.362  24.633  25.517  1.00  0.00    -0.010 C 
ATOM     25  C   UNL A   1      33.442  24.010  26.378  1.00  0.00     0.004 C 
ATOM     26  C   UNL A   1      32.009  23.926  26.807  1.00  0.00     0.004 C 
ENDBRANCH  23  24
ENDBRANCH   9  23
ENDBRANCH   7   9
ENDBRANCH   6   7
ENDBRANCH   5   6
ENDBRANCH   4   5
ENDBRANCH   3   4
ENDBRANCH   2   3
ENDBRANCH   1   2
BRANCH   1  27
ATOM     27  O   UNL A   1      33.891  33.714  29.482  1.00  0.00    -0.376 OA
BRANCH  27  28
ATOM     28  C   UNL A   1      34.854  33.836  30.519  1.00  0.00     0.202 C 
BRANCH  28  29
ATOM     29  C   UNL A   1      35.222  32.536  31.252  1.00  0.00     0.261 C 
BRANCH  29  30
ATOM     30  O   UNL A   1      36.406  31.875  30.766  1.00  0.00    -0.460 OA
BRANCH  30  31
ATOM     31  C   UNL A   1      36.907  30.865  31.522  1.00  0.00     0.338 C 
ATOM     32  O   UNL A   1      36.328  30.265  32.412  1.00  0.00    -0.246 OA
BRANCH  31  33
ATOM     33  C   UNL A   1      38.165  30.415  30.874  1.00  0.00     0.060 A 
ATOM     34  C   UNL A   1      39.171  29.857  31.679  1.00  0.00     0.016 A 
ATOM     35  C   UNL A   1      38.308  30.436  29.485  1.00  0.00     0.016 A 
ATOM     36  C   UNL A   1      40.336  29.351  31.097  1.00  0.00     0.010 A 
ATOM     37  C   UNL A   1      39.482  29.950  28.905  1.00  0.00     0.010 A 
ATOM     38  C   UNL A   1      40.515  29.435  29.709  1.00  0.00    -0.014 A 
BRANCH  38  39
ATOM     39  C   UNL A   1      41.856  29.202  29.118  1.00  0.00     0.031 A 
ATOM     40  C   UNL A   1      42.162  27.822  28.602  1.00  0.00     0.074 A 
ATOM     41  C   UNL A   1      42.784  30.172  29.042  1.00  0.00     0.049 A 
ATOM     42  N   UNL A   1      43.269  27.352  28.089  1.00  0.00    -0.248 NA
ATOM     43  C   UNL A   1      41.069  26.838  28.684  1.00  0.00     0.031 C 
ATOM     44  C   UNL A   1      42.610  31.553  29.486  1.00  0.00     0.029 A 
ATOM     45  N   UNL A   1      44.073  30.131  28.568  1.00  0.00    -0.354 N 
ATOM     46  C   UNL A   1      43.008  26.019  27.792  1.00  0.00     0.074 A 
ATOM     47  C   UNL A   1      41.651  25.747  28.211  1.00  0.00     0.031 C 
ATOM     48  C   UNL A   1      43.757  32.225  29.277  1.00  0.00     0.029 A 
ATOM     49  C   UNL A   1      44.750  31.320  28.699  1.00  0.00     0.049 A 
ATOM     50  H   UNL A   1      44.475  29.325  28.170  1.00  0.00     0.167 HD
ATOM     51  C   UNL A   1      43.822  25.104  27.216  1.00  0.00     0.037 A 
ATOM     52  C   UNL A   1      46.027  31.636  28.398  1.00  0.00     0.037 A 
ATOM     53  C   UNL A   1      45.175  25.368  26.808  1.00  0.00     0.049 A 
ATOM     54  C   UNL A   1      46.934  30.584  27.807  1.00  0.00     0.074 A 
ATOM     55  C   UNL A   1      46.075  24.508  26.205  1.00  0.00     0.029 A 
ATOM     56  N   UNL A   1      45.829  26.581  26.972  1.00  0.00    -0.354 N 
ATOM     57  N   UNL A   1      46.667  29.337  27.501  1.00  0.00    -0.248 NA
ATOM     58  C   UNL A   1      48.320  30.985  27.518  1.00  0.00     0.031 C 
ATOM     59  C   UNL A   1      47.289  25.186  26.046  1.00  0.00     0.029 A 
ATOM     60  C   UNL A   1      47.129  26.484  26.501  1.00  0.00     0.049 A 
ATOM     61  H   UNL A   1      45.429  27.390  27.363  1.00  0.00     0.167 HD
ATOM     62  C   UNL A   1      47.841  28.811  26.967  1.00  0.00     0.074 A 
ATOM     63  C   UNL A   1      48.817  29.882  26.975  1.00  0.00     0.031 C 
ATOM     64  C   UNL A   1      48.090  27.558  26.512  1.00  0.00     0.037 A 
BRANCH  51  65
ATOM     65  C   UNL A   1      43.271  23.720  27.022  1.00  0.00     0.058 A 
ATOM     66  C   UNL A   1      43.226  22.791  28.073  1.00  0.00     0.135 A 
ATOM     67  C   UNL A   1      42.768  23.324  25.773  1.00  0.00     0.135 A 
ATOM     68  F   UNL A   1      43.718  23.110  29.281  1.00  0.00    -0.206 F 
ATOM     69  C   UNL A   1      42.724  21.507  27.885  1.00  0.00     0.059 A 
ATOM     70  C   UNL A   1      42.236  22.056  25.569  1.00  0.00     0.059 A 
ATOM     71  F   UNL A   1      42.795  24.173  24.733  1.00  0.00    -0.206 F 
ATOM     72  C   UNL A   1      42.231  21.149  26.629  1.00  0.00     0.060 A 
BRANCH  72  73
ATOM     73  S   UNL A   1      41.580  19.482  26.402  1.00  0.00     0.124 S 
ATOM     74  O   UNL A   1      40.191  19.758  26.045  1.00  0.00    -0.237 OA
ATOM     75  O   UNL A   1      42.418  18.963  25.326  1.00  0.00    -0.237 OA
ATOM     76  O   UNL A   1      41.780  18.858  27.706  1.00  0.00    -0.744 OA
ENDBRANCH  72  73
ENDBRANCH  51  65
BRANCH  52  77
ATOM     77  C   UNL A   1      46.538  33.009  28.656  1.00  0.00     0.058 A 
ATOM     78  C   UNL A   1      47.167  33.333  29.867  1.00  0.00     0.135 A 
ATOM     79  C   UNL A   1      46.394  34.030  27.702  1.00  0.00     0.135 A 
ATOM     80  F   UNL A   1      47.322  32.396  30.814  1.00  0.00    -0.206 F 
ATOM     81  C   UNL A   1      47.617  34.622  30.134  1.00  0.00     0.059 A 
ATOM     82  C   UNL A   1      46.861  35.320  27.934  1.00  0.00     0.059 A 
ATOM     83  F   UNL A   1      45.806  33.770  26.524  1.00  0.00    -0.206 F 
ATOM     84  C   UNL A   1      47.461  35.610  29.159  1.00  0.00     0.060 A 
BRANCH  84  85
ATOM     85  S   UNL A   1      48.095  37.267  29.496  1.00  0.00     0.124 S 
ATOM     86  O   UNL A   1      47.308  38.075  28.571  1.00  0.00    -0.237 OA
ATOM     87  O   UNL A   1      47.783  37.430  30.912  1.00  0.00    -0.237 OA
ATOM     88  O   UNL A   1      49.516  37.152  29.182  1.00  0.00    -0.744 OA
ENDBRANCH  84  85
ENDBRANCH  52  77
BRANCH  64  89
ATOM     89  C   UNL A   1      49.461  27.275  25.956  1.00  0.00     0.058 A 
ATOM     90  C   UNL A   1      50.525  26.877  26.779  1.00  0.00     0.135 A 
ATOM     91  C   UNL A   1      49.696  27.350  24.573  1.00  0.00     0.135 A 
ATOM     92  F   UNL A   1      50.357  26.791  28.107  1.00  0.00    -0.206 F 
ATOM     93  C   UNL A   1      51.783  26.592  26.255  1.00  0.00     0.059 A 
ATOM     94  C   UNL A   1      50.938  27.042  24.024  1.00  0.00     0.059 A 
ATOM     95  F   UNL A   1      48.709  27.710  23.737  1.00  0.00    -0.206 F 
ATOM     96  C   UNL A   1      51.980  26.678  24.876  1.00  0.00     0.060 A 
BRANCH  96  97
ATOM     97  S   UNL A   1      53.609  26.284  24.205  1.00  0.00     0.124 S 
ATOM     98  O   UNL A   1      53.728  24.867  24.535  1.00  0.00    -0.237 OA
ATOM     99  O   UNL A   1      53.447  26.593  22.788  1.00  0.00    -0.237 OA
ATOM    100  O   UNL A   1      54.504  27.177  24.935  1.00  0.00    -0.744 OA
ENDBRANCH  96  97
ENDBRANCH  64  89
ENDBRANCH  38  39
ENDBRANCH  31  33
ENDBRANCH  30  31
ENDBRANCH  29  30
ENDBRANCH  28  29
ENDBRANCH  27  28
ENDBRANCH   1  27
TORSDOF 23
ENDMDL
MODEL 3
REMARK VINA RESULT:     -10.2      6.222     11.940
REMARK SMILES Cc1cnc(C)c(N2CCC[C@@](CC3CC3)(C(=O)OCCOCCOCCOC(=O)c3ccc(-c4c5nc(c(-c6c(F)cc(S(=O)(=O)[O-])cc6F)c6ccc([nH]6)c(-c6c(F)cc(S(=O)(=O)[O-])cc6F)c6nc(c(-c7c(F)cc(S(=O)(=O)[O-])cc7F)c7ccc4[nH]7)C=C6)C=C5)cc3)C2)n1
REMARK SMILES IDX 24 1 23 2 22 3 21 4 20 5 19 6 17 7 18 8 12 9 8 10 9 11 97 12
REMARK SMILES IDX 10 13 11 14 7 15 1 16 2 17 3 18 98 19 4 20 5 21 6 22 13 23
REMARK SMILES IDX 14 24 15 25 16 26 25 27 26 28 27 29 28 30 29 31 30 32 31 33
REMARK SMILES IDX 32 34 96 35 33 36 95 37 34 38 35 39 36 40 89 41 37 42 94 43
REMARK SMILES IDX 88 44 90 45 38 46 93 47 87 48 86 49 39 51 73 52 52 53 72 54
REMARK SMILES IDX 53 55 56 56 71 57 91 58 54 59 55 60 70 62 92 63 57 64 40 65
REMARK SMILES IDX 41 66 50 67 42 68 43 69 49 70 51 71 44 72 45 73 46 74 47 75
REMARK SMILES IDX 48 76 74 77 75 78 84 79 76 80 77 81 83 82 85 83 78 84 79 85
REMARK SMILES IDX 80 86 81 87 82 88 58 89 59 90 68 91 60 92 61 93 67 94 69 95
REMARK SMILES IDX 62 96 63 97 64 98 65 99 66 100
REMARK H PARENT 90 50 56 61
REMARK Flexibility Score: inf
ROOT
ATOM      1  C   UNL A   1      34.579  34.310  28.955  1.00  0.00     0.188 C 
ENDROOT
BRANCH   1   2
ATOM      2  C   UNL A   1      34.556  33.043  28.099  1.00  0.00     0.188 C 
BRANCH   2   3
ATOM      3  O   UNL A   1      35.648  32.146  28.233  1.00  0.00    -0.376 OA
BRANCH   3   4
ATOM      4  C   UNL A   1      35.566  30.890  27.561  1.00  0.00     0.202 C 
BRANCH   4   5
ATOM      5  C   UNL A   1      34.251  30.100  27.647  1.00  0.00     0.261 C 
BRANCH   5   6
ATOM      6  O   UNL A   1      34.210  28.863  26.883  1.00  0.00    -0.463 OA
BRANCH   6   7
ATOM      7  C   UNL A   1      33.284  28.833  25.892  1.00  0.00     0.313 C 
ATOM      8  O   UNL A   1      32.927  29.851  25.301  1.00  0.00    -0.252 OA
BRANCH   7   9
ATOM      9  C   UNL A   1      32.642  27.468  25.578  1.00  0.00     0.086 C 
ATOM     10  N   UNL A   1      33.496  25.162  25.276  1.00  0.00    -0.354 N 
ATOM     11  C   UNL A   1      32.582  24.506  26.193  1.00  0.00     0.118 C 
ATOM     12  C   UNL A   1      33.887  26.524  25.624  1.00  0.00     0.137 C 
ATOM     13  C   UNL A   1      31.293  25.332  26.213  1.00  0.00     0.023 C 
ATOM     14  C   UNL A   1      31.561  26.827  26.502  1.00  0.00     0.022 C 
BRANCH  10  15
ATOM     15  C   UNL A   1      34.525  24.385  24.749  1.00  0.00     0.150 A 
ATOM     16  C   UNL A   1      37.866  23.177  25.726  1.00  0.00     0.068 C 
ATOM     17  C   UNL A   1      36.641  23.471  24.917  1.00  0.00     0.058 A 
ATOM     18  C   UNL A   1      36.596  23.117  23.575  1.00  0.00     0.135 A 
ATOM     19  N   UNL A   1      35.605  24.117  25.518  1.00  0.00    -0.233 NA
ATOM     20  N   UNL A   1      35.522  23.351  22.790  1.00  0.00    -0.256 NA
ATOM     21  C   UNL A   1      34.485  23.986  23.398  1.00  0.00     0.080 A 
ATOM     22  C   UNL A   1      33.340  24.369  22.510  1.00  0.00     0.071 C 
ENDBRANCH  10  15
BRANCH   9  23
ATOM     23  C   UNL A   1      32.121  27.584  24.120  1.00  0.00     0.024 C 
BRANCH  23  24
ATOM     24  C   UNL A   1      30.656  27.878  23.885  1.00  0.00    -0.010 C 
ATOM     25  C   UNL A   1      30.019  29.211  23.548  1.00  0.00     0.004 C 
ATOM     26  C   UNL A   1      30.161  28.165  22.485  1.00  0.00     0.004 C 
ENDBRANCH  23  24
ENDBRANCH   9  23
ENDBRANCH   7   9
ENDBRANCH   6   7
ENDBRANCH   5   6
ENDBRANCH   4   5
ENDBRANCH   3   4
ENDBRANCH   2   3
ENDBRANCH   1   2
BRANCH   1  27
ATOM     27  O   UNL A   1      34.303  34.111  30.326  1.00  0.00    -0.376 OA
BRANCH  27  28
ATOM     28  C   UNL A   1      35.391  33.990  31.230  1.00  0.00     0.202 C 
BRANCH  28  29
ATOM     29  C   UNL A   1      35.666  32.578  31.770  1.00  0.00     0.261 C 
BRANCH  29  30
ATOM     30  O   UNL A   1      36.852  31.946  31.252  1.00  0.00    -0.460 OA
BRANCH  30  31
ATOM     31  C   UNL A   1      37.155  30.711  31.725  1.00  0.00     0.338 C 
ATOM     32  O   UNL A   1      36.432  29.988  32.390  1.00  0.00    -0.246 OA
BRANCH  31  33
ATOM     33  C   UNL A   1      38.394  30.268  31.036  1.00  0.00     0.060 A 
ATOM     34  C   UNL A   1      39.404  29.659  31.798  1.00  0.00     0.016 A 
ATOM     35  C   UNL A   1      38.514  30.347  29.646  1.00  0.00     0.016 A 
ATOM     36  C   UNL A   1      40.550  29.160  31.174  1.00  0.00     0.010 A 
ATOM     37  C   UNL A   1      39.669  29.867  29.026  1.00  0.00     0.010 A 
ATOM     38  C   UNL A   1      40.706  29.301  29.788  1.00  0.00    -0.014 A 
BRANCH  38  39
ATOM     39  C   UNL A   1      42.033  29.072  29.164  1.00  0.00     0.031 A 
ATOM     40  C   UNL A   1      42.322  27.698  28.621  1.00  0.00     0.074 A 
ATOM     41  C   UNL A   1      42.963  30.040  29.081  1.00  0.00     0.049 A 
ATOM     42  N   UNL A   1      43.415  27.232  28.077  1.00  0.00    -0.248 NA
ATOM     43  C   UNL A   1      41.227  26.717  28.714  1.00  0.00     0.031 C 
ATOM     44  C   UNL A   1      42.804  31.414  29.549  1.00  0.00     0.029 A 
ATOM     45  N   UNL A   1      44.241  30.000  28.578  1.00  0.00    -0.354 N 
ATOM     46  C   UNL A   1      43.142  25.904  27.767  1.00  0.00     0.074 A 
ATOM     47  C   UNL A   1      41.794  25.631  28.212  1.00  0.00     0.031 C 
ATOM     48  C   UNL A   1      43.949  32.085  29.324  1.00  0.00     0.029 A 
ATOM     49  C   UNL A   1      44.925  31.185  28.711  1.00  0.00     0.049 A 
ATOM     50  H   UNL A   1      44.631  29.199  28.160  1.00  0.00     0.167 HD
ATOM     51  C   UNL A   1      43.940  24.995  27.160  1.00  0.00     0.037 A 
ATOM     52  C   UNL A   1      46.196  31.501  28.386  1.00  0.00     0.037 A 
ATOM     53  C   UNL A   1      45.284  25.260  26.726  1.00  0.00     0.049 A 
ATOM     54  C   UNL A   1      47.086  30.454  27.759  1.00  0.00     0.074 A 
ATOM     55  C   UNL A   1      46.167  24.405  26.090  1.00  0.00     0.029 A 
ATOM     56  N   UNL A   1      45.946  26.468  26.892  1.00  0.00    -0.354 N 
ATOM     57  N   UNL A   1      46.807  29.212  27.442  1.00  0.00    -0.248 NA
ATOM     58  C   UNL A   1      48.466  30.854  27.446  1.00  0.00     0.031 C 
ATOM     59  C   UNL A   1      47.379  25.080  25.914  1.00  0.00     0.029 A 
ATOM     60  C   UNL A   1      47.235  26.372  26.392  1.00  0.00     0.049 A 
ATOM     61  H   UNL A   1      45.558  27.272  27.304  1.00  0.00     0.167 HD
ATOM     62  C   UNL A   1      47.967  28.690  26.874  1.00  0.00     0.074 A 
ATOM     63  C   UNL A   1      48.946  29.757  26.876  1.00  0.00     0.031 C 
ATOM     64  C   UNL A   1      48.200  27.443  26.396  1.00  0.00     0.037 A 
BRANCH  51  65
ATOM     65  C   UNL A   1      43.379  23.616  26.958  1.00  0.00     0.058 A 
ATOM     66  C   UNL A   1      42.963  23.166  25.695  1.00  0.00     0.135 A 
ATOM     67  C   UNL A   1      43.271  22.727  28.039  1.00  0.00     0.135 A 
ATOM     68  F   UNL A   1      43.020  23.986  24.632  1.00  0.00    -0.206 F 
ATOM     69  C   UNL A   1      42.435  21.893  25.516  1.00  0.00     0.059 A 
ATOM     70  C   UNL A   1      42.772  21.439  27.878  1.00  0.00     0.059 A 
ATOM     71  F   UNL A   1      43.648  23.110  29.270  1.00  0.00    -0.206 F 
ATOM     72  C   UNL A   1      42.343  21.036  26.614  1.00  0.00     0.060 A 
BRANCH  72  73
ATOM     73  S   UNL A   1      41.659  19.385  26.364  1.00  0.00     0.124 S 
ATOM     74  O   UNL A   1      40.236  19.679  26.220  1.00  0.00    -0.237 OA
ATOM     75  O   UNL A   1      42.340  18.945  25.151  1.00  0.00    -0.237 OA
ATOM     76  O   UNL A   1      42.033  18.674  27.583  1.00  0.00    -0.744 OA
ENDBRANCH  72  73
ENDBRANCH  51  65
BRANCH  52  77
ATOM     77  C   UNL A   1      46.719  32.868  28.652  1.00  0.00     0.058 A 
ATOM     78  C   UNL A   1      47.288  33.198  29.890  1.00  0.00     0.135 A 
ATOM     79  C   UNL A   1      46.644  33.877  27.678  1.00  0.00     0.135 A 
ATOM     80  F   UNL A   1      47.376  32.272  30.857  1.00  0.00    -0.206 F 
ATOM     81  C   UNL A   1      47.747  34.483  30.163  1.00  0.00     0.059 A 
ATOM     82  C   UNL A   1      47.122  35.162  27.917  1.00  0.00     0.059 A 
ATOM     83  F   UNL A   1      46.114  33.611  26.474  1.00  0.00    -0.206 F 
ATOM     84  C   UNL A   1      47.662  35.458  29.168  1.00  0.00     0.060 A 
BRANCH  84  85
ATOM     85  S   UNL A   1      48.308  37.109  29.515  1.00  0.00     0.124 S 
ATOM     86  O   UNL A   1      48.618  37.590  28.174  1.00  0.00    -0.237 OA
ATOM     87  O   UNL A   1      47.173  37.747  30.175  1.00  0.00    -0.237 OA
ATOM     88  O   UNL A   1      49.458  36.845  30.374  1.00  0.00    -0.744 OA
ENDBRANCH  84  85
ENDBRANCH  52  77
BRANCH  64  89
ATOM     89  C   UNL A   1      49.557  27.163  25.805  1.00  0.00     0.058 A 
ATOM     90  C   UNL A   1      49.805  27.291  24.430  1.00  0.00     0.135 A 
ATOM     91  C   UNL A   1      50.636  26.814  26.634  1.00  0.00     0.135 A 
ATOM     92  F   UNL A   1      48.811  27.620  23.591  1.00  0.00    -0.206 F 
ATOM     93  C   UNL A   1      51.068  27.056  23.893  1.00  0.00     0.059 A 
ATOM     94  C   UNL A   1      51.913  26.602  26.123  1.00  0.00     0.059 A 
ATOM     95  F   UNL A   1      50.459  26.693  27.960  1.00  0.00    -0.206 F 
ATOM     96  C   UNL A   1      52.116  26.711  24.748  1.00  0.00     0.060 A 
BRANCH  96  97
ATOM     97  S   UNL A   1      53.755  26.430  24.044  1.00  0.00     0.124 S 
ATOM     98  O   UNL A   1      54.162  25.206  24.726  1.00  0.00    -0.237 OA
ATOM     99  O   UNL A   1      53.465  26.296  22.620  1.00  0.00    -0.237 OA
ATOM    100  O   UNL A   1      54.496  27.632  24.415  1.00  0.00    -0.744 OA
ENDBRANCH  96  97
ENDBRANCH  64  89
ENDBRANCH  38  39
ENDBRANCH  31  33
ENDBRANCH  30  31
ENDBRANCH  29  30
ENDBRANCH  28  29
ENDBRANCH  27  28
ENDBRANCH   1  27
TORSDOF 23
ENDMDL
