MODEL 1
REMARK VINA RESULT:     -11.2      0.000      0.000
REMARK SMILES CS(=O)(=O)c1ccc(N2N=C(C(=O)OCCOCCOCCOC(=O)c3ccc(-c4c5nc(c(-c6c(F)cc(S(=O)(=O)[O-])cc6F)c6ccc([nH]6)c(-c6c(F)cc(S(=O)(=O)[O-])cc6F)c6nc(c(-c7c(F)cc(S(=O)(=O)[O-])cc7F)c7ccc4[nH]7)C=C6)C=C5)cc3)C[C@H]2c2cccs2)cc1
REMARK SMILES IDX 19 1 18 2 17 3 16 4 15 5 14 6 12 7 13 8 11 9 9 10 10 11
REMARK SMILES IDX 93 12 92 13 8 14 5 15 6 16 100 17 7 18 99 19 2 20 1 21 3 22
REMARK SMILES IDX 4 23 94 24 95 25 98 26 96 27 97 28 20 29 21 30 22 31 23 32
REMARK SMILES IDX 24 33 25 34 26 35 27 36 91 37 28 38 90 39 29 40 30 41 31 42
REMARK SMILES IDX 84 43 32 44 89 45 83 46 85 47 33 48 88 49 82 50 81 51 34 53
REMARK SMILES IDX 68 54 47 55 67 56 48 57 51 58 66 59 86 60 49 61 50 62 65 64
REMARK SMILES IDX 87 65 52 66 35 67 36 68 45 69 37 70 38 71 44 72 46 73 39 74
REMARK SMILES IDX 40 75 41 76 42 77 43 78 69 79 70 80 79 81 71 82 72 83 78 84
REMARK SMILES IDX 80 85 73 86 74 87 75 88 76 89 77 90 53 91 54 92 63 93 55 94
REMARK SMILES IDX 56 95 62 96 64 97 57 98 58 99 59 100 60 101 61 102
REMARK H PARENT 85 52 51 63
REMARK Flexibility Score: inf
ROOT
ATOM      1  C   UNL A   1      36.998  21.570  24.656  1.00  0.00     0.188 C 
ENDROOT
BRANCH   1   2
ATOM      2  C   UNL A   1      35.714  20.805  25.032  1.00  0.00     0.188 C 
BRANCH   2   3
ATOM      3  O   UNL A   1      34.756  21.439  25.872  1.00  0.00    -0.376 OA
BRANCH   3   4
ATOM      4  C   UNL A   1      33.435  20.916  25.956  1.00  0.00     0.202 C 
BRANCH   4   5
ATOM      5  C   UNL A   1      32.293  21.582  25.173  1.00  0.00     0.261 C 
BRANCH   5   6
ATOM      6  O   UNL A   1      31.355  22.274  26.010  1.00  0.00    -0.459 OA
BRANCH   6   7
ATOM      7  C   UNL A   1      31.899  23.153  26.880  1.00  0.00     0.354 C 
ATOM      8  O   UNL A   1      32.233  22.958  28.022  1.00  0.00    -0.245 OA
BRANCH   7   9
ATOM      9  C   UNL A   1      32.133  24.473  26.179  1.00  0.00     0.148 C 
ATOM     10  N   UNL A   1      31.756  26.327  25.224  1.00  0.00    -0.256 N 
ATOM     11  N   UNL A   1      31.175  25.315  25.939  1.00  0.00    -0.169 NA
ATOM     12  C   UNL A   1      33.071  25.916  24.685  1.00  0.00     0.154 C 
ATOM     13  C   UNL A   1      33.504  24.905  25.759  1.00  0.00     0.099 C 
BRANCH  10  14
ATOM     14  C   UNL A   1      30.925  27.255  24.601  1.00  0.00     0.060 A 
ATOM     15  C   UNL A   1      29.223  29.109  23.344  1.00  0.00     0.067 A 
ATOM     16  C   UNL A   1      28.903  27.750  23.320  1.00  0.00     0.022 A 
ATOM     17  C   UNL A   1      30.402  29.547  23.947  1.00  0.00     0.022 A 
ATOM     18  C   UNL A   1      29.752  26.834  23.958  1.00  0.00     0.029 A 
ATOM     19  C   UNL A   1      31.250  28.618  24.556  1.00  0.00     0.029 A 
BRANCH  15  20
ATOM     20  S   UNL A   1      28.166  30.300  22.551  1.00  0.00     0.175 S 
ATOM     21  C   UNL A   1      29.093  31.807  22.650  1.00  0.00     0.163 C 
ATOM     22  O   UNL A   1      26.983  30.468  23.371  1.00  0.00    -0.224 OA
ATOM     23  O   UNL A   1      28.074  29.937  21.151  1.00  0.00    -0.224 OA
ENDBRANCH  15  20
ENDBRANCH  10  14
BRANCH  12  24
ATOM     24  C   UNL A   1      33.091  25.341  23.268  1.00  0.00     0.030 A 
ATOM     25  C   UNL A   1      32.758  26.003  22.097  1.00  0.00     0.017 A 
ATOM     26  S   UNL A   1      33.526  23.710  22.927  1.00  0.00    -0.147 S 
ATOM     27  C   UNL A   1      32.847  25.172  20.944  1.00  0.00     0.012 A 
ATOM     28  C   UNL A   1      33.285  23.907  21.254  1.00  0.00     0.065 A 
ENDBRANCH  12  24
ENDBRANCH   7   9
ENDBRANCH   6   7
ENDBRANCH   5   6
ENDBRANCH   4   5
ENDBRANCH   3   4
ENDBRANCH   2   3
ENDBRANCH   1   2
BRANCH   1  29
ATOM     29  O   UNL A   1      38.153  21.183  25.366  1.00  0.00    -0.376 OA
BRANCH  29  30
ATOM     30  C   UNL A   1      38.874  22.158  26.102  1.00  0.00     0.202 C 
BRANCH  30  31
ATOM     31  C   UNL A   1      40.384  22.092  26.425  1.00  0.00     0.261 C 
BRANCH  31  32
ATOM     32  O   UNL A   1      40.923  23.015  27.374  1.00  0.00    -0.460 OA
BRANCH  32  33
ATOM     33  C   UNL A   1      41.633  24.055  26.874  1.00  0.00     0.338 C 
ATOM     34  O   UNL A   1      42.272  24.073  25.836  1.00  0.00    -0.246 OA
BRANCH  33  35
ATOM     35  C   UNL A   1      41.329  25.246  27.694  1.00  0.00     0.060 A 
ATOM     36  C   UNL A   1      42.299  26.251  27.815  1.00  0.00     0.016 A 
ATOM     37  C   UNL A   1      40.100  25.365  28.343  1.00  0.00     0.016 A 
ATOM     38  C   UNL A   1      42.051  27.369  28.613  1.00  0.00     0.010 A 
ATOM     39  C   UNL A   1      39.863  26.473  29.160  1.00  0.00     0.010 A 
ATOM     40  C   UNL A   1      40.850  27.463  29.326  1.00  0.00    -0.014 A 
BRANCH  40  41
ATOM     41  C   UNL A   1      40.705  28.480  30.395  1.00  0.00     0.031 A 
ATOM     42  C   UNL A   1      41.586  28.365  31.610  1.00  0.00     0.074 A 
ATOM     43  C   UNL A   1      39.821  29.488  30.291  1.00  0.00     0.049 A 
ATOM     44  N   UNL A   1      41.598  29.083  32.701  1.00  0.00    -0.248 NA
ATOM     45  C   UNL A   1      42.589  27.286  31.589  1.00  0.00     0.031 C 
ATOM     46  C   UNL A   1      38.947  29.733  29.144  1.00  0.00     0.029 A 
ATOM     47  N   UNL A   1      39.508  30.491  31.174  1.00  0.00    -0.354 N 
ATOM     48  C   UNL A   1      42.599  28.540  33.500  1.00  0.00     0.074 A 
ATOM     49  C   UNL A   1      43.151  27.413  32.781  1.00  0.00     0.031 C 
ATOM     50  C   UNL A   1      38.183  30.809  29.403  1.00  0.00     0.029 A 
ATOM     51  C   UNL A   1      38.489  31.308  30.743  1.00  0.00     0.049 A 
ATOM     52  H   UNL A   1      39.969  30.614  32.035  1.00  0.00     0.167 HD
ATOM     53  C   UNL A   1      43.023  28.948  34.718  1.00  0.00     0.037 A 
ATOM     54  C   UNL A   1      37.864  32.324  31.370  1.00  0.00     0.037 A 
ATOM     55  C   UNL A   1      42.467  30.071  35.428  1.00  0.00     0.049 A 
ATOM     56  C   UNL A   1      38.308  32.720  32.757  1.00  0.00     0.074 A 
ATOM     57  C   UNL A   1      42.832  30.573  36.664  1.00  0.00     0.029 A 
ATOM     58  N   UNL A   1      41.425  30.862  34.967  1.00  0.00    -0.354 N 
ATOM     59  N   UNL A   1      39.260  32.206  33.500  1.00  0.00    -0.248 NA
ATOM     60  C   UNL A   1      37.595  33.839  33.391  1.00  0.00     0.031 C 
ATOM     61  C   UNL A   1      41.975  31.633  36.975  1.00  0.00     0.029 A 
ATOM     62  C   UNL A   1      41.117  31.833  35.905  1.00  0.00     0.049 A 
ATOM     63  H   UNL A   1      40.970  30.750  34.101  1.00  0.00     0.167 HD
ATOM     64  C   UNL A   1      39.285  32.962  34.669  1.00  0.00     0.074 A 
ATOM     65  C   UNL A   1      38.255  33.970  34.534  1.00  0.00     0.031 C 
ATOM     66  C   UNL A   1      40.093  32.838  35.752  1.00  0.00     0.037 A 
BRANCH  53  67
ATOM     67  C   UNL A   1      44.122  28.159  35.373  1.00  0.00     0.058 A 
ATOM     68  C   UNL A   1      43.852  27.067  36.214  1.00  0.00     0.135 A 
ATOM     69  C   UNL A   1      45.468  28.486  35.140  1.00  0.00     0.135 A 
ATOM     70  F   UNL A   1      42.584  26.723  36.491  1.00  0.00    -0.206 F 
ATOM     71  C   UNL A   1      44.876  26.344  36.819  1.00  0.00     0.059 A 
ATOM     72  C   UNL A   1      46.508  27.758  35.710  1.00  0.00     0.059 A 
ATOM     73  F   UNL A   1      45.784  29.524  34.349  1.00  0.00    -0.206 F 
ATOM     74  C   UNL A   1      46.200  26.697  36.560  1.00  0.00     0.060 A 
BRANCH  74  75
ATOM     75  S   UNL A   1      47.516  25.747  37.350  1.00  0.00     0.124 S 
ATOM     76  O   UNL A   1      47.482  26.275  38.710  1.00  0.00    -0.237 OA
ATOM     77  O   UNL A   1      47.048  24.374  37.193  1.00  0.00    -0.237 OA
ATOM     78  O   UNL A   1      48.703  26.094  36.573  1.00  0.00    -0.744 OA
ENDBRANCH  74  75
ENDBRANCH  53  67
BRANCH  54  79
ATOM     79  C   UNL A   1      36.738  33.034  30.701  1.00  0.00     0.058 A 
ATOM     80  C   UNL A   1      35.403  32.687  30.957  1.00  0.00     0.135 A 
ATOM     81  C   UNL A   1      36.976  34.067  29.780  1.00  0.00     0.135 A 
ATOM     82  F   UNL A   1      35.121  31.694  31.813  1.00  0.00    -0.206 F 
ATOM     83  C   UNL A   1      34.346  33.327  30.314  1.00  0.00     0.059 A 
ATOM     84  C   UNL A   1      35.937  34.739  29.146  1.00  0.00     0.059 A 
ATOM     85  F   UNL A   1      38.235  34.442  29.501  1.00  0.00    -0.206 F 
ATOM     86  C   UNL A   1      34.623  34.354  29.410  1.00  0.00     0.060 A 
BRANCH  86  87
ATOM     87  S   UNL A   1      33.244  35.197  28.603  1.00  0.00     0.124 S 
ATOM     88  O   UNL A   1      33.942  36.109  27.704  1.00  0.00    -0.237 OA
ATOM     89  O   UNL A   1      32.536  34.091  27.967  1.00  0.00    -0.237 OA
ATOM     90  O   UNL A   1      32.538  35.827  29.715  1.00  0.00    -0.744 OA
ENDBRANCH  86  87
ENDBRANCH  54  79
BRANCH  66  91
ATOM     91  C   UNL A   1      39.935  33.845  36.861  1.00  0.00     0.058 A 
ATOM     92  C   UNL A   1      40.686  35.030  36.903  1.00  0.00     0.135 A 
ATOM     93  C   UNL A   1      38.975  33.644  37.867  1.00  0.00     0.135 A 
ATOM     94  F   UNL A   1      41.618  35.274  35.968  1.00  0.00    -0.206 F 
ATOM     95  C   UNL A   1      40.509  35.968  37.917  1.00  0.00     0.059 A 
ATOM     96  C   UNL A   1      38.760  34.581  38.872  1.00  0.00     0.059 A 
ATOM     97  F   UNL A   1      38.218  32.536  37.868  1.00  0.00    -0.206 F 
ATOM     98  C   UNL A   1      39.540  35.735  38.897  1.00  0.00     0.060 A 
BRANCH  98  99
ATOM     99  S   UNL A   1      39.298  36.974  40.187  1.00  0.00     0.124 S 
ATOM    100  O   UNL A   1      38.550  38.003  39.472  1.00  0.00    -0.237 OA
ATOM    101  O   UNL A   1      38.549  36.233  41.197  1.00  0.00    -0.237 OA
ATOM    102  O   UNL A   1      40.659  37.339  40.570  1.00  0.00    -0.744 OA
ENDBRANCH  98  99
ENDBRANCH  66  91
ENDBRANCH  40  41
ENDBRANCH  33  35
ENDBRANCH  32  33
ENDBRANCH  31  32
ENDBRANCH  30  31
ENDBRANCH  29  30
ENDBRANCH   1  29
TORSDOF 23
ENDMDL
MODEL 2
REMARK VINA RESULT:     -10.7      0.788      7.983
REMARK SMILES CS(=O)(=O)c1ccc(N2N=C(C(=O)OCCOCCOCCOC(=O)c3ccc(-c4c5nc(c(-c6c(F)cc(S(=O)(=O)[O-])cc6F)c6ccc([nH]6)c(-c6c(F)cc(S(=O)(=O)[O-])cc6F)c6nc(c(-c7c(F)cc(S(=O)(=O)[O-])cc7F)c7ccc4[nH]7)C=C6)C=C5)cc3)C[C@H]2c2cccs2)cc1
REMARK SMILES IDX 19 1 18 2 17 3 16 4 15 5 14 6 12 7 13 8 11 9 9 10 10 11
REMARK SMILES IDX 93 12 92 13 8 14 5 15 6 16 100 17 7 18 99 19 2 20 1 21 3 22
REMARK SMILES IDX 4 23 94 24 95 25 98 26 96 27 97 28 20 29 21 30 22 31 23 32
REMARK SMILES IDX 24 33 25 34 26 35 27 36 91 37 28 38 90 39 29 40 30 41 31 42
REMARK SMILES IDX 84 43 32 44 89 45 83 46 85 47 33 48 88 49 82 50 81 51 34 53
REMARK SMILES IDX 68 54 47 55 67 56 48 57 51 58 66 59 86 60 49 61 50 62 65 64
REMARK SMILES IDX 87 65 52 66 35 67 36 68 45 69 37 70 38 71 44 72 46 73 39 74
REMARK SMILES IDX 40 75 41 76 42 77 43 78 69 79 70 80 79 81 71 82 72 83 78 84
REMARK SMILES IDX 80 85 73 86 74 87 75 88 76 89 77 90 53 91 54 92 63 93 55 94
REMARK SMILES IDX 56 95 62 96 64 97 57 98 58 99 59 100 60 101 61 102
REMARK H PARENT 85 52 51 63
REMARK Flexibility Score: inf
ROOT
ATOM      1  C   UNL A   1      38.105  21.683  25.454  1.00  0.00     0.188 C 
ENDROOT
BRANCH   1   2
ATOM      2  C   UNL A   1      36.764  20.947  25.261  1.00  0.00     0.188 C 
BRANCH   2   3
ATOM      3  O   UNL A   1      35.572  21.714  25.126  1.00  0.00    -0.376 OA
BRANCH   3   4
ATOM      4  C   UNL A   1      34.340  21.194  25.618  1.00  0.00     0.202 C 
BRANCH   4   5
ATOM      5  C   UNL A   1      33.008  21.723  25.065  1.00  0.00     0.261 C 
BRANCH   5   6
ATOM      6  O   UNL A   1      32.121  22.211  26.083  1.00  0.00    -0.459 OA
BRANCH   6   7
ATOM      7  C   UNL A   1      32.631  23.180  26.873  1.00  0.00     0.354 C 
ATOM      8  O   UNL A   1      33.031  23.081  28.007  1.00  0.00    -0.245 OA
BRANCH   7   9
ATOM      9  C   UNL A   1      32.725  24.470  26.089  1.00  0.00     0.148 C 
ATOM     10  N   UNL A   1      32.160  26.260  25.104  1.00  0.00    -0.256 N 
ATOM     11  N   UNL A   1      31.712  25.266  25.932  1.00  0.00    -0.169 NA
ATOM     12  C   UNL A   1      33.414  25.867  24.424  1.00  0.00     0.154 C 
ATOM     13  C   UNL A   1      34.015  24.927  25.481  1.00  0.00     0.099 C 
BRANCH  10  14
ATOM     14  C   UNL A   1      31.223  27.127  24.548  1.00  0.00     0.060 A 
ATOM     15  C   UNL A   1      29.352  28.902  23.423  1.00  0.00     0.067 A 
ATOM     16  C   UNL A   1      30.482  29.406  24.068  1.00  0.00     0.022 A 
ATOM     17  C   UNL A   1      29.122  27.527  23.373  1.00  0.00     0.022 A 
ATOM     18  C   UNL A   1      31.415  28.515  24.618  1.00  0.00     0.029 A 
ATOM     19  C   UNL A   1      30.049  26.653  23.947  1.00  0.00     0.029 A 
BRANCH  15  20
ATOM     20  S   UNL A   1      28.151  30.003  22.709  1.00  0.00     0.175 S 
ATOM     21  C   UNL A   1      28.756  31.611  23.144  1.00  0.00     0.163 C 
ATOM     22  O   UNL A   1      26.895  29.813  23.407  1.00  0.00    -0.224 OA
ATOM     23  O   UNL A   1      28.247  29.877  21.268  1.00  0.00    -0.224 OA
ENDBRANCH  15  20
ENDBRANCH  10  14
BRANCH  12  24
ATOM     24  C   UNL A   1      33.283  25.222  23.044  1.00  0.00     0.030 A 
ATOM     25  C   UNL A   1      33.449  23.881  22.734  1.00  0.00     0.017 A 
ATOM     26  S   UNL A   1      32.919  26.121  21.622  1.00  0.00    -0.147 S 
ATOM     27  C   UNL A   1      33.294  23.609  21.344  1.00  0.00     0.012 A 
ATOM     28  C   UNL A   1      32.971  24.739  20.631  1.00  0.00     0.065 A 
ENDBRANCH  12  24
ENDBRANCH   7   9
ENDBRANCH   6   7
ENDBRANCH   5   6
ENDBRANCH   4   5
ENDBRANCH   3   4
ENDBRANCH   2   3
ENDBRANCH   1   2
BRANCH   1  29
ATOM     29  O   UNL A   1      39.114  20.928  26.085  1.00  0.00    -0.376 OA
BRANCH  29  30
ATOM     30  C   UNL A   1      40.408  21.490  26.238  1.00  0.00     0.202 C 
BRANCH  30  31
ATOM     31  C   UNL A   1      40.768  22.645  27.200  1.00  0.00     0.261 C 
BRANCH  31  32
ATOM     32  O   UNL A   1      40.277  23.956  26.911  1.00  0.00    -0.460 OA
BRANCH  32  33
ATOM     33  C   UNL A   1      41.205  24.930  26.752  1.00  0.00     0.338 C 
ATOM     34  O   UNL A   1      42.011  25.032  25.844  1.00  0.00    -0.246 OA
BRANCH  33  35
ATOM     35  C   UNL A   1      40.939  25.978  27.760  1.00  0.00     0.060 A 
ATOM     36  C   UNL A   1      41.878  27.003  27.936  1.00  0.00     0.016 A 
ATOM     37  C   UNL A   1      39.775  25.942  28.528  1.00  0.00     0.016 A 
ATOM     38  C   UNL A   1      41.668  27.984  28.906  1.00  0.00     0.010 A 
ATOM     39  C   UNL A   1      39.578  26.911  29.515  1.00  0.00     0.010 A 
ATOM     40  C   UNL A   1      40.539  27.916  29.732  1.00  0.00    -0.014 A 
BRANCH  40  41
ATOM     41  C   UNL A   1      40.460  28.764  30.945  1.00  0.00     0.031 A 
ATOM     42  C   UNL A   1      39.453  29.882  30.967  1.00  0.00     0.074 A 
ATOM     43  C   UNL A   1      41.255  28.545  32.009  1.00  0.00     0.049 A 
ATOM     44  N   UNL A   1      39.244  30.798  31.875  1.00  0.00    -0.248 NA
ATOM     45  C   UNL A   1      38.563  29.981  29.797  1.00  0.00     0.031 C 
ATOM     46  C   UNL A   1      42.234  27.467  32.126  1.00  0.00     0.029 A 
ATOM     47  N   UNL A   1      41.366  29.233  33.191  1.00  0.00    -0.354 N 
ATOM     48  C   UNL A   1      38.208  31.586  31.387  1.00  0.00     0.074 A 
ATOM     49  C   UNL A   1      37.852  31.060  30.087  1.00  0.00     0.031 C 
ATOM     50  C   UNL A   1      42.861  27.575  33.311  1.00  0.00     0.029 A 
ATOM     51  C   UNL A   1      42.350  28.748  34.020  1.00  0.00     0.049 A 
ATOM     52  H   UNL A   1      40.795  29.999  33.425  1.00  0.00     0.167 HD
ATOM     53  C   UNL A   1      37.604  32.646  31.971  1.00  0.00     0.037 A 
ATOM     54  C   UNL A   1      42.800  29.214  35.203  1.00  0.00     0.037 A 
ATOM     55  C   UNL A   1      37.965  33.164  33.266  1.00  0.00     0.049 A 
ATOM     56  C   UNL A   1      42.157  30.439  35.806  1.00  0.00     0.074 A 
ATOM     57  C   UNL A   1      37.409  34.229  33.951  1.00  0.00     0.029 A 
ATOM     58  N   UNL A   1      38.979  32.659  34.066  1.00  0.00    -0.354 N 
ATOM     59  N   UNL A   1      41.173  31.172  35.339  1.00  0.00    -0.248 NA
ATOM     60  C   UNL A   1      42.683  30.900  37.099  1.00  0.00     0.031 C 
ATOM     61  C   UNL A   1      38.122  34.402  35.142  1.00  0.00     0.029 A 
ATOM     62  C   UNL A   1      39.081  33.405  35.228  1.00  0.00     0.049 A 
ATOM     63  H   UNL A   1      39.543  31.883  33.841  1.00  0.00     0.167 HD
ATOM     64  C   UNL A   1      40.938  32.154  36.298  1.00  0.00     0.074 A 
ATOM     65  C   UNL A   1      41.881  31.920  37.372  1.00  0.00     0.031 C 
ATOM     66  C   UNL A   1      40.020  33.153  36.295  1.00  0.00     0.037 A 
BRANCH  53  67
ATOM     67  C   UNL A   1      36.510  33.335  31.202  1.00  0.00     0.058 A 
ATOM     68  C   UNL A   1      36.779  34.111  30.064  1.00  0.00     0.135 A 
ATOM     69  C   UNL A   1      35.170  33.200  31.599  1.00  0.00     0.135 A 
ATOM     70  F   UNL A   1      38.044  34.294  29.652  1.00  0.00    -0.206 F 
ATOM     71  C   UNL A   1      35.761  34.748  29.361  1.00  0.00     0.059 A 
ATOM     72  C   UNL A   1      34.133  33.804  30.894  1.00  0.00     0.059 A 
ATOM     73  F   UNL A   1      34.856  32.475  32.685  1.00  0.00    -0.206 F 
ATOM     74  C   UNL A   1      34.441  34.588  29.783  1.00  0.00     0.060 A 
BRANCH  74  75
ATOM     75  S   UNL A   1      33.132  35.418  28.859  1.00  0.00     0.124 S 
ATOM     76  O   UNL A   1      32.333  35.995  29.936  1.00  0.00    -0.237 OA
ATOM     77  O   UNL A   1      33.880  36.372  28.046  1.00  0.00    -0.237 OA
ATOM     78  O   UNL A   1      32.495  34.333  28.118  1.00  0.00    -0.744 OA
ENDBRANCH  74  75
ENDBRANCH  53  67
BRANCH  54  79
ATOM     79  C   UNL A   1      43.929  28.530  35.894  1.00  0.00     0.058 A 
ATOM     80  C   UNL A   1      45.262  28.863  35.615  1.00  0.00     0.135 A 
ATOM     81  C   UNL A   1      43.695  27.519  36.840  1.00  0.00     0.135 A 
ATOM     82  F   UNL A   1      45.541  29.808  34.705  1.00  0.00    -0.206 F 
ATOM     83  C   UNL A   1      46.324  28.209  36.236  1.00  0.00     0.059 A 
ATOM     84  C   UNL A   1      44.738  26.870  37.492  1.00  0.00     0.059 A 
ATOM     85  F   UNL A   1      42.437  27.163  37.148  1.00  0.00    -0.206 F 
ATOM     86  C   UNL A   1      46.051  27.213  37.175  1.00  0.00     0.060 A 
BRANCH  86  87
ATOM     87  S   UNL A   1      47.434  26.391  37.996  1.00  0.00     0.124 S 
ATOM     88  O   UNL A   1      46.994  25.001  37.993  1.00  0.00    -0.237 OA
ATOM     89  O   UNL A   1      48.551  26.709  37.112  1.00  0.00    -0.237 OA
ATOM     90  O   UNL A   1      47.478  27.034  39.306  1.00  0.00    -0.744 OA
ENDBRANCH  86  87
ENDBRANCH  54  79
BRANCH  66  91
ATOM     91  C   UNL A   1      39.950  34.043  37.507  1.00  0.00     0.058 A 
ATOM     92  C   UNL A   1      40.677  35.240  37.595  1.00  0.00     0.135 A 
ATOM     93  C   UNL A   1      39.095  33.718  38.574  1.00  0.00     0.135 A 
ATOM     94  F   UNL A   1      41.511  35.599  36.606  1.00  0.00    -0.206 F 
ATOM     95  C   UNL A   1      40.580  36.070  38.709  1.00  0.00     0.059 A 
ATOM     96  C   UNL A   1      38.958  34.548  39.683  1.00  0.00     0.059 A 
ATOM     97  F   UNL A   1      38.363  32.594  38.536  1.00  0.00    -0.206 F 
ATOM     98  C   UNL A   1      39.715  35.716  39.748  1.00  0.00     0.060 A 
BRANCH  98  99
ATOM     99  S   UNL A   1      39.573  36.817  41.171  1.00  0.00     0.124 S 
ATOM    100  O   UNL A   1      38.930  37.986  40.578  1.00  0.00    -0.237 OA
ATOM    101  O   UNL A   1      38.749  36.038  42.089  1.00  0.00    -0.237 OA
ATOM    102  O   UNL A   1      40.957  37.011  41.592  1.00  0.00    -0.744 OA
ENDBRANCH  98  99
ENDBRANCH  66  91
ENDBRANCH  40  41
ENDBRANCH  33  35
ENDBRANCH  32  33
ENDBRANCH  31  32
ENDBRANCH  30  31
ENDBRANCH  29  30
ENDBRANCH   1  29
TORSDOF 23
ENDMDL
MODEL 3
REMARK VINA RESULT:      -9.4      1.356      8.105
REMARK SMILES CS(=O)(=O)c1ccc(N2N=C(C(=O)OCCOCCOCCOC(=O)c3ccc(-c4c5nc(c(-c6c(F)cc(S(=O)(=O)[O-])cc6F)c6ccc([nH]6)c(-c6c(F)cc(S(=O)(=O)[O-])cc6F)c6nc(c(-c7c(F)cc(S(=O)(=O)[O-])cc7F)c7ccc4[nH]7)C=C6)C=C5)cc3)C[C@H]2c2cccs2)cc1
REMARK SMILES IDX 19 1 18 2 17 3 16 4 15 5 14 6 12 7 13 8 11 9 9 10 10 11
REMARK SMILES IDX 93 12 92 13 8 14 5 15 6 16 100 17 7 18 99 19 2 20 1 21 3 22
REMARK SMILES IDX 4 23 94 24 95 25 98 26 96 27 97 28 20 29 21 30 22 31 23 32
REMARK SMILES IDX 24 33 25 34 26 35 27 36 91 37 28 38 90 39 29 40 30 41 31 42
REMARK SMILES IDX 84 43 32 44 89 45 83 46 85 47 33 48 88 49 82 50 81 51 34 53
REMARK SMILES IDX 68 54 47 55 67 56 48 57 51 58 66 59 86 60 49 61 50 62 65 64
REMARK SMILES IDX 87 65 52 66 35 67 36 68 45 69 37 70 38 71 44 72 46 73 39 74
REMARK SMILES IDX 40 75 41 76 42 77 43 78 69 79 70 80 79 81 71 82 72 83 78 84
REMARK SMILES IDX 80 85 73 86 74 87 75 88 76 89 77 90 53 91 54 92 63 93 55 94
REMARK SMILES IDX 56 95 62 96 64 97 57 98 58 99 59 100 60 101 61 102
REMARK H PARENT 85 52 51 63
REMARK Flexibility Score: inf
ROOT
ATOM      1  C   UNL A   1      38.976  21.761  25.573  1.00  0.00     0.188 C 
ENDROOT
BRANCH   1   2
ATOM      2  C   UNL A   1      37.587  21.598  26.222  1.00  0.00     0.188 C 
BRANCH   2   3
ATOM      3  O   UNL A   1      36.462  21.345  25.388  1.00  0.00    -0.376 OA
BRANCH   3   4
ATOM      4  C   UNL A   1      35.150  21.616  25.871  1.00  0.00     0.202 C 
BRANCH   4   5
ATOM      5  C   UNL A   1      34.484  22.967  25.569  1.00  0.00     0.261 C 
BRANCH   5   6
ATOM      6  O   UNL A   1      35.277  23.821  24.732  1.00  0.00    -0.459 OA
BRANCH   6   7
ATOM      7  C   UNL A   1      35.047  23.701  23.406  1.00  0.00     0.354 C 
ATOM      8  O   UNL A   1      35.810  23.330  22.550  1.00  0.00    -0.245 OA
BRANCH   7   9
ATOM      9  C   UNL A   1      33.599  24.030  23.117  1.00  0.00     0.148 C 
ATOM     10  N   UNL A   1      31.825  25.145  22.794  1.00  0.00    -0.256 N 
ATOM     11  N   UNL A   1      33.182  25.247  22.938  1.00  0.00    -0.169 NA
ATOM     12  C   UNL A   1      31.333  23.831  23.266  1.00  0.00     0.154 C 
ATOM     13  C   UNL A   1      32.564  22.957  22.976  1.00  0.00     0.099 C 
BRANCH  10  14
ATOM     14  C   UNL A   1      31.068  26.312  22.842  1.00  0.00     0.060 A 
ATOM     15  C   UNL A   1      29.518  28.657  22.961  1.00  0.00     0.067 A 
ATOM     16  C   UNL A   1      28.971  27.445  23.387  1.00  0.00     0.022 A 
ATOM     17  C   UNL A   1      30.809  28.704  22.435  1.00  0.00     0.022 A 
ATOM     18  C   UNL A   1      29.754  26.282  23.334  1.00  0.00     0.029 A 
ATOM     19  C   UNL A   1      31.566  27.532  22.365  1.00  0.00     0.029 A 
BRANCH  15  20
ATOM     20  S   UNL A   1      28.556  30.152  23.020  1.00  0.00     0.175 S 
ATOM     21  C   UNL A   1      28.788  30.857  21.411  1.00  0.00     0.163 C 
ATOM     22  O   UNL A   1      29.175  31.048  23.976  1.00  0.00    -0.224 OA
ATOM     23  O   UNL A   1      27.162  29.769  23.130  1.00  0.00    -0.224 OA
ENDBRANCH  15  20
ENDBRANCH  10  14
BRANCH  12  24
ATOM     24  C   UNL A   1      30.860  23.749  24.718  1.00  0.00     0.030 A 
ATOM     25  C   UNL A   1      30.461  24.803  25.523  1.00  0.00     0.017 A 
ATOM     26  S   UNL A   1      30.781  22.268  25.593  1.00  0.00    -0.147 S 
ATOM     27  C   UNL A   1      30.112  24.394  26.843  1.00  0.00     0.012 A 
ATOM     28  C   UNL A   1      30.212  23.033  27.003  1.00  0.00     0.065 A 
ENDBRANCH  12  24
ENDBRANCH   7   9
ENDBRANCH   6   7
ENDBRANCH   5   6
ENDBRANCH   4   5
ENDBRANCH   3   4
ENDBRANCH   2   3
ENDBRANCH   1   2
BRANCH   1  29
ATOM     29  O   UNL A   1      40.048  21.879  26.479  1.00  0.00    -0.376 OA
BRANCH  29  30
ATOM     30  C   UNL A   1      41.371  21.638  26.024  1.00  0.00     0.202 C 
BRANCH  30  31
ATOM     31  C   UNL A   1      42.532  22.656  26.087  1.00  0.00     0.261 C 
BRANCH  31  32
ATOM     32  O   UNL A   1      42.420  23.770  26.975  1.00  0.00    -0.460 OA
BRANCH  32  33
ATOM     33  C   UNL A   1      42.422  25.001  26.409  1.00  0.00     0.338 C 
ATOM     34  O   UNL A   1      42.580  25.264  25.230  1.00  0.00    -0.246 OA
BRANCH  33  35
ATOM     35  C   UNL A   1      41.986  25.972  27.435  1.00  0.00     0.060 A 
ATOM     36  C   UNL A   1      42.711  27.161  27.594  1.00  0.00     0.016 A 
ATOM     37  C   UNL A   1      40.876  25.705  28.236  1.00  0.00     0.016 A 
ATOM     38  C   UNL A   1      42.342  28.077  28.580  1.00  0.00     0.010 A 
ATOM     39  C   UNL A   1      40.523  26.612  29.239  1.00  0.00     0.010 A 
ATOM     40  C   UNL A   1      41.275  27.785  29.437  1.00  0.00    -0.014 A 
BRANCH  40  41
ATOM     41  C   UNL A   1      41.068  28.596  30.661  1.00  0.00     0.031 A 
ATOM     42  C   UNL A   1      39.976  29.632  30.652  1.00  0.00     0.074 A 
ATOM     43  C   UNL A   1      41.823  28.416  31.760  1.00  0.00     0.049 A 
ATOM     44  N   UNL A   1      39.650  30.507  31.566  1.00  0.00    -0.248 NA
ATOM     45  C   UNL A   1      39.140  29.688  29.440  1.00  0.00     0.031 C 
ATOM     46  C   UNL A   1      42.878  27.414  31.907  1.00  0.00     0.029 A 
ATOM     47  N   UNL A   1      41.820  29.082  32.960  1.00  0.00    -0.354 N 
ATOM     48  C   UNL A   1      38.580  31.223  31.039  1.00  0.00     0.074 A 
ATOM     49  C   UNL A   1      38.333  30.701  29.713  1.00  0.00     0.031 C 
ATOM     50  C   UNL A   1      43.433  27.544  33.125  1.00  0.00     0.029 A 
ATOM     51  C   UNL A   1      42.796  28.657  33.829  1.00  0.00     0.049 A 
ATOM     52  H   UNL A   1      41.179  29.796  33.178  1.00  0.00     0.167 HD
ATOM     53  C   UNL A   1      37.866  32.219  31.611  1.00  0.00     0.037 A 
ATOM     54  C   UNL A   1      43.148  29.129  35.042  1.00  0.00     0.037 A 
ATOM     55  C   UNL A   1      38.120  32.734  32.933  1.00  0.00     0.049 A 
ATOM     56  C   UNL A   1      42.381  30.285  35.634  1.00  0.00     0.074 A 
ATOM     57  C   UNL A   1      37.448  33.736  33.609  1.00  0.00     0.029 A 
ATOM     58  N   UNL A   1      39.129  32.290  33.775  1.00  0.00    -0.354 N 
ATOM     59  N   UNL A   1      41.367  30.950  35.131  1.00  0.00    -0.248 NA
ATOM     60  C   UNL A   1      42.803  30.756  36.962  1.00  0.00     0.031 C 
ATOM     61  C   UNL A   1      38.084  33.936  34.838  1.00  0.00     0.029 A 
ATOM     62  C   UNL A   1      39.113  33.015  34.954  1.00  0.00     0.049 A 
ATOM     63  H   UNL A   1      39.763  31.567  33.565  1.00  0.00     0.167 HD
ATOM     64  C   UNL A   1      41.007  31.888  36.095  1.00  0.00     0.074 A 
ATOM     65  C   UNL A   1      41.910  31.703  37.212  1.00  0.00     0.031 C 
ATOM     66  C   UNL A   1      40.014  32.812  36.064  1.00  0.00     0.037 A 
BRANCH  53  67
ATOM     67  C   UNL A   1      36.761  32.839  30.801  1.00  0.00     0.058 A 
ATOM     68  C   UNL A   1      35.420  32.453  30.956  1.00  0.00     0.135 A 
ATOM     69  C   UNL A   1      37.047  33.849  29.868  1.00  0.00     0.135 A 
ATOM     70  F   UNL A   1      35.092  31.477  31.817  1.00  0.00    -0.206 F 
ATOM     71  C   UNL A   1      34.405  33.030  30.199  1.00  0.00     0.059 A 
ATOM     72  C   UNL A   1      36.044  34.460  29.121  1.00  0.00     0.059 A 
ATOM     73  F   UNL A   1      38.313  34.252  29.673  1.00  0.00    -0.206 F 
ATOM     74  C   UNL A   1      34.727  34.033  29.284  1.00  0.00     0.060 A 
BRANCH  74  75
ATOM     75  S   UNL A   1      33.398  34.772  28.312  1.00  0.00     0.124 S 
ATOM     76  O   UNL A   1      32.676  33.589  27.855  1.00  0.00    -0.237 OA
ATOM     77  O   UNL A   1      32.706  35.592  29.301  1.00  0.00    -0.237 OA
ATOM     78  O   UNL A   1      34.106  35.514  27.273  1.00  0.00    -0.744 OA
ENDBRANCH  74  75
ENDBRANCH  53  67
BRANCH  54  79
ATOM     79  C   UNL A   1      44.291  28.519  35.778  1.00  0.00     0.058 A 
ATOM     80  C   UNL A   1      44.089  27.511  36.731  1.00  0.00     0.135 A 
ATOM     81  C   UNL A   1      45.610  28.943  35.549  1.00  0.00     0.135 A 
ATOM     82  F   UNL A   1      42.847  27.083  37.001  1.00  0.00    -0.206 F 
ATOM     83  C   UNL A   1      45.150  26.955  37.443  1.00  0.00     0.059 A 
ATOM     84  C   UNL A   1      46.688  28.385  36.228  1.00  0.00     0.059 A 
ATOM     85  F   UNL A   1      45.861  29.903  34.644  1.00  0.00    -0.206 F 
ATOM     86  C   UNL A   1      46.448  27.399  37.183  1.00  0.00     0.060 A 
BRANCH  86  87
ATOM     87  S   UNL A   1      47.820  26.652  38.090  1.00  0.00     0.124 S 
ATOM     88  O   UNL A   1      48.734  27.780  38.223  1.00  0.00    -0.237 OA
ATOM     89  O   UNL A   1      47.171  26.208  39.319  1.00  0.00    -0.237 OA
ATOM     90  O   UNL A   1      48.266  25.582  37.203  1.00  0.00    -0.744 OA
ENDBRANCH  86  87
ENDBRANCH  54  79
BRANCH  66  91
ATOM     91  C   UNL A   1      39.813  33.666  37.288  1.00  0.00     0.058 A 
ATOM     92  C   UNL A   1      38.982  33.266  38.346  1.00  0.00     0.135 A 
ATOM     93  C   UNL A   1      40.510  34.879  37.426  1.00  0.00     0.135 A 
ATOM     94  F   UNL A   1      38.291  32.118  38.267  1.00  0.00    -0.206 F 
ATOM     95  C   UNL A   1      38.829  34.050  39.486  1.00  0.00     0.059 A 
ATOM     96  C   UNL A   1      40.395  35.663  38.570  1.00  0.00     0.059 A 
ATOM     97  F   UNL A   1      41.331  35.302  36.452  1.00  0.00    -0.206 F 
ATOM     98  C   UNL A   1      39.542  35.247  39.590  1.00  0.00     0.060 A 
BRANCH  98  99
ATOM     99  S   UNL A   1      39.360  36.238  41.088  1.00  0.00     0.124 S 
ATOM    100  O   UNL A   1      39.486  37.594  40.562  1.00  0.00    -0.237 OA
ATOM    101  O   UNL A   1      38.029  35.861  41.553  1.00  0.00    -0.237 OA
ATOM    102  O   UNL A   1      40.462  35.787  41.932  1.00  0.00    -0.744 OA
ENDBRANCH  98  99
ENDBRANCH  66  91
ENDBRANCH  40  41
ENDBRANCH  33  35
ENDBRANCH  32  33
ENDBRANCH  31  32
ENDBRANCH  30  31
ENDBRANCH  29  30
ENDBRANCH   1  29
TORSDOF 23
ENDMDL
