MODEL 1
REMARK VINA RESULT:      -9.5      0.000      0.000
REMARK SMILES [NH3+][C@@H](Cc1c[nH]c2ccccc12)C(=O)N[C@@H](CS)C(=O)N[C@@H](CO)C(=O)OCCOCCOCCOC(=O)c1ccc(-c2c3nc(c(-c4c(F)cc(S(=O)(=O)[O-])cc4F)c4ccc([nH]4)c(-c4c(F)cc(S(=O)(=O)[O-])cc4F)c4nc(c(-c5c(F)cc(S(=O)(=O)[O-])cc5F)c5ccc2[nH]5)C=C4)C=C3)cc1
REMARK SMILES IDX 30 1 29 2 28 3 27 4 25 5 26 6 22 7 21 8 19 9 20 10 16 12
REMARK SMILES IDX 15 13 13 14 14 15 2 17 1 18 3 22 4 23 5 24 12 25 6 26 7 27
REMARK SMILES IDX 11 28 8 30 10 31 9 32 17 33 18 34 23 36 24 37 31 39 32 40
REMARK SMILES IDX 33 41 34 42 35 43 36 44 37 45 38 46 39 47 40 48 104 49 41 50
REMARK SMILES IDX 103 51 42 52 43 53 44 54 97 55 45 56 102 57 96 58 98 59
REMARK SMILES IDX 46 60 101 61 95 62 94 63 47 65 81 66 60 67 80 68 61 69 64 70
REMARK SMILES IDX 79 71 99 72 62 73 63 74 78 76 100 77 65 78 48 79 49 80 58 81
REMARK SMILES IDX 50 82 51 83 57 84 59 85 52 86 53 87 54 88 55 89 56 90 82 91
REMARK SMILES IDX 83 92 92 93 84 94 85 95 91 96 93 97 86 98 87 99 88 100
REMARK SMILES IDX 89 101 90 102 66 103 67 104 76 105 68 106 69 107 75 108
REMARK SMILES IDX 77 109 70 110 71 111 72 112 73 113 74 114
REMARK H PARENT 21 11 15 16 1 19 1 20 1 21 6 29 18 35 24 38 98 64 64 75
REMARK Flexibility Score: inf
ROOT
ATOM      1  O   UNL A   1      33.372  28.134  27.050  1.00  0.00    -0.376 OA
ENDROOT
BRANCH   1   2
ATOM      2  C   UNL A   1      32.314  27.804  26.153  1.00  0.00     0.202 C 
BRANCH   2   3
ATOM      3  C   UNL A   1      31.137  27.116  26.843  1.00  0.00     0.261 C 
BRANCH   3   4
ATOM      4  O   UNL A   1      31.193  25.689  26.677  1.00  0.00    -0.462 OA
BRANCH   4   5
ATOM      5  C   UNL A   1      30.397  25.152  25.713  1.00  0.00     0.331 C 
ATOM      6  O   UNL A   1      29.533  25.772  25.104  1.00  0.00    -0.250 OA
BRANCH   5   7
ATOM      7  C   UNL A   1      30.665  23.654  25.541  1.00  0.00     0.218 C 
BRANCH   7   8
ATOM      8  N   UNL A   1      32.097  23.345  25.343  1.00  0.00    -0.339 N 
ATOM      9  C   UNL A   1      32.709  23.675  24.168  1.00  0.00     0.244 C 
ATOM     10  O   UNL A   1      32.508  22.951  23.192  1.00  0.00    -0.273 OA
ATOM     11  H   UNL A   1      32.609  22.902  26.058  1.00  0.00     0.164 HD
BRANCH   9  12
ATOM     12  C   UNL A   1      33.662  24.899  24.134  1.00  0.00     0.181 C 
BRANCH  12  13
ATOM     13  N   UNL A   1      34.750  24.609  25.063  1.00  0.00    -0.338 N 
ATOM     14  C   UNL A   1      35.818  23.778  24.909  1.00  0.00     0.279 C 
ATOM     15  O   UNL A   1      36.820  24.039  25.585  1.00  0.00    -0.268 OA
ATOM     16  H   UNL A   1      34.704  25.082  25.925  1.00  0.00     0.164 HD
BRANCH  14  17
ATOM     17  C   UNL A   1      35.811  22.541  23.978  1.00  0.00     0.275 C 
BRANCH  17  18
ATOM     18  N   UNL A   1      36.567  22.800  22.736  1.00  0.00    -0.347 N 
ATOM     19  H   UNL A   1      37.137  23.639  22.853  1.00  0.00     0.345 HD
ATOM     20  H   UNL A   1      35.915  22.939  21.963  1.00  0.00     0.345 HD
ATOM     21  H   UNL A   1      37.172  22.004  22.533  1.00  0.00     0.345 HD
ENDBRANCH  17  18
BRANCH  17  22
ATOM     22  C   UNL A   1      36.042  21.180  24.677  1.00  0.00     0.113 C 
BRANCH  22  23
ATOM     23  C   UNL A   1      34.836  20.434  25.193  1.00  0.00    -0.016 A 
ATOM     24  C   UNL A   1      33.902  20.885  26.112  1.00  0.00     0.087 A 
ATOM     25  C   UNL A   1      34.457  19.087  24.867  1.00  0.00     0.003 A 
ATOM     26  N   UNL A   1      32.950  19.915  26.287  1.00  0.00    -0.361 N 
ATOM     27  C   UNL A   1      33.239  18.828  25.498  1.00  0.00     0.046 A 
ATOM     28  C   UNL A   1      35.021  18.072  24.069  1.00  0.00     0.010 A 
ATOM     29  H   UNL A   1      32.174  19.987  26.887  1.00  0.00     0.166 HD
ATOM     30  C   UNL A   1      32.527  17.636  25.320  1.00  0.00     0.026 A 
ATOM     31  C   UNL A   1      34.340  16.859  23.908  1.00  0.00     0.001 A 
ATOM     32  C   UNL A   1      33.102  16.654  24.511  1.00  0.00     0.002 A 
ENDBRANCH  22  23
ENDBRANCH  17  22
ENDBRANCH  14  17
ENDBRANCH  12  13
BRANCH  12  33
ATOM     33  C   UNL A   1      34.109  25.439  22.771  1.00  0.00     0.101 C 
BRANCH  33  34
ATOM     34  S   UNL A   1      33.550  27.104  22.315  1.00  0.00    -0.177 SA
ATOM     35  H   UNL A   1      32.724  27.026  21.238  1.00  0.00     0.102 HD
ENDBRANCH  33  34
ENDBRANCH  12  33
ENDBRANCH   9  12
ENDBRANCH   7   8
BRANCH   7  36
ATOM     36  C   UNL A   1      30.094  22.920  26.764  1.00  0.00     0.193 C 
BRANCH  36  37
ATOM     37  O   UNL A   1      29.124  23.732  27.434  1.00  0.00    -0.394 OA
ATOM     38  H   UNL A   1      28.286  23.706  26.945  1.00  0.00     0.210 HD
ENDBRANCH  36  37
ENDBRANCH   7  36
ENDBRANCH   5   7
ENDBRANCH   4   5
ENDBRANCH   3   4
ENDBRANCH   2   3
ENDBRANCH   1   2
BRANCH   1  39
ATOM     39  C   UNL A   1      34.274  29.130  26.589  1.00  0.00     0.188 C 
BRANCH  39  40
ATOM     40  C   UNL A   1      34.102  30.516  27.244  1.00  0.00     0.188 C 
BRANCH  40  41
ATOM     41  O   UNL A   1      35.225  31.204  27.771  1.00  0.00    -0.376 OA
BRANCH  41  42
ATOM     42  C   UNL A   1      35.531  31.032  29.148  1.00  0.00     0.202 C 
BRANCH  42  43
ATOM     43  C   UNL A   1      36.266  29.750  29.563  1.00  0.00     0.261 C 
BRANCH  43  44
ATOM     44  O   UNL A   1      36.470  29.621  30.983  1.00  0.00    -0.460 OA
BRANCH  44  45
ATOM     45  C   UNL A   1      37.243  30.577  31.547  1.00  0.00     0.338 C 
ATOM     46  O   UNL A   1      36.896  31.425  32.368  1.00  0.00    -0.246 OA
BRANCH  45  47
ATOM     47  C   UNL A   1      38.666  30.353  31.243  1.00  0.00     0.060 A 
ATOM     48  C   UNL A   1      39.243  31.173  30.265  1.00  0.00     0.016 A 
ATOM     49  C   UNL A   1      39.389  29.294  31.791  1.00  0.00     0.016 A 
ATOM     50  C   UNL A   1      40.525  30.916  29.797  1.00  0.00     0.010 A 
ATOM     51  C   UNL A   1      40.681  29.032  31.314  1.00  0.00     0.010 A 
ATOM     52  C   UNL A   1      41.241  29.824  30.294  1.00  0.00    -0.014 A 
BRANCH  52  53
ATOM     53  C   UNL A   1      42.501  29.435  29.615  1.00  0.00     0.031 A 
ATOM     54  C   UNL A   1      42.609  28.058  29.020  1.00  0.00     0.074 A 
ATOM     55  C   UNL A   1      43.496  30.323  29.443  1.00  0.00     0.049 A 
ATOM     56  N   UNL A   1      43.627  27.486  28.436  1.00  0.00    -0.248 NA
ATOM     57  C   UNL A   1      41.397  27.223  29.077  1.00  0.00     0.031 C 
ATOM     58  C   UNL A   1      43.466  31.721  29.870  1.00  0.00     0.029 A 
ATOM     59  N   UNL A   1      44.727  30.177  28.853  1.00  0.00    -0.354 N 
ATOM     60  C   UNL A   1      43.191  26.217  28.072  1.00  0.00     0.074 A 
ATOM     61  C   UNL A   1      41.814  26.104  28.502  1.00  0.00     0.031 C 
ATOM     62  C   UNL A   1      44.632  32.303  29.538  1.00  0.00     0.029 A 
ATOM     63  C   UNL A   1      45.506  31.308  28.918  1.00  0.00     0.049 A 
ATOM     64  H   UNL A   1      45.023  29.342  28.425  1.00  0.00     0.167 HD
ATOM     65  C   UNL A   1      43.879  25.235  27.443  1.00  0.00     0.037 A 
ATOM     66  C   UNL A   1      46.789  31.502  28.555  1.00  0.00     0.037 A 
ATOM     67  C   UNL A   1      45.249  25.349  27.022  1.00  0.00     0.049 A 
ATOM     68  C   UNL A   1      47.569  30.360  27.954  1.00  0.00     0.074 A 
ATOM     69  C   UNL A   1      46.045  24.396  26.413  1.00  0.00     0.029 A 
ATOM     70  N   UNL A   1      46.028  26.487  27.168  1.00  0.00    -0.354 N 
ATOM     71  N   UNL A   1      47.163  29.146  27.664  1.00  0.00    -0.248 NA
ATOM     72  C   UNL A   1      48.985  30.609  27.645  1.00  0.00     0.031 C 
ATOM     73  C   UNL A   1      47.319  24.944  26.226  1.00  0.00     0.029 A 
ATOM     74  C   UNL A   1      47.302  26.254  26.678  1.00  0.00     0.049 A 
ATOM     75  H   UNL A   1      45.722  27.336  27.561  1.00  0.00     0.167 HD
ATOM     76  C   UNL A   1      48.267  28.496  27.120  1.00  0.00     0.074 A 
ATOM     77  C   UNL A   1      49.354  29.452  27.112  1.00  0.00     0.031 C 
ATOM     78  C   UNL A   1      48.371  27.221  26.669  1.00  0.00     0.037 A 
BRANCH  65  79
ATOM     79  C   UNL A   1      43.169  23.930  27.229  1.00  0.00     0.058 A 
ATOM     80  C   UNL A   1      43.113  22.945  28.227  1.00  0.00     0.135 A 
ATOM     81  C   UNL A   1      42.532  23.666  26.007  1.00  0.00     0.135 A 
ATOM     82  F   UNL A   1      43.727  23.138  29.404  1.00  0.00    -0.206 F 
ATOM     83  C   UNL A   1      42.471  21.730  28.009  1.00  0.00     0.059 A 
ATOM     84  C   UNL A   1      41.865  22.467  25.775  1.00  0.00     0.059 A 
ATOM     85  F   UNL A   1      42.564  24.573  25.018  1.00  0.00    -0.206 F 
ATOM     86  C   UNL A   1      41.855  21.499  26.777  1.00  0.00     0.060 A 
BRANCH  86  87
ATOM     87  S   UNL A   1      41.044  19.910  26.498  1.00  0.00     0.124 S 
ATOM     88  O   UNL A   1      40.908  19.412  27.864  1.00  0.00    -0.237 OA
ATOM     89  O   UNL A   1      39.802  20.304  25.841  1.00  0.00    -0.237 OA
ATOM     90  O   UNL A   1      41.993  19.187  25.658  1.00  0.00    -0.744 OA
ENDBRANCH  86  87
ENDBRANCH  65  79
BRANCH  66  91
ATOM     91  C   UNL A   1      47.443  32.817  28.798  1.00  0.00     0.058 A 
ATOM     92  C   UNL A   1      48.091  33.095  30.010  1.00  0.00     0.135 A 
ATOM     93  C   UNL A   1      47.409  33.830  27.828  1.00  0.00     0.135 A 
ATOM     94  F   UNL A   1      48.135  32.165  30.976  1.00  0.00    -0.206 F 
ATOM     95  C   UNL A   1      48.670  34.335  30.257  1.00  0.00     0.059 A 
ATOM     96  C   UNL A   1      48.003  35.069  28.041  1.00  0.00     0.059 A 
ATOM     97  F   UNL A   1      46.804  33.613  26.649  1.00  0.00    -0.206 F 
ATOM     98  C   UNL A   1      48.621  35.317  29.265  1.00  0.00     0.060 A 
BRANCH  98  99
ATOM     99  S   UNL A   1      49.405  36.914  29.578  1.00  0.00     0.124 S 
ATOM    100  O   UNL A   1      48.720  37.769  28.617  1.00  0.00    -0.237 OA
ATOM    101  O   UNL A   1      49.083  37.145  30.983  1.00  0.00    -0.237 OA
ATOM    102  O   UNL A   1      50.815  36.653  29.300  1.00  0.00    -0.744 OA
ENDBRANCH  98  99
ENDBRANCH  66  91
BRANCH  78 103
ATOM    103  C   UNL A   1      49.694  26.790  26.099  1.00  0.00     0.058 A 
ATOM    104  C   UNL A   1      50.053  27.077  24.773  1.00  0.00     0.135 A 
ATOM    105  C   UNL A   1      50.641  26.142  26.909  1.00  0.00     0.135 A 
ATOM    106  F   UNL A   1      49.183  27.691  23.956  1.00  0.00    -0.206 F 
ATOM    107  C   UNL A   1      51.298  26.720  24.264  1.00  0.00     0.059 A 
ATOM    108  C   UNL A   1      51.899  25.797  26.429  1.00  0.00     0.059 A 
ATOM    109  F   UNL A   1      50.350  25.856  28.188  1.00  0.00    -0.206 F 
ATOM    110  C   UNL A   1      52.216  26.082  25.101  1.00  0.00     0.060 A 
BRANCH 110 111
ATOM    111  S   UNL A   1      53.846  25.665  24.444  1.00  0.00     0.124 S 
ATOM    112  O   UNL A   1      53.998  24.285  24.892  1.00  0.00    -0.237 OA
ATOM    113  O   UNL A   1      53.663  25.850  23.008  1.00  0.00    -0.237 OA
ATOM    114  O   UNL A   1      54.728  26.635  25.087  1.00  0.00    -0.744 OA
ENDBRANCH 110 111
ENDBRANCH  78 103
ENDBRANCH  52  53
ENDBRANCH  45  47
ENDBRANCH  44  45
ENDBRANCH  43  44
ENDBRANCH  42  43
ENDBRANCH  41  42
ENDBRANCH  40  41
ENDBRANCH  39  40
ENDBRANCH   1  39
TORSDOF 31
ENDMDL
MODEL 2
REMARK VINA RESULT:      -8.7      1.401      2.156
REMARK SMILES [NH3+][C@@H](Cc1c[nH]c2ccccc12)C(=O)N[C@@H](CS)C(=O)N[C@@H](CO)C(=O)OCCOCCOCCOC(=O)c1ccc(-c2c3nc(c(-c4c(F)cc(S(=O)(=O)[O-])cc4F)c4ccc([nH]4)c(-c4c(F)cc(S(=O)(=O)[O-])cc4F)c4nc(c(-c5c(F)cc(S(=O)(=O)[O-])cc5F)c5ccc2[nH]5)C=C4)C=C3)cc1
REMARK SMILES IDX 30 1 29 2 28 3 27 4 25 5 26 6 22 7 21 8 19 9 20 10 16 12
REMARK SMILES IDX 15 13 13 14 14 15 2 17 1 18 3 22 4 23 5 24 12 25 6 26 7 27
REMARK SMILES IDX 11 28 8 30 10 31 9 32 17 33 18 34 23 36 24 37 31 39 32 40
REMARK SMILES IDX 33 41 34 42 35 43 36 44 37 45 38 46 39 47 40 48 104 49 41 50
REMARK SMILES IDX 103 51 42 52 43 53 44 54 97 55 45 56 102 57 96 58 98 59
REMARK SMILES IDX 46 60 101 61 95 62 94 63 47 65 81 66 60 67 80 68 61 69 64 70
REMARK SMILES IDX 79 71 99 72 62 73 63 74 78 76 100 77 65 78 48 79 49 80 58 81
REMARK SMILES IDX 50 82 51 83 57 84 59 85 52 86 53 87 54 88 55 89 56 90 82 91
REMARK SMILES IDX 83 92 92 93 84 94 85 95 91 96 93 97 86 98 87 99 88 100
REMARK SMILES IDX 89 101 90 102 66 103 67 104 76 105 68 106 69 107 75 108
REMARK SMILES IDX 77 109 70 110 71 111 72 112 73 113 74 114
REMARK H PARENT 21 11 15 16 1 19 1 20 1 21 6 29 18 35 24 38 98 64 64 75
REMARK Flexibility Score: inf
ROOT
ATOM      1  O   UNL A   1      34.149  28.720  27.288  1.00  0.00    -0.376 OA
ENDROOT
BRANCH   1   2
ATOM      2  C   UNL A   1      34.050  28.369  25.910  1.00  0.00     0.202 C 
BRANCH   2   3
ATOM      3  C   UNL A   1      32.689  27.782  25.539  1.00  0.00     0.261 C 
BRANCH   3   4
ATOM      4  O   UNL A   1      32.573  26.415  25.969  1.00  0.00    -0.462 OA
BRANCH   4   5
ATOM      5  C   UNL A   1      32.895  25.456  25.057  1.00  0.00     0.331 C 
ATOM      6  O   UNL A   1      32.997  25.653  23.852  1.00  0.00    -0.250 OA
BRANCH   5   7
ATOM      7  C   UNL A   1      33.036  24.082  25.721  1.00  0.00     0.218 C 
BRANCH   7   8
ATOM      8  N   UNL A   1      33.981  24.088  26.858  1.00  0.00    -0.339 N 
ATOM      9  C   UNL A   1      34.664  22.951  27.182  1.00  0.00     0.244 C 
ATOM     10  O   UNL A   1      34.059  22.074  27.802  1.00  0.00    -0.273 OA
ATOM     11  H   UNL A   1      34.118  24.911  27.380  1.00  0.00     0.164 HD
BRANCH   9  12
ATOM     12  C   UNL A   1      36.166  22.843  26.808  1.00  0.00     0.181 C 
BRANCH  12  13
ATOM     13  N   UNL A   1      36.338  21.562  26.132  1.00  0.00    -0.338 N 
ATOM     14  C   UNL A   1      35.946  21.184  24.884  1.00  0.00     0.279 C 
ATOM     15  O   UNL A   1      36.587  20.266  24.359  1.00  0.00    -0.268 OA
ATOM     16  H   UNL A   1      36.805  20.869  26.655  1.00  0.00     0.164 HD
BRANCH  14  17
ATOM     17  C   UNL A   1      34.745  21.816  24.138  1.00  0.00     0.275 C 
BRANCH  17  18
ATOM     18  N   UNL A   1      35.199  22.728  23.068  1.00  0.00    -0.347 N 
ATOM     19  H   UNL A   1      34.566  22.658  22.270  1.00  0.00     0.345 HD
ATOM     20  H   UNL A   1      36.142  22.469  22.776  1.00  0.00     0.345 HD
ATOM     21  H   UNL A   1      35.202  23.687  23.416  1.00  0.00     0.345 HD
ENDBRANCH  17  18
BRANCH  17  22
ATOM     22  C   UNL A   1      33.586  20.849  23.801  1.00  0.00     0.113 C 
BRANCH  22  23
ATOM     23  C   UNL A   1      33.303  19.719  24.760  1.00  0.00    -0.016 A 
ATOM     24  C   UNL A   1      32.865  19.822  26.070  1.00  0.00     0.087 A 
ATOM     25  C   UNL A   1      33.489  18.316  24.511  1.00  0.00     0.003 A 
ATOM     26  N   UNL A   1      32.703  18.561  26.582  1.00  0.00    -0.361 N 
ATOM     27  C   UNL A   1      33.029  17.624  25.632  1.00  0.00     0.046 A 
ATOM     28  C   UNL A   1      33.979  17.567  23.422  1.00  0.00     0.010 A 
ATOM     29  H   UNL A   1      32.398  18.357  27.495  1.00  0.00     0.166 HD
ATOM     30  C   UNL A   1      32.973  16.228  25.695  1.00  0.00     0.026 A 
ATOM     31  C   UNL A   1      33.964  16.169  23.482  1.00  0.00     0.001 A 
ATOM     32  C   UNL A   1      33.449  15.511  24.596  1.00  0.00     0.002 A 
ENDBRANCH  22  23
ENDBRANCH  17  22
ENDBRANCH  14  17
ENDBRANCH  12  13
BRANCH  12  33
ATOM     33  C   UNL A   1      36.832  24.033  26.108  1.00  0.00     0.101 C 
BRANCH  33  34
ATOM     34  S   UNL A   1      38.523  24.454  26.615  1.00  0.00    -0.177 SA
ATOM     35  H   UNL A   1      38.595  25.783  26.889  1.00  0.00     0.102 HD
ENDBRANCH  33  34
ENDBRANCH  12  33
ENDBRANCH   9  12
ENDBRANCH   7   8
BRANCH   7  36
ATOM     36  C   UNL A   1      31.638  23.612  26.153  1.00  0.00     0.193 C 
BRANCH  36  37
ATOM     37  O   UNL A   1      31.565  23.480  27.576  1.00  0.00    -0.394 OA
ATOM     38  H   UNL A   1      31.353  22.561  27.806  1.00  0.00     0.210 HD
ENDBRANCH  36  37
ENDBRANCH   7  36
ENDBRANCH   5   7
ENDBRANCH   4   5
ENDBRANCH   3   4
ENDBRANCH   2   3
ENDBRANCH   1   2
BRANCH   1  39
ATOM     39  C   UNL A   1      35.055  29.774  27.585  1.00  0.00     0.188 C 
BRANCH  39  40
ATOM     40  C   UNL A   1      34.409  31.170  27.703  1.00  0.00     0.188 C 
BRANCH  40  41
ATOM     41  O   UNL A   1      35.057  32.200  28.432  1.00  0.00    -0.376 OA
BRANCH  41  42
ATOM     42  C   UNL A   1      34.880  32.236  29.842  1.00  0.00     0.202 C 
BRANCH  42  43
ATOM     43  C   UNL A   1      35.659  31.219  30.687  1.00  0.00     0.261 C 
BRANCH  43  44
ATOM     44  O   UNL A   1      36.728  31.793  31.464  1.00  0.00    -0.460 OA
BRANCH  44  45
ATOM     45  C   UNL A   1      37.655  32.478  30.757  1.00  0.00     0.338 C 
ATOM     46  O   UNL A   1      37.693  33.692  30.561  1.00  0.00    -0.246 OA
BRANCH  45  47
ATOM     47  C   UNL A   1      38.800  31.618  30.414  1.00  0.00     0.060 A 
ATOM     48  C   UNL A   1      39.980  31.810  31.144  1.00  0.00     0.016 A 
ATOM     49  C   UNL A   1      38.776  30.741  29.331  1.00  0.00     0.016 A 
ATOM     50  C   UNL A   1      41.152  31.165  30.772  1.00  0.00     0.010 A 
ATOM     51  C   UNL A   1      39.962  30.094  28.952  1.00  0.00     0.010 A 
ATOM     52  C   UNL A   1      41.160  30.328  29.652  1.00  0.00    -0.014 A 
BRANCH  52  53
ATOM     53  C   UNL A   1      42.464  29.842  29.141  1.00  0.00     0.031 A 
ATOM     54  C   UNL A   1      42.569  28.423  28.654  1.00  0.00     0.074 A 
ATOM     55  C   UNL A   1      43.513  30.675  29.019  1.00  0.00     0.049 A 
ATOM     56  N   UNL A   1      43.614  27.770  28.223  1.00  0.00    -0.248 NA
ATOM     57  C   UNL A   1      41.320  27.643  28.635  1.00  0.00     0.031 C 
ATOM     58  C   UNL A   1      43.505  32.100  29.347  1.00  0.00     0.029 A 
ATOM     59  N   UNL A   1      44.790  30.438  28.577  1.00  0.00    -0.354 N 
ATOM     60  C   UNL A   1      43.159  26.498  27.899  1.00  0.00     0.074 A 
ATOM     61  C   UNL A   1      41.740  26.470  28.184  1.00  0.00     0.031 C 
ATOM     62  C   UNL A   1      44.725  32.610  29.105  1.00  0.00     0.029 A 
ATOM     63  C   UNL A   1      45.611  31.538  28.651  1.00  0.00     0.049 A 
ATOM     64  H   UNL A   1      45.090  29.564  28.240  1.00  0.00     0.167 HD
ATOM     65  C   UNL A   1      43.862  25.447  27.414  1.00  0.00     0.037 A 
ATOM     66  C   UNL A   1      46.933  31.655  28.416  1.00  0.00     0.037 A 
ATOM     67  C   UNL A   1      45.272  25.475  27.137  1.00  0.00     0.049 A 
ATOM     68  C   UNL A   1      47.717  30.443  27.980  1.00  0.00     0.074 A 
ATOM     69  C   UNL A   1      46.083  24.450  26.683  1.00  0.00     0.029 A 
ATOM     70  N   UNL A   1      46.086  26.588  27.291  1.00  0.00    -0.354 N 
ATOM     71  N   UNL A   1      47.287  29.228  27.729  1.00  0.00    -0.248 NA
ATOM     72  C   UNL A   1      49.167  30.612  27.811  1.00  0.00     0.031 C 
ATOM     73  C   UNL A   1      47.394  24.932  26.598  1.00  0.00     0.029 A 
ATOM     74  C   UNL A   1      47.391  26.270  26.958  1.00  0.00     0.049 A 
ATOM     75  H   UNL A   1      45.780  27.475  27.592  1.00  0.00     0.167 HD
ATOM     76  C   UNL A   1      48.409  28.498  27.352  1.00  0.00     0.074 A 
ATOM     77  C   UNL A   1      49.535  29.407  27.398  1.00  0.00     0.031 C 
ATOM     78  C   UNL A   1      48.500  27.191  27.001  1.00  0.00     0.037 A 
BRANCH  65  79
ATOM     79  C   UNL A   1      43.117  24.159  27.212  1.00  0.00     0.058 A 
ATOM     80  C   UNL A   1      43.063  23.170  28.207  1.00  0.00     0.135 A 
ATOM     81  C   UNL A   1      42.445  23.916  26.005  1.00  0.00     0.135 A 
ATOM     82  F   UNL A   1      43.711  23.344  29.370  1.00  0.00    -0.206 F 
ATOM     83  C   UNL A   1      42.389  21.971  27.999  1.00  0.00     0.059 A 
ATOM     84  C   UNL A   1      41.746  22.734  25.784  1.00  0.00     0.059 A 
ATOM     85  F   UNL A   1      42.473  24.827  25.019  1.00  0.00    -0.206 F 
ATOM     86  C   UNL A   1      41.738  21.760  26.782  1.00  0.00     0.060 A 
BRANCH  86  87
ATOM     87  S   UNL A   1      40.884  20.192  26.516  1.00  0.00     0.124 S 
ATOM     88  O   UNL A   1      41.762  19.548  25.544  1.00  0.00    -0.237 OA
ATOM     89  O   UNL A   1      40.881  19.607  27.852  1.00  0.00    -0.237 OA
ATOM     90  O   UNL A   1      39.577  20.599  26.009  1.00  0.00    -0.744 OA
ENDBRANCH  86  87
ENDBRANCH  65  79
BRANCH  66  91
ATOM     91  C   UNL A   1      47.619  32.957  28.641  1.00  0.00     0.058 A 
ATOM     92  C   UNL A   1      47.642  33.948  27.650  1.00  0.00     0.135 A 
ATOM     93  C   UNL A   1      48.285  33.222  29.847  1.00  0.00     0.135 A 
ATOM     94  F   UNL A   1      47.034  33.736  26.473  1.00  0.00    -0.206 F 
ATOM     95  C   UNL A   1      48.313  35.152  27.841  1.00  0.00     0.059 A 
ATOM     96  C   UNL A   1      48.942  34.428  30.072  1.00  0.00     0.059 A 
ATOM     97  F   UNL A   1      48.289  32.307  30.830  1.00  0.00    -0.206 F 
ATOM     98  C   UNL A   1      48.961  35.382  29.057  1.00  0.00     0.060 A 
BRANCH  98  99
ATOM     99  S   UNL A   1      49.802  36.960  29.312  1.00  0.00     0.124 S 
ATOM    100  O   UNL A   1      48.766  37.740  29.978  1.00  0.00    -0.237 OA
ATOM    101  O   UNL A   1      50.941  36.572  30.138  1.00  0.00    -0.237 OA
ATOM    102  O   UNL A   1      50.137  37.383  27.955  1.00  0.00    -0.744 OA
ENDBRANCH  98  99
ENDBRANCH  66  91
BRANCH  78 103
ATOM    103  C   UNL A   1      49.854  26.668  26.607  1.00  0.00     0.058 A 
ATOM    104  C   UNL A   1      50.706  26.054  27.538  1.00  0.00     0.135 A 
ATOM    105  C   UNL A   1      50.275  26.722  25.269  1.00  0.00     0.135 A 
ATOM    106  F   UNL A   1      50.353  25.981  28.831  1.00  0.00    -0.206 F 
ATOM    107  C   UNL A   1      51.937  25.528  27.159  1.00  0.00     0.059 A 
ATOM    108  C   UNL A   1      51.490  26.182  24.862  1.00  0.00     0.059 A 
ATOM    109  F   UNL A   1      49.491  27.289  24.337  1.00  0.00    -0.206 F 
ATOM    110  C   UNL A   1      52.319  25.594  25.817  1.00  0.00     0.060 A 
BRANCH 110 111
ATOM    111  S   UNL A   1      53.898  24.866  25.327  1.00  0.00     0.124 S 
ATOM    112  O   UNL A   1      54.634  24.887  26.587  1.00  0.00    -0.237 OA
ATOM    113  O   UNL A   1      53.500  23.547  24.847  1.00  0.00    -0.237 OA
ATOM    114  O   UNL A   1      54.387  25.779  24.298  1.00  0.00    -0.744 OA
ENDBRANCH 110 111
ENDBRANCH  78 103
ENDBRANCH  52  53
ENDBRANCH  45  47
ENDBRANCH  44  45
ENDBRANCH  43  44
ENDBRANCH  42  43
ENDBRANCH  41  42
ENDBRANCH  40  41
ENDBRANCH  39  40
ENDBRANCH   1  39
TORSDOF 31
ENDMDL
MODEL 3
REMARK VINA RESULT:      -8.2      5.359      7.861
REMARK SMILES [NH3+][C@@H](Cc1c[nH]c2ccccc12)C(=O)N[C@@H](CS)C(=O)N[C@@H](CO)C(=O)OCCOCCOCCOC(=O)c1ccc(-c2c3nc(c(-c4c(F)cc(S(=O)(=O)[O-])cc4F)c4ccc([nH]4)c(-c4c(F)cc(S(=O)(=O)[O-])cc4F)c4nc(c(-c5c(F)cc(S(=O)(=O)[O-])cc5F)c5ccc2[nH]5)C=C4)C=C3)cc1
REMARK SMILES IDX 30 1 29 2 28 3 27 4 25 5 26 6 22 7 21 8 19 9 20 10 16 12
REMARK SMILES IDX 15 13 13 14 14 15 2 17 1 18 3 22 4 23 5 24 12 25 6 26 7 27
REMARK SMILES IDX 11 28 8 30 10 31 9 32 17 33 18 34 23 36 24 37 31 39 32 40
REMARK SMILES IDX 33 41 34 42 35 43 36 44 37 45 38 46 39 47 40 48 104 49 41 50
REMARK SMILES IDX 103 51 42 52 43 53 44 54 97 55 45 56 102 57 96 58 98 59
REMARK SMILES IDX 46 60 101 61 95 62 94 63 47 65 81 66 60 67 80 68 61 69 64 70
REMARK SMILES IDX 79 71 99 72 62 73 63 74 78 76 100 77 65 78 48 79 49 80 58 81
REMARK SMILES IDX 50 82 51 83 57 84 59 85 52 86 53 87 54 88 55 89 56 90 82 91
REMARK SMILES IDX 83 92 92 93 84 94 85 95 91 96 93 97 86 98 87 99 88 100
REMARK SMILES IDX 89 101 90 102 66 103 67 104 76 105 68 106 69 107 75 108
REMARK SMILES IDX 77 109 70 110 71 111 72 112 73 113 74 114
REMARK H PARENT 21 11 15 16 1 19 1 20 1 21 6 29 18 35 24 38 98 64 64 75
REMARK Flexibility Score: inf
ROOT
ATOM      1  O   UNL A   1      34.702  29.983  27.765  1.00  0.00    -0.376 OA
ENDROOT
BRANCH   1   2
ATOM      2  C   UNL A   1      33.950  28.997  27.062  1.00  0.00     0.202 C 
BRANCH   2   3
ATOM      3  C   UNL A   1      32.450  29.076  27.343  1.00  0.00     0.261 C 
BRANCH   3   4
ATOM      4  O   UNL A   1      31.682  28.887  26.143  1.00  0.00    -0.462 OA
BRANCH   4   5
ATOM      5  C   UNL A   1      31.346  30.008  25.446  1.00  0.00     0.331 C 
ATOM      6  O   UNL A   1      31.432  31.148  25.886  1.00  0.00    -0.250 OA
BRANCH   5   7
ATOM      7  C   UNL A   1      30.774  29.656  24.069  1.00  0.00     0.218 C 
BRANCH   7   8
ATOM      8  N   UNL A   1      30.440  28.223  23.934  1.00  0.00    -0.339 N 
ATOM      9  C   UNL A   1      31.009  27.481  22.938  1.00  0.00     0.244 C 
ATOM     10  O   UNL A   1      30.556  27.605  21.799  1.00  0.00    -0.273 OA
ATOM     11  H   UNL A   1      29.808  27.803  24.561  1.00  0.00     0.164 HD
BRANCH   9  12
ATOM     12  C   UNL A   1      32.147  26.489  23.295  1.00  0.00     0.181 C 
BRANCH  12  13
ATOM     13  N   UNL A   1      31.654  25.154  22.977  1.00  0.00    -0.338 N 
ATOM     14  C   UNL A   1      31.118  24.212  23.801  1.00  0.00     0.279 C 
ATOM     15  O   UNL A   1      30.360  23.388  23.276  1.00  0.00    -0.268 OA
ATOM     16  H   UNL A   1      31.719  24.897  22.028  1.00  0.00     0.164 HD
BRANCH  14  17
ATOM     17  C   UNL A   1      31.441  24.115  25.312  1.00  0.00     0.275 C 
BRANCH  17  18
ATOM     18  N   UNL A   1      30.544  24.978  26.108  1.00  0.00    -0.347 N 
ATOM     19  H   UNL A   1      30.124  24.430  26.860  1.00  0.00     0.345 HD
ATOM     20  H   UNL A   1      29.808  25.350  25.508  1.00  0.00     0.345 HD
ATOM     21  H   UNL A   1      31.079  25.749  26.508  1.00  0.00     0.345 HD
ENDBRANCH  17  18
BRANCH  17  22
ATOM     22  C   UNL A   1      31.710  22.688  25.847  1.00  0.00     0.113 C 
BRANCH  22  23
ATOM     23  C   UNL A   1      33.137  22.302  26.149  1.00  0.00    -0.016 A 
ATOM     24  C   UNL A   1      33.629  21.769  27.329  1.00  0.00     0.087 A 
ATOM     25  C   UNL A   1      34.271  22.466  25.282  1.00  0.00     0.003 A 
ATOM     26  N   UNL A   1      34.971  21.533  27.182  1.00  0.00    -0.361 N 
ATOM     27  C   UNL A   1      35.376  21.903  25.923  1.00  0.00     0.046 A 
ATOM     28  C   UNL A   1      34.456  23.015  23.997  1.00  0.00     0.010 A 
ATOM     29  H   UNL A   1      35.557  21.154  27.876  1.00  0.00     0.166 HD
ATOM     30  C   UNL A   1      36.636  21.802  25.322  1.00  0.00     0.026 A 
ATOM     31  C   UNL A   1      35.719  22.955  23.395  1.00  0.00     0.001 A 
ATOM     32  C   UNL A   1      36.787  22.339  24.043  1.00  0.00     0.002 A 
ENDBRANCH  22  23
ENDBRANCH  17  22
ENDBRANCH  14  17
ENDBRANCH  12  13
BRANCH  12  33
ATOM     33  C   UNL A   1      33.562  26.789  22.789  1.00  0.00     0.101 C 
BRANCH  33  34
ATOM     34  S   UNL A   1      34.117  28.516  22.849  1.00  0.00    -0.177 SA
ATOM     35  H   UNL A   1      35.472  28.560  22.747  1.00  0.00     0.102 HD
ENDBRANCH  33  34
ENDBRANCH  12  33
ENDBRANCH   9  12
ENDBRANCH   7   8
BRANCH   7  36
ATOM     36  C   UNL A   1      29.547  30.546  23.818  1.00  0.00     0.193 C 
BRANCH  36  37
ATOM     37  O   UNL A   1      29.662  31.225  22.563  1.00  0.00    -0.394 OA
ATOM     38  H   UNL A   1      28.939  31.868  22.475  1.00  0.00     0.210 HD
ENDBRANCH  36  37
ENDBRANCH   7  36
ENDBRANCH   5   7
ENDBRANCH   4   5
ENDBRANCH   3   4
ENDBRANCH   2   3
ENDBRANCH   1   2
BRANCH   1  39
ATOM     39  C   UNL A   1      35.937  29.535  28.309  1.00  0.00     0.188 C 
BRANCH  39  40
ATOM     40  C   UNL A   1      37.020  30.624  28.442  1.00  0.00     0.188 C 
BRANCH  40  41
ATOM     41  O   UNL A   1      38.382  30.315  28.196  1.00  0.00    -0.376 OA
BRANCH  41  42
ATOM     42  C   UNL A   1      38.681  29.113  27.499  1.00  0.00     0.202 C 
BRANCH  42  43
ATOM     43  C   UNL A   1      40.126  28.897  27.030  1.00  0.00     0.261 C 
BRANCH  43  44
ATOM     44  O   UNL A   1      40.625  27.565  27.252  1.00  0.00    -0.460 OA
BRANCH  44  45
ATOM     45  C   UNL A   1      41.671  27.201  26.474  1.00  0.00     0.338 C 
ATOM     46  O   UNL A   1      41.756  27.296  25.251  1.00  0.00    -0.246 OA
BRANCH  45  47
ATOM     47  C   UNL A   1      42.849  26.871  27.293  1.00  0.00     0.060 A 
ATOM     48  C   UNL A   1      43.496  27.936  27.933  1.00  0.00     0.016 A 
ATOM     49  C   UNL A   1      43.393  25.588  27.337  1.00  0.00     0.016 A 
ATOM     50  C   UNL A   1      44.708  27.738  28.581  1.00  0.00     0.010 A 
ATOM     51  C   UNL A   1      44.620  25.390  27.986  1.00  0.00     0.010 A 
ATOM     52  C   UNL A   1      45.296  26.470  28.583  1.00  0.00    -0.014 A 
BRANCH  52  53
ATOM     53  C   UNL A   1      46.689  26.337  29.072  1.00  0.00     0.031 A 
ATOM     54  C   UNL A   1      46.921  25.997  30.519  1.00  0.00     0.074 A 
ATOM     55  C   UNL A   1      47.731  26.420  28.225  1.00  0.00     0.049 A 
ATOM     56  N   UNL A   1      48.045  25.889  31.175  1.00  0.00    -0.248 NA
ATOM     57  C   UNL A   1      45.721  25.724  31.327  1.00  0.00     0.031 C 
ATOM     58  C   UNL A   1      47.633  26.631  26.782  1.00  0.00     0.029 A 
ATOM     59  N   UNL A   1      49.079  26.330  28.462  1.00  0.00    -0.354 N 
ATOM     60  C   UNL A   1      47.692  25.556  32.477  1.00  0.00     0.074 A 
ATOM     61  C   UNL A   1      46.248  25.479  32.519  1.00  0.00     0.031 C 
ATOM     62  C   UNL A   1      48.872  26.665  26.261  1.00  0.00     0.029 A 
ATOM     63  C   UNL A   1      49.849  26.526  27.340  1.00  0.00     0.049 A 
ATOM     64  H   UNL A   1      49.459  26.143  29.350  1.00  0.00     0.167 HD
ATOM     65  C   UNL A   1      48.500  25.340  33.543  1.00  0.00     0.037 A 
ATOM     66  C   UNL A   1      51.187  26.621  27.209  1.00  0.00     0.037 A 
ATOM     67  C   UNL A   1      49.935  25.422  33.500  1.00  0.00     0.049 A 
ATOM     68  C   UNL A   1      52.062  26.483  28.429  1.00  0.00     0.074 A 
ATOM     69  C   UNL A   1      50.839  25.260  34.535  1.00  0.00     0.029 A 
ATOM     70  N   UNL A   1      50.677  25.692  32.360  1.00  0.00    -0.354 N 
ATOM     71  N   UNL A   1      51.715  26.223  29.668  1.00  0.00    -0.248 NA
ATOM     72  C   UNL A   1      53.508  26.670  28.237  1.00  0.00     0.031 C 
ATOM     73  C   UNL A   1      52.126  25.471  34.028  1.00  0.00     0.029 A 
ATOM     74  C   UNL A   1      52.026  25.720  32.669  1.00  0.00     0.049 A 
ATOM     75  H   UNL A   1      50.301  25.842  31.462  1.00  0.00     0.167 HD
ATOM     76  C   UNL A   1      52.901  26.192  30.396  1.00  0.00     0.074 A 
ATOM     77  C   UNL A   1      53.974  26.451  29.459  1.00  0.00     0.031 C 
ATOM     78  C   UNL A   1      53.084  25.971  31.722  1.00  0.00     0.037 A 
BRANCH  65  79
ATOM     79  C   UNL A   1      47.837  25.053  34.859  1.00  0.00     0.058 A 
ATOM     80  C   UNL A   1      47.479  23.750  35.239  1.00  0.00     0.135 A 
ATOM     81  C   UNL A   1      47.561  26.099  35.752  1.00  0.00     0.135 A 
ATOM     82  F   UNL A   1      47.699  22.718  34.410  1.00  0.00    -0.206 F 
ATOM     83  C   UNL A   1      46.845  23.500  36.452  1.00  0.00     0.059 A 
ATOM     84  C   UNL A   1      46.947  25.869  36.979  1.00  0.00     0.059 A 
ATOM     85  F   UNL A   1      47.876  27.364  35.430  1.00  0.00    -0.206 F 
ATOM     86  C   UNL A   1      46.578  24.567  37.312  1.00  0.00     0.060 A 
BRANCH  86  87
ATOM     87  S   UNL A   1      45.736  24.232  38.873  1.00  0.00     0.124 S 
ATOM     88  O   UNL A   1      44.473  24.938  38.676  1.00  0.00    -0.237 OA
ATOM     89  O   UNL A   1      45.653  22.775  38.878  1.00  0.00    -0.237 OA
ATOM     90  O   UNL A   1      46.629  24.810  39.872  1.00  0.00    -0.744 OA
ENDBRANCH  86  87
ENDBRANCH  65  79
BRANCH  66  91
ATOM     91  C   UNL A   1      51.788  26.914  25.879  1.00  0.00     0.058 A 
ATOM     92  C   UNL A   1      52.297  25.890  25.068  1.00  0.00     0.135 A 
ATOM     93  C   UNL A   1      51.883  28.231  25.405  1.00  0.00     0.135 A 
ATOM     94  F   UNL A   1      52.246  24.615  25.484  1.00  0.00    -0.206 F 
ATOM     95  C   UNL A   1      52.894  26.162  23.841  1.00  0.00     0.059 A 
ATOM     96  C   UNL A   1      52.451  28.526  24.170  1.00  0.00     0.059 A 
ATOM     97  F   UNL A   1      51.406  29.248  26.141  1.00  0.00    -0.206 F 
ATOM     98  C   UNL A   1      52.965  27.485  23.400  1.00  0.00     0.060 A 
BRANCH  98  99
ATOM     99  S   UNL A   1      53.709  27.830  21.790  1.00  0.00     0.124 S 
ATOM    100  O   UNL A   1      54.713  28.827  22.140  1.00  0.00    -0.237 OA
ATOM    101  O   UNL A   1      54.219  26.519  21.400  1.00  0.00    -0.237 OA
ATOM    102  O   UNL A   1      52.582  28.316  21.000  1.00  0.00    -0.744 OA
ENDBRANCH  98  99
ENDBRANCH  66  91
BRANCH  78 103
ATOM    103  C   UNL A   1      54.496  25.966  32.238  1.00  0.00     0.058 A 
ATOM    104  C   UNL A   1      55.257  24.788  32.293  1.00  0.00     0.135 A 
ATOM    105  C   UNL A   1      55.117  27.166  32.620  1.00  0.00     0.135 A 
ATOM    106  F   UNL A   1      54.709  23.614  31.943  1.00  0.00    -0.206 F 
ATOM    107  C   UNL A   1      56.579  24.797  32.725  1.00  0.00     0.059 A 
ATOM    108  C   UNL A   1      56.445  27.203  33.033  1.00  0.00     0.059 A 
ATOM    109  F   UNL A   1      54.436  28.323  32.575  1.00  0.00    -0.206 F 
ATOM    110  C   UNL A   1      57.166  26.010  33.091  1.00  0.00     0.060 A 
BRANCH 110 111
ATOM    111  S   UNL A   1      58.897  26.018  33.606  1.00  0.00     0.124 S 
ATOM    112  O   UNL A   1      59.290  27.388  33.293  1.00  0.00    -0.237 OA
ATOM    113  O   UNL A   1      58.804  25.694  35.026  1.00  0.00    -0.237 OA
ATOM    114  O   UNL A   1      59.503  24.984  32.772  1.00  0.00    -0.744 OA
ENDBRANCH 110 111
ENDBRANCH  78 103
ENDBRANCH  52  53
ENDBRANCH  45  47
ENDBRANCH  44  45
ENDBRANCH  43  44
ENDBRANCH  42  43
ENDBRANCH  41  42
ENDBRANCH  40  41
ENDBRANCH  39  40
ENDBRANCH   1  39
TORSDOF 31
ENDMDL
