MODEL 1
REMARK VINA RESULT:     -11.2      0.000      0.000
REMARK SMILES O=C(OCCOCCOCCOC(=O)[C@H]1CC2=c3ccccc3=N[C@H]2[C@@H](c2ccccc2)[NH2+]1)c1ccc(-c2c3nc(c(-c4c(F)cc(S(=O)(=O)[O-])cc4F)c4ccc([nH]4)c(-c4c(F)cc(S(=O)(=O)[O-])cc4F)c4nc(c(-c5c(F)cc(S(=O)(=O)[O-])cc5F)c5ccc2[nH]5)C=C4)C=C3)cc1
REMARK SMILES IDX 7 1 6 2 5 3 4 4 3 5 2 6 1 7 34 8 35 9 99 10 36 11 98 12
REMARK SMILES IDX 37 13 38 14 39 15 92 16 40 17 97 18 91 19 93 20 41 21 96 22
REMARK SMILES IDX 90 23 89 24 42 26 76 27 55 28 75 29 56 30 59 31 74 32 94 33
REMARK SMILES IDX 57 34 58 35 73 37 95 38 60 39 43 40 44 41 53 42 45 43 46 44
REMARK SMILES IDX 52 45 54 46 47 47 48 48 49 49 50 50 51 51 77 52 78 53 87 54
REMARK SMILES IDX 79 55 80 56 86 57 88 58 81 59 82 60 83 61 84 62 85 63 61 64
REMARK SMILES IDX 62 65 71 66 63 67 64 68 70 69 72 70 65 71 66 72 67 73 68 74
REMARK SMILES IDX 69 75 8 76 9 77 10 78 11 79 12 80 13 81 14 82 15 83 16 84
REMARK SMILES IDX 33 85 17 86 26 87 18 90 25 91 19 92 23 93 24 94 20 95 22 96
REMARK SMILES IDX 21 97 27 98 28 99 32 100 29 101 31 102 30 103
REMARK H PARENT 93 25 59 36 33 88 33 89
REMARK Flexibility Score: inf
ROOT
ATOM      1  C   UNL A   1      31.777  29.905  25.562  1.00  0.00     0.188 C 
ENDROOT
BRANCH   1   2
ATOM      2  O   UNL A   1      31.820  29.591  26.957  1.00  0.00    -0.376 OA
BRANCH   2   3
ATOM      3  C   UNL A   1      33.136  29.559  27.527  1.00  0.00     0.202 C 
BRANCH   3   4
ATOM      4  C   UNL A   1      33.867  30.906  27.661  1.00  0.00     0.261 C 
BRANCH   4   5
ATOM      5  O   UNL A   1      35.304  30.817  27.770  1.00  0.00    -0.460 OA
BRANCH   5   6
ATOM      6  C   UNL A   1      36.122  30.986  28.827  1.00  0.00     0.338 C 
ATOM      7  O   UNL A   1      35.670  31.414  29.889  1.00  0.00    -0.246 OA
BRANCH   6   8
ATOM      8  C   UNL A   1      37.561  30.663  28.761  1.00  0.00     0.060 A 
ATOM      9  C   UNL A   1      38.013  30.009  27.627  1.00  0.00     0.016 A 
ATOM     10  C   UNL A   1      38.438  30.773  29.835  1.00  0.00     0.016 A 
ATOM     11  C   UNL A   1      39.313  29.494  27.606  1.00  0.00     0.010 A 
ATOM     12  C   UNL A   1      39.782  30.376  29.753  1.00  0.00     0.010 A 
ATOM     13  C   UNL A   1      40.266  29.692  28.648  1.00  0.00    -0.014 A 
BRANCH  13  14
ATOM     14  C   UNL A   1      41.654  29.091  28.535  1.00  0.00     0.031 A 
ATOM     15  C   UNL A   1      41.983  27.605  28.353  1.00  0.00     0.074 A 
ATOM     16  C   UNL A   1      42.696  29.952  28.497  1.00  0.00     0.049 A 
ATOM     17  N   UNL A   1      43.003  27.063  27.716  1.00  0.00    -0.248 NA
ATOM     18  C   UNL A   1      41.136  26.590  28.999  1.00  0.00     0.031 C 
ATOM     19  C   UNL A   1      42.617  31.385  28.801  1.00  0.00     0.029 A 
ATOM     20  N   UNL A   1      44.008  29.773  28.139  1.00  0.00    -0.354 N 
ATOM     21  C   UNL A   1      42.809  25.677  27.745  1.00  0.00     0.074 A 
ATOM     22  C   UNL A   1      41.681  25.448  28.597  1.00  0.00     0.031 C 
ATOM     23  C   UNL A   1      43.767  31.975  28.470  1.00  0.00     0.029 A 
ATOM     24  C   UNL A   1      44.724  30.945  28.098  1.00  0.00     0.049 A 
ATOM     25  H   UNL A   1      44.398  28.892  27.933  1.00  0.00     0.167 HD
ATOM     26  C   UNL A   1      43.525  24.691  27.148  1.00  0.00     0.037 A 
ATOM     27  C   UNL A   1      46.025  31.183  27.851  1.00  0.00     0.037 A 
ATOM     28  C   UNL A   1      44.872  24.891  26.693  1.00  0.00     0.049 A 
ATOM     29  C   UNL A   1      46.911  30.030  27.516  1.00  0.00     0.074 A 
ATOM     30  C   UNL A   1      45.747  23.952  26.175  1.00  0.00     0.029 A 
ATOM     31  N   UNL A   1      45.584  26.062  26.867  1.00  0.00    -0.354 N 
ATOM     32  N   UNL A   1      46.573  28.790  27.260  1.00  0.00    -0.248 NA
ATOM     33  C   UNL A   1      48.353  30.291  27.477  1.00  0.00     0.031 C 
ATOM     34  C   UNL A   1      47.019  24.523  26.158  1.00  0.00     0.029 A 
ATOM     35  C   UNL A   1      46.914  25.838  26.581  1.00  0.00     0.049 A 
ATOM     36  H   UNL A   1      45.200  26.923  27.150  1.00  0.00     0.167 HD
ATOM     37  C   UNL A   1      47.765  28.117  27.040  1.00  0.00     0.074 A 
ATOM     38  C   UNL A   1      48.829  29.091  27.170  1.00  0.00     0.031 C 
ATOM     39  C   UNL A   1      47.959  26.808  26.756  1.00  0.00     0.037 A 
BRANCH  26  40
ATOM     40  C   UNL A   1      42.993  23.283  26.966  1.00  0.00     0.058 A 
ATOM     41  C   UNL A   1      42.811  22.787  25.657  1.00  0.00     0.135 A 
ATOM     42  C   UNL A   1      42.975  22.344  28.008  1.00  0.00     0.135 A 
ATOM     43  F   UNL A   1      42.883  23.619  24.606  1.00  0.00    -0.206 F 
ATOM     44  C   UNL A   1      42.624  21.428  25.391  1.00  0.00     0.059 A 
ATOM     45  C   UNL A   1      42.815  20.974  27.763  1.00  0.00     0.059 A 
ATOM     46  F   UNL A   1      43.167  22.744  29.274  1.00  0.00    -0.206 F 
ATOM     47  C   UNL A   1      42.648  20.522  26.451  1.00  0.00     0.060 A 
BRANCH  47  48
ATOM     48  S   UNL A   1      42.502  18.754  26.078  1.00  0.00     0.124 S 
ATOM     49  O   UNL A   1      43.393  18.587  24.927  1.00  0.00    -0.237 OA
ATOM     50  O   UNL A   1      42.950  18.141  27.308  1.00  0.00    -0.237 OA
ATOM     51  O   UNL A   1      41.076  18.594  25.768  1.00  0.00    -0.744 OA
ENDBRANCH  47  48
ENDBRANCH  26  40
BRANCH  27  52
ATOM     52  C   UNL A   1      46.549  32.560  28.039  1.00  0.00     0.058 A 
ATOM     53  C   UNL A   1      46.547  33.503  27.005  1.00  0.00     0.135 A 
ATOM     54  C   UNL A   1      46.988  32.980  29.310  1.00  0.00     0.135 A 
ATOM     55  F   UNL A   1      46.149  33.149  25.774  1.00  0.00    -0.206 F 
ATOM     56  C   UNL A   1      46.939  34.820  27.228  1.00  0.00     0.059 A 
ATOM     57  C   UNL A   1      47.344  34.296  29.565  1.00  0.00     0.059 A 
ATOM     58  F   UNL A   1      46.998  32.116  30.339  1.00  0.00    -0.206 F 
ATOM     59  C   UNL A   1      47.322  35.208  28.515  1.00  0.00     0.060 A 
BRANCH  59  60
ATOM     60  S   UNL A   1      47.745  36.935  28.820  1.00  0.00     0.124 S 
ATOM     61  O   UNL A   1      48.632  37.220  27.699  1.00  0.00    -0.237 OA
ATOM     62  O   UNL A   1      46.437  37.583  28.783  1.00  0.00    -0.237 OA
ATOM     63  O   UNL A   1      48.379  36.898  30.135  1.00  0.00    -0.744 OA
ENDBRANCH  59  60
ENDBRANCH  27  52
BRANCH  39  64
ATOM     64  C   UNL A   1      49.366  26.333  26.591  1.00  0.00     0.058 A 
ATOM     65  C   UNL A   1      49.983  26.318  25.333  1.00  0.00     0.135 A 
ATOM     66  C   UNL A   1      50.130  25.989  27.715  1.00  0.00     0.135 A 
ATOM     67  F   UNL A   1      49.287  26.640  24.231  1.00  0.00    -0.206 F 
ATOM     68  C   UNL A   1      51.317  25.960  25.193  1.00  0.00     0.059 A 
ATOM     69  C   UNL A   1      51.473  25.661  27.602  1.00  0.00     0.059 A 
ATOM     70  F   UNL A   1      49.580  26.009  28.940  1.00  0.00    -0.206 F 
ATOM     71  C   UNL A   1      52.054  25.640  26.336  1.00  0.00     0.060 A 
BRANCH  71  72
ATOM     72  S   UNL A   1      53.795  25.215  26.143  1.00  0.00     0.124 S 
ATOM     73  O   UNL A   1      54.286  25.378  27.508  1.00  0.00    -0.237 OA
ATOM     74  O   UNL A   1      53.728  23.841  25.653  1.00  0.00    -0.237 OA
ATOM     75  O   UNL A   1      54.280  26.198  25.179  1.00  0.00    -0.744 OA
ENDBRANCH  71  72
ENDBRANCH  39  64
ENDBRANCH  13  14
ENDBRANCH   6   8
ENDBRANCH   5   6
ENDBRANCH   4   5
ENDBRANCH   3   4
ENDBRANCH   2   3
ENDBRANCH   1   2
BRANCH   1  76
ATOM     76  C   UNL A   1      31.542  28.705  24.638  1.00  0.00     0.188 C 
BRANCH  76  77
ATOM     77  O   UNL A   1      32.666  27.956  24.189  1.00  0.00    -0.376 OA
BRANCH  77  78
ATOM     78  C   UNL A   1      32.480  26.576  23.913  1.00  0.00     0.202 C 
BRANCH  78  79
ATOM     79  C   UNL A   1      33.542  25.895  23.040  1.00  0.00     0.261 C 
BRANCH  79  80
ATOM     80  O   UNL A   1      34.099  24.697  23.617  1.00  0.00    -0.459 OA
BRANCH  80  81
ATOM     81  C   UNL A   1      33.743  23.559  22.939  1.00  0.00     0.365 C 
ATOM     82  O   UNL A   1      32.791  23.524  22.166  1.00  0.00    -0.245 OA
BRANCH  81  83
ATOM     83  C   UNL A   1      34.628  22.334  23.222  1.00  0.00     0.298 C 
ATOM     84  C   UNL A   1      36.177  22.622  23.370  1.00  0.00     0.111 C 
ATOM     85  N   UNL A   1      34.018  21.556  24.313  1.00  0.00    -0.326 N 
ATOM     86  C   UNL A   1      37.040  21.754  24.427  1.00  0.00    -0.024 C 
ATOM     87  C   UNL A   1      34.963  20.476  24.590  1.00  0.00     0.243 C 
ATOM     88  H   UNL A   1      33.117  21.177  24.023  1.00  0.00     0.347 HD
ATOM     89  H   UNL A   1      33.843  22.129  25.138  1.00  0.00     0.347 HD
ATOM     90  C   UNL A   1      37.937  22.428  25.158  1.00  0.00     0.002 A 
ATOM     91  C   UNL A   1      36.094  21.106  25.441  1.00  0.00     0.196 C 
ATOM     92  C   UNL A   1      39.082  22.097  25.991  1.00  0.00     0.010 A 
ATOM     93  C   UNL A   1      36.893  23.031  26.041  1.00  0.00     0.066 A 
ATOM     94  N   UNL A   1      35.765  22.387  26.212  1.00  0.00    -0.270 NA
ATOM     95  C   UNL A   1      39.446  23.029  26.901  1.00  0.00     0.001 A 
ATOM     96  C   UNL A   1      37.411  24.311  26.551  1.00  0.00     0.028 A 
ATOM     97  C   UNL A   1      38.692  24.280  26.969  1.00  0.00     0.002 A 
BRANCH  87  98
ATOM     98  C   UNL A   1      34.194  19.190  24.749  1.00  0.00     0.012 A 
ATOM     99  C   UNL A   1      34.878  18.001  24.394  1.00  0.00     0.010 A 
ATOM    100  C   UNL A   1      32.850  19.085  25.070  1.00  0.00     0.010 A 
ATOM    101  C   UNL A   1      34.253  16.760  24.403  1.00  0.00     0.001 A 
ATOM    102  C   UNL A   1      32.216  17.836  25.086  1.00  0.00     0.001 A 
ATOM    103  C   UNL A   1      32.919  16.677  24.761  1.00  0.00     0.000 A 
ENDBRANCH  87  98
ENDBRANCH  81  83
ENDBRANCH  80  81
ENDBRANCH  79  80
ENDBRANCH  78  79
ENDBRANCH  77  78
ENDBRANCH  76  77
ENDBRANCH   1  76
TORSDOF 21
ENDMDL
MODEL 2
REMARK VINA RESULT:     -11.0      5.682     11.154
REMARK SMILES O=C(OCCOCCOCCOC(=O)[C@H]1CC2=c3ccccc3=N[C@H]2[C@@H](c2ccccc2)[NH2+]1)c1ccc(-c2c3nc(c(-c4c(F)cc(S(=O)(=O)[O-])cc4F)c4ccc([nH]4)c(-c4c(F)cc(S(=O)(=O)[O-])cc4F)c4nc(c(-c5c(F)cc(S(=O)(=O)[O-])cc5F)c5ccc2[nH]5)C=C4)C=C3)cc1
REMARK SMILES IDX 7 1 6 2 5 3 4 4 3 5 2 6 1 7 34 8 35 9 99 10 36 11 98 12
REMARK SMILES IDX 37 13 38 14 39 15 92 16 40 17 97 18 91 19 93 20 41 21 96 22
REMARK SMILES IDX 90 23 89 24 42 26 76 27 55 28 75 29 56 30 59 31 74 32 94 33
REMARK SMILES IDX 57 34 58 35 73 37 95 38 60 39 43 40 44 41 53 42 45 43 46 44
REMARK SMILES IDX 52 45 54 46 47 47 48 48 49 49 50 50 51 51 77 52 78 53 87 54
REMARK SMILES IDX 79 55 80 56 86 57 88 58 81 59 82 60 83 61 84 62 85 63 61 64
REMARK SMILES IDX 62 65 71 66 63 67 64 68 70 69 72 70 65 71 66 72 67 73 68 74
REMARK SMILES IDX 69 75 8 76 9 77 10 78 11 79 12 80 13 81 14 82 15 83 16 84
REMARK SMILES IDX 33 85 17 86 26 87 18 90 25 91 19 92 23 93 24 94 20 95 22 96
REMARK SMILES IDX 21 97 27 98 28 99 32 100 29 101 31 102 30 103
REMARK H PARENT 93 25 59 36 33 88 33 89
REMARK Flexibility Score: inf
ROOT
ATOM      1  C   UNL A   1      42.094  19.005  26.061  1.00  0.00     0.188 C 
ENDROOT
BRANCH   1   2
ATOM      2  O   UNL A   1      42.963  19.510  25.043  1.00  0.00    -0.376 OA
BRANCH   2   3
ATOM      3  C   UNL A   1      44.337  19.639  25.435  1.00  0.00     0.202 C 
BRANCH   3   4
ATOM      4  C   UNL A   1      45.003  21.004  25.189  1.00  0.00     0.261 C 
BRANCH   4   5
ATOM      5  O   UNL A   1      44.442  22.105  25.934  1.00  0.00    -0.460 OA
BRANCH   5   6
ATOM      6  C   UNL A   1      43.508  23.016  25.596  1.00  0.00     0.338 C 
ATOM      7  O   UNL A   1      43.005  22.989  24.474  1.00  0.00    -0.246 OA
BRANCH   6   8
ATOM      8  C   UNL A   1      43.052  24.054  26.541  1.00  0.00     0.060 A 
ATOM      9  C   UNL A   1      43.518  25.343  26.341  1.00  0.00     0.016 A 
ATOM     10  C   UNL A   1      42.373  23.791  27.727  1.00  0.00     0.016 A 
ATOM     11  C   UNL A   1      43.291  26.314  27.323  1.00  0.00     0.010 A 
ATOM     12  C   UNL A   1      42.030  24.802  28.638  1.00  0.00     0.010 A 
ATOM     13  C   UNL A   1      42.502  26.098  28.490  1.00  0.00    -0.014 A 
BRANCH  13  14
ATOM     14  C   UNL A   1      42.313  27.214  29.499  1.00  0.00     0.031 A 
ATOM     15  C   UNL A   1      41.314  28.372  29.389  1.00  0.00     0.074 A 
ATOM     16  C   UNL A   1      43.025  27.134  30.646  1.00  0.00     0.049 A 
ATOM     17  N   UNL A   1      40.694  29.014  30.361  1.00  0.00    -0.248 NA
ATOM     18  C   UNL A   1      41.006  28.941  28.068  1.00  0.00     0.031 C 
ATOM     19  C   UNL A   1      44.133  26.203  30.887  1.00  0.00     0.029 A 
ATOM     20  N   UNL A   1      42.899  27.797  31.840  1.00  0.00    -0.354 N 
ATOM     21  C   UNL A   1      39.815  29.916  29.752  1.00  0.00     0.074 A 
ATOM     22  C   UNL A   1      40.096  29.867  28.349  1.00  0.00     0.031 C 
ATOM     23  C   UNL A   1      44.475  26.240  32.177  1.00  0.00     0.029 A 
ATOM     24  C   UNL A   1      43.738  27.319  32.818  1.00  0.00     0.049 A 
ATOM     25  H   UNL A   1      42.270  28.541  31.982  1.00  0.00     0.167 HD
ATOM     26  C   UNL A   1      38.887  30.733  30.314  1.00  0.00     0.037 A 
ATOM     27  C   UNL A   1      43.954  27.727  34.081  1.00  0.00     0.037 A 
ATOM     28  C   UNL A   1      38.931  31.100  31.702  1.00  0.00     0.049 A 
ATOM     29  C   UNL A   1      43.155  28.872  34.608  1.00  0.00     0.074 A 
ATOM     30  C   UNL A   1      38.125  32.003  32.372  1.00  0.00     0.029 A 
ATOM     31  N   UNL A   1      39.932  30.717  32.574  1.00  0.00    -0.354 N 
ATOM     32  N   UNL A   1      42.122  29.466  34.061  1.00  0.00    -0.248 NA
ATOM     33  C   UNL A   1      43.570  29.434  35.897  1.00  0.00     0.031 C 
ATOM     34  C   UNL A   1      38.717  32.262  33.609  1.00  0.00     0.029 A 
ATOM     35  C   UNL A   1      39.836  31.455  33.735  1.00  0.00     0.049 A 
ATOM     36  H   UNL A   1      40.608  30.025  32.394  1.00  0.00     0.167 HD
ATOM     37  C   UNL A   1      41.769  30.482  34.936  1.00  0.00     0.074 A 
ATOM     38  C   UNL A   1      42.683  30.407  36.057  1.00  0.00     0.031 C 
ATOM     39  C   UNL A   1      40.777  31.394  34.819  1.00  0.00     0.037 A 
BRANCH  26  40
ATOM     40  C   UNL A   1      37.768  31.378  29.519  1.00  0.00     0.058 A 
ATOM     41  C   UNL A   1      36.516  30.729  29.456  1.00  0.00     0.135 A 
ATOM     42  C   UNL A   1      37.808  32.720  29.115  1.00  0.00     0.135 A 
ATOM     43  F   UNL A   1      36.391  29.465  29.890  1.00  0.00    -0.206 F 
ATOM     44  C   UNL A   1      35.360  31.378  29.018  1.00  0.00     0.059 A 
ATOM     45  C   UNL A   1      36.656  33.398  28.696  1.00  0.00     0.059 A 
ATOM     46  F   UNL A   1      38.961  33.404  29.173  1.00  0.00    -0.206 F 
ATOM     47  C   UNL A   1      35.433  32.722  28.658  1.00  0.00     0.060 A 
BRANCH  47  48
ATOM     48  S   UNL A   1      33.904  33.574  28.185  1.00  0.00     0.124 S 
ATOM     49  O   UNL A   1      34.381  34.632  27.291  1.00  0.00    -0.237 OA
ATOM     50  O   UNL A   1      33.144  32.519  27.554  1.00  0.00    -0.237 OA
ATOM     51  O   UNL A   1      33.381  34.058  29.469  1.00  0.00    -0.744 OA
ENDBRANCH  47  48
ENDBRANCH  26  40
BRANCH  27  52
ATOM     52  C   UNL A   1      45.057  27.104  34.857  1.00  0.00     0.058 A 
ATOM     53  C   UNL A   1      46.371  27.580  34.790  1.00  0.00     0.135 A 
ATOM     54  C   UNL A   1      44.781  26.059  35.760  1.00  0.00     0.135 A 
ATOM     55  F   UNL A   1      46.686  28.566  33.937  1.00  0.00    -0.206 F 
ATOM     56  C   UNL A   1      47.371  27.056  35.606  1.00  0.00     0.059 A 
ATOM     57  C   UNL A   1      45.751  25.551  36.611  1.00  0.00     0.059 A 
ATOM     58  F   UNL A   1      43.533  25.576  35.871  1.00  0.00    -0.206 F 
ATOM     59  C   UNL A   1      47.046  26.053  36.522  1.00  0.00     0.060 A 
BRANCH  59  60
ATOM     60  S   UNL A   1      48.323  25.440  37.639  1.00  0.00     0.124 S 
ATOM     61  O   UNL A   1      49.504  25.489  36.786  1.00  0.00    -0.237 OA
ATOM     62  O   UNL A   1      48.276  26.415  38.725  1.00  0.00    -0.237 OA
ATOM     63  O   UNL A   1      47.849  24.103  37.988  1.00  0.00    -0.744 OA
ENDBRANCH  59  60
ENDBRANCH  27  52
BRANCH  39  64
ATOM     64  C   UNL A   1      40.631  32.406  35.907  1.00  0.00     0.058 A 
ATOM     65  C   UNL A   1      41.455  33.539  35.959  1.00  0.00     0.135 A 
ATOM     66  C   UNL A   1      39.592  32.291  36.843  1.00  0.00     0.135 A 
ATOM     67  F   UNL A   1      42.461  33.687  35.083  1.00  0.00    -0.206 F 
ATOM     68  C   UNL A   1      41.262  34.522  36.919  1.00  0.00     0.059 A 
ATOM     69  C   UNL A   1      39.360  33.278  37.789  1.00  0.00     0.059 A 
ATOM     70  F   UNL A   1      38.770  31.230  36.815  1.00  0.00    -0.206 F 
ATOM     71  C   UNL A   1      40.208  34.384  37.826  1.00  0.00     0.060 A 
BRANCH  71  72
ATOM     72  S   UNL A   1      39.945  35.689  39.042  1.00  0.00     0.124 S 
ATOM     73  O   UNL A   1      41.260  35.771  39.668  1.00  0.00    -0.237 OA
ATOM     74  O   UNL A   1      39.567  36.823  38.205  1.00  0.00    -0.237 OA
ATOM     75  O   UNL A   1      38.880  35.156  39.886  1.00  0.00    -0.744 OA
ENDBRANCH  71  72
ENDBRANCH  39  64
ENDBRANCH  13  14
ENDBRANCH   6   8
ENDBRANCH   5   6
ENDBRANCH   4   5
ENDBRANCH   3   4
ENDBRANCH   2   3
ENDBRANCH   1   2
BRANCH   1  76
ATOM     76  C   UNL A   1      41.767  19.999  27.180  1.00  0.00     0.188 C 
BRANCH  76  77
ATOM     77  O   UNL A   1      40.410  20.380  27.384  1.00  0.00    -0.376 OA
BRANCH  77  78
ATOM     78  C   UNL A   1      40.095  21.763  27.359  1.00  0.00     0.202 C 
BRANCH  78  79
ATOM     79  C   UNL A   1      39.472  22.310  26.067  1.00  0.00     0.261 C 
BRANCH  79  80
ATOM     80  O   UNL A   1      38.236  21.670  25.692  1.00  0.00    -0.459 OA
BRANCH  80  81
ATOM     81  C   UNL A   1      37.154  22.512  25.756  1.00  0.00     0.365 C 
ATOM     82  O   UNL A   1      37.260  23.727  25.631  1.00  0.00    -0.245 OA
BRANCH  81  83
ATOM     83  C   UNL A   1      35.805  21.815  25.995  1.00  0.00     0.298 C 
ATOM     84  C   UNL A   1      34.752  22.630  26.851  1.00  0.00     0.111 C 
ATOM     85  N   UNL A   1      35.312  21.291  24.711  1.00  0.00    -0.326 N 
ATOM     86  C   UNL A   1      33.180  22.500  26.493  1.00  0.00    -0.024 C 
ATOM     87  C   UNL A   1      33.990  20.740  25.002  1.00  0.00     0.243 C 
ATOM     88  H   UNL A   1      35.934  20.563  24.359  1.00  0.00     0.347 HD
ATOM     89  H   UNL A   1      35.273  22.015  23.993  1.00  0.00     0.347 HD
ATOM     90  C   UNL A   1      32.469  23.634  26.515  1.00  0.00     0.002 A 
ATOM     91  C   UNL A   1      33.029  21.953  25.071  1.00  0.00     0.196 C 
ATOM     92  C   UNL A   1      31.061  23.997  26.542  1.00  0.00     0.010 A 
ATOM     93  C   UNL A   1      33.036  24.117  25.220  1.00  0.00     0.066 A 
ATOM     94  N   UNL A   1      33.457  23.234  24.348  1.00  0.00    -0.270 NA
ATOM     95  C   UNL A   1      30.758  25.243  26.114  1.00  0.00     0.001 A 
ATOM     96  C   UNL A   1      32.993  25.589  25.224  1.00  0.00     0.028 A 
ATOM     97  C   UNL A   1      31.843  26.123  25.680  1.00  0.00     0.002 A 
BRANCH  87  98
ATOM     98  C   UNL A   1      33.862  19.404  24.318  1.00  0.00     0.012 A 
ATOM     99  C   UNL A   1      32.801  19.274  23.388  1.00  0.00     0.010 A 
ATOM    100  C   UNL A   1      34.591  18.266  24.621  1.00  0.00     0.010 A 
ATOM    101  C   UNL A   1      32.514  18.069  22.760  1.00  0.00     0.001 A 
ATOM    102  C   UNL A   1      34.310  17.048  23.988  1.00  0.00     0.001 A 
ATOM    103  C   UNL A   1      33.280  16.954  23.055  1.00  0.00     0.000 A 
ENDBRANCH  87  98
ENDBRANCH  81  83
ENDBRANCH  80  81
ENDBRANCH  79  80
ENDBRANCH  78  79
ENDBRANCH  77  78
ENDBRANCH  76  77
ENDBRANCH   1  76
TORSDOF 21
ENDMDL
MODEL 3
REMARK VINA RESULT:     -11.0      3.754      5.794
REMARK SMILES O=C(OCCOCCOCCOC(=O)[C@H]1CC2=c3ccccc3=N[C@H]2[C@@H](c2ccccc2)[NH2+]1)c1ccc(-c2c3nc(c(-c4c(F)cc(S(=O)(=O)[O-])cc4F)c4ccc([nH]4)c(-c4c(F)cc(S(=O)(=O)[O-])cc4F)c4nc(c(-c5c(F)cc(S(=O)(=O)[O-])cc5F)c5ccc2[nH]5)C=C4)C=C3)cc1
REMARK SMILES IDX 7 1 6 2 5 3 4 4 3 5 2 6 1 7 34 8 35 9 99 10 36 11 98 12
REMARK SMILES IDX 37 13 38 14 39 15 92 16 40 17 97 18 91 19 93 20 41 21 96 22
REMARK SMILES IDX 90 23 89 24 42 26 76 27 55 28 75 29 56 30 59 31 74 32 94 33
REMARK SMILES IDX 57 34 58 35 73 37 95 38 60 39 43 40 44 41 53 42 45 43 46 44
REMARK SMILES IDX 52 45 54 46 47 47 48 48 49 49 50 50 51 51 77 52 78 53 87 54
REMARK SMILES IDX 79 55 80 56 86 57 88 58 81 59 82 60 83 61 84 62 85 63 61 64
REMARK SMILES IDX 62 65 71 66 63 67 64 68 70 69 72 70 65 71 66 72 67 73 68 74
REMARK SMILES IDX 69 75 8 76 9 77 10 78 11 79 12 80 13 81 14 82 15 83 16 84
REMARK SMILES IDX 33 85 17 86 26 87 18 90 25 91 19 92 23 93 24 94 20 95 22 96
REMARK SMILES IDX 21 97 27 98 28 99 32 100 29 101 31 102 30 103
REMARK H PARENT 93 25 59 36 33 88 33 89
REMARK Flexibility Score: inf
ROOT
ATOM      1  C   UNL A   1      34.355  36.228  33.281  1.00  0.00     0.188 C 
ENDROOT
BRANCH   1   2
ATOM      2  O   UNL A   1      35.562  35.460  33.283  1.00  0.00    -0.376 OA
BRANCH   2   3
ATOM      3  C   UNL A   1      35.436  34.143  33.837  1.00  0.00     0.202 C 
BRANCH   3   4
ATOM      4  C   UNL A   1      36.708  33.277  33.864  1.00  0.00     0.261 C 
BRANCH   4   5
ATOM      5  O   UNL A   1      37.086  32.701  32.596  1.00  0.00    -0.460 OA
BRANCH   5   6
ATOM      6  C   UNL A   1      37.879  33.171  31.613  1.00  0.00     0.338 C 
ATOM      7  O   UNL A   1      37.498  34.111  30.917  1.00  0.00    -0.246 OA
BRANCH   6   8
ATOM      8  C   UNL A   1      39.212  32.596  31.343  1.00  0.00     0.060 A 
ATOM      9  C   UNL A   1      39.599  32.491  30.017  1.00  0.00     0.016 A 
ATOM     10  C   UNL A   1      40.001  31.964  32.298  1.00  0.00     0.016 A 
ATOM     11  C   UNL A   1      40.752  31.765  29.697  1.00  0.00     0.010 A 
ATOM     12  C   UNL A   1      41.226  31.358  31.980  1.00  0.00     0.010 A 
ATOM     13  C   UNL A   1      41.636  31.205  30.664  1.00  0.00    -0.014 A 
BRANCH  13  14
ATOM     14  C   UNL A   1      42.862  30.431  30.218  1.00  0.00     0.031 A 
ATOM     15  C   UNL A   1      42.910  28.940  29.866  1.00  0.00     0.074 A 
ATOM     16  C   UNL A   1      43.999  31.138  30.023  1.00  0.00     0.049 A 
ATOM     17  N   UNL A   1      43.686  28.329  28.991  1.00  0.00    -0.248 NA
ATOM     18  C   UNL A   1      42.059  27.993  30.602  1.00  0.00     0.031 C 
ATOM     19  C   UNL A   1      44.208  32.530  30.439  1.00  0.00     0.029 A 
ATOM     20  N   UNL A   1      45.168  30.815  29.385  1.00  0.00    -0.354 N 
ATOM     21  C   UNL A   1      43.286  26.989  28.961  1.00  0.00     0.074 A 
ATOM     22  C   UNL A   1      42.327  26.833  30.013  1.00  0.00     0.031 C 
ATOM     23  C   UNL A   1      45.348  32.985  29.915  1.00  0.00     0.029 A 
ATOM     24  C   UNL A   1      46.038  31.875  29.277  1.00  0.00     0.049 A 
ATOM     25  H   UNL A   1      45.366  29.915  29.038  1.00  0.00     0.167 HD
ATOM     26  C   UNL A   1      43.705  25.979  28.157  1.00  0.00     0.037 A 
ATOM     27  C   UNL A   1      47.284  31.953  28.778  1.00  0.00     0.037 A 
ATOM     28  C   UNL A   1      44.950  26.034  27.444  1.00  0.00     0.049 A 
ATOM     29  C   UNL A   1      47.894  30.728  28.182  1.00  0.00     0.074 A 
ATOM     30  C   UNL A   1      45.546  25.040  26.688  1.00  0.00     0.029 A 
ATOM     31  N   UNL A   1      45.857  27.071  27.547  1.00  0.00    -0.354 N 
ATOM     32  N   UNL A   1      47.322  29.580  27.916  1.00  0.00    -0.248 NA
ATOM     33  C   UNL A   1      49.323  30.788  27.859  1.00  0.00     0.031 C 
ATOM     34  C   UNL A   1      46.864  25.428  26.443  1.00  0.00     0.029 A 
ATOM     35  C   UNL A   1      47.053  26.695  26.972  1.00  0.00     0.049 A 
ATOM     36  H   UNL A   1      45.678  27.944  27.966  1.00  0.00     0.167 HD
ATOM     37  C   UNL A   1      48.325  28.773  27.402  1.00  0.00     0.074 A 
ATOM     38  C   UNL A   1      49.533  29.572  27.374  1.00  0.00     0.031 C 
ATOM     39  C   UNL A   1      48.251  27.486  26.990  1.00  0.00     0.037 A 
BRANCH  26  40
ATOM     40  C   UNL A   1      42.933  24.684  27.992  1.00  0.00     0.058 A 
ATOM     41  C   UNL A   1      42.112  24.521  26.855  1.00  0.00     0.135 A 
ATOM     42  C   UNL A   1      43.232  23.529  28.729  1.00  0.00     0.135 A 
ATOM     43  F   UNL A   1      41.840  25.572  26.065  1.00  0.00    -0.206 F 
ATOM     44  C   UNL A   1      41.615  23.275  26.465  1.00  0.00     0.059 A 
ATOM     45  C   UNL A   1      42.765  22.266  28.342  1.00  0.00     0.059 A 
ATOM     46  F   UNL A   1      44.027  23.609  29.807  1.00  0.00    -0.206 F 
ATOM     47  C   UNL A   1      41.963  22.146  27.204  1.00  0.00     0.060 A 
BRANCH  47  48
ATOM     48  S   UNL A   1      41.390  20.526  26.627  1.00  0.00     0.124 S 
ATOM     49  O   UNL A   1      41.525  19.686  27.820  1.00  0.00    -0.237 OA
ATOM     50  O   UNL A   1      40.034  20.807  26.212  1.00  0.00    -0.237 OA
ATOM     51  O   UNL A   1      42.332  20.202  25.548  1.00  0.00    -0.744 OA
ENDBRANCH  47  48
ENDBRANCH  26  40
BRANCH  27  52
ATOM     52  C   UNL A   1      48.046  33.217  28.950  1.00  0.00     0.058 A 
ATOM     53  C   UNL A   1      48.901  33.426  30.038  1.00  0.00     0.135 A 
ATOM     54  C   UNL A   1      47.991  34.214  27.956  1.00  0.00     0.135 A 
ATOM     55  F   UNL A   1      48.980  32.511  31.016  1.00  0.00    -0.206 F 
ATOM     56  C   UNL A   1      49.691  34.570  30.126  1.00  0.00     0.059 A 
ATOM     57  C   UNL A   1      48.799  35.341  28.003  1.00  0.00     0.059 A 
ATOM     58  F   UNL A   1      47.195  34.055  26.886  1.00  0.00    -0.206 F 
ATOM     59  C   UNL A   1      49.642  35.512  29.096  1.00  0.00     0.060 A 
BRANCH  59  60
ATOM     60  S   UNL A   1      50.732  36.948  29.170  1.00  0.00     0.124 S 
ATOM     61  O   UNL A   1      51.421  36.857  27.888  1.00  0.00    -0.237 OA
ATOM     62  O   UNL A   1      49.782  38.048  29.312  1.00  0.00    -0.237 OA
ATOM     63  O   UNL A   1      51.552  36.684  30.350  1.00  0.00    -0.744 OA
ENDBRANCH  59  60
ENDBRANCH  27  52
BRANCH  39  64
ATOM     64  C   UNL A   1      49.504  26.840  26.499  1.00  0.00     0.058 A 
ATOM     65  C   UNL A   1      49.913  26.970  25.165  1.00  0.00     0.135 A 
ATOM     66  C   UNL A   1      50.352  26.172  27.395  1.00  0.00     0.135 A 
ATOM     67  F   UNL A   1      49.131  27.601  24.274  1.00  0.00    -0.206 F 
ATOM     68  C   UNL A   1      51.121  26.443  24.730  1.00  0.00     0.059 A 
ATOM     69  C   UNL A   1      51.578  25.667  26.990  1.00  0.00     0.059 A 
ATOM     70  F   UNL A   1      50.005  26.042  28.686  1.00  0.00    -0.206 F 
ATOM     71  C   UNL A   1      51.948  25.799  25.653  1.00  0.00     0.060 A 
BRANCH  71  72
ATOM     72  S   UNL A   1      53.532  25.154  25.082  1.00  0.00     0.124 S 
ATOM     73  O   UNL A   1      54.456  25.783  26.020  1.00  0.00    -0.237 OA
ATOM     74  O   UNL A   1      53.354  23.713  25.235  1.00  0.00    -0.237 OA
ATOM     75  O   UNL A   1      53.616  25.629  23.705  1.00  0.00    -0.744 OA
ENDBRANCH  71  72
ENDBRANCH  39  64
ENDBRANCH  13  14
ENDBRANCH   6   8
ENDBRANCH   5   6
ENDBRANCH   4   5
ENDBRANCH   3   4
ENDBRANCH   2   3
ENDBRANCH   1   2
BRANCH   1  76
ATOM     76  C   UNL A   1      33.246  35.685  32.374  1.00  0.00     0.188 C 
BRANCH  76  77
ATOM     77  O   UNL A   1      32.648  36.561  31.425  1.00  0.00    -0.376 OA
BRANCH  77  78
ATOM     78  C   UNL A   1      32.666  36.175  30.059  1.00  0.00     0.202 C 
BRANCH  78  79
ATOM     79  C   UNL A   1      33.911  35.425  29.566  1.00  0.00     0.261 C 
BRANCH  79  80
ATOM     80  O   UNL A   1      33.622  34.291  28.725  1.00  0.00    -0.459 OA
BRANCH  80  81
ATOM     81  C   UNL A   1      34.173  33.124  29.191  1.00  0.00     0.365 C 
ATOM     82  O   UNL A   1      34.254  32.866  30.387  1.00  0.00    -0.245 OA
BRANCH  81  83
ATOM     83  C   UNL A   1      34.678  32.166  28.099  1.00  0.00     0.298 C 
ATOM     84  C   UNL A   1      36.224  31.826  28.143  1.00  0.00     0.111 C 
ATOM     85  N   UNL A   1      33.773  31.008  28.035  1.00  0.00    -0.326 N 
ATOM     86  C   UNL A   1      36.713  30.342  27.723  1.00  0.00    -0.024 C 
ATOM     87  C   UNL A   1      34.373  30.104  27.056  1.00  0.00     0.243 C 
ATOM     88  H   UNL A   1      32.842  31.296  27.732  1.00  0.00     0.347 HD
ATOM     89  H   UNL A   1      33.659  30.561  28.945  1.00  0.00     0.347 HD
ATOM     90  C   UNL A   1      37.665  29.791  28.487  1.00  0.00     0.002 A 
ATOM     91  C   UNL A   1      35.525  29.378  27.795  1.00  0.00     0.196 C 
ATOM     92  C   UNL A   1      38.587  28.672  28.380  1.00  0.00     0.010 A 
ATOM     93  C   UNL A   1      36.718  29.493  29.604  1.00  0.00     0.066 A 
ATOM     94  N   UNL A   1      35.450  29.313  29.324  1.00  0.00    -0.270 NA
ATOM     95  C   UNL A   1      39.073  28.187  29.546  1.00  0.00     0.001 A 
ATOM     96  C   UNL A   1      37.485  29.475  30.860  1.00  0.00     0.028 A 
ATOM     97  C   UNL A   1      38.661  28.819  30.799  1.00  0.00     0.002 A 
BRANCH  87  98
ATOM     98  C   UNL A   1      33.289  29.585  26.148  1.00  0.00     0.012 A 
ATOM     99  C   UNL A   1      33.576  28.388  25.447  1.00  0.00     0.010 A 
ATOM    100  C   UNL A   1      32.110  30.243  25.836  1.00  0.00     0.010 A 
ATOM    101  C   UNL A   1      32.702  27.855  24.508  1.00  0.00     0.001 A 
ATOM    102  C   UNL A   1      31.222  29.709  24.893  1.00  0.00     0.001 A 
ATOM    103  C   UNL A   1      31.515  28.514  24.239  1.00  0.00     0.000 A 
ENDBRANCH  87  98
ENDBRANCH  81  83
ENDBRANCH  80  81
ENDBRANCH  79  80
ENDBRANCH  78  79
ENDBRANCH  77  78
ENDBRANCH  76  77
ENDBRANCH   1  76
TORSDOF 21
ENDMDL
