MODEL 1
REMARK VINA RESULT:      -9.5      0.000      0.000
REMARK SMILES O=C(CCN1C(=O)/C(=C/c2cc(Br)cc(Br)c2O)SC1=S)OCCOCCOCCOC(=O)c1ccc(-c2c3nc(c(-c4c(F)cc(S(=O)(=O)[O-])cc4F)c4ccc([nH]4)c(-c4c(F)cc(S(=O)(=O)[O-])cc4F)c4nc(c(-c5c(F)cc(S(=O)(=O)[O-])cc5F)c5ccc2[nH]5)C=C4)C=C3)cc1
REMARK SMILES IDX 26 1 25 2 24 3 23 4 22 5 2 6 1 7 3 8 4 9 5 10 6 11 20 12
REMARK SMILES IDX 7 13 8 14 19 15 21 16 9 17 10 18 11 19 17 20 12 21 15 22
REMARK SMILES IDX 13 23 14 24 16 25 18 26 27 28 28 29 29 30 30 31 31 32 32 33
REMARK SMILES IDX 33 34 34 35 35 36 99 37 36 38 98 39 37 40 38 41 39 42 92 43
REMARK SMILES IDX 40 44 97 45 91 46 93 47 41 48 96 49 90 50 89 51 42 53 76 54
REMARK SMILES IDX 55 55 75 56 56 57 59 58 74 59 94 60 57 61 58 62 73 64 95 65
REMARK SMILES IDX 60 66 43 67 44 68 53 69 45 70 46 71 52 72 54 73 47 74 48 75
REMARK SMILES IDX 49 76 50 77 51 78 77 79 78 80 87 81 79 82 80 83 86 84 88 85
REMARK SMILES IDX 81 86 82 87 83 88 84 89 85 90 61 91 62 92 71 93 63 94 64 95
REMARK SMILES IDX 70 96 72 97 65 98 66 99 67 100 68 101 69 102
REMARK H PARENT 18 27 93 52 59 63
REMARK Flexibility Score: inf
ROOT
ATOM      1  C   UNL A   1      31.786  29.531  24.753  1.00  0.00     0.188 C 
ENDROOT
BRANCH   1   2
ATOM      2  O   UNL A   1      30.420  29.873  24.632  1.00  0.00    -0.376 OA
BRANCH   2   3
ATOM      3  C   UNL A   1      29.890  30.050  23.334  1.00  0.00     0.202 C 
BRANCH   3   4
ATOM      4  C   UNL A   1      29.603  28.791  22.524  1.00  0.00     0.261 C 
BRANCH   4   5
ATOM      5  O   UNL A   1      28.723  27.778  23.076  1.00  0.00    -0.463 OA
BRANCH   5   6
ATOM      6  C   UNL A   1      28.905  26.715  23.878  1.00  0.00     0.307 C 
ATOM      7  O   UNL A   1      27.934  26.219  24.447  1.00  0.00    -0.252 OA
BRANCH   6   8
ATOM      8  C   UNL A   1      30.274  26.151  24.106  1.00  0.00     0.144 C 
BRANCH   8   9
ATOM      9  C   UNL A   1      30.609  25.950  25.576  1.00  0.00     0.139 C 
BRANCH   9  10
ATOM     10  N   UNL A   1      31.672  24.967  25.810  1.00  0.00    -0.292 N 
ATOM     11  C   UNL A   1      32.972  25.291  25.456  1.00  0.00     0.266 C 
ATOM     12  C   UNL A   1      31.473  23.712  26.352  1.00  0.00     0.148 C 
ATOM     13  O   UNL A   1      33.341  26.332  24.933  1.00  0.00    -0.268 OA
ATOM     14  C   UNL A   1      33.873  24.131  25.683  1.00  0.00     0.081 C 
ATOM     15  S   UNL A   1      32.999  22.836  26.392  1.00  0.00    -0.054 SA
ATOM     16  S   UNL A   1      30.058  23.018  26.889  1.00  0.00    -0.052 S 
ATOM     17  C   UNL A   1      35.148  24.125  25.265  1.00  0.00     0.033 C 
BRANCH  17  18
ATOM     18  C   UNL A   1      36.019  22.938  25.257  1.00  0.00     0.020 A 
ATOM     19  C   UNL A   1      35.407  21.710  24.955  1.00  0.00     0.027 A 
ATOM     20  C   UNL A   1      37.387  22.955  25.578  1.00  0.00     0.137 A 
ATOM     21  C   UNL A   1      36.140  20.524  25.016  1.00  0.00     0.019 A 
ATOM     22  C   UNL A   1      38.107  21.754  25.649  1.00  0.00     0.061 A 
ATOM     23  Br  UNL A   1      35.288  18.879  24.631  1.00  0.00    -0.051 Br
ATOM     24  C   UNL A   1      37.484  20.537  25.373  1.00  0.00     0.035 A 
ATOM     25  Br  UNL A   1      39.942  21.726  26.138  1.00  0.00    -0.047 Br
BRANCH  20  26
ATOM     26  O   UNL A   1      38.051  24.127  25.833  1.00  0.00    -0.506 OA
ATOM     27  H   UNL A   1      37.581  24.872  26.152  1.00  0.00     0.293 HD
ENDBRANCH  20  26
ENDBRANCH  17  18
ENDBRANCH   9  10
ENDBRANCH   8   9
ENDBRANCH   6   8
ENDBRANCH   5   6
ENDBRANCH   4   5
ENDBRANCH   3   4
ENDBRANCH   2   3
ENDBRANCH   1   2
BRANCH   1  28
ATOM     28  C   UNL A   1      32.382  29.692  26.167  1.00  0.00     0.188 C 
BRANCH  28  29
ATOM     29  O   UNL A   1      33.254  30.777  26.468  1.00  0.00    -0.376 OA
BRANCH  29  30
ATOM     30  C   UNL A   1      32.983  31.643  27.560  1.00  0.00     0.202 C 
BRANCH  30  31
ATOM     31  C   UNL A   1      33.043  33.158  27.342  1.00  0.00     0.261 C 
BRANCH  31  32
ATOM     32  O   UNL A   1      32.507  33.934  28.424  1.00  0.00    -0.460 OA
BRANCH  32  33
ATOM     33  C   UNL A   1      33.327  34.903  28.911  1.00  0.00     0.338 C 
ATOM     34  O   UNL A   1      33.073  36.083  29.037  1.00  0.00    -0.246 OA
BRANCH  33  35
ATOM     35  C   UNL A   1      34.550  34.276  29.464  1.00  0.00     0.060 A 
ATOM     36  C   UNL A   1      34.403  33.385  30.536  1.00  0.00     0.016 A 
ATOM     37  C   UNL A   1      35.817  34.543  28.940  1.00  0.00     0.016 A 
ATOM     38  C   UNL A   1      35.523  32.776  31.104  1.00  0.00     0.010 A 
ATOM     39  C   UNL A   1      36.942  33.954  29.528  1.00  0.00     0.010 A 
ATOM     40  C   UNL A   1      36.802  33.088  30.628  1.00  0.00    -0.014 A 
BRANCH  40  41
ATOM     41  C   UNL A   1      38.000  32.659  31.392  1.00  0.00     0.031 A 
ATOM     42  C   UNL A   1      38.848  31.553  30.824  1.00  0.00     0.074 A 
ATOM     43  C   UNL A   1      38.333  33.236  32.561  1.00  0.00     0.049 A 
ATOM     44  N   UNL A   1      39.893  30.961  31.339  1.00  0.00    -0.248 NA
ATOM     45  C   UNL A   1      38.461  31.045  29.497  1.00  0.00     0.031 C 
ATOM     46  C   UNL A   1      37.618  34.343  33.194  1.00  0.00     0.029 A 
ATOM     47  N   UNL A   1      39.356  32.955  33.434  1.00  0.00    -0.354 N 
ATOM     48  C   UNL A   1      40.286  30.009  30.406  1.00  0.00     0.074 A 
ATOM     49  C   UNL A   1      39.357  30.088  29.300  1.00  0.00     0.031 C 
ATOM     50  C   UNL A   1      38.209  34.628  34.369  1.00  0.00     0.029 A 
ATOM     51  C   UNL A   1      39.324  33.707  34.585  1.00  0.00     0.049 A 
ATOM     52  H   UNL A   1      40.049  32.278  33.252  1.00  0.00     0.167 HD
ATOM     53  C   UNL A   1      41.329  29.148  30.464  1.00  0.00     0.037 A 
ATOM     54  C   UNL A   1      40.086  33.635  35.696  1.00  0.00     0.037 A 
ATOM     55  C   UNL A   1      42.252  29.072  31.565  1.00  0.00     0.049 A 
ATOM     56  C   UNL A   1      41.198  32.615  35.766  1.00  0.00     0.074 A 
ATOM     57  C   UNL A   1      43.358  28.252  31.702  1.00  0.00     0.029 A 
ATOM     58  N   UNL A   1      42.172  29.832  32.722  1.00  0.00    -0.354 N 
ATOM     59  N   UNL A   1      41.581  31.746  34.862  1.00  0.00    -0.248 NA
ATOM     60  C   UNL A   1      41.979  32.564  37.012  1.00  0.00     0.031 C 
ATOM     61  C   UNL A   1      43.916  28.478  32.964  1.00  0.00     0.029 A 
ATOM     62  C   UNL A   1      43.189  29.477  33.591  1.00  0.00     0.049 A 
ATOM     63  H   UNL A   1      41.493  30.522  32.898  1.00  0.00     0.167 HD
ATOM     64  C   UNL A   1      42.659  31.064  35.419  1.00  0.00     0.074 A 
ATOM     65  C   UNL A   1      42.879  31.632  36.732  1.00  0.00     0.031 C 
ATOM     66  C   UNL A   1      43.400  30.057  34.893  1.00  0.00     0.037 A 
BRANCH  53  67
ATOM     67  C   UNL A   1      41.519  28.198  29.317  1.00  0.00     0.058 A 
ATOM     68  C   UNL A   1      40.640  27.126  29.094  1.00  0.00     0.135 A 
ATOM     69  C   UNL A   1      42.554  28.404  28.392  1.00  0.00     0.135 A 
ATOM     70  F   UNL A   1      39.648  26.872  29.961  1.00  0.00    -0.206 F 
ATOM     71  C   UNL A   1      40.786  26.287  27.993  1.00  0.00     0.059 A 
ATOM     72  C   UNL A   1      42.703  27.593  27.272  1.00  0.00     0.059 A 
ATOM     73  F   UNL A   1      43.426  29.409  28.566  1.00  0.00    -0.206 F 
ATOM     74  C   UNL A   1      41.817  26.534  27.084  1.00  0.00     0.060 A 
BRANCH  74  75
ATOM     75  S   UNL A   1      41.965  25.462  25.639  1.00  0.00     0.124 S 
ATOM     76  O   UNL A   1      40.564  25.240  25.296  1.00  0.00    -0.237 OA
ATOM     77  O   UNL A   1      42.721  26.297  24.710  1.00  0.00    -0.237 OA
ATOM     78  O   UNL A   1      42.677  24.295  26.151  1.00  0.00    -0.744 OA
ENDBRANCH  74  75
ENDBRANCH  53  67
BRANCH  54  79
ATOM     79  C   UNL A   1      39.809  34.522  36.860  1.00  0.00     0.058 A 
ATOM     80  C   UNL A   1      40.396  35.792  36.966  1.00  0.00     0.135 A 
ATOM     81  C   UNL A   1      38.985  34.097  37.913  1.00  0.00     0.135 A 
ATOM     82  F   UNL A   1      41.205  36.240  35.993  1.00  0.00    -0.206 F 
ATOM     83  C   UNL A   1      40.197  36.598  38.083  1.00  0.00     0.059 A 
ATOM     84  C   UNL A   1      38.749  34.895  39.028  1.00  0.00     0.059 A 
ATOM     85  F   UNL A   1      38.391  32.894  37.860  1.00  0.00    -0.206 F 
ATOM     86  C   UNL A   1      39.372  36.138  39.112  1.00  0.00     0.060 A 
BRANCH  86  87
ATOM     87  S   UNL A   1      39.093  37.201  40.545  1.00  0.00     0.124 S 
ATOM     88  O   UNL A   1      38.482  36.270  41.486  1.00  0.00    -0.237 OA
ATOM     89  O   UNL A   1      40.446  37.643  40.868  1.00  0.00    -0.237 OA
ATOM     90  O   UNL A   1      38.212  38.242  40.022  1.00  0.00    -0.744 OA
ENDBRANCH  86  87
ENDBRANCH  54  79
BRANCH  66  91
ATOM     91  C   UNL A   1      44.535  29.518  35.721  1.00  0.00     0.058 A 
ATOM     92  C   UNL A   1      44.375  28.396  36.549  1.00  0.00     0.135 A 
ATOM     93  C   UNL A   1      45.814  30.095  35.639  1.00  0.00     0.135 A 
ATOM     94  F   UNL A   1      43.173  27.810  36.668  1.00  0.00    -0.206 F 
ATOM     95  C   UNL A   1      45.438  27.878  37.284  1.00  0.00     0.059 A 
ATOM     96  C   UNL A   1      46.897  29.576  36.343  1.00  0.00     0.059 A 
ATOM     97  F   UNL A   1      46.025  31.162  34.852  1.00  0.00    -0.206 F 
ATOM     98  C   UNL A   1      46.695  28.474  37.172  1.00  0.00     0.060 A 
BRANCH  98  99
ATOM     99  S   UNL A   1      48.071  27.770  38.105  1.00  0.00     0.124 S 
ATOM    100  O   UNL A   1      47.782  28.241  39.456  1.00  0.00    -0.237 OA
ATOM    101  O   UNL A   1      47.902  26.338  37.883  1.00  0.00    -0.237 OA
ATOM    102  O   UNL A   1      49.248  28.360  37.473  1.00  0.00    -0.744 OA
ENDBRANCH  98  99
ENDBRANCH  66  91
ENDBRANCH  40  41
ENDBRANCH  33  35
ENDBRANCH  32  33
ENDBRANCH  31  32
ENDBRANCH  30  31
ENDBRANCH  29  30
ENDBRANCH  28  29
ENDBRANCH   1  28
TORSDOF 24
ENDMDL
MODEL 2
REMARK VINA RESULT:      -9.0      7.736     12.419
REMARK SMILES O=C(CCN1C(=O)/C(=C/c2cc(Br)cc(Br)c2O)SC1=S)OCCOCCOCCOC(=O)c1ccc(-c2c3nc(c(-c4c(F)cc(S(=O)(=O)[O-])cc4F)c4ccc([nH]4)c(-c4c(F)cc(S(=O)(=O)[O-])cc4F)c4nc(c(-c5c(F)cc(S(=O)(=O)[O-])cc5F)c5ccc2[nH]5)C=C4)C=C3)cc1
REMARK SMILES IDX 26 1 25 2 24 3 23 4 22 5 2 6 1 7 3 8 4 9 5 10 6 11 20 12
REMARK SMILES IDX 7 13 8 14 19 15 21 16 9 17 10 18 11 19 17 20 12 21 15 22
REMARK SMILES IDX 13 23 14 24 16 25 18 26 27 28 28 29 29 30 30 31 31 32 32 33
REMARK SMILES IDX 33 34 34 35 35 36 99 37 36 38 98 39 37 40 38 41 39 42 92 43
REMARK SMILES IDX 40 44 97 45 91 46 93 47 41 48 96 49 90 50 89 51 42 53 76 54
REMARK SMILES IDX 55 55 75 56 56 57 59 58 74 59 94 60 57 61 58 62 73 64 95 65
REMARK SMILES IDX 60 66 43 67 44 68 53 69 45 70 46 71 52 72 54 73 47 74 48 75
REMARK SMILES IDX 49 76 50 77 51 78 77 79 78 80 87 81 79 82 80 83 86 84 88 85
REMARK SMILES IDX 81 86 82 87 83 88 84 89 85 90 61 91 62 92 71 93 63 94 64 95
REMARK SMILES IDX 70 96 72 97 65 98 66 99 67 100 68 101 69 102
REMARK H PARENT 18 27 93 52 59 63
REMARK Flexibility Score: inf
ROOT
ATOM      1  C   UNL A   1      35.024  32.440  29.970  1.00  0.00     0.188 C 
ENDROOT
BRANCH   1   2
ATOM      2  O   UNL A   1      35.470  33.479  29.123  1.00  0.00    -0.376 OA
BRANCH   2   3
ATOM      3  C   UNL A   1      36.647  34.173  29.483  1.00  0.00     0.202 C 
BRANCH   3   4
ATOM      4  C   UNL A   1      37.973  33.458  29.252  1.00  0.00     0.261 C 
BRANCH   4   5
ATOM      5  O   UNL A   1      39.186  34.241  29.109  1.00  0.00    -0.463 OA
BRANCH   5   6
ATOM      6  C   UNL A   1      40.197  34.563  29.935  1.00  0.00     0.307 C 
ATOM      7  O   UNL A   1      40.051  34.421  31.147  1.00  0.00    -0.252 OA
BRANCH   6   8
ATOM      8  C   UNL A   1      41.479  35.118  29.395  1.00  0.00     0.144 C 
BRANCH   8   9
ATOM      9  C   UNL A   1      41.298  35.949  28.134  1.00  0.00     0.139 C 
BRANCH   9  10
ATOM     10  N   UNL A   1      42.473  36.750  27.780  1.00  0.00    -0.292 N 
ATOM     11  C   UNL A   1      42.502  38.088  28.138  1.00  0.00     0.266 C 
ATOM     12  C   UNL A   1      43.569  36.271  27.088  1.00  0.00     0.148 C 
ATOM     13  O   UNL A   1      41.618  38.701  28.719  1.00  0.00    -0.268 OA
ATOM     14  C   UNL A   1      43.727  38.740  27.603  1.00  0.00     0.081 C 
ATOM     15  S   UNL A   1      44.713  37.579  26.813  1.00  0.00    -0.054 SA
ATOM     16  S   UNL A   1      43.857  34.731  26.526  1.00  0.00    -0.052 S 
ATOM     17  C   UNL A   1      43.914  40.067  27.665  1.00  0.00     0.033 C 
BRANCH  17  18
ATOM     18  C   UNL A   1      44.986  40.793  26.962  1.00  0.00     0.020 A 
ATOM     19  C   UNL A   1      46.200  40.944  27.651  1.00  0.00     0.027 A 
ATOM     20  C   UNL A   1      44.847  41.376  25.691  1.00  0.00     0.137 A 
ATOM     21  C   UNL A   1      47.236  41.696  27.096  1.00  0.00     0.019 A 
ATOM     22  C   UNL A   1      45.891  42.141  25.152  1.00  0.00     0.061 A 
ATOM     23  Br  UNL A   1      48.854  41.908  28.054  1.00  0.00    -0.051 Br
ATOM     24  C   UNL A   1      47.085  42.307  25.856  1.00  0.00     0.035 A 
ATOM     25  Br  UNL A   1      45.725  42.996  23.465  1.00  0.00    -0.047 Br
BRANCH  20  26
ATOM     26  O   UNL A   1      43.705  41.222  24.950  1.00  0.00    -0.506 OA
ATOM     27  H   UNL A   1      43.144  40.486  25.100  1.00  0.00     0.293 HD
ENDBRANCH  20  26
ENDBRANCH  17  18
ENDBRANCH   9  10
ENDBRANCH   8   9
ENDBRANCH   6   8
ENDBRANCH   5   6
ENDBRANCH   4   5
ENDBRANCH   3   4
ENDBRANCH   2   3
ENDBRANCH   1   2
BRANCH   1  28
ATOM     28  C   UNL A   1      34.432  32.899  31.319  1.00  0.00     0.188 C 
BRANCH  28  29
ATOM     29  O   UNL A   1      35.285  33.321  32.380  1.00  0.00    -0.376 OA
BRANCH  29  30
ATOM     30  C   UNL A   1      35.849  32.376  33.275  1.00  0.00     0.202 C 
BRANCH  30  31
ATOM     31  C   UNL A   1      37.189  31.722  32.920  1.00  0.00     0.261 C 
BRANCH  31  32
ATOM     32  O   UNL A   1      37.163  30.287  32.908  1.00  0.00    -0.460 OA
BRANCH  32  33
ATOM     33  C   UNL A   1      37.114  29.713  31.677  1.00  0.00     0.338 C 
ATOM     34  O   UNL A   1      36.121  29.407  31.050  1.00  0.00    -0.246 OA
BRANCH  33  35
ATOM     35  C   UNL A   1      38.477  29.683  31.097  1.00  0.00     0.060 A 
ATOM     36  C   UNL A   1      38.615  29.966  29.730  1.00  0.00     0.016 A 
ATOM     37  C   UNL A   1      39.602  29.393  31.872  1.00  0.00     0.016 A 
ATOM     38  C   UNL A   1      39.874  29.938  29.130  1.00  0.00     0.010 A 
ATOM     39  C   UNL A   1      40.861  29.337  31.263  1.00  0.00     0.010 A 
ATOM     40  C   UNL A   1      40.999  29.585  29.885  1.00  0.00    -0.014 A 
BRANCH  40  41
ATOM     41  C   UNL A   1      42.285  29.293  29.203  1.00  0.00     0.031 A 
ATOM     42  C   UNL A   1      42.502  27.907  28.659  1.00  0.00     0.074 A 
ATOM     43  C   UNL A   1      43.237  30.233  29.065  1.00  0.00     0.049 A 
ATOM     44  N   UNL A   1      43.563  27.396  28.092  1.00  0.00    -0.248 NA
ATOM     45  C   UNL A   1      41.370  26.971  28.773  1.00  0.00     0.031 C 
ATOM     46  C   UNL A   1      43.130  31.621  29.511  1.00  0.00     0.029 A 
ATOM     47  N   UNL A   1      44.496  30.152  28.520  1.00  0.00    -0.354 N 
ATOM     48  C   UNL A   1      43.232  26.081  27.787  1.00  0.00     0.074 A 
ATOM     49  C   UNL A   1      41.878  25.865  28.248  1.00  0.00     0.031 C 
ATOM     50  C   UNL A   1      44.288  32.255  29.246  1.00  0.00     0.029 A 
ATOM     51  C   UNL A   1      45.226  31.312  28.640  1.00  0.00     0.049 A 
ATOM     52  H   UNL A   1      44.843  29.340  28.083  1.00  0.00     0.167 HD
ATOM     53  C   UNL A   1      43.988  25.139  27.176  1.00  0.00     0.037 A 
ATOM     54  C   UNL A   1      46.514  31.568  28.327  1.00  0.00     0.037 A 
ATOM     55  C   UNL A   1      45.334  25.356  26.719  1.00  0.00     0.049 A 
ATOM     56  C   UNL A   1      47.358  30.477  27.713  1.00  0.00     0.074 A 
ATOM     57  C   UNL A   1      46.170  24.470  26.061  1.00  0.00     0.029 A 
ATOM     58  N   UNL A   1      46.047  26.534  26.880  1.00  0.00    -0.354 N 
ATOM     59  N   UNL A   1      47.021  29.250  27.397  1.00  0.00    -0.248 NA
ATOM     60  C   UNL A   1      48.761  30.806  27.417  1.00  0.00     0.031 C 
ATOM     61  C   UNL A   1      47.406  25.095  25.873  1.00  0.00     0.029 A 
ATOM     62  C   UNL A   1      47.323  26.387  26.365  1.00  0.00     0.049 A 
ATOM     63  H   UNL A   1      45.697  27.352  27.299  1.00  0.00     0.167 HD
ATOM     64  C   UNL A   1      48.160  28.669  26.845  1.00  0.00     0.074 A 
ATOM     65  C   UNL A   1      49.191  29.685  26.855  1.00  0.00     0.031 C 
ATOM     66  C   UNL A   1      48.338  27.411  26.375  1.00  0.00     0.037 A 
BRANCH  53  67
ATOM     67  C   UNL A   1      43.389  23.775  26.986  1.00  0.00     0.058 A 
ATOM     68  C   UNL A   1      42.975  23.320  25.724  1.00  0.00     0.135 A 
ATOM     69  C   UNL A   1      43.291  22.887  28.069  1.00  0.00     0.135 A 
ATOM     70  F   UNL A   1      43.026  24.136  24.660  1.00  0.00    -0.206 F 
ATOM     71  C   UNL A   1      42.479  22.033  25.545  1.00  0.00     0.059 A 
ATOM     72  C   UNL A   1      42.822  21.588  27.908  1.00  0.00     0.059 A 
ATOM     73  F   UNL A   1      43.665  23.277  29.298  1.00  0.00    -0.206 F 
ATOM     74  C   UNL A   1      42.413  21.172  26.642  1.00  0.00     0.060 A 
BRANCH  74  75
ATOM     75  S   UNL A   1      41.808  19.491  26.383  1.00  0.00     0.124 S 
ATOM     76  O   UNL A   1      42.311  18.813  27.574  1.00  0.00    -0.237 OA
ATOM     77  O   UNL A   1      40.363  19.686  26.328  1.00  0.00    -0.237 OA
ATOM     78  O   UNL A   1      42.433  19.093  25.125  1.00  0.00    -0.744 OA
ENDBRANCH  74  75
ENDBRANCH  53  67
BRANCH  54  79
ATOM     79  C   UNL A   1      47.110  32.901  28.621  1.00  0.00     0.058 A 
ATOM     80  C   UNL A   1      47.314  33.850  27.608  1.00  0.00     0.135 A 
ATOM     81  C   UNL A   1      47.531  33.234  29.919  1.00  0.00     0.135 A 
ATOM     82  F   UNL A   1      46.945  33.575  26.348  1.00  0.00    -0.206 F 
ATOM     83  C   UNL A   1      47.935  35.069  27.864  1.00  0.00     0.059 A 
ATOM     84  C   UNL A   1      48.128  34.457  30.205  1.00  0.00     0.059 A 
ATOM     85  F   UNL A   1      47.353  32.366  30.928  1.00  0.00    -0.206 F 
ATOM     86  C   UNL A   1      48.341  35.363  29.168  1.00  0.00     0.060 A 
BRANCH  86  87
ATOM     87  S   UNL A   1      49.118  36.960  29.499  1.00  0.00     0.124 S 
ATOM     88  O   UNL A   1      50.289  36.900  28.632  1.00  0.00    -0.237 OA
ATOM     89  O   UNL A   1      48.073  37.898  29.100  1.00  0.00    -0.237 OA
ATOM     90  O   UNL A   1      49.387  36.908  30.933  1.00  0.00    -0.744 OA
ENDBRANCH  86  87
ENDBRANCH  54  79
BRANCH  66  91
ATOM     91  C   UNL A   1      49.687  27.060  25.806  1.00  0.00     0.058 A 
ATOM     92  C   UNL A   1      49.970  27.208  24.439  1.00  0.00     0.135 A 
ATOM     93  C   UNL A   1      50.726  26.628  26.647  1.00  0.00     0.135 A 
ATOM     94  F   UNL A   1      49.012  27.613  23.591  1.00  0.00    -0.206 F 
ATOM     95  C   UNL A   1      51.230  26.919  23.923  1.00  0.00     0.059 A 
ATOM     96  C   UNL A   1      52.000  26.361  26.157  1.00  0.00     0.059 A 
ATOM     97  F   UNL A   1      50.512  26.482  27.965  1.00  0.00    -0.206 F 
ATOM     98  C   UNL A   1      52.239  26.498  24.791  1.00  0.00     0.060 A 
BRANCH  98  99
ATOM     99  S   UNL A   1      53.877  26.159  24.113  1.00  0.00     0.124 S 
ATOM    100  O   UNL A   1      54.653  27.277  24.642  1.00  0.00    -0.237 OA
ATOM    101  O   UNL A   1      54.186  24.850  24.678  1.00  0.00    -0.237 OA
ATOM    102  O   UNL A   1      53.658  26.175  22.669  1.00  0.00    -0.744 OA
ENDBRANCH  98  99
ENDBRANCH  66  91
ENDBRANCH  40  41
ENDBRANCH  33  35
ENDBRANCH  32  33
ENDBRANCH  31  32
ENDBRANCH  30  31
ENDBRANCH  29  30
ENDBRANCH  28  29
ENDBRANCH   1  28
TORSDOF 24
ENDMDL
MODEL 3
REMARK VINA RESULT:      -8.9      6.254     10.238
REMARK SMILES O=C(CCN1C(=O)/C(=C/c2cc(Br)cc(Br)c2O)SC1=S)OCCOCCOCCOC(=O)c1ccc(-c2c3nc(c(-c4c(F)cc(S(=O)(=O)[O-])cc4F)c4ccc([nH]4)c(-c4c(F)cc(S(=O)(=O)[O-])cc4F)c4nc(c(-c5c(F)cc(S(=O)(=O)[O-])cc5F)c5ccc2[nH]5)C=C4)C=C3)cc1
REMARK SMILES IDX 26 1 25 2 24 3 23 4 22 5 2 6 1 7 3 8 4 9 5 10 6 11 20 12
REMARK SMILES IDX 7 13 8 14 19 15 21 16 9 17 10 18 11 19 17 20 12 21 15 22
REMARK SMILES IDX 13 23 14 24 16 25 18 26 27 28 28 29 29 30 30 31 31 32 32 33
REMARK SMILES IDX 33 34 34 35 35 36 99 37 36 38 98 39 37 40 38 41 39 42 92 43
REMARK SMILES IDX 40 44 97 45 91 46 93 47 41 48 96 49 90 50 89 51 42 53 76 54
REMARK SMILES IDX 55 55 75 56 56 57 59 58 74 59 94 60 57 61 58 62 73 64 95 65
REMARK SMILES IDX 60 66 43 67 44 68 53 69 45 70 46 71 52 72 54 73 47 74 48 75
REMARK SMILES IDX 49 76 50 77 51 78 77 79 78 80 87 81 79 82 80 83 86 84 88 85
REMARK SMILES IDX 81 86 82 87 83 88 84 89 85 90 61 91 62 92 71 93 63 94 64 95
REMARK SMILES IDX 70 96 72 97 65 98 66 99 67 100 68 101 69 102
REMARK H PARENT 18 27 93 52 59 63
REMARK Flexibility Score: inf
ROOT
ATOM      1  C   UNL A   1      33.792  35.977  29.539  1.00  0.00     0.188 C 
ENDROOT
BRANCH   1   2
ATOM      2  O   UNL A   1      33.023  36.020  30.725  1.00  0.00    -0.376 OA
BRANCH   2   3
ATOM      3  C   UNL A   1      33.697  35.901  31.961  1.00  0.00     0.202 C 
BRANCH   3   4
ATOM      4  C   UNL A   1      34.101  34.498  32.399  1.00  0.00     0.261 C 
BRANCH   4   5
ATOM      5  O   UNL A   1      35.506  34.195  32.603  1.00  0.00    -0.463 OA
BRANCH   5   6
ATOM      6  C   UNL A   1      36.311  34.162  33.679  1.00  0.00     0.307 C 
ATOM      7  O   UNL A   1      35.812  34.162  34.802  1.00  0.00    -0.252 OA
BRANCH   6   8
ATOM      8  C   UNL A   1      37.800  34.155  33.521  1.00  0.00     0.144 C 
BRANCH   8   9
ATOM      9  C   UNL A   1      38.278  33.366  32.312  1.00  0.00     0.139 C 
BRANCH   9  10
ATOM     10  N   UNL A   1      39.528  33.871  31.734  1.00  0.00    -0.292 N 
ATOM     11  C   UNL A   1      39.483  34.526  30.514  1.00  0.00     0.266 C 
ATOM     12  C   UNL A   1      40.774  33.725  32.313  1.00  0.00     0.148 C 
ATOM     13  O   UNL A   1      38.487  34.721  29.833  1.00  0.00    -0.268 OA
ATOM     14  C   UNL A   1      40.857  34.867  30.060  1.00  0.00     0.081 C 
ATOM     15  S   UNL A   1      42.001  34.411  31.255  1.00  0.00    -0.054 SA
ATOM     16  S   UNL A   1      41.176  33.008  33.761  1.00  0.00    -0.052 S 
ATOM     17  C   UNL A   1      41.103  35.355  28.835  1.00  0.00     0.033 C 
BRANCH  17  18
ATOM     18  C   UNL A   1      42.446  35.500  28.248  1.00  0.00     0.020 A 
ATOM     19  C   UNL A   1      42.939  34.402  27.525  1.00  0.00     0.027 A 
ATOM     20  C   UNL A   1      43.266  36.630  28.412  1.00  0.00     0.137 A 
ATOM     21  C   UNL A   1      44.238  34.420  27.014  1.00  0.00     0.019 A 
ATOM     22  C   UNL A   1      44.573  36.628  27.906  1.00  0.00     0.061 A 
ATOM     23  Br  UNL A   1      44.890  32.919  26.066  1.00  0.00    -0.051 Br
ATOM     24  C   UNL A   1      45.063  35.522  27.211  1.00  0.00     0.035 A 
ATOM     25  Br  UNL A   1      45.734  38.109  28.158  1.00  0.00    -0.047 Br
BRANCH  20  26
ATOM     26  O   UNL A   1      42.823  37.750  29.065  1.00  0.00    -0.506 OA
ATOM     27  H   UNL A   1      41.971  37.759  29.456  1.00  0.00     0.293 HD
ENDBRANCH  20  26
ENDBRANCH  17  18
ENDBRANCH   9  10
ENDBRANCH   8   9
ENDBRANCH   6   8
ENDBRANCH   5   6
ENDBRANCH   4   5
ENDBRANCH   3   4
ENDBRANCH   2   3
ENDBRANCH   1   2
BRANCH   1  28
ATOM     28  C   UNL A   1      33.476  34.802  28.591  1.00  0.00     0.188 C 
BRANCH  28  29
ATOM     29  O   UNL A   1      34.520  34.140  27.882  1.00  0.00    -0.376 OA
BRANCH  29  30
ATOM     30  C   UNL A   1      35.416  33.271  28.557  1.00  0.00     0.202 C 
BRANCH  30  31
ATOM     31  C   UNL A   1      35.800  31.941  27.901  1.00  0.00     0.261 C 
BRANCH  31  32
ATOM     32  O   UNL A   1      36.503  31.034  28.764  1.00  0.00    -0.460 OA
BRANCH  32  33
ATOM     33  C   UNL A   1      36.593  29.754  28.318  1.00  0.00     0.338 C 
ATOM     34  O   UNL A   1      35.691  29.058  27.899  1.00  0.00    -0.246 OA
BRANCH  33  35
ATOM     35  C   UNL A   1      38.020  29.366  28.230  1.00  0.00     0.060 A 
ATOM     36  C   UNL A   1      38.653  28.926  29.402  1.00  0.00     0.016 A 
ATOM     37  C   UNL A   1      38.726  29.419  27.027  1.00  0.00     0.016 A 
ATOM     38  C   UNL A   1      40.000  28.562  29.379  1.00  0.00     0.010 A 
ATOM     39  C   UNL A   1      40.084  29.081  27.011  1.00  0.00     0.010 A 
ATOM     40  C   UNL A   1      40.733  28.674  28.191  1.00  0.00    -0.014 A 
BRANCH  40  41
ATOM     41  C   UNL A   1      42.211  28.548  28.221  1.00  0.00     0.031 A 
ATOM     42  C   UNL A   1      42.828  27.281  27.692  1.00  0.00     0.074 A 
ATOM     43  C   UNL A   1      42.993  29.533  28.701  1.00  0.00     0.049 A 
ATOM     44  N   UNL A   1      44.081  26.911  27.679  1.00  0.00    -0.248 NA
ATOM     45  C   UNL A   1      41.904  26.298  27.101  1.00  0.00     0.031 C 
ATOM     46  C   UNL A   1      42.520  30.822  29.202  1.00  0.00     0.029 A 
ATOM     47  N   UNL A   1      44.356  29.590  28.860  1.00  0.00    -0.354 N 
ATOM     48  C   UNL A   1      44.097  25.654  27.086  1.00  0.00     0.074 A 
ATOM     49  C   UNL A   1      42.728  25.314  26.770  1.00  0.00     0.031 C 
ATOM     50  C   UNL A   1      43.575  31.534  29.639  1.00  0.00     0.029 A 
ATOM     51  C   UNL A   1      44.793  30.740  29.477  1.00  0.00     0.049 A 
ATOM     52  H   UNL A   1      44.964  28.876  28.561  1.00  0.00     0.167 HD
ATOM     53  C   UNL A   1      45.160  24.855  26.828  1.00  0.00     0.037 A 
ATOM     54  C   UNL A   1      46.028  31.093  29.891  1.00  0.00     0.037 A 
ATOM     55  C   UNL A   1      46.521  25.195  27.143  1.00  0.00     0.049 A 
ATOM     56  C   UNL A   1      47.184  30.151  29.656  1.00  0.00     0.074 A 
ATOM     57  C   UNL A   1      47.669  24.463  26.892  1.00  0.00     0.029 A 
ATOM     58  N   UNL A   1      46.920  26.356  27.788  1.00  0.00    -0.354 N 
ATOM     59  N   UNL A   1      47.191  28.982  29.061  1.00  0.00    -0.248 NA
ATOM     60  C   UNL A   1      48.503  30.577  30.152  1.00  0.00     0.031 C 
ATOM     61  C   UNL A   1      48.755  25.156  27.433  1.00  0.00     0.029 A 
ATOM     62  C   UNL A   1      48.291  26.344  27.974  1.00  0.00     0.049 A 
ATOM     63  H   UNL A   1      46.317  27.080  28.072  1.00  0.00     0.167 HD
ATOM     64  C   UNL A   1      48.513  28.545  29.092  1.00  0.00     0.074 A 
ATOM     65  C   UNL A   1      49.280  29.582  29.748  1.00  0.00     0.031 C 
ATOM     66  C   UNL A   1      49.044  27.389  28.623  1.00  0.00     0.037 A 
BRANCH  53  67
ATOM     67  C   UNL A   1      44.895  23.521  26.192  1.00  0.00     0.058 A 
ATOM     68  C   UNL A   1      45.263  23.250  24.865  1.00  0.00     0.135 A 
ATOM     69  C   UNL A   1      44.326  22.479  26.943  1.00  0.00     0.135 A 
ATOM     70  F   UNL A   1      45.789  24.216  24.097  1.00  0.00    -0.206 F 
ATOM     71  C   UNL A   1      45.071  21.991  24.303  1.00  0.00     0.059 A 
ATOM     72  C   UNL A   1      44.148  21.208  26.409  1.00  0.00     0.059 A 
ATOM     73  F   UNL A   1      43.949  22.691  28.213  1.00  0.00    -0.206 F 
ATOM     74  C   UNL A   1      44.519  20.975  25.086  1.00  0.00     0.060 A 
BRANCH  74  75
ATOM     75  S   UNL A   1      44.318  19.337  24.354  1.00  0.00     0.124 S 
ATOM     76  O   UNL A   1      45.466  18.627  24.908  1.00  0.00    -0.237 OA
ATOM     77  O   UNL A   1      43.013  18.928  24.863  1.00  0.00    -0.237 OA
ATOM     78  O   UNL A   1      44.374  19.596  22.918  1.00  0.00    -0.744 OA
ENDBRANCH  74  75
ENDBRANCH  53  67
BRANCH  54  79
ATOM     79  C   UNL A   1      46.243  32.379  30.610  1.00  0.00     0.058 A 
ATOM     80  C   UNL A   1      46.747  33.510  29.950  1.00  0.00     0.135 A 
ATOM     81  C   UNL A   1      45.990  32.489  31.987  1.00  0.00     0.135 A 
ATOM     82  F   UNL A   1      47.021  33.453  28.638  1.00  0.00    -0.206 F 
ATOM     83  C   UNL A   1      47.017  34.694  30.631  1.00  0.00     0.059 A 
ATOM     84  C   UNL A   1      46.225  33.669  32.684  1.00  0.00     0.059 A 
ATOM     85  F   UNL A   1      45.500  31.440  32.667  1.00  0.00    -0.206 F 
ATOM     86  C   UNL A   1      46.753  34.762  32.001  1.00  0.00     0.060 A 
BRANCH  86  87
ATOM     87  S   UNL A   1      47.076  36.311  32.873  1.00  0.00     0.124 S 
ATOM     88  O   UNL A   1      46.622  37.296  31.898  1.00  0.00    -0.237 OA
ATOM     89  O   UNL A   1      46.253  36.167  34.069  1.00  0.00    -0.237 OA
ATOM     90  O   UNL A   1      48.517  36.268  33.105  1.00  0.00    -0.744 OA
ENDBRANCH  86  87
ENDBRANCH  54  79
BRANCH  66  91
ATOM     91  C   UNL A   1      50.528  27.189  28.773  1.00  0.00     0.058 A 
ATOM     92  C   UNL A   1      51.436  27.662  27.813  1.00  0.00     0.135 A 
ATOM     93  C   UNL A   1      51.052  26.569  29.920  1.00  0.00     0.135 A 
ATOM     94  F   UNL A   1      50.988  28.257  26.695  1.00  0.00    -0.206 F 
ATOM     95  C   UNL A   1      52.809  27.508  27.974  1.00  0.00     0.059 A 
ATOM     96  C   UNL A   1      52.423  26.430  30.115  1.00  0.00     0.059 A 
ATOM     97  F   UNL A   1      50.228  26.110  30.876  1.00  0.00    -0.206 F 
ATOM     98  C   UNL A   1      53.293  26.893  29.130  1.00  0.00     0.060 A 
BRANCH  98  99
ATOM     99  S   UNL A   1      55.078  26.730  29.341  1.00  0.00     0.124 S 
ATOM    100  O   UNL A   1      55.175  25.474  30.077  1.00  0.00    -0.237 OA
ATOM    101  O   UNL A   1      55.555  26.695  27.962  1.00  0.00    -0.237 OA
ATOM    102  O   UNL A   1      55.443  27.927  30.093  1.00  0.00    -0.744 OA
ENDBRANCH  98  99
ENDBRANCH  66  91
ENDBRANCH  40  41
ENDBRANCH  33  35
ENDBRANCH  32  33
ENDBRANCH  31  32
ENDBRANCH  30  31
ENDBRANCH  29  30
ENDBRANCH  28  29
ENDBRANCH   1  28
TORSDOF 24
ENDMDL
