MODEL 1
REMARK VINA RESULT:      -9.2      0.000      0.000
REMARK SMILES CC[N@H+](C)CCn1c(SCC(=O)OCCOCCOCCOC(=O)c2ccc(-c3c4nc(c(-c5c(F)cc(S(=O)(=O)[O-])cc5F)c5ccc([nH]5)c(-c5c(F)cc(S(=O)(=O)[O-])cc5F)c5nc(c(-c6c(F)cc(S(=O)(=O)[O-])cc6F)c6ccc3[nH]6)C=C5)C=C4)cc2)nc2cnccc21
REMARK SMILES IDX 16 1 15 2 14 3 13 4 11 5 12 6 10 7 9 8 8 9 7 10 97 11 91 12
REMARK SMILES IDX 92 13 96 14 93 15 95 16 94 17 6 18 5 19 3 20 4 21 2 23 1 24
REMARK SMILES IDX 17 25 18 26 19 27 20 28 21 29 22 30 23 31 24 32 25 33 26 34
REMARK SMILES IDX 90 35 27 36 89 37 28 38 29 39 30 40 83 41 31 42 88 43 82 44
REMARK SMILES IDX 84 45 32 46 87 47 81 48 80 49 33 51 67 52 46 53 66 54 47 55
REMARK SMILES IDX 50 56 65 57 85 58 48 59 49 60 64 62 86 63 51 64 34 65 35 66
REMARK SMILES IDX 44 67 36 68 37 69 43 70 45 71 38 72 39 73 40 74 41 75 42 76
REMARK SMILES IDX 68 77 69 78 78 79 70 80 71 81 77 82 79 83 72 84 73 85 74 86
REMARK SMILES IDX 75 87 76 88 52 89 53 90 62 91 54 92 55 93 61 94 63 95 56 96
REMARK SMILES IDX 57 97 58 98 59 99 60 100
REMARK H PARENT 3 22 84 50 50 61
REMARK Flexibility Score: inf
ROOT
ATOM      1  O   UNL A   1      41.094  20.626  26.054  1.00  0.00    -0.376 OA
ENDROOT
BRANCH   1   2
ATOM      2  C   UNL A   1      40.326  21.372  27.000  1.00  0.00     0.202 C 
BRANCH   2   3
ATOM      3  C   UNL A   1      39.465  22.505  26.418  1.00  0.00     0.261 C 
BRANCH   3   4
ATOM      4  O   UNL A   1      38.205  22.025  25.867  1.00  0.00    -0.463 OA
BRANCH   4   5
ATOM      5  C   UNL A   1      37.337  22.968  25.403  1.00  0.00     0.316 C 
ATOM      6  O   UNL A   1      37.040  23.982  26.026  1.00  0.00    -0.251 OA
BRANCH   5   7
ATOM      7  C   UNL A   1      36.734  22.665  24.033  1.00  0.00     0.200 C 
BRANCH   7   8
ATOM      8  S   UNL A   1      34.931  22.406  24.016  1.00  0.00    -0.076 SA
BRANCH   8   9
ATOM      9  C   UNL A   1      34.134  23.965  23.891  1.00  0.00     0.169 A 
ATOM     10  N   UNL A   1      33.766  24.759  24.970  1.00  0.00    -0.313 N 
ATOM     11  C   UNL A   1      33.685  26.052  24.504  1.00  0.00     0.072 A 
ATOM     12  N   UNL A   1      34.042  24.627  22.761  1.00  0.00    -0.221 NA
ATOM     13  C   UNL A   1      33.761  25.925  23.115  1.00  0.00     0.108 A 
ATOM     14  C   UNL A   1      33.554  27.320  25.064  1.00  0.00     0.049 A 
ATOM     15  C   UNL A   1      33.606  27.062  22.307  1.00  0.00     0.141 A 
ATOM     16  C   UNL A   1      33.443  28.400  24.195  1.00  0.00     0.113 A 
ATOM     17  N   UNL A   1      33.448  28.298  22.855  1.00  0.00    -0.262 NA
BRANCH  10  18
ATOM     18  C   UNL A   1      33.454  24.133  26.221  1.00  0.00     0.186 C 
BRANCH  18  19
ATOM     19  C   UNL A   1      32.113  23.851  26.921  1.00  0.00     0.284 C 
BRANCH  19  20
ATOM     20  N   UNL A   1      30.716  24.318  26.387  1.00  0.00    -0.336 N 
ATOM     21  C   UNL A   1      29.844  23.038  26.964  1.00  0.00     0.332 C 
ATOM     22  H   UNL A   1      30.566  25.036  25.677  1.00  0.00     0.347 HD
BRANCH  20  23
ATOM     23  C   UNL A   1      30.056  26.067  25.436  1.00  0.00     0.258 C 
ATOM     24  C   UNL A   1      29.051  26.404  24.040  1.00  0.00     0.071 C 
ENDBRANCH  20  23
ENDBRANCH  19  20
ENDBRANCH  18  19
ENDBRANCH  10  18
ENDBRANCH   8   9
ENDBRANCH   7   8
ENDBRANCH   5   7
ENDBRANCH   4   5
ENDBRANCH   3   4
ENDBRANCH   2   3
ENDBRANCH   1   2
BRANCH   1  25
ATOM     25  C   UNL A   1      42.460  20.413  26.381  1.00  0.00     0.188 C 
BRANCH  25  26
ATOM     26  C   UNL A   1      43.181  19.416  25.469  1.00  0.00     0.188 C 
BRANCH  26  27
ATOM     27  O   UNL A   1      43.993  20.104  24.522  1.00  0.00    -0.376 OA
BRANCH  27  28
ATOM     28  C   UNL A   1      44.463  21.361  25.017  1.00  0.00     0.202 C 
BRANCH  28  29
ATOM     29  C   UNL A   1      44.808  22.375  23.900  1.00  0.00     0.261 C 
BRANCH  29  30
ATOM     30  O   UNL A   1      44.652  23.758  24.288  1.00  0.00    -0.460 OA
BRANCH  30  31
ATOM     31  C   UNL A   1      45.673  24.390  24.941  1.00  0.00     0.338 C 
ATOM     32  O   UNL A   1      46.864  24.190  24.792  1.00  0.00    -0.246 OA
BRANCH  31  33
ATOM     33  C   UNL A   1      45.097  25.460  25.810  1.00  0.00     0.060 A 
ATOM     34  C   UNL A   1      46.222  26.816  26.230  1.00  0.00     0.016 A 
ATOM     35  C   UNL A   1      43.405  25.408  26.517  1.00  0.00     0.016 A 
ATOM     36  C   UNL A   1      45.745  28.038  27.475  1.00  0.00     0.010 A 
ATOM     37  C   UNL A   1      42.851  26.746  27.641  1.00  0.00     0.010 A 
ATOM     38  C   UNL A   1      44.102  28.000  28.206  1.00  0.00    -0.014 A 
BRANCH  38  39
ATOM     39  C   UNL A   1      43.913  28.931  29.332  1.00  0.00     0.031 A 
ATOM     40  C   UNL A   1      43.933  28.217  30.600  1.00  0.00     0.074 A 
ATOM     41  C   UNL A   1      43.645  30.268  29.290  1.00  0.00     0.049 A 
ATOM     42  N   UNL A   1      42.873  27.806  31.213  1.00  0.00    -0.248 NA
ATOM     43  C   UNL A   1      45.202  27.751  31.165  1.00  0.00     0.031 C 
ATOM     44  C   UNL A   1      43.579  31.127  28.107  1.00  0.00     0.029 A 
ATOM     45  N   UNL A   1      43.440  31.192  30.300  1.00  0.00    -0.354 N 
ATOM     46  C   UNL A   1      43.353  27.372  32.425  1.00  0.00     0.074 A 
ATOM     47  C   UNL A   1      44.761  27.095  32.242  1.00  0.00     0.031 C 
ATOM     48  C   UNL A   1      43.658  32.434  28.452  1.00  0.00     0.029 A 
ATOM     49  C   UNL A   1      43.548  32.533  29.895  1.00  0.00     0.049 A 
ATOM     50  H   UNL A   1      43.234  30.931  31.227  1.00  0.00     0.167 HD
ATOM     51  C   UNL A   1      42.701  27.732  33.559  1.00  0.00     0.037 A 
ATOM     52  C   UNL A   1      43.426  33.678  30.624  1.00  0.00     0.037 A 
ATOM     53  C   UNL A   1      41.379  28.246  33.330  1.00  0.00     0.049 A 
ATOM     54  C   UNL A   1      42.453  33.390  31.693  1.00  0.00     0.074 A 
ATOM     55  C   UNL A   1      40.178  27.728  32.894  1.00  0.00     0.029 A 
ATOM     56  N   UNL A   1      41.293  29.608  33.204  1.00  0.00    -0.354 N 
ATOM     57  N   UNL A   1      41.177  33.242  31.471  1.00  0.00    -0.248 NA
ATOM     58  C   UNL A   1      42.910  33.030  33.030  1.00  0.00     0.031 C 
ATOM     59  C   UNL A   1      39.388  28.824  32.441  1.00  0.00     0.029 A 
ATOM     60  C   UNL A   1      40.109  29.997  32.622  1.00  0.00     0.049 A 
ATOM     61  H   UNL A   1      41.997  30.233  33.495  1.00  0.00     0.167 HD
ATOM     62  C   UNL A   1      40.788  32.350  32.440  1.00  0.00     0.074 A 
ATOM     63  C   UNL A   1      41.811  32.416  33.471  1.00  0.00     0.031 C 
ATOM     64  C   UNL A   1      39.928  31.345  32.125  1.00  0.00     0.037 A 
BRANCH  51  65
ATOM     65  C   UNL A   1      43.500  28.058  34.775  1.00  0.00     0.058 A 
ATOM     66  C   UNL A   1      44.271  29.219  34.838  1.00  0.00     0.135 A 
ATOM     67  C   UNL A   1      43.600  27.155  35.859  1.00  0.00     0.135 A 
ATOM     68  F   UNL A   1      44.297  30.070  33.802  1.00  0.00    -0.206 F 
ATOM     69  C   UNL A   1      45.033  29.515  35.965  1.00  0.00     0.059 A 
ATOM     70  C   UNL A   1      44.295  27.458  37.016  1.00  0.00     0.059 A 
ATOM     71  F   UNL A   1      43.045  25.934  35.795  1.00  0.00    -0.206 F 
ATOM     72  C   UNL A   1      45.012  28.643  37.057  1.00  0.00     0.060 A 
BRANCH  72  73
ATOM     73  S   UNL A   1      45.916  29.081  38.552  1.00  0.00     0.124 S 
ATOM     74  O   UNL A   1      46.128  30.510  38.352  1.00  0.00    -0.237 OA
ATOM     75  O   UNL A   1      44.969  28.714  39.600  1.00  0.00    -0.237 OA
ATOM     76  O   UNL A   1      47.108  28.242  38.476  1.00  0.00    -0.744 OA
ENDBRANCH  72  73
ENDBRANCH  51  65
BRANCH  52  77
ATOM     77  C   UNL A   1      43.999  35.054  30.501  1.00  0.00     0.058 A 
ATOM     78  C   UNL A   1      43.371  36.024  29.685  1.00  0.00     0.135 A 
ATOM     79  C   UNL A   1      44.931  35.550  31.429  1.00  0.00     0.135 A 
ATOM     80  F   UNL A   1      42.486  35.660  28.745  1.00  0.00    -0.206 F 
ATOM     81  C   UNL A   1      43.550  37.397  29.869  1.00  0.00     0.059 A 
ATOM     82  C   UNL A   1      45.135  36.923  31.624  1.00  0.00     0.059 A 
ATOM     83  F   UNL A   1      45.596  34.713  32.241  1.00  0.00    -0.206 F 
ATOM     84  C   UNL A   1      44.399  37.840  30.876  1.00  0.00     0.060 A 
BRANCH  84  85
ATOM     85  S   UNL A   1      44.397  39.601  31.296  1.00  0.00     0.124 S 
ATOM     86  O   UNL A   1      45.714  39.776  31.897  1.00  0.00    -0.237 OA
ATOM     87  O   UNL A   1      44.207  40.225  29.990  1.00  0.00    -0.237 OA
ATOM     88  O   UNL A   1      43.267  39.728  32.213  1.00  0.00    -0.744 OA
ENDBRANCH  84  85
ENDBRANCH  52  77
BRANCH  64  89
ATOM     89  C   UNL A   1      38.841  31.641  31.131  1.00  0.00     0.058 A 
ATOM     90  C   UNL A   1      38.856  31.301  29.767  1.00  0.00     0.135 A 
ATOM     91  C   UNL A   1      37.690  32.285  31.616  1.00  0.00     0.135 A 
ATOM     92  F   UNL A   1      39.891  30.637  29.229  1.00  0.00    -0.206 F 
ATOM     93  C   UNL A   1      37.780  31.601  28.926  1.00  0.00     0.059 A 
ATOM     94  C   UNL A   1      36.596  32.566  30.806  1.00  0.00     0.059 A 
ATOM     95  F   UNL A   1      37.608  32.623  32.914  1.00  0.00    -0.206 F 
ATOM     96  C   UNL A   1      36.650  32.227  29.457  1.00  0.00     0.060 A 
BRANCH  96  97
ATOM     97  S   UNL A   1      35.220  32.528  28.394  1.00  0.00     0.124 S 
ATOM     98  O   UNL A   1      35.020  31.226  27.767  1.00  0.00    -0.237 OA
ATOM     99  O   UNL A   1      34.195  32.936  29.350  1.00  0.00    -0.237 OA
ATOM    100  O   UNL A   1      35.678  33.588  27.497  1.00  0.00    -0.744 OA
ENDBRANCH  96  97
ENDBRANCH  64  89
ENDBRANCH  38  39
ENDBRANCH  31  33
ENDBRANCH  30  31
ENDBRANCH  29  30
ENDBRANCH  28  29
ENDBRANCH  27  28
ENDBRANCH  26  27
ENDBRANCH  25  26
ENDBRANCH   1  25
TORSDOF 26
ENDMDL
MODEL 2
REMARK VINA RESULT:      -8.9      3.327      9.339
REMARK SMILES CC[N@H+](C)CCn1c(SCC(=O)OCCOCCOCCOC(=O)c2ccc(-c3c4nc(c(-c5c(F)cc(S(=O)(=O)[O-])cc5F)c5ccc([nH]5)c(-c5c(F)cc(S(=O)(=O)[O-])cc5F)c5nc(c(-c6c(F)cc(S(=O)(=O)[O-])cc6F)c6ccc3[nH]6)C=C5)C=C4)cc2)nc2cnccc21
REMARK SMILES IDX 16 1 15 2 14 3 13 4 11 5 12 6 10 7 9 8 8 9 7 10 97 11 91 12
REMARK SMILES IDX 92 13 96 14 93 15 95 16 94 17 6 18 5 19 3 20 4 21 2 23 1 24
REMARK SMILES IDX 17 25 18 26 19 27 20 28 21 29 22 30 23 31 24 32 25 33 26 34
REMARK SMILES IDX 90 35 27 36 89 37 28 38 29 39 30 40 83 41 31 42 88 43 82 44
REMARK SMILES IDX 84 45 32 46 87 47 81 48 80 49 33 51 67 52 46 53 66 54 47 55
REMARK SMILES IDX 50 56 65 57 85 58 48 59 49 60 64 62 86 63 51 64 34 65 35 66
REMARK SMILES IDX 44 67 36 68 37 69 43 70 45 71 38 72 39 73 40 74 41 75 42 76
REMARK SMILES IDX 68 77 69 78 78 79 70 80 71 81 77 82 79 83 72 84 73 85 74 86
REMARK SMILES IDX 75 87 76 88 52 89 53 90 62 91 54 92 55 93 61 94 63 95 56 96
REMARK SMILES IDX 57 97 58 98 59 99 60 100
REMARK H PARENT 3 22 84 50 50 61
REMARK Flexibility Score: inf
ROOT
ATOM      1  O   UNL A   1      35.075  31.371  27.499  1.00  0.00    -0.376 OA
ENDROOT
BRANCH   1   2
ATOM      2  C   UNL A   1      33.655  31.263  27.614  1.00  0.00     0.202 C 
BRANCH   2   3
ATOM      3  C   UNL A   1      33.057  29.891  27.264  1.00  0.00     0.261 C 
BRANCH   3   4
ATOM      4  O   UNL A   1      32.747  29.759  25.848  1.00  0.00    -0.463 OA
BRANCH   4   5
ATOM      5  C   UNL A   1      31.828  28.813  25.504  1.00  0.00     0.316 C 
ATOM      6  O   UNL A   1      30.952  28.991  24.664  1.00  0.00    -0.251 OA
BRANCH   5   7
ATOM      7  C   UNL A   1      31.954  27.491  26.261  1.00  0.00     0.200 C 
BRANCH   7   8
ATOM      8  S   UNL A   1      30.580  26.321  26.016  1.00  0.00    -0.076 SA
BRANCH   8   9
ATOM      9  C   UNL A   1      31.185  24.685  26.216  1.00  0.00     0.169 A 
ATOM     10  N   UNL A   1      31.534  23.834  25.175  1.00  0.00    -0.313 N 
ATOM     11  C   UNL A   1      32.423  22.918  25.692  1.00  0.00     0.072 A 
ATOM     12  N   UNL A   1      31.593  24.215  27.371  1.00  0.00    -0.221 NA
ATOM     13  C   UNL A   1      32.362  23.115  27.073  1.00  0.00     0.108 A 
ATOM     14  C   UNL A   1      33.275  21.940  25.183  1.00  0.00     0.049 A 
ATOM     15  C   UNL A   1      33.082  22.264  27.926  1.00  0.00     0.141 A 
ATOM     16  C   UNL A   1      33.982  21.164  26.093  1.00  0.00     0.113 A 
ATOM     17  N   UNL A   1      33.891  21.290  27.428  1.00  0.00    -0.262 NA
BRANCH  10  18
ATOM     18  C   UNL A   1      30.880  23.977  23.908  1.00  0.00     0.186 C 
BRANCH  18  19
ATOM     19  C   UNL A   1      31.333  24.625  22.588  1.00  0.00     0.284 C 
BRANCH  19  20
ATOM     20  N   UNL A   1      32.814  25.003  22.245  1.00  0.00    -0.336 N 
ATOM     21  C   UNL A   1      33.251  23.539  21.614  1.00  0.00     0.332 C 
ATOM     22  H   UNL A   1      33.315  25.813  22.610  1.00  0.00     0.347 HD
BRANCH  20  23
ATOM     23  C   UNL A   1      33.893  26.798  22.333  1.00  0.00     0.258 C 
ATOM     24  C   UNL A   1      33.458  28.497  22.320  1.00  0.00     0.071 C 
ENDBRANCH  20  23
ENDBRANCH  19  20
ENDBRANCH  18  19
ENDBRANCH  10  18
ENDBRANCH   8   9
ENDBRANCH   7   8
ENDBRANCH   5   7
ENDBRANCH   4   5
ENDBRANCH   3   4
ENDBRANCH   2   3
ENDBRANCH   1   2
BRANCH   1  25
ATOM     25  C   UNL A   1      35.657  32.571  27.987  1.00  0.00     0.188 C 
BRANCH  25  26
ATOM     26  C   UNL A   1      35.664  32.694  29.514  1.00  0.00     0.188 C 
BRANCH  26  27
ATOM     27  O   UNL A   1      35.574  34.062  29.904  1.00  0.00    -0.376 OA
BRANCH  27  28
ATOM     28  C   UNL A   1      34.330  34.366  30.543  1.00  0.00     0.202 C 
BRANCH  28  29
ATOM     29  C   UNL A   1      34.261  33.893  32.015  1.00  0.00     0.261 C 
BRANCH  29  30
ATOM     30  O   UNL A   1      35.260  34.487  32.874  1.00  0.00    -0.460 OA
BRANCH  30  31
ATOM     31  C   UNL A   1      35.890  33.710  33.805  1.00  0.00     0.338 C 
ATOM     32  O   UNL A   1      35.508  33.480  34.938  1.00  0.00    -0.246 OA
BRANCH  31  33
ATOM     33  C   UNL A   1      37.093  33.088  33.176  1.00  0.00     0.060 A 
ATOM     34  C   UNL A   1      36.975  31.310  32.850  1.00  0.00     0.016 A 
ATOM     35  C   UNL A   1      38.651  33.992  32.824  1.00  0.00     0.016 A 
ATOM     36  C   UNL A   1      38.439  30.382  32.335  1.00  0.00     0.010 A 
ATOM     37  C   UNL A   1      40.085  33.088  32.128  1.00  0.00     0.010 A 
ATOM     38  C   UNL A   1      39.988  31.235  32.005  1.00  0.00    -0.014 A 
BRANCH  38  39
ATOM     39  C   UNL A   1      41.139  30.345  31.776  1.00  0.00     0.031 A 
ATOM     40  C   UNL A   1      41.872  30.119  33.013  1.00  0.00     0.074 A 
ATOM     41  C   UNL A   1      41.595  29.838  30.595  1.00  0.00     0.049 A 
ATOM     42  N   UNL A   1      42.910  30.799  33.369  1.00  0.00    -0.248 NA
ATOM     43  C   UNL A   1      41.340  29.211  34.032  1.00  0.00     0.031 C 
ATOM     44  C   UNL A   1      40.987  29.978  29.270  1.00  0.00     0.029 A 
ATOM     45  N   UNL A   1      42.672  29.016  30.306  1.00  0.00    -0.354 N 
ATOM     46  C   UNL A   1      43.368  30.127  34.477  1.00  0.00     0.074 A 
ATOM     47  C   UNL A   1      42.250  29.368  34.997  1.00  0.00     0.031 C 
ATOM     48  C   UNL A   1      41.487  29.062  28.408  1.00  0.00     0.029 A 
ATOM     49  C   UNL A   1      42.621  28.412  29.038  1.00  0.00     0.049 A 
ATOM     50  H   UNL A   1      43.412  28.868  30.937  1.00  0.00     0.167 HD
ATOM     51  C   UNL A   1      44.694  29.863  34.587  1.00  0.00     0.037 A 
ATOM     52  C   UNL A   1      43.492  27.545  28.449  1.00  0.00     0.037 A 
ATOM     53  C   UNL A   1      45.513  30.626  33.687  1.00  0.00     0.049 A 
ATOM     54  C   UNL A   1      44.831  27.886  28.963  1.00  0.00     0.074 A 
ATOM     55  C   UNL A   1      45.866  31.952  33.553  1.00  0.00     0.029 A 
ATOM     56  N   UNL A   1      45.796  30.017  32.492  1.00  0.00    -0.354 N 
ATOM     57  N   UNL A   1      45.472  28.967  28.617  1.00  0.00    -0.248 NA
ATOM     58  C   UNL A   1      45.410  27.131  30.068  1.00  0.00     0.031 C 
ATOM     59  C   UNL A   1      46.312  32.134  32.212  1.00  0.00     0.029 A 
ATOM     60  C   UNL A   1      46.243  30.915  31.551  1.00  0.00     0.049 A 
ATOM     61  H   UNL A   1      45.691  29.052  32.327  1.00  0.00     0.167 HD
ATOM     62  C   UNL A   1      46.215  29.264  29.733  1.00  0.00     0.074 A 
ATOM     63  C   UNL A   1      46.303  28.027  30.491  1.00  0.00     0.031 C 
ATOM     64  C   UNL A   1      46.318  30.554  30.150  1.00  0.00     0.037 A 
BRANCH  51  65
ATOM     65  C   UNL A   1      45.123  28.558  35.167  1.00  0.00     0.058 A 
ATOM     66  C   UNL A   1      44.928  27.365  34.472  1.00  0.00     0.135 A 
ATOM     67  C   UNL A   1      45.632  28.464  36.483  1.00  0.00     0.135 A 
ATOM     68  F   UNL A   1      44.358  27.374  33.258  1.00  0.00    -0.206 F 
ATOM     69  C   UNL A   1      45.309  26.143  35.020  1.00  0.00     0.059 A 
ATOM     70  C   UNL A   1      46.080  27.272  37.023  1.00  0.00     0.059 A 
ATOM     71  F   UNL A   1      45.671  29.539  37.287  1.00  0.00    -0.206 F 
ATOM     72  C   UNL A   1      45.911  26.113  36.281  1.00  0.00     0.060 A 
BRANCH  72  73
ATOM     73  S   UNL A   1      46.496  24.544  36.942  1.00  0.00     0.124 S 
ATOM     74  O   UNL A   1      46.899  23.851  35.724  1.00  0.00    -0.237 OA
ATOM     75  O   UNL A   1      47.579  24.970  37.825  1.00  0.00    -0.237 OA
ATOM     76  O   UNL A   1      45.320  24.012  37.622  1.00  0.00    -0.744 OA
ENDBRANCH  72  73
ENDBRANCH  51  65
BRANCH  52  77
ATOM     77  C   UNL A   1      43.349  26.464  27.425  1.00  0.00     0.058 A 
ATOM     78  C   UNL A   1      43.835  26.650  26.110  1.00  0.00     0.135 A 
ATOM     79  C   UNL A   1      43.074  25.135  27.791  1.00  0.00     0.135 A 
ATOM     80  F   UNL A   1      44.103  27.879  25.645  1.00  0.00    -0.206 F 
ATOM     81  C   UNL A   1      44.158  25.585  25.266  1.00  0.00     0.059 A 
ATOM     82  C   UNL A   1      43.379  24.051  26.957  1.00  0.00     0.059 A 
ATOM     83  F   UNL A   1      42.592  24.850  29.011  1.00  0.00    -0.206 F 
ATOM     84  C   UNL A   1      43.972  24.283  25.718  1.00  0.00     0.060 A 
BRANCH  84  85
ATOM     85  S   UNL A   1      44.661  22.923  24.742  1.00  0.00     0.124 S 
ATOM     86  O   UNL A   1      45.237  22.066  25.772  1.00  0.00    -0.237 OA
ATOM     87  O   UNL A   1      43.475  22.399  24.070  1.00  0.00    -0.237 OA
ATOM     88  O   UNL A   1      45.625  23.588  23.869  1.00  0.00    -0.744 OA
ENDBRANCH  84  85
ENDBRANCH  52  77
BRANCH  64  89
ATOM     89  C   UNL A   1      46.382  31.626  29.099  1.00  0.00     0.058 A 
ATOM     90  C   UNL A   1      47.526  32.007  28.378  1.00  0.00     0.135 A 
ATOM     91  C   UNL A   1      45.180  32.283  28.784  1.00  0.00     0.135 A 
ATOM     92  F   UNL A   1      48.705  31.396  28.575  1.00  0.00    -0.206 F 
ATOM     93  C   UNL A   1      47.476  33.005  27.399  1.00  0.00     0.059 A 
ATOM     94  C   UNL A   1      45.100  33.255  27.794  1.00  0.00     0.059 A 
ATOM     95  F   UNL A   1      44.047  31.954  29.428  1.00  0.00    -0.206 F 
ATOM     96  C   UNL A   1      46.256  33.618  27.108  1.00  0.00     0.060 A 
BRANCH  96  97
ATOM     97  S   UNL A   1      46.170  34.836  25.776  1.00  0.00     0.124 S 
ATOM     98  O   UNL A   1      45.456  34.108  24.734  1.00  0.00    -0.237 OA
ATOM     99  O   UNL A   1      45.436  35.934  26.399  1.00  0.00    -0.237 OA
ATOM    100  O   UNL A   1      47.574  35.124  25.485  1.00  0.00    -0.744 OA
ENDBRANCH  96  97
ENDBRANCH  64  89
ENDBRANCH  38  39
ENDBRANCH  31  33
ENDBRANCH  30  31
ENDBRANCH  29  30
ENDBRANCH  28  29
ENDBRANCH  27  28
ENDBRANCH  26  27
ENDBRANCH  25  26
ENDBRANCH   1  25
TORSDOF 26
ENDMDL
MODEL 3
REMARK VINA RESULT:      -8.8      4.414      7.739
REMARK SMILES CC[N@H+](C)CCn1c(SCC(=O)OCCOCCOCCOC(=O)c2ccc(-c3c4nc(c(-c5c(F)cc(S(=O)(=O)[O-])cc5F)c5ccc([nH]5)c(-c5c(F)cc(S(=O)(=O)[O-])cc5F)c5nc(c(-c6c(F)cc(S(=O)(=O)[O-])cc6F)c6ccc3[nH]6)C=C5)C=C4)cc2)nc2cnccc21
REMARK SMILES IDX 16 1 15 2 14 3 13 4 11 5 12 6 10 7 9 8 8 9 7 10 97 11 91 12
REMARK SMILES IDX 92 13 96 14 93 15 95 16 94 17 6 18 5 19 3 20 4 21 2 23 1 24
REMARK SMILES IDX 17 25 18 26 19 27 20 28 21 29 22 30 23 31 24 32 25 33 26 34
REMARK SMILES IDX 90 35 27 36 89 37 28 38 29 39 30 40 83 41 31 42 88 43 82 44
REMARK SMILES IDX 84 45 32 46 87 47 81 48 80 49 33 51 67 52 46 53 66 54 47 55
REMARK SMILES IDX 50 56 65 57 85 58 48 59 49 60 64 62 86 63 51 64 34 65 35 66
REMARK SMILES IDX 44 67 36 68 37 69 43 70 45 71 38 72 39 73 40 74 41 75 42 76
REMARK SMILES IDX 68 77 69 78 78 79 70 80 71 81 77 82 79 83 72 84 73 85 74 86
REMARK SMILES IDX 75 87 76 88 52 89 53 90 62 91 54 92 55 93 61 94 63 95 56 96
REMARK SMILES IDX 57 97 58 98 59 99 60 100
REMARK H PARENT 3 22 84 50 50 61
REMARK Flexibility Score: inf
ROOT
ATOM      1  O   UNL A   1      34.907  24.623  24.934  1.00  0.00    -0.376 OA
ENDROOT
BRANCH   1   2
ATOM      2  C   UNL A   1      34.401  25.701  25.724  1.00  0.00     0.202 C 
BRANCH   2   3
ATOM      3  C   UNL A   1      32.891  25.669  26.011  1.00  0.00     0.261 C 
BRANCH   3   4
ATOM      4  O   UNL A   1      32.257  24.445  25.542  1.00  0.00    -0.463 OA
BRANCH   4   5
ATOM      5  C   UNL A   1      31.250  23.940  26.309  1.00  0.00     0.316 C 
ATOM      6  O   UNL A   1      30.412  24.635  26.874  1.00  0.00    -0.251 OA
BRANCH   5   7
ATOM      7  C   UNL A   1      31.243  22.417  26.435  1.00  0.00     0.200 C 
BRANCH   7   8
ATOM      8  S   UNL A   1      32.879  21.622  26.365  1.00  0.00    -0.076 SA
BRANCH   8   9
ATOM      9  C   UNL A   1      32.720  20.059  25.582  1.00  0.00     0.169 A 
ATOM     10  N   UNL A   1      33.020  19.802  24.250  1.00  0.00    -0.313 N 
ATOM     11  C   UNL A   1      33.286  18.454  24.155  1.00  0.00     0.072 A 
ATOM     12  N   UNL A   1      32.539  18.945  26.252  1.00  0.00    -0.221 NA
ATOM     13  C   UNL A   1      32.881  17.933  25.386  1.00  0.00     0.108 A 
ATOM     14  C   UNL A   1      33.812  17.595  23.194  1.00  0.00     0.049 A 
ATOM     15  C   UNL A   1      32.920  16.546  25.597  1.00  0.00     0.141 A 
ATOM     16  C   UNL A   1      33.850  16.238  23.494  1.00  0.00     0.113 A 
ATOM     17  N   UNL A   1      33.407  15.704  24.645  1.00  0.00    -0.262 NA
BRANCH  10  18
ATOM     18  C   UNL A   1      32.897  20.860  23.292  1.00  0.00     0.186 C 
BRANCH  18  19
ATOM     19  C   UNL A   1      31.703  21.742  22.886  1.00  0.00     0.284 C 
BRANCH  19  20
ATOM     20  N   UNL A   1      31.753  23.303  22.757  1.00  0.00    -0.336 N 
ATOM     21  C   UNL A   1      33.272  23.400  22.111  1.00  0.00     0.332 C 
ATOM     22  H   UNL A   1      31.121  23.953  23.225  1.00  0.00     0.347 HD
BRANCH  20  23
ATOM     23  C   UNL A   1      30.335  24.814  23.076  1.00  0.00     0.258 C 
ATOM     24  C   UNL A   1      30.408  26.561  23.212  1.00  0.00     0.071 C 
ENDBRANCH  20  23
ENDBRANCH  19  20
ENDBRANCH  18  19
ENDBRANCH  10  18
ENDBRANCH   8   9
ENDBRANCH   7   8
ENDBRANCH   5   7
ENDBRANCH   4   5
ENDBRANCH   3   4
ENDBRANCH   2   3
ENDBRANCH   1   2
BRANCH   1  25
ATOM     25  C   UNL A   1      35.867  23.783  25.558  1.00  0.00     0.188 C 
BRANCH  25  26
ATOM     26  C   UNL A   1      36.547  22.789  24.612  1.00  0.00     0.188 C 
BRANCH  26  27
ATOM     27  O   UNL A   1      36.519  21.476  25.164  1.00  0.00    -0.376 OA
BRANCH  27  28
ATOM     28  C   UNL A   1      37.797  20.834  25.111  1.00  0.00     0.202 C 
BRANCH  28  29
ATOM     29  C   UNL A   1      38.874  21.531  25.978  1.00  0.00     0.261 C 
BRANCH  29  30
ATOM     30  O   UNL A   1      40.228  21.323  25.518  1.00  0.00    -0.460 OA
BRANCH  30  31
ATOM     31  C   UNL A   1      41.174  20.881  26.400  1.00  0.00     0.338 C 
ATOM     32  O   UNL A   1      41.212  19.791  26.939  1.00  0.00    -0.246 OA
BRANCH  31  33
ATOM     33  C   UNL A   1      42.235  21.925  26.527  1.00  0.00     0.060 A 
ATOM     34  C   UNL A   1      42.646  22.421  28.220  1.00  0.00     0.016 A 
ATOM     35  C   UNL A   1      43.033  22.756  25.099  1.00  0.00     0.016 A 
ATOM     36  C   UNL A   1      43.718  23.848  28.513  1.00  0.00     0.010 A 
ATOM     37  C   UNL A   1      44.261  24.084  25.395  1.00  0.00     0.010 A 
ATOM     38  C   UNL A   1      44.496  24.700  27.134  1.00  0.00    -0.014 A 
BRANCH  38  39
ATOM     39  C   UNL A   1      45.188  25.948  27.499  1.00  0.00     0.031 A 
ATOM     40  C   UNL A   1      46.629  25.742  27.551  1.00  0.00     0.074 A 
ATOM     41  C   UNL A   1      44.643  27.146  27.857  1.00  0.00     0.049 A 
ATOM     42  N   UNL A   1      47.279  25.472  28.634  1.00  0.00    -0.248 NA
ATOM     43  C   UNL A   1      47.406  25.644  26.314  1.00  0.00     0.031 C 
ATOM     44  C   UNL A   1      43.225  27.512  27.870  1.00  0.00     0.029 A 
ATOM     45  N   UNL A   1      45.229  28.345  28.227  1.00  0.00    -0.354 N 
ATOM     46  C   UNL A   1      48.595  25.553  28.245  1.00  0.00     0.074 A 
ATOM     47  C   UNL A   1      48.618  25.376  26.809  1.00  0.00     0.031 C 
ATOM     48  C   UNL A   1      43.073  28.856  27.919  1.00  0.00     0.029 A 
ATOM     49  C   UNL A   1      44.368  29.454  28.177  1.00  0.00     0.049 A 
ATOM     50  H   UNL A   1      46.171  28.413  28.503  1.00  0.00     0.167 HD
ATOM     51  C   UNL A   1      49.474  26.227  29.029  1.00  0.00     0.037 A 
ATOM     52  C   UNL A   1      44.618  30.766  28.452  1.00  0.00     0.037 A 
ATOM     53  C   UNL A   1      48.986  26.486  30.356  1.00  0.00     0.049 A 
ATOM     54  C   UNL A   1      45.653  30.781  29.502  1.00  0.00     0.074 A 
ATOM     55  C   UNL A   1      48.694  25.726  31.468  1.00  0.00     0.029 A 
ATOM     56  N   UNL A   1      48.365  27.695  30.527  1.00  0.00    -0.354 N 
ATOM     57  N   UNL A   1      45.418  30.433  30.736  1.00  0.00    -0.248 NA
ATOM     58  C   UNL A   1      47.055  30.974  29.153  1.00  0.00     0.031 C 
ATOM     59  C   UNL A   1      47.821  26.498  32.287  1.00  0.00     0.029 A 
ATOM     60  C   UNL A   1      47.606  27.725  31.674  1.00  0.00     0.049 A 
ATOM     61  H   UNL A   1      48.451  28.452  29.903  1.00  0.00     0.167 HD
ATOM     62  C   UNL A   1      46.619  29.913  31.152  1.00  0.00     0.074 A 
ATOM     63  C   UNL A   1      47.619  30.449  30.243  1.00  0.00     0.031 C 
ATOM     64  C   UNL A   1      46.639  28.779  31.903  1.00  0.00     0.037 A 
BRANCH  51  65
ATOM     65  C   UNL A   1      50.535  27.049  28.379  1.00  0.00     0.058 A 
ATOM     66  C   UNL A   1      50.215  28.215  27.683  1.00  0.00     0.135 A 
ATOM     67  C   UNL A   1      51.882  26.621  28.341  1.00  0.00     0.135 A 
ATOM     68  F   UNL A   1      48.941  28.624  27.597  1.00  0.00    -0.206 F 
ATOM     69  C   UNL A   1      51.202  28.972  27.059  1.00  0.00     0.059 A 
ATOM     70  C   UNL A   1      52.889  27.389  27.787  1.00  0.00     0.059 A 
ATOM     71  F   UNL A   1      52.239  25.418  28.819  1.00  0.00    -0.206 F 
ATOM     72  C   UNL A   1      52.537  28.566  27.144  1.00  0.00     0.060 A 
BRANCH  72  73
ATOM     73  S   UNL A   1      53.821  29.602  26.424  1.00  0.00     0.124 S 
ATOM     74  O   UNL A   1      55.028  28.948  26.915  1.00  0.00    -0.237 OA
ATOM     75  O   UNL A   1      53.556  29.469  24.995  1.00  0.00    -0.237 OA
ATOM     76  O   UNL A   1      53.536  30.920  26.984  1.00  0.00    -0.744 OA
ENDBRANCH  72  73
ENDBRANCH  51  65
BRANCH  52  77
ATOM     77  C   UNL A   1      44.037  32.057  27.971  1.00  0.00     0.058 A 
ATOM     78  C   UNL A   1      43.263  32.864  28.837  1.00  0.00     0.135 A 
ATOM     79  C   UNL A   1      44.510  32.690  26.809  1.00  0.00     0.135 A 
ATOM     80  F   UNL A   1      42.737  32.355  29.961  1.00  0.00    -0.206 F 
ATOM     81  C   UNL A   1      43.087  34.235  28.637  1.00  0.00     0.059 A 
ATOM     82  C   UNL A   1      44.337  34.063  26.581  1.00  0.00     0.059 A 
ATOM     83  F   UNL A   1      45.241  32.010  25.911  1.00  0.00    -0.206 F 
ATOM     84  C   UNL A   1      43.671  34.837  27.528  1.00  0.00     0.060 A 
BRANCH  84  85
ATOM     85  S   UNL A   1      43.687  36.645  27.435  1.00  0.00     0.124 S 
ATOM     86  O   UNL A   1      43.463  37.027  28.825  1.00  0.00    -0.237 OA
ATOM     87  O   UNL A   1      45.024  36.911  26.910  1.00  0.00    -0.237 OA
ATOM     88  O   UNL A   1      42.591  36.946  26.518  1.00  0.00    -0.744 OA
ENDBRANCH  84  85
ENDBRANCH  52  77
BRANCH  64  89
ATOM     89  C   UNL A   1      45.537  28.585  32.905  1.00  0.00     0.058 A 
ATOM     90  C   UNL A   1      45.511  29.099  34.213  1.00  0.00     0.135 A 
ATOM     91  C   UNL A   1      44.414  27.852  32.484  1.00  0.00     0.135 A 
ATOM     92  F   UNL A   1      46.516  29.855  34.681  1.00  0.00    -0.206 F 
ATOM     93  C   UNL A   1      44.422  28.880  35.064  1.00  0.00     0.059 A 
ATOM     94  C   UNL A   1      43.308  27.649  33.301  1.00  0.00     0.059 A 
ATOM     95  F   UNL A   1      44.371  27.346  31.240  1.00  0.00    -0.206 F 
ATOM     96  C   UNL A   1      43.321  28.160  34.595  1.00  0.00     0.060 A 
BRANCH  96  97
ATOM     97  S   UNL A   1      41.874  27.961  35.659  1.00  0.00     0.124 S 
ATOM     98  O   UNL A   1      42.465  27.972  36.993  1.00  0.00    -0.237 OA
ATOM     99  O   UNL A   1      41.065  29.126  35.314  1.00  0.00    -0.237 OA
ATOM    100  O   UNL A   1      41.314  26.678  35.237  1.00  0.00    -0.744 OA
ENDBRANCH  96  97
ENDBRANCH  64  89
ENDBRANCH  38  39
ENDBRANCH  31  33
ENDBRANCH  30  31
ENDBRANCH  29  30
ENDBRANCH  28  29
ENDBRANCH  27  28
ENDBRANCH  26  27
ENDBRANCH  25  26
ENDBRANCH   1  25
TORSDOF 26
ENDMDL
