MODEL 1
REMARK VINA RESULT:     -11.1      0.000      0.000
REMARK SMILES Nn1c(S[C@@H](C(=O)OCCOCCOCCOC(=O)c2ccc(-c3c4nc(c(-c5c(F)cc(S(=O)(=O)[O-])cc5F)c5ccc([nH]5)c(-c5c(F)cc(S(=O)(=O)[O-])cc5F)c5nc(c(-c6c(F)cc(S(=O)(=O)[O-])cc6F)c6ccc3[nH]6)C=C5)C=C4)cc2)c2ccccc2)nc2ccc(Br)cc2c1=O
REMARK SMILES IDX 12 1 11 2 10 3 9 4 8 5 6 6 7 7 5 8 4 9 3 10 2 11 100 12
REMARK SMILES IDX 92 13 99 14 101 15 93 16 98 17 94 18 96 19 95 20 97 21 1 22
REMARK SMILES IDX 86 25 87 26 91 27 88 28 90 29 89 30 13 31 14 32 15 33 16 34
REMARK SMILES IDX 17 35 18 36 19 37 20 38 21 39 85 40 22 41 84 42 23 43 24 44
REMARK SMILES IDX 25 45 78 46 26 47 83 48 77 49 79 50 27 51 82 52 76 53 75 54
REMARK SMILES IDX 28 56 62 57 41 58 61 59 42 60 45 61 60 62 80 63 43 64 44 65
REMARK SMILES IDX 59 67 81 68 46 69 29 70 30 71 39 72 31 73 32 74 38 75 40 76
REMARK SMILES IDX 33 77 34 78 35 79 36 80 37 81 63 82 64 83 73 84 65 85 66 86
REMARK SMILES IDX 72 87 74 88 67 89 68 90 69 91 70 92 71 93 47 94 48 95 57 96
REMARK SMILES IDX 49 97 50 98 56 99 58 100 51 101 52 102 53 103 54 104 55 105
REMARK H PARENT 1 23 1 24 79 55 45 66
REMARK Flexibility Score: inf
ROOT
ATOM      1  C   UNL A   1      35.472  31.151  28.055  1.00  0.00     0.188 C 
ENDROOT
BRANCH   1   2
ATOM      2  O   UNL A   1      34.625  30.244  27.354  1.00  0.00    -0.376 OA
BRANCH   2   3
ATOM      3  C   UNL A   1      33.272  30.670  27.236  1.00  0.00     0.202 C 
BRANCH   3   4
ATOM      4  C   UNL A   1      32.307  29.622  26.658  1.00  0.00     0.261 C 
BRANCH   4   5
ATOM      5  O   UNL A   1      32.924  28.470  26.010  1.00  0.00    -0.462 OA
BRANCH   5   6
ATOM      6  C   UNL A   1      32.859  28.511  24.642  1.00  0.00     0.324 C 
ATOM      7  O   UNL A   1      33.473  29.363  23.993  1.00  0.00    -0.251 OA
BRANCH   6   8
ATOM      8  C   UNL A   1      31.951  27.478  23.924  1.00  0.00     0.194 C 
BRANCH   8   9
ATOM      9  S   UNL A   1      32.826  26.331  22.819  1.00  0.00    -0.066 SA
BRANCH   9  10
ATOM     10  C   UNL A   1      33.069  24.717  23.462  1.00  0.00     0.191 A 
ATOM     11  N   UNL A   1      33.614  24.490  24.713  1.00  0.00    -0.202 N 
ATOM     12  C   UNL A   1      33.247  23.323  25.338  1.00  0.00     0.280 A 
ATOM     13  N   UNL A   1      32.583  23.736  22.740  1.00  0.00    -0.222 NA
ATOM     14  C   UNL A   1      33.094  22.153  24.526  1.00  0.00     0.069 A 
ATOM     15  O   UNL A   1      32.887  23.229  26.504  1.00  0.00    -0.267 OA
ATOM     16  C   UNL A   1      32.648  22.409  23.242  1.00  0.00     0.079 A 
ATOM     17  C   UNL A   1      33.204  20.885  25.111  1.00  0.00     0.031 A 
ATOM     18  C   UNL A   1      32.184  21.299  22.539  1.00  0.00     0.030 A 
ATOM     19  C   UNL A   1      32.762  19.802  24.385  1.00  0.00     0.018 A 
ATOM     20  C   UNL A   1      32.227  20.005  23.111  1.00  0.00     0.018 A 
ATOM     21  Br  UNL A   1      32.816  18.082  25.161  1.00  0.00    -0.051 Br
BRANCH  11  22
ATOM     22  N   UNL A   1      34.206  25.472  25.528  1.00  0.00    -0.334 N 
ATOM     23  H   UNL A   1      35.179  25.470  25.674  1.00  0.00     0.178 HD
ATOM     24  H   UNL A   1      33.646  26.162  25.953  1.00  0.00     0.178 HD
ENDBRANCH  11  22
ENDBRANCH   9  10
ENDBRANCH   8   9
BRANCH   8  25
ATOM     25  C   UNL A   1      30.497  27.909  23.656  1.00  0.00    -0.023 A 
ATOM     26  C   UNL A   1      29.408  27.046  23.886  1.00  0.00     0.005 A 
ATOM     27  C   UNL A   1      30.188  29.214  23.213  1.00  0.00     0.005 A 
ATOM     28  C   UNL A   1      28.098  27.427  23.564  1.00  0.00     0.000 A 
ATOM     29  C   UNL A   1      28.877  29.605  22.922  1.00  0.00     0.000 A 
ATOM     30  C   UNL A   1      27.835  28.700  23.069  1.00  0.00     0.000 A 
ENDBRANCH   8  25
ENDBRANCH   6   8
ENDBRANCH   5   6
ENDBRANCH   4   5
ENDBRANCH   3   4
ENDBRANCH   2   3
ENDBRANCH   1   2
BRANCH   1  31
ATOM     31  C   UNL A   1      34.746  32.130  28.975  1.00  0.00     0.188 C 
BRANCH  31  32
ATOM     32  O   UNL A   1      35.670  32.681  29.915  1.00  0.00    -0.376 OA
BRANCH  32  33
ATOM     33  C   UNL A   1      35.249  32.459  31.255  1.00  0.00     0.202 C 
BRANCH  33  34
ATOM     34  C   UNL A   1      36.168  31.511  32.042  1.00  0.00     0.261 C 
BRANCH  34  35
ATOM     35  O   UNL A   1      36.241  30.163  31.531  1.00  0.00    -0.460 OA
BRANCH  35  36
ATOM     36  C   UNL A   1      37.187  29.397  32.144  1.00  0.00     0.338 C 
ATOM     37  O   UNL A   1      37.045  28.770  33.179  1.00  0.00    -0.246 OA
BRANCH  36  38
ATOM     38  C   UNL A   1      38.503  29.466  31.460  1.00  0.00     0.060 A 
ATOM     39  C   UNL A   1      39.660  29.220  32.197  1.00  0.00     0.016 A 
ATOM     40  C   UNL A   1      38.602  29.551  30.072  1.00  0.00     0.016 A 
ATOM     41  C   UNL A   1      40.888  29.071  31.536  1.00  0.00     0.010 A 
ATOM     42  C   UNL A   1      39.805  29.414  29.406  1.00  0.00     0.010 A 
ATOM     43  C   UNL A   1      40.955  29.160  30.138  1.00  0.00    -0.014 A 
BRANCH  43  44
ATOM     44  C   UNL A   1      42.173  28.861  29.373  1.00  0.00     0.031 A 
ATOM     45  C   UNL A   1      43.170  29.938  29.094  1.00  0.00     0.074 A 
ATOM     46  C   UNL A   1      42.270  27.662  28.773  1.00  0.00     0.049 A 
ATOM     47  N   UNL A   1      44.381  29.824  28.626  1.00  0.00    -0.248 NA
ATOM     48  C   UNL A   1      42.739  31.327  29.331  1.00  0.00     0.031 C 
ATOM     49  C   UNL A   1      41.227  26.631  28.771  1.00  0.00     0.029 A 
ATOM     50  N   UNL A   1      43.281  27.117  28.030  1.00  0.00    -0.354 N 
ATOM     51  C   UNL A   1      44.888  31.114  28.586  1.00  0.00     0.074 A 
ATOM     52  C   UNL A   1      43.814  32.007  28.958  1.00  0.00     0.031 C 
ATOM     53  C   UNL A   1      41.665  25.565  28.082  1.00  0.00     0.029 A 
ATOM     54  C   UNL A   1      43.034  25.820  27.648  1.00  0.00     0.049 A 
ATOM     55  H   UNL A   1      44.102  27.604  27.792  1.00  0.00     0.167 HD
ATOM     56  C   UNL A   1      46.159  31.491  28.321  1.00  0.00     0.037 A 
ATOM     57  C   UNL A   1      43.860  24.920  27.086  1.00  0.00     0.037 A 
ATOM     58  C   UNL A   1      47.178  30.554  27.922  1.00  0.00     0.049 A 
ATOM     59  C   UNL A   1      45.298  25.313  26.891  1.00  0.00     0.074 A 
ATOM     60  C   UNL A   1      48.530  30.766  27.733  1.00  0.00     0.029 A 
ATOM     61  N   UNL A   1      46.935  29.217  27.631  1.00  0.00    -0.354 N 
ATOM     62  N   UNL A   1      45.862  26.483  27.089  1.00  0.00    -0.248 NA
ATOM     63  C   UNL A   1      46.221  24.261  26.453  1.00  0.00     0.031 C 
ATOM     64  C   UNL A   1      49.098  29.563  27.295  1.00  0.00     0.029 A 
ATOM     65  C   UNL A   1      48.106  28.594  27.247  1.00  0.00     0.049 A 
ATOM     66  H   UNL A   1      46.056  28.778  27.691  1.00  0.00     0.167 HD
ATOM     67  C   UNL A   1      47.214  26.302  26.828  1.00  0.00     0.074 A 
ATOM     68  C   UNL A   1      47.381  24.906  26.469  1.00  0.00     0.031 C 
ATOM     69  C   UNL A   1      48.228  27.203  26.884  1.00  0.00     0.037 A 
BRANCH  56  70
ATOM     70  C   UNL A   1      46.525  32.932  28.537  1.00  0.00     0.058 A 
ATOM     71  C   UNL A   1      46.982  33.376  29.790  1.00  0.00     0.135 A 
ATOM     72  C   UNL A   1      46.488  33.866  27.491  1.00  0.00     0.135 A 
ATOM     73  F   UNL A   1      47.029  32.531  30.832  1.00  0.00    -0.206 F 
ATOM     74  C   UNL A   1      47.372  34.694  30.002  1.00  0.00     0.059 A 
ATOM     75  C   UNL A   1      46.899  35.186  27.674  1.00  0.00     0.059 A 
ATOM     76  F   UNL A   1      46.053  33.502  26.274  1.00  0.00    -0.206 F 
ATOM     77  C   UNL A   1      47.333  35.591  28.937  1.00  0.00     0.060 A 
BRANCH  77  78
ATOM     78  S   UNL A   1      47.882  37.286  29.226  1.00  0.00     0.124 S 
ATOM     79  O   UNL A   1      49.202  37.276  28.604  1.00  0.00    -0.237 OA
ATOM     80  O   UNL A   1      46.861  38.064  28.534  1.00  0.00    -0.237 OA
ATOM     81  O   UNL A   1      47.876  37.402  30.681  1.00  0.00    -0.744 OA
ENDBRANCH  77  78
ENDBRANCH  56  70
BRANCH  57  82
ATOM     82  C   UNL A   1      43.381  23.533  26.863  1.00  0.00     0.058 A 
ATOM     83  C   UNL A   1      43.103  23.080  25.564  1.00  0.00     0.135 A 
ATOM     84  C   UNL A   1      43.278  22.611  27.914  1.00  0.00     0.135 A 
ATOM     85  F   UNL A   1      43.203  23.923  24.526  1.00  0.00    -0.206 F 
ATOM     86  C   UNL A   1      42.729  21.765  25.315  1.00  0.00     0.059 A 
ATOM     87  C   UNL A   1      42.919  21.284  27.689  1.00  0.00     0.059 A 
ATOM     88  F   UNL A   1      43.565  22.988  29.169  1.00  0.00    -0.206 F 
ATOM     89  C   UNL A   1      42.645  20.872  26.384  1.00  0.00     0.060 A 
BRANCH  89  90
ATOM     90  S   UNL A   1      42.218  19.151  26.033  1.00  0.00     0.124 S 
ATOM     91  O   UNL A   1      40.796  19.255  25.731  1.00  0.00    -0.237 OA
ATOM     92  O   UNL A   1      43.090  18.847  24.903  1.00  0.00    -0.237 OA
ATOM     93  O   UNL A   1      42.551  18.463  27.277  1.00  0.00    -0.744 OA
ENDBRANCH  89  90
ENDBRANCH  57  82
BRANCH  69  94
ATOM     94  C   UNL A   1      49.599  26.705  26.535  1.00  0.00     0.058 A 
ATOM     95  C   UNL A   1      50.453  26.185  27.519  1.00  0.00     0.135 A 
ATOM     96  C   UNL A   1      50.032  26.680  25.200  1.00  0.00     0.135 A 
ATOM     97  F   UNL A   1      50.082  26.194  28.810  1.00  0.00    -0.206 F 
ATOM     98  C   UNL A   1      51.699  25.668  27.193  1.00  0.00     0.059 A 
ATOM     99  C   UNL A   1      51.265  26.145  24.849  1.00  0.00     0.059 A 
ATOM    100  F   UNL A   1      49.245  27.157  24.224  1.00  0.00    -0.206 F 
ATOM    101  C   UNL A   1      52.095  25.648  25.854  1.00  0.00     0.060 A 
BRANCH 101 102
ATOM    102  S   UNL A   1      53.697  24.928  25.443  1.00  0.00     0.124 S 
ATOM    103  O   UNL A   1      53.317  23.574  25.050  1.00  0.00    -0.237 OA
ATOM    104  O   UNL A   1      54.161  25.794  24.363  1.00  0.00    -0.237 OA
ATOM    105  O   UNL A   1      54.447  25.033  26.690  1.00  0.00    -0.744 OA
ENDBRANCH 101 102
ENDBRANCH  69  94
ENDBRANCH  43  44
ENDBRANCH  36  38
ENDBRANCH  35  36
ENDBRANCH  34  35
ENDBRANCH  33  34
ENDBRANCH  32  33
ENDBRANCH  31  32
ENDBRANCH   1  31
TORSDOF 24
ENDMDL
MODEL 2
REMARK VINA RESULT:     -11.0      5.541      8.095
REMARK SMILES Nn1c(S[C@@H](C(=O)OCCOCCOCCOC(=O)c2ccc(-c3c4nc(c(-c5c(F)cc(S(=O)(=O)[O-])cc5F)c5ccc([nH]5)c(-c5c(F)cc(S(=O)(=O)[O-])cc5F)c5nc(c(-c6c(F)cc(S(=O)(=O)[O-])cc6F)c6ccc3[nH]6)C=C5)C=C4)cc2)c2ccccc2)nc2ccc(Br)cc2c1=O
REMARK SMILES IDX 12 1 11 2 10 3 9 4 8 5 6 6 7 7 5 8 4 9 3 10 2 11 100 12
REMARK SMILES IDX 92 13 99 14 101 15 93 16 98 17 94 18 96 19 95 20 97 21 1 22
REMARK SMILES IDX 86 25 87 26 91 27 88 28 90 29 89 30 13 31 14 32 15 33 16 34
REMARK SMILES IDX 17 35 18 36 19 37 20 38 21 39 85 40 22 41 84 42 23 43 24 44
REMARK SMILES IDX 25 45 78 46 26 47 83 48 77 49 79 50 27 51 82 52 76 53 75 54
REMARK SMILES IDX 28 56 62 57 41 58 61 59 42 60 45 61 60 62 80 63 43 64 44 65
REMARK SMILES IDX 59 67 81 68 46 69 29 70 30 71 39 72 31 73 32 74 38 75 40 76
REMARK SMILES IDX 33 77 34 78 35 79 36 80 37 81 63 82 64 83 73 84 65 85 66 86
REMARK SMILES IDX 72 87 74 88 67 89 68 90 69 91 70 92 71 93 47 94 48 95 57 96
REMARK SMILES IDX 49 97 50 98 56 99 58 100 51 101 52 102 53 103 54 104 55 105
REMARK H PARENT 1 23 1 24 79 55 45 66
REMARK Flexibility Score: inf
ROOT
ATOM      1  C   UNL A   1      32.379  29.397  27.162  1.00  0.00     0.188 C 
ENDROOT
BRANCH   1   2
ATOM      2  O   UNL A   1      33.016  28.267  26.572  1.00  0.00    -0.376 OA
BRANCH   2   3
ATOM      3  C   UNL A   1      33.578  28.509  25.288  1.00  0.00     0.202 C 
BRANCH   3   4
ATOM      4  C   UNL A   1      33.427  27.355  24.283  1.00  0.00     0.261 C 
BRANCH   4   5
ATOM      5  O   UNL A   1      32.941  27.720  22.957  1.00  0.00    -0.462 OA
BRANCH   5   6
ATOM      6  C   UNL A   1      31.740  27.144  22.635  1.00  0.00     0.324 C 
ATOM      7  O   UNL A   1      31.638  26.351  21.694  1.00  0.00    -0.251 OA
BRANCH   6   8
ATOM      8  C   UNL A   1      30.492  27.549  23.462  1.00  0.00     0.194 C 
BRANCH   8   9
ATOM      9  S   UNL A   1      29.801  26.227  24.499  1.00  0.00    -0.066 SA
BRANCH   9  10
ATOM     10  C   UNL A   1      30.852  24.843  24.740  1.00  0.00     0.191 A 
ATOM     11  N   UNL A   1      31.543  24.632  25.919  1.00  0.00    -0.202 N 
ATOM     12  C   UNL A   1      31.844  23.327  26.226  1.00  0.00     0.280 A 
ATOM     13  N   UNL A   1      30.843  23.947  23.782  1.00  0.00    -0.222 NA
ATOM     14  C   UNL A   1      32.209  22.457  25.150  1.00  0.00     0.069 A 
ATOM     15  O   UNL A   1      31.677  22.803  27.319  1.00  0.00    -0.267 OA
ATOM     16  C   UNL A   1      31.587  22.748  23.950  1.00  0.00     0.079 A 
ATOM     17  C   UNL A   1      32.971  21.311  25.413  1.00  0.00     0.031 A 
ATOM     18  C   UNL A   1      31.661  21.750  22.980  1.00  0.00     0.030 A 
ATOM     19  C   UNL A   1      33.050  20.352  24.429  1.00  0.00     0.018 A 
ATOM     20  C   UNL A   1      32.376  20.553  23.222  1.00  0.00     0.018 A 
ATOM     21  Br  UNL A   1      33.999  18.755  24.765  1.00  0.00    -0.051 Br
BRANCH  11  22
ATOM     22  N   UNL A   1      31.651  25.559  26.971  1.00  0.00    -0.334 N 
ATOM     23  H   UNL A   1      32.144  25.320  27.790  1.00  0.00     0.178 HD
ATOM     24  H   UNL A   1      31.236  26.448  26.889  1.00  0.00     0.178 HD
ENDBRANCH  11  22
ENDBRANCH   9  10
ENDBRANCH   8   9
BRANCH   8  25
ATOM     25  C   UNL A   1      29.605  28.660  22.869  1.00  0.00    -0.023 A 
ATOM     26  C   UNL A   1      28.218  28.714  23.103  1.00  0.00     0.005 A 
ATOM     27  C   UNL A   1      30.159  29.708  22.099  1.00  0.00     0.005 A 
ATOM     28  C   UNL A   1      27.415  29.687  22.493  1.00  0.00     0.000 A 
ATOM     29  C   UNL A   1      29.361  30.697  21.515  1.00  0.00     0.000 A 
ATOM     30  C   UNL A   1      27.984  30.669  21.689  1.00  0.00     0.000 A 
ENDBRANCH   8  25
ENDBRANCH   6   8
ENDBRANCH   5   6
ENDBRANCH   4   5
ENDBRANCH   3   4
ENDBRANCH   2   3
ENDBRANCH   1   2
BRANCH   1  31
ATOM     31  C   UNL A   1      31.755  30.375  26.168  1.00  0.00     0.188 C 
BRANCH  31  32
ATOM     32  O   UNL A   1      31.276  31.527  26.865  1.00  0.00    -0.376 OA
BRANCH  32  33
ATOM     33  C   UNL A   1      32.128  32.649  26.668  1.00  0.00     0.202 C 
BRANCH  33  34
ATOM     34  C   UNL A   1      32.860  33.099  27.942  1.00  0.00     0.261 C 
BRANCH  34  35
ATOM     35  O   UNL A   1      32.772  34.510  28.235  1.00  0.00    -0.460 OA
BRANCH  35  36
ATOM     36  C   UNL A   1      33.237  34.841  29.473  1.00  0.00     0.338 C 
ATOM     37  O   UNL A   1      32.797  35.715  30.196  1.00  0.00    -0.246 OA
BRANCH  36  38
ATOM     38  C   UNL A   1      34.449  34.067  29.848  1.00  0.00     0.060 A 
ATOM     39  C   UNL A   1      35.675  34.419  29.285  1.00  0.00     0.016 A 
ATOM     40  C   UNL A   1      34.436  33.153  30.900  1.00  0.00     0.016 A 
ATOM     41  C   UNL A   1      36.857  33.848  29.779  1.00  0.00     0.010 A 
ATOM     42  C   UNL A   1      35.590  32.576  31.393  1.00  0.00     0.010 A 
ATOM     43  C   UNL A   1      36.811  32.933  30.841  1.00  0.00    -0.014 A 
BRANCH  43  44
ATOM     44  C   UNL A   1      38.015  32.417  31.506  1.00  0.00     0.031 A 
ATOM     45  C   UNL A   1      38.499  33.040  32.775  1.00  0.00     0.074 A 
ATOM     46  C   UNL A   1      38.768  31.516  30.851  1.00  0.00     0.049 A 
ATOM     47  N   UNL A   1      39.403  32.599  33.604  1.00  0.00    -0.248 NA
ATOM     48  C   UNL A   1      37.924  34.346  33.141  1.00  0.00     0.031 C 
ATOM     49  C   UNL A   1      38.517  31.036  29.488  1.00  0.00     0.029 A 
ATOM     50  N   UNL A   1      39.908  30.863  31.231  1.00  0.00    -0.354 N 
ATOM     51  C   UNL A   1      39.453  33.530  34.630  1.00  0.00     0.074 A 
ATOM     52  C   UNL A   1      38.579  34.622  34.261  1.00  0.00     0.031 C 
ATOM     53  C   UNL A   1      39.462  30.142  29.158  1.00  0.00     0.029 A 
ATOM     54  C   UNL A   1      40.344  29.949  30.303  1.00  0.00     0.049 A 
ATOM     55  H   UNL A   1      40.370  31.031  32.084  1.00  0.00     0.167 HD
ATOM     56  C   UNL A   1      40.125  33.432  35.799  1.00  0.00     0.037 A 
ATOM     57  C   UNL A   1      41.298  29.007  30.410  1.00  0.00     0.037 A 
ATOM     58  C   UNL A   1      41.009  32.333  36.094  1.00  0.00     0.049 A 
ATOM     59  C   UNL A   1      41.968  28.836  31.745  1.00  0.00     0.074 A 
ATOM     60  C   UNL A   1      41.666  32.037  37.273  1.00  0.00     0.029 A 
ATOM     61  N   UNL A   1      41.369  31.355  35.175  1.00  0.00    -0.354 N 
ATOM     62  N   UNL A   1      41.838  29.568  32.828  1.00  0.00    -0.248 NA
ATOM     63  C   UNL A   1      42.866  27.686  31.895  1.00  0.00     0.031 C 
ATOM     64  C   UNL A   1      42.451  30.898  37.054  1.00  0.00     0.029 A 
ATOM     65  C   UNL A   1      42.253  30.464  35.751  1.00  0.00     0.049 A 
ATOM     66  H   UNL A   1      41.041  31.305  34.248  1.00  0.00     0.167 HD
ATOM     67  C   UNL A   1      42.616  28.952  33.799  1.00  0.00     0.074 A 
ATOM     68  C   UNL A   1      43.203  27.781  33.175  1.00  0.00     0.031 C 
ATOM     69  C   UNL A   1      42.825  29.316  35.090  1.00  0.00     0.037 A 
BRANCH  56  70
ATOM     70  C   UNL A   1      39.866  34.474  36.850  1.00  0.00     0.058 A 
ATOM     71  C   UNL A   1      39.013  34.202  37.934  1.00  0.00     0.135 A 
ATOM     72  C   UNL A   1      40.509  35.721  36.826  1.00  0.00     0.135 A 
ATOM     73  F   UNL A   1      38.361  33.031  38.005  1.00  0.00    -0.206 F 
ATOM     74  C   UNL A   1      38.794  35.132  38.944  1.00  0.00     0.059 A 
ATOM     75  C   UNL A   1      40.325  36.658  37.842  1.00  0.00     0.059 A 
ATOM     76  F   UNL A   1      41.330  36.039  35.812  1.00  0.00    -0.206 F 
ATOM     77  C   UNL A   1      39.459  36.355  38.894  1.00  0.00     0.060 A 
BRANCH  77  78
ATOM     78  S   UNL A   1      39.190  37.530  40.237  1.00  0.00     0.124 S 
ATOM     79  O   UNL A   1      40.549  38.002  40.488  1.00  0.00    -0.237 OA
ATOM     80  O   UNL A   1      38.286  38.498  39.625  1.00  0.00    -0.237 OA
ATOM     81  O   UNL A   1      38.606  36.711  41.294  1.00  0.00    -0.744 OA
ENDBRANCH  77  78
ENDBRANCH  56  70
BRANCH  57  82
ATOM     82  C   UNL A   1      41.514  28.059  29.288  1.00  0.00     0.058 A 
ATOM     83  C   UNL A   1      42.615  28.213  28.433  1.00  0.00     0.135 A 
ATOM     84  C   UNL A   1      40.690  26.940  29.101  1.00  0.00     0.135 A 
ATOM     85  F   UNL A   1      43.439  29.261  28.585  1.00  0.00    -0.206 F 
ATOM     86  C   UNL A   1      42.887  27.299  27.423  1.00  0.00     0.059 A 
ATOM     87  C   UNL A   1      40.950  26.001  28.105  1.00  0.00     0.059 A 
ATOM     88  F   UNL A   1      39.643  26.732  29.914  1.00  0.00    -0.206 F 
ATOM     89  C   UNL A   1      42.052  26.191  27.270  1.00  0.00     0.060 A 
BRANCH  89  90
ATOM     90  S   UNL A   1      42.458  24.979  25.993  1.00  0.00     0.124 S 
ATOM     91  O   UNL A   1      41.536  23.895  26.310  1.00  0.00    -0.237 OA
ATOM     92  O   UNL A   1      42.175  25.721  24.769  1.00  0.00    -0.237 OA
ATOM     93  O   UNL A   1      43.871  24.698  26.235  1.00  0.00    -0.744 OA
ENDBRANCH  89  90
ENDBRANCH  57  82
BRANCH  69  94
ATOM     94  C   UNL A   1      43.735  28.443  35.903  1.00  0.00     0.058 A 
ATOM     95  C   UNL A   1      43.228  27.377  36.662  1.00  0.00     0.135 A 
ATOM     96  C   UNL A   1      45.125  28.628  35.864  1.00  0.00     0.135 A 
ATOM     97  F   UNL A   1      41.905  27.166  36.732  1.00  0.00    -0.206 F 
ATOM     98  C   UNL A   1      44.072  26.530  37.367  1.00  0.00     0.059 A 
ATOM     99  C   UNL A   1      45.989  27.778  36.543  1.00  0.00     0.059 A 
ATOM    100  F   UNL A   1      45.655  29.629  35.143  1.00  0.00    -0.206 F 
ATOM    101  C   UNL A   1      45.452  26.736  37.298  1.00  0.00     0.060 A 
BRANCH 101 102
ATOM    102  S   UNL A   1      46.535  25.595  38.182  1.00  0.00     0.124 S 
ATOM    103  O   UNL A   1      45.589  24.915  39.061  1.00  0.00    -0.237 OA
ATOM    104  O   UNL A   1      47.087  24.787  37.099  1.00  0.00    -0.237 OA
ATOM    105  O   UNL A   1      47.488  26.478  38.847  1.00  0.00    -0.744 OA
ENDBRANCH 101 102
ENDBRANCH  69  94
ENDBRANCH  43  44
ENDBRANCH  36  38
ENDBRANCH  35  36
ENDBRANCH  34  35
ENDBRANCH  33  34
ENDBRANCH  32  33
ENDBRANCH  31  32
ENDBRANCH   1  31
TORSDOF 24
ENDMDL
MODEL 3
REMARK VINA RESULT:     -10.1      1.087      2.091
REMARK SMILES Nn1c(S[C@@H](C(=O)OCCOCCOCCOC(=O)c2ccc(-c3c4nc(c(-c5c(F)cc(S(=O)(=O)[O-])cc5F)c5ccc([nH]5)c(-c5c(F)cc(S(=O)(=O)[O-])cc5F)c5nc(c(-c6c(F)cc(S(=O)(=O)[O-])cc6F)c6ccc3[nH]6)C=C5)C=C4)cc2)c2ccccc2)nc2ccc(Br)cc2c1=O
REMARK SMILES IDX 12 1 11 2 10 3 9 4 8 5 6 6 7 7 5 8 4 9 3 10 2 11 100 12
REMARK SMILES IDX 92 13 99 14 101 15 93 16 98 17 94 18 96 19 95 20 97 21 1 22
REMARK SMILES IDX 86 25 87 26 91 27 88 28 90 29 89 30 13 31 14 32 15 33 16 34
REMARK SMILES IDX 17 35 18 36 19 37 20 38 21 39 85 40 22 41 84 42 23 43 24 44
REMARK SMILES IDX 25 45 78 46 26 47 83 48 77 49 79 50 27 51 82 52 76 53 75 54
REMARK SMILES IDX 28 56 62 57 41 58 61 59 42 60 45 61 60 62 80 63 43 64 44 65
REMARK SMILES IDX 59 67 81 68 46 69 29 70 30 71 39 72 31 73 32 74 38 75 40 76
REMARK SMILES IDX 33 77 34 78 35 79 36 80 37 81 63 82 64 83 73 84 65 85 66 86
REMARK SMILES IDX 72 87 74 88 67 89 68 90 69 91 70 92 71 93 47 94 48 95 57 96
REMARK SMILES IDX 49 97 50 98 56 99 58 100 51 101 52 102 53 103 54 104 55 105
REMARK H PARENT 1 23 1 24 79 55 45 66
REMARK Flexibility Score: inf
ROOT
ATOM      1  C   UNL A   1      34.028  31.065  28.361  1.00  0.00     0.188 C 
ENDROOT
BRANCH   1   2
ATOM      2  O   UNL A   1      34.353  30.607  27.051  1.00  0.00    -0.376 OA
BRANCH   2   3
ATOM      3  C   UNL A   1      34.786  29.254  26.988  1.00  0.00     0.202 C 
BRANCH   3   4
ATOM      4  C   UNL A   1      34.042  28.378  25.967  1.00  0.00     0.261 C 
BRANCH   4   5
ATOM      5  O   UNL A   1      32.588  28.496  25.958  1.00  0.00    -0.462 OA
BRANCH   5   6
ATOM      6  C   UNL A   1      31.941  27.294  25.842  1.00  0.00     0.324 C 
ATOM      7  O   UNL A   1      31.721  26.584  26.827  1.00  0.00    -0.251 OA
BRANCH   6   8
ATOM      8  C   UNL A   1      31.528  26.824  24.423  1.00  0.00     0.194 C 
BRANCH   8   9
ATOM      9  S   UNL A   1      32.805  25.894  23.525  1.00  0.00    -0.066 SA
BRANCH   9  10
ATOM     10  C   UNL A   1      32.782  24.159  23.781  1.00  0.00     0.191 A 
ATOM     11  N   UNL A   1      31.732  23.360  23.367  1.00  0.00    -0.202 N 
ATOM     12  C   UNL A   1      32.032  22.049  23.087  1.00  0.00     0.280 A 
ATOM     13  N   UNL A   1      33.881  23.640  24.274  1.00  0.00    -0.222 NA
ATOM     14  C   UNL A   1      32.994  21.394  23.921  1.00  0.00     0.069 A 
ATOM     15  O   UNL A   1      31.667  21.439  22.091  1.00  0.00    -0.267 OA
ATOM     16  C   UNL A   1      33.979  22.230  24.413  1.00  0.00     0.079 A 
ATOM     17  C   UNL A   1      32.991  19.997  24.015  1.00  0.00     0.031 A 
ATOM     18  C   UNL A   1      35.094  21.588  24.950  1.00  0.00     0.030 A 
ATOM     19  C   UNL A   1      34.092  19.388  24.573  1.00  0.00     0.018 A 
ATOM     20  C   UNL A   1      35.157  20.175  25.017  1.00  0.00     0.018 A 
ATOM     21  Br  UNL A   1      34.171  17.504  24.650  1.00  0.00    -0.051 Br
BRANCH  11  22
ATOM     22  N   UNL A   1      30.499  23.833  22.880  1.00  0.00    -0.334 N 
ATOM     23  H   UNL A   1      30.148  24.700  23.187  1.00  0.00     0.178 HD
ATOM     24  H   UNL A   1      29.987  23.297  22.232  1.00  0.00     0.178 HD
ENDBRANCH  11  22
ENDBRANCH   9  10
ENDBRANCH   8   9
BRANCH   8  25
ATOM     25  C   UNL A   1      30.488  27.689  23.686  1.00  0.00    -0.023 A 
ATOM     26  C   UNL A   1      30.860  28.789  22.891  1.00  0.00     0.005 A 
ATOM     27  C   UNL A   1      29.110  27.382  23.739  1.00  0.00     0.005 A 
ATOM     28  C   UNL A   1      29.896  29.611  22.291  1.00  0.00     0.000 A 
ATOM     29  C   UNL A   1      28.150  28.186  23.115  1.00  0.00     0.000 A 
ATOM     30  C   UNL A   1      28.542  29.318  22.414  1.00  0.00     0.000 A 
ENDBRANCH   8  25
ENDBRANCH   6   8
ENDBRANCH   5   6
ENDBRANCH   4   5
ENDBRANCH   3   4
ENDBRANCH   2   3
ENDBRANCH   1   2
BRANCH   1  31
ATOM     31  C   UNL A   1      34.526  32.469  28.695  1.00  0.00     0.188 C 
BRANCH  31  32
ATOM     32  O   UNL A   1      34.366  32.716  30.094  1.00  0.00    -0.376 OA
BRANCH  32  33
ATOM     33  C   UNL A   1      35.415  33.528  30.606  1.00  0.00     0.202 C 
BRANCH  33  34
ATOM     34  C   UNL A   1      36.695  32.744  30.937  1.00  0.00     0.261 C 
BRANCH  34  35
ATOM     35  O   UNL A   1      36.578  31.308  30.841  1.00  0.00    -0.460 OA
BRANCH  35  36
ATOM     36  C   UNL A   1      37.399  30.635  31.696  1.00  0.00     0.338 C 
ATOM     37  O   UNL A   1      37.105  30.232  32.807  1.00  0.00    -0.246 OA
BRANCH  36  38
ATOM     38  C   UNL A   1      38.782  30.506  31.170  1.00  0.00     0.060 A 
ATOM     39  C   UNL A   1      39.674  29.655  31.819  1.00  0.00     0.016 A 
ATOM     40  C   UNL A   1      39.145  31.035  29.932  1.00  0.00     0.016 A 
ATOM     41  C   UNL A   1      40.909  29.355  31.225  1.00  0.00     0.010 A 
ATOM     42  C   UNL A   1      40.360  30.756  29.336  1.00  0.00     0.010 A 
ATOM     43  C   UNL A   1      41.245  29.902  29.977  1.00  0.00    -0.014 A 
BRANCH  43  44
ATOM     44  C   UNL A   1      42.447  29.511  29.229  1.00  0.00     0.031 A 
ATOM     45  C   UNL A   1      43.487  30.527  28.891  1.00  0.00     0.074 A 
ATOM     46  C   UNL A   1      42.490  28.277  28.695  1.00  0.00     0.049 A 
ATOM     47  N   UNL A   1      44.691  30.336  28.428  1.00  0.00    -0.248 NA
ATOM     48  C   UNL A   1      43.117  31.944  29.052  1.00  0.00     0.031 C 
ATOM     49  C   UNL A   1      41.404  27.293  28.750  1.00  0.00     0.029 A 
ATOM     50  N   UNL A   1      43.474  27.650  27.982  1.00  0.00    -0.354 N 
ATOM     51  C   UNL A   1      45.252  31.599  28.317  1.00  0.00     0.074 A 
ATOM     52  C   UNL A   1      44.218  32.557  28.641  1.00  0.00     0.031 C 
ATOM     53  C   UNL A   1      41.795  26.174  28.121  1.00  0.00     0.029 A 
ATOM     54  C   UNL A   1      43.172  26.346  27.671  1.00  0.00     0.049 A 
ATOM     55  H   UNL A   1      44.315  28.088  27.717  1.00  0.00     0.167 HD
ATOM     56  C   UNL A   1      46.537  31.907  28.031  1.00  0.00     0.037 A 
ATOM     57  C   UNL A   1      43.957  25.382  27.158  1.00  0.00     0.037 A 
ATOM     58  C   UNL A   1      47.513  30.908  27.682  1.00  0.00     0.049 A 
ATOM     59  C   UNL A   1      45.409  25.703  26.941  1.00  0.00     0.074 A 
ATOM     60  C   UNL A   1      48.873  31.051  27.480  1.00  0.00     0.029 A 
ATOM     61  N   UNL A   1      47.214  29.568  27.465  1.00  0.00    -0.354 N 
ATOM     62  N   UNL A   1      46.023  26.857  27.074  1.00  0.00    -0.248 NA
ATOM     63  C   UNL A   1      46.286  24.590  26.560  1.00  0.00     0.031 C 
ATOM     64  C   UNL A   1      49.388  29.803  27.108  1.00  0.00     0.029 A 
ATOM     65  C   UNL A   1      48.356  28.875  27.114  1.00  0.00     0.049 A 
ATOM     66  H   UNL A   1      46.317  29.171  27.550  1.00  0.00     0.167 HD
ATOM     67  C   UNL A   1      47.366  26.604  26.822  1.00  0.00     0.074 A 
ATOM     68  C   UNL A   1      47.472  25.185  26.540  1.00  0.00     0.031 C 
ATOM     69  C   UNL A   1      48.417  27.463  26.828  1.00  0.00     0.037 A 
BRANCH  56  70
ATOM     70  C   UNL A   1      46.964  33.341  28.167  1.00  0.00     0.058 A 
ATOM     71  C   UNL A   1      46.836  34.233  27.088  1.00  0.00     0.135 A 
ATOM     72  C   UNL A   1      47.441  33.856  29.382  1.00  0.00     0.135 A 
ATOM     73  F   UNL A   1      46.395  33.796  25.897  1.00  0.00    -0.206 F 
ATOM     74  C   UNL A   1      47.179  35.576  27.203  1.00  0.00     0.059 A 
ATOM     75  C   UNL A   1      47.766  35.204  29.528  1.00  0.00     0.059 A 
ATOM     76  F   UNL A   1      47.591  33.050  30.445  1.00  0.00    -0.206 F 
ATOM     77  C   UNL A   1      47.637  36.054  28.429  1.00  0.00     0.060 A 
BRANCH  77  78
ATOM     78  S   UNL A   1      48.039  37.808  28.565  1.00  0.00     0.124 S 
ATOM     79  O   UNL A   1      46.713  38.416  28.512  1.00  0.00    -0.237 OA
ATOM     80  O   UNL A   1      48.713  37.872  29.858  1.00  0.00    -0.237 OA
ATOM     81  O   UNL A   1      48.889  38.054  27.405  1.00  0.00    -0.744 OA
ENDBRANCH  77  78
ENDBRANCH  56  70
BRANCH  57  82
ATOM     82  C   UNL A   1      43.419  24.007  27.012  1.00  0.00     0.058 A 
ATOM     83  C   UNL A   1      43.255  23.187  28.138  1.00  0.00     0.135 A 
ATOM     84  C   UNL A   1      42.975  23.517  25.775  1.00  0.00     0.135 A 
ATOM     85  F   UNL A   1      43.651  23.620  29.344  1.00  0.00    -0.206 F 
ATOM     86  C   UNL A   1      42.682  21.925  28.044  1.00  0.00     0.059 A 
ATOM     87  C   UNL A   1      42.384  22.261  25.657  1.00  0.00     0.059 A 
ATOM     88  F   UNL A   1      43.080  24.277  24.674  1.00  0.00    -0.206 F 
ATOM     89  C   UNL A   1      42.243  21.472  26.799  1.00  0.00     0.060 A 
BRANCH  89  90
ATOM     90  S   UNL A   1      41.442  19.854  26.708  1.00  0.00     0.124 S 
ATOM     91  O   UNL A   1      40.035  20.214  26.838  1.00  0.00    -0.237 OA
ATOM     92  O   UNL A   1      41.862  19.382  25.393  1.00  0.00    -0.237 OA
ATOM     93  O   UNL A   1      42.016  19.131  27.839  1.00  0.00    -0.744 OA
ENDBRANCH  89  90
ENDBRANCH  57  82
BRANCH  69  94
ATOM     94  C   UNL A   1      49.765  26.889  26.505  1.00  0.00     0.058 A 
ATOM     95  C   UNL A   1      50.230  26.832  25.183  1.00  0.00     0.135 A 
ATOM     96  C   UNL A   1      50.625  26.465  27.530  1.00  0.00     0.135 A 
ATOM     97  F   UNL A   1      49.439  27.223  24.171  1.00  0.00    -0.206 F 
ATOM     98  C   UNL A   1      51.500  26.358  24.885  1.00  0.00     0.059 A 
ATOM     99  C   UNL A   1      51.909  26.010  27.257  1.00  0.00     0.059 A 
ATOM    100  F   UNL A   1      50.226  26.511  28.811  1.00  0.00    -0.206 F 
ATOM    101  C   UNL A   1      52.335  25.953  25.930  1.00  0.00     0.060 A 
BRANCH 101 102
ATOM    102  S   UNL A   1      53.999  25.387  25.529  1.00  0.00     0.124 S 
ATOM    103  O   UNL A   1      53.733  24.435  24.455  1.00  0.00    -0.237 OA
ATOM    104  O   UNL A   1      54.662  26.625  25.128  1.00  0.00    -0.237 OA
ATOM    105  O   UNL A   1      54.473  24.807  26.781  1.00  0.00    -0.744 OA
ENDBRANCH 101 102
ENDBRANCH  69  94
ENDBRANCH  43  44
ENDBRANCH  36  38
ENDBRANCH  35  36
ENDBRANCH  34  35
ENDBRANCH  33  34
ENDBRANCH  32  33
ENDBRANCH  31  32
ENDBRANCH   1  31
TORSDOF 24
ENDMDL
