MODEL 1
REMARK VINA RESULT:     -11.1      0.000      0.000
REMARK SMILES COc1ccc(/C=C2/C(=O)N(c3ccccc3)C(=O)N=C2OCCOCCOCCOC(=O)c2ccc(-c3c4nc(c(-c5c(F)cc(S(=O)(=O)[O-])cc5F)c5ccc([nH]5)c(-c5c(F)cc(S(=O)(=O)[O-])cc5F)c5nc(c(-c6c(F)cc(S(=O)(=O)[O-])cc6F)c6ccc3[nH]6)C=C5)C=C4)cc2)cc1C(=O)[O-]
REMARK SMILES IDX 27 1 26 2 25 3 24 4 23 5 22 6 21 7 7 8 8 9 9 10 10 11 11 12
REMARK SMILES IDX 20 13 18 14 19 15 6 16 3 17 4 18 101 19 5 20 100 21 2 22
REMARK SMILES IDX 1 23 102 24 103 25 104 26 12 27 13 28 17 29 14 30 16 31
REMARK SMILES IDX 15 32 28 33 29 34 30 35 31 36 32 37 33 38 34 39 35 40 99 41
REMARK SMILES IDX 36 42 98 43 37 44 38 45 39 46 92 47 40 48 97 49 91 50 93 51
REMARK SMILES IDX 41 52 96 53 90 54 89 55 42 57 76 58 55 59 75 60 56 61 59 62
REMARK SMILES IDX 74 63 94 64 57 65 58 66 73 68 95 69 60 70 43 71 44 72 53 73
REMARK SMILES IDX 45 74 46 75 52 76 54 77 47 78 48 79 49 80 50 81 51 82 77 83
REMARK SMILES IDX 78 84 87 85 79 86 80 87 86 88 88 89 81 90 82 91 83 92 84 93
REMARK SMILES IDX 85 94 61 95 62 96 71 97 63 98 64 99 70 100 72 101 65 102
REMARK SMILES IDX 66 103 67 104 68 105 69 106
REMARK H PARENT 93 56 59 67
REMARK Flexibility Score: inf
ROOT
ATOM      1  C   UNL A   1      33.617  30.933  27.285  1.00  0.00     0.188 C 
ENDROOT
BRANCH   1   2
ATOM      2  C   UNL A   1      32.340  30.282  26.718  1.00  0.00     0.188 C 
BRANCH   2   3
ATOM      3  O   UNL A   1      31.731  29.180  27.357  1.00  0.00    -0.376 OA
BRANCH   3   4
ATOM      4  C   UNL A   1      31.380  28.013  26.634  1.00  0.00     0.201 C 
BRANCH   4   5
ATOM      5  C   UNL A   1      32.298  26.795  26.593  1.00  0.00     0.260 C 
BRANCH   5   6
ATOM      6  O   UNL A   1      31.614  25.594  26.190  1.00  0.00    -0.475 OA
BRANCH   6   7
ATOM      7  C   UNL A   1      32.332  24.535  25.783  1.00  0.00     0.231 C 
ATOM      8  C   UNL A   1      31.608  24.915  23.342  1.00  0.00     0.027 C 
ATOM      9  C   UNL A   1      32.149  24.193  24.362  1.00  0.00     0.103 C 
ATOM     10  C   UNL A   1      32.594  22.781  24.043  1.00  0.00     0.272 C 
ATOM     11  O   UNL A   1      32.449  22.321  22.909  1.00  0.00    -0.268 OA
ATOM     12  N   UNL A   1      33.108  22.059  25.118  1.00  0.00    -0.226 N 
ATOM     13  N   UNL A   1      32.961  23.855  26.656  1.00  0.00    -0.156 NA
ATOM     14  C   UNL A   1      33.374  22.583  26.389  1.00  0.00     0.358 C 
ATOM     15  O   UNL A   1      33.888  21.938  27.283  1.00  0.00    -0.245 OA
BRANCH   8  16
ATOM     16  C   UNL A   1      31.000  26.275  23.153  1.00  0.00    -0.024 A 
ATOM     17  C   UNL A   1      29.685  28.810  22.866  1.00  0.00     0.127 A 
ATOM     18  C   UNL A   1      30.995  28.625  22.442  1.00  0.00     0.048 A 
ATOM     19  C   UNL A   1      28.986  27.718  23.386  1.00  0.00     0.040 A 
ATOM     20  C   UNL A   1      31.605  27.367  22.530  1.00  0.00     0.012 A 
ATOM     21  C   UNL A   1      29.666  26.483  23.571  1.00  0.00     0.022 A 
BRANCH  17  22
ATOM     22  O   UNL A   1      29.123  30.015  22.546  1.00  0.00    -0.496 OA
ATOM     23  C   UNL A   1      29.295  30.991  23.574  1.00  0.00     0.278 C 
ENDBRANCH  17  22
BRANCH  19  24
ATOM     24  C   UNL A   1      27.523  27.719  23.649  1.00  0.00     0.075 C 
ATOM     25  O   UNL A   1      26.788  28.681  23.500  1.00  0.00    -0.545 OA
ATOM     26  O   UNL A   1      27.024  26.566  24.121  1.00  0.00    -0.545 OA
ENDBRANCH  19  24
ENDBRANCH   8  16
BRANCH  12  27
ATOM     27  C   UNL A   1      33.400  20.675  24.949  1.00  0.00     0.054 A 
ATOM     28  C   UNL A   1      34.733  20.243  24.933  1.00  0.00     0.027 A 
ATOM     29  C   UNL A   1      32.375  19.771  24.663  1.00  0.00     0.027 A 
ATOM     30  C   UNL A   1      35.033  18.909  24.653  1.00  0.00     0.002 A 
ATOM     31  C   UNL A   1      32.687  18.450  24.335  1.00  0.00     0.002 A 
ATOM     32  C   UNL A   1      34.014  18.019  24.330  1.00  0.00     0.000 A 
ENDBRANCH  12  27
ENDBRANCH   6   7
ENDBRANCH   5   6
ENDBRANCH   4   5
ENDBRANCH   3   4
ENDBRANCH   2   3
ENDBRANCH   1   2
BRANCH   1  33
ATOM     33  O   UNL A   1      33.554  32.172  27.953  1.00  0.00    -0.376 OA
BRANCH  33  34
ATOM     34  C   UNL A   1      34.572  32.527  28.873  1.00  0.00     0.202 C 
BRANCH  34  35
ATOM     35  C   UNL A   1      35.871  31.723  29.056  1.00  0.00     0.261 C 
BRANCH  35  36
ATOM     36  O   UNL A   1      36.473  31.748  30.357  1.00  0.00    -0.460 OA
BRANCH  36  37
ATOM     37  C   UNL A   1      36.739  30.532  30.901  1.00  0.00     0.338 C 
ATOM     38  O   UNL A   1      35.996  29.875  31.611  1.00  0.00    -0.246 OA
BRANCH  37  39
ATOM     39  C   UNL A   1      37.998  29.989  30.338  1.00  0.00     0.060 A 
ATOM     40  C   UNL A   1      38.903  29.378  31.219  1.00  0.00     0.016 A 
ATOM     41  C   UNL A   1      38.299  30.083  28.977  1.00  0.00     0.016 A 
ATOM     42  C   UNL A   1      40.123  28.894  30.744  1.00  0.00     0.010 A 
ATOM     43  C   UNL A   1      39.535  29.614  28.507  1.00  0.00     0.010 A 
ATOM     44  C   UNL A   1      40.465  29.043  29.391  1.00  0.00    -0.014 A 
BRANCH  44  45
ATOM     45  C   UNL A   1      41.868  28.780  28.972  1.00  0.00     0.031 A 
ATOM     46  C   UNL A   1      42.198  27.431  28.394  1.00  0.00     0.074 A 
ATOM     47  C   UNL A   1      42.823  29.722  29.055  1.00  0.00     0.049 A 
ATOM     48  N   UNL A   1      43.317  27.000  27.870  1.00  0.00    -0.248 NA
ATOM     49  C   UNL A   1      41.123  26.429  28.435  1.00  0.00     0.031 C 
ATOM     50  C   UNL A   1      42.644  31.055  29.621  1.00  0.00     0.029 A 
ATOM     51  N   UNL A   1      44.127  29.713  28.618  1.00  0.00    -0.354 N 
ATOM     52  C   UNL A   1      43.092  25.665  27.550  1.00  0.00     0.074 A 
ATOM     53  C   UNL A   1      41.731  25.363  27.941  1.00  0.00     0.031 C 
ATOM     54  C   UNL A   1      43.772  31.761  29.433  1.00  0.00     0.029 A 
ATOM     55  C   UNL A   1      44.767  30.922  28.764  1.00  0.00     0.049 A 
ATOM     56  H   UNL A   1      44.561  28.916  28.235  1.00  0.00     0.167 HD
ATOM     57  C   UNL A   1      43.947  24.766  27.002  1.00  0.00     0.037 A 
ATOM     58  C   UNL A   1      46.003  31.310  28.384  1.00  0.00     0.037 A 
ATOM     59  C   UNL A   1      45.311  25.060  26.645  1.00  0.00     0.049 A 
ATOM     60  C   UNL A   1      46.921  30.313  27.715  1.00  0.00     0.074 A 
ATOM     61  C   UNL A   1      46.262  24.211  26.106  1.00  0.00     0.029 A 
ATOM     62  N   UNL A   1      45.926  26.294  26.805  1.00  0.00    -0.354 N 
ATOM     63  N   UNL A   1      46.692  29.060  27.395  1.00  0.00    -0.248 NA
ATOM     64  C   UNL A   1      48.272  30.778  27.370  1.00  0.00     0.031 C 
ATOM     65  C   UNL A   1      47.466  24.916  25.993  1.00  0.00     0.029 A 
ATOM     66  C   UNL A   1      47.249  26.224  26.394  1.00  0.00     0.049 A 
ATOM     67  H   UNL A   1      45.488  27.102  27.159  1.00  0.00     0.167 HD
ATOM     68  C   UNL A   1      47.872  28.585  26.829  1.00  0.00     0.074 A 
ATOM     69  C   UNL A   1      48.795  29.702  26.799  1.00  0.00     0.031 C 
ATOM     70  C   UNL A   1      48.174  27.335  26.391  1.00  0.00     0.037 A 
BRANCH  57  71
ATOM     71  C   UNL A   1      43.436  23.359  26.835  1.00  0.00     0.058 A 
ATOM     72  C   UNL A   1      43.261  22.494  27.927  1.00  0.00     0.135 A 
ATOM     73  C   UNL A   1      43.157  22.857  25.554  1.00  0.00     0.135 A 
ATOM     74  F   UNL A   1      43.531  22.913  29.174  1.00  0.00    -0.206 F 
ATOM     75  C   UNL A   1      42.883  21.166  27.749  1.00  0.00     0.059 A 
ATOM     76  C   UNL A   1      42.744  21.543  25.355  1.00  0.00     0.059 A 
ATOM     77  F   UNL A   1      43.306  23.639  24.473  1.00  0.00    -0.206 F 
ATOM     78  C   UNL A   1      42.637  20.698  26.458  1.00  0.00     0.060 A 
BRANCH  78  79
ATOM     79  S   UNL A   1      42.197  18.961  26.236  1.00  0.00     0.124 S 
ATOM     80  O   UNL A   1      43.185  18.535  25.251  1.00  0.00    -0.237 OA
ATOM     81  O   UNL A   1      42.370  18.421  27.580  1.00  0.00    -0.237 OA
ATOM     82  O   UNL A   1      40.819  19.017  25.759  1.00  0.00    -0.744 OA
ENDBRANCH  78  79
ENDBRANCH  57  71
BRANCH  58  83
ATOM     83  C   UNL A   1      46.445  32.718  28.610  1.00  0.00     0.058 A 
ATOM     84  C   UNL A   1      46.041  33.753  27.752  1.00  0.00     0.135 A 
ATOM     85  C   UNL A   1      47.264  33.061  29.697  1.00  0.00     0.135 A 
ATOM     86  F   UNL A   1      45.272  33.480  26.685  1.00  0.00    -0.206 F 
ATOM     87  C   UNL A   1      46.433  35.073  27.960  1.00  0.00     0.059 A 
ATOM     88  C   UNL A   1      47.639  34.378  29.947  1.00  0.00     0.059 A 
ATOM     89  F   UNL A   1      47.682  32.112  30.549  1.00  0.00    -0.206 F 
ATOM     90  C   UNL A   1      47.224  35.378  29.068  1.00  0.00     0.060 A 
BRANCH  90  91
ATOM     91  S   UNL A   1      47.660  37.103  29.381  1.00  0.00     0.124 S 
ATOM     92  O   UNL A   1      46.448  37.794  28.957  1.00  0.00    -0.237 OA
ATOM     93  O   UNL A   1      47.920  37.101  30.818  1.00  0.00    -0.237 OA
ATOM     94  O   UNL A   1      48.833  37.313  28.539  1.00  0.00    -0.744 OA
ENDBRANCH  90  91
ENDBRANCH  58  83
BRANCH  70  95
ATOM     95  C   UNL A   1      49.563  27.098  25.850  1.00  0.00     0.058 A 
ATOM     96  C   UNL A   1      50.609  26.637  26.669  1.00  0.00     0.135 A 
ATOM     97  C   UNL A   1      49.847  27.300  24.489  1.00  0.00     0.135 A 
ATOM     98  F   UNL A   1      50.397  26.420  27.977  1.00  0.00    -0.206 F 
ATOM     99  C   UNL A   1      51.892  26.432  26.168  1.00  0.00     0.059 A 
ATOM    100  C   UNL A   1      51.115  27.068  23.961  1.00  0.00     0.059 A 
ATOM    101  F   UNL A   1      48.885  27.720  23.652  1.00  0.00    -0.206 F 
ATOM    102  C   UNL A   1      52.136  26.655  24.813  1.00  0.00     0.060 A 
BRANCH 102 103
ATOM    103  S   UNL A   1      53.807  26.391  24.178  1.00  0.00     0.124 S 
ATOM    104  O   UNL A   1      54.372  27.733  24.272  1.00  0.00    -0.237 OA
ATOM    105  O   UNL A   1      54.346  25.409  25.114  1.00  0.00    -0.237 OA
ATOM    106  O   UNL A   1      53.582  25.898  22.823  1.00  0.00    -0.744 OA
ENDBRANCH 102 103
ENDBRANCH  70  95
ENDBRANCH  44  45
ENDBRANCH  37  39
ENDBRANCH  36  37
ENDBRANCH  35  36
ENDBRANCH  34  35
ENDBRANCH  33  34
ENDBRANCH   1  33
TORSDOF 23
ENDMDL
MODEL 2
REMARK VINA RESULT:     -10.9      1.380      2.510
REMARK SMILES COc1ccc(/C=C2/C(=O)N(c3ccccc3)C(=O)N=C2OCCOCCOCCOC(=O)c2ccc(-c3c4nc(c(-c5c(F)cc(S(=O)(=O)[O-])cc5F)c5ccc([nH]5)c(-c5c(F)cc(S(=O)(=O)[O-])cc5F)c5nc(c(-c6c(F)cc(S(=O)(=O)[O-])cc6F)c6ccc3[nH]6)C=C5)C=C4)cc2)cc1C(=O)[O-]
REMARK SMILES IDX 27 1 26 2 25 3 24 4 23 5 22 6 21 7 7 8 8 9 9 10 10 11 11 12
REMARK SMILES IDX 20 13 18 14 19 15 6 16 3 17 4 18 101 19 5 20 100 21 2 22
REMARK SMILES IDX 1 23 102 24 103 25 104 26 12 27 13 28 17 29 14 30 16 31
REMARK SMILES IDX 15 32 28 33 29 34 30 35 31 36 32 37 33 38 34 39 35 40 99 41
REMARK SMILES IDX 36 42 98 43 37 44 38 45 39 46 92 47 40 48 97 49 91 50 93 51
REMARK SMILES IDX 41 52 96 53 90 54 89 55 42 57 76 58 55 59 75 60 56 61 59 62
REMARK SMILES IDX 74 63 94 64 57 65 58 66 73 68 95 69 60 70 43 71 44 72 53 73
REMARK SMILES IDX 45 74 46 75 52 76 54 77 47 78 48 79 49 80 50 81 51 82 77 83
REMARK SMILES IDX 78 84 87 85 79 86 80 87 86 88 88 89 81 90 82 91 83 92 84 93
REMARK SMILES IDX 85 94 61 95 62 96 71 97 63 98 64 99 70 100 72 101 65 102
REMARK SMILES IDX 66 103 67 104 68 105 69 106
REMARK H PARENT 93 56 59 67
REMARK Flexibility Score: inf
ROOT
ATOM      1  C   UNL A   1      33.574  34.125  28.425  1.00  0.00     0.188 C 
ENDROOT
BRANCH   1   2
ATOM      2  C   UNL A   1      32.924  32.950  27.668  1.00  0.00     0.188 C 
BRANCH   2   3
ATOM      3  O   UNL A   1      33.569  31.698  27.562  1.00  0.00    -0.376 OA
BRANCH   3   4
ATOM      4  C   UNL A   1      32.844  30.522  27.249  1.00  0.00     0.201 C 
BRANCH   4   5
ATOM      5  C   UNL A   1      33.121  29.733  25.973  1.00  0.00     0.260 C 
BRANCH   5   6
ATOM      6  O   UNL A   1      32.018  28.891  25.588  1.00  0.00    -0.475 OA
BRANCH   6   7
ATOM      7  C   UNL A   1      32.269  27.693  25.037  1.00  0.00     0.231 C 
ATOM      8  C   UNL A   1      30.269  27.949  23.437  1.00  0.00     0.027 C 
ATOM      9  C   UNL A   1      31.252  27.250  24.068  1.00  0.00     0.103 C 
ATOM     10  C   UNL A   1      31.308  25.758  23.808  1.00  0.00     0.272 C 
ATOM     11  O   UNL A   1      30.483  25.222  23.066  1.00  0.00    -0.268 OA
ATOM     12  N   UNL A   1      32.303  25.068  24.498  1.00  0.00    -0.226 N 
ATOM     13  N   UNL A   1      33.238  27.004  25.493  1.00  0.00    -0.156 NA
ATOM     14  C   UNL A   1      33.311  25.662  25.267  1.00  0.00     0.358 C 
ATOM     15  O   UNL A   1      34.204  25.029  25.800  1.00  0.00    -0.245 OA
BRANCH   8  16
ATOM     16  C   UNL A   1      29.775  29.367  23.395  1.00  0.00    -0.024 A 
ATOM     17  C   UNL A   1      28.752  32.038  23.157  1.00  0.00     0.127 A 
ATOM     18  C   UNL A   1      29.514  31.653  24.253  1.00  0.00     0.048 A 
ATOM     19  C   UNL A   1      28.538  31.116  22.129  1.00  0.00     0.040 A 
ATOM     20  C   UNL A   1      30.059  30.364  24.328  1.00  0.00     0.012 A 
ATOM     21  C   UNL A   1      29.005  29.782  22.284  1.00  0.00     0.022 A 
BRANCH  17  22
ATOM     22  O   UNL A   1      28.446  33.369  23.087  1.00  0.00    -0.496 OA
ATOM     23  C   UNL A   1      29.531  34.204  23.493  1.00  0.00     0.278 C 
ENDBRANCH  17  22
BRANCH  19  24
ATOM     24  C   UNL A   1      27.955  31.468  20.807  1.00  0.00     0.075 C 
ATOM     25  O   UNL A   1      27.742  30.675  19.905  1.00  0.00    -0.545 OA
ATOM     26  O   UNL A   1      27.697  32.772  20.623  1.00  0.00    -0.545 OA
ENDBRANCH  19  24
ENDBRANCH   8  16
BRANCH  12  27
ATOM     27  C   UNL A   1      32.329  23.646  24.440  1.00  0.00     0.054 A 
ATOM     28  C   UNL A   1      31.732  22.898  25.464  1.00  0.00     0.027 A 
ATOM     29  C   UNL A   1      33.063  22.997  23.445  1.00  0.00     0.027 A 
ATOM     30  C   UNL A   1      31.854  21.507  25.476  1.00  0.00     0.002 A 
ATOM     31  C   UNL A   1      33.221  21.610  23.492  1.00  0.00     0.002 A 
ATOM     32  C   UNL A   1      32.617  20.866  24.506  1.00  0.00     0.000 A 
ENDBRANCH  12  27
ENDBRANCH   6   7
ENDBRANCH   5   6
ENDBRANCH   4   5
ENDBRANCH   3   4
ENDBRANCH   2   3
ENDBRANCH   1   2
BRANCH   1  33
ATOM     33  O   UNL A   1      33.498  34.203  29.830  1.00  0.00    -0.376 OA
BRANCH  33  34
ATOM     34  C   UNL A   1      34.633  33.876  30.614  1.00  0.00     0.202 C 
BRANCH  34  35
ATOM     35  C   UNL A   1      35.920  33.265  30.033  1.00  0.00     0.261 C 
BRANCH  35  36
ATOM     36  O   UNL A   1      36.855  32.708  30.968  1.00  0.00    -0.460 OA
BRANCH  36  37
ATOM     37  C   UNL A   1      36.809  31.358  31.106  1.00  0.00     0.338 C 
ATOM     38  O   UNL A   1      35.848  30.695  31.460  1.00  0.00    -0.246 OA
BRANCH  37  39
ATOM     39  C   UNL A   1      38.043  30.750  30.556  1.00  0.00     0.060 A 
ATOM     40  C   UNL A   1      39.031  30.330  31.459  1.00  0.00     0.016 A 
ATOM     41  C   UNL A   1      38.243  30.601  29.181  1.00  0.00     0.016 A 
ATOM     42  C   UNL A   1      40.230  29.795  30.988  1.00  0.00     0.010 A 
ATOM     43  C   UNL A   1      39.458  30.082  28.709  1.00  0.00     0.010 A 
ATOM     44  C   UNL A   1      40.469  29.702  29.608  1.00  0.00    -0.014 A 
BRANCH  44  45
ATOM     45  C   UNL A   1      41.847  29.399  29.136  1.00  0.00     0.031 A 
ATOM     46  C   UNL A   1      42.119  28.038  28.557  1.00  0.00     0.074 A 
ATOM     47  C   UNL A   1      42.829  30.317  29.174  1.00  0.00     0.049 A 
ATOM     48  N   UNL A   1      43.204  27.573  27.995  1.00  0.00    -0.248 NA
ATOM     49  C   UNL A   1      41.020  27.065  28.650  1.00  0.00     0.031 C 
ATOM     50  C   UNL A   1      42.707  31.658  29.734  1.00  0.00     0.029 A 
ATOM     51  N   UNL A   1      44.113  30.270  28.686  1.00  0.00    -0.354 N 
ATOM     52  C   UNL A   1      42.932  26.242  27.695  1.00  0.00     0.074 A 
ATOM     53  C   UNL A   1      41.580  25.980  28.141  1.00  0.00     0.031 C 
ATOM     54  C   UNL A   1      43.845  32.333  29.496  1.00  0.00     0.029 A 
ATOM     55  C   UNL A   1      44.791  31.462  28.796  1.00  0.00     0.049 A 
ATOM     56  H   UNL A   1      44.511  29.459  28.293  1.00  0.00     0.167 HD
ATOM     57  C   UNL A   1      43.741  25.317  27.122  1.00  0.00     0.037 A 
ATOM     58  C   UNL A   1      46.021  31.815  28.364  1.00  0.00     0.037 A 
ATOM     59  C   UNL A   1      45.097  25.571  26.709  1.00  0.00     0.049 A 
ATOM     60  C   UNL A   1      46.885  30.788  27.669  1.00  0.00     0.074 A 
ATOM     61  C   UNL A   1      46.004  24.694  26.140  1.00  0.00     0.029 A 
ATOM     62  N   UNL A   1      45.750  26.790  26.834  1.00  0.00    -0.354 N 
ATOM     63  N   UNL A   1      46.611  29.540  27.369  1.00  0.00    -0.248 NA
ATOM     64  C   UNL A   1      48.233  31.215  27.267  1.00  0.00     0.031 C 
ATOM     65  C   UNL A   1      47.220  25.366  25.974  1.00  0.00     0.029 A 
ATOM     66  C   UNL A   1      47.054  26.682  26.373  1.00  0.00     0.049 A 
ATOM     67  H   UNL A   1      45.347  27.612  27.198  1.00  0.00     0.167 HD
ATOM     68  C   UNL A   1      47.755  29.029  26.761  1.00  0.00     0.074 A 
ATOM     69  C   UNL A   1      48.705  30.120  26.686  1.00  0.00     0.031 C 
ATOM     70  C   UNL A   1      48.006  27.767  26.323  1.00  0.00     0.037 A 
BRANCH  57  71
ATOM     71  C   UNL A   1      43.187  23.922  26.988  1.00  0.00     0.058 A 
ATOM     72  C   UNL A   1      43.137  23.031  28.072  1.00  0.00     0.135 A 
ATOM     73  C   UNL A   1      42.738  23.459  25.740  1.00  0.00     0.135 A 
ATOM     74  F   UNL A   1      43.572  23.413  29.283  1.00  0.00    -0.206 F 
ATOM     75  C   UNL A   1      42.715  21.714  27.911  1.00  0.00     0.059 A 
ATOM     76  C   UNL A   1      42.278  22.157  25.565  1.00  0.00     0.059 A 
ATOM     77  F   UNL A   1      42.761  24.267  24.669  1.00  0.00    -0.206 F 
ATOM     78  C   UNL A   1      42.297  21.284  26.651  1.00  0.00     0.060 A 
BRANCH  78  79
ATOM     79  S   UNL A   1      41.801  19.561  26.445  1.00  0.00     0.124 S 
ATOM     80  O   UNL A   1      40.356  19.693  26.285  1.00  0.00    -0.237 OA
ATOM     81  O   UNL A   1      42.537  19.165  25.250  1.00  0.00    -0.237 OA
ATOM     82  O   UNL A   1      42.239  18.930  27.686  1.00  0.00    -0.744 OA
ENDBRANCH  78  79
ENDBRANCH  57  71
BRANCH  58  83
ATOM     83  C   UNL A   1      46.508  33.211  28.561  1.00  0.00     0.058 A 
ATOM     84  C   UNL A   1      47.153  33.596  29.747  1.00  0.00     0.135 A 
ATOM     85  C   UNL A   1      46.356  34.186  27.562  1.00  0.00     0.135 A 
ATOM     86  F   UNL A   1      47.309  32.711  30.745  1.00  0.00    -0.206 F 
ATOM     87  C   UNL A   1      47.626  34.892  29.937  1.00  0.00     0.059 A 
ATOM     88  C   UNL A   1      46.852  35.477  27.713  1.00  0.00     0.059 A 
ATOM     89  F   UNL A   1      45.745  33.875  26.407  1.00  0.00    -0.206 F 
ATOM     90  C   UNL A   1      47.480  35.824  28.909  1.00  0.00     0.060 A 
BRANCH  90  91
ATOM     91  S   UNL A   1      48.171  37.480  29.127  1.00  0.00     0.124 S 
ATOM     92  O   UNL A   1      48.853  37.683  27.854  1.00  0.00    -0.237 OA
ATOM     93  O   UNL A   1      46.975  38.289  29.344  1.00  0.00    -0.237 OA
ATOM     94  O   UNL A   1      49.039  37.332  30.291  1.00  0.00    -0.744 OA
ENDBRANCH  90  91
ENDBRANCH  58  83
BRANCH  70  95
ATOM     95  C   UNL A   1      49.366  27.490  25.730  1.00  0.00     0.058 A 
ATOM     96  C   UNL A   1      49.596  27.540  24.344  1.00  0.00     0.135 A 
ATOM     97  C   UNL A   1      50.465  27.205  26.559  1.00  0.00     0.135 A 
ATOM     98  F   UNL A   1      48.587  27.814  23.502  1.00  0.00    -0.206 F 
ATOM     99  C   UNL A   1      50.850  27.272  23.802  1.00  0.00     0.059 A 
ATOM    100  C   UNL A   1      51.734  26.966  26.040  1.00  0.00     0.059 A 
ATOM    101  F   UNL A   1      50.313  27.162  27.893  1.00  0.00    -0.206 F 
ATOM    102  C   UNL A   1      51.913  26.981  24.658  1.00  0.00     0.060 A 
BRANCH 102 103
ATOM    103  S   UNL A   1      53.532  26.628  23.941  1.00  0.00     0.124 S 
ATOM    104  O   UNL A   1      54.171  25.874  25.014  1.00  0.00    -0.237 OA
ATOM    105  O   UNL A   1      53.187  25.862  22.746  1.00  0.00    -0.237 OA
ATOM    106  O   UNL A   1      54.089  27.953  23.688  1.00  0.00    -0.744 OA
ENDBRANCH 102 103
ENDBRANCH  70  95
ENDBRANCH  44  45
ENDBRANCH  37  39
ENDBRANCH  36  37
ENDBRANCH  35  36
ENDBRANCH  34  35
ENDBRANCH  33  34
ENDBRANCH   1  33
TORSDOF 23
ENDMDL
MODEL 3
REMARK VINA RESULT:     -10.7      5.503      9.757
REMARK SMILES COc1ccc(/C=C2/C(=O)N(c3ccccc3)C(=O)N=C2OCCOCCOCCOC(=O)c2ccc(-c3c4nc(c(-c5c(F)cc(S(=O)(=O)[O-])cc5F)c5ccc([nH]5)c(-c5c(F)cc(S(=O)(=O)[O-])cc5F)c5nc(c(-c6c(F)cc(S(=O)(=O)[O-])cc6F)c6ccc3[nH]6)C=C5)C=C4)cc2)cc1C(=O)[O-]
REMARK SMILES IDX 27 1 26 2 25 3 24 4 23 5 22 6 21 7 7 8 8 9 9 10 10 11 11 12
REMARK SMILES IDX 20 13 18 14 19 15 6 16 3 17 4 18 101 19 5 20 100 21 2 22
REMARK SMILES IDX 1 23 102 24 103 25 104 26 12 27 13 28 17 29 14 30 16 31
REMARK SMILES IDX 15 32 28 33 29 34 30 35 31 36 32 37 33 38 34 39 35 40 99 41
REMARK SMILES IDX 36 42 98 43 37 44 38 45 39 46 92 47 40 48 97 49 91 50 93 51
REMARK SMILES IDX 41 52 96 53 90 54 89 55 42 57 76 58 55 59 75 60 56 61 59 62
REMARK SMILES IDX 74 63 94 64 57 65 58 66 73 68 95 69 60 70 43 71 44 72 53 73
REMARK SMILES IDX 45 74 46 75 52 76 54 77 47 78 48 79 49 80 50 81 51 82 77 83
REMARK SMILES IDX 78 84 87 85 79 86 80 87 86 88 88 89 81 90 82 91 83 92 84 93
REMARK SMILES IDX 85 94 61 95 62 96 71 97 63 98 64 99 70 100 72 101 65 102
REMARK SMILES IDX 66 103 67 104 68 105 69 106
REMARK H PARENT 93 56 59 67
REMARK Flexibility Score: inf
ROOT
ATOM      1  C   UNL A   1      32.526  29.571  26.569  1.00  0.00     0.188 C 
ENDROOT
BRANCH   1   2
ATOM      2  C   UNL A   1      32.370  28.137  27.111  1.00  0.00     0.188 C 
BRANCH   2   3
ATOM      3  O   UNL A   1      32.670  27.013  26.310  1.00  0.00    -0.376 OA
BRANCH   3   4
ATOM      4  C   UNL A   1      33.993  26.755  25.872  1.00  0.00     0.201 C 
BRANCH   4   5
ATOM      5  C   UNL A   1      34.466  25.338  25.559  1.00  0.00     0.260 C 
BRANCH   5   6
ATOM      6  O   UNL A   1      33.400  24.371  25.613  1.00  0.00    -0.475 OA
BRANCH   6   7
ATOM      7  C   UNL A   1      33.587  23.159  25.065  1.00  0.00     0.231 C 
ATOM      8  C   UNL A   1      31.695  23.576  23.370  1.00  0.00     0.027 C 
ATOM      9  C   UNL A   1      32.589  22.800  24.042  1.00  0.00     0.103 C 
ATOM     10  C   UNL A   1      32.545  21.310  23.773  1.00  0.00     0.272 C 
ATOM     11  O   UNL A   1      31.719  20.841  22.987  1.00  0.00    -0.268 OA
ATOM     12  N   UNL A   1      33.449  20.543  24.505  1.00  0.00    -0.226 N 
ATOM     13  N   UNL A   1      34.478  22.397  25.562  1.00  0.00    -0.156 NA
ATOM     14  C   UNL A   1      34.460  21.054  25.328  1.00  0.00     0.358 C 
ATOM     15  O   UNL A   1      35.275  20.353  25.899  1.00  0.00    -0.245 OA
BRANCH   8  16
ATOM     16  C   UNL A   1      31.313  25.027  23.316  1.00  0.00    -0.024 A 
ATOM     17  C   UNL A   1      30.747  27.835  23.149  1.00  0.00     0.127 A 
ATOM     18  C   UNL A   1      29.795  26.935  23.608  1.00  0.00     0.048 A 
ATOM     19  C   UNL A   1      32.020  27.361  22.823  1.00  0.00     0.040 A 
ATOM     20  C   UNL A   1      30.103  25.574  23.744  1.00  0.00     0.012 A 
ATOM     21  C   UNL A   1      32.270  25.961  22.860  1.00  0.00     0.022 A 
BRANCH  17  22
ATOM     22  O   UNL A   1      30.410  29.157  23.252  1.00  0.00    -0.496 OA
ATOM     23  C   UNL A   1      30.032  29.726  21.998  1.00  0.00     0.278 C 
ENDBRANCH  17  22
BRANCH  19  24
ATOM     24  C   UNL A   1      33.189  28.239  22.554  1.00  0.00     0.075 C 
ATOM     25  O   UNL A   1      33.441  29.270  23.156  1.00  0.00    -0.545 OA
ATOM     26  O   UNL A   1      33.977  27.850  21.539  1.00  0.00    -0.545 OA
ENDBRANCH  19  24
ENDBRANCH   8  16
BRANCH  12  27
ATOM     27  C   UNL A   1      33.370  19.123  24.437  1.00  0.00     0.054 A 
ATOM     28  C   UNL A   1      32.461  18.437  25.253  1.00  0.00     0.027 A 
ATOM     29  C   UNL A   1      34.286  18.406  23.664  1.00  0.00     0.027 A 
ATOM     30  C   UNL A   1      32.458  17.041  25.278  1.00  0.00     0.002 A 
ATOM     31  C   UNL A   1      34.309  17.010  23.732  1.00  0.00     0.002 A 
ATOM     32  C   UNL A   1      33.396  16.329  24.537  1.00  0.00     0.000 A 
ENDBRANCH  12  27
ENDBRANCH   6   7
ENDBRANCH   5   6
ENDBRANCH   4   5
ENDBRANCH   3   4
ENDBRANCH   2   3
ENDBRANCH   1   2
BRANCH   1  33
ATOM     33  O   UNL A   1      32.210  30.681  27.378  1.00  0.00    -0.376 OA
BRANCH  33  34
ATOM     34  C   UNL A   1      33.161  31.718  27.549  1.00  0.00     0.202 C 
BRANCH  34  35
ATOM     35  C   UNL A   1      32.787  33.208  27.635  1.00  0.00     0.261 C 
BRANCH  35  36
ATOM     36  O   UNL A   1      33.822  34.116  28.041  1.00  0.00    -0.460 OA
BRANCH  36  37
ATOM     37  C   UNL A   1      34.053  34.178  29.378  1.00  0.00     0.338 C 
ATOM     38  O   UNL A   1      33.289  34.601  30.229  1.00  0.00    -0.246 OA
BRANCH  37  39
ATOM     39  C   UNL A   1      35.302  33.452  29.710  1.00  0.00     0.060 A 
ATOM     40  C   UNL A   1      35.194  32.245  30.416  1.00  0.00     0.016 A 
ATOM     41  C   UNL A   1      36.559  33.944  29.351  1.00  0.00     0.016 A 
ATOM     42  C   UNL A   1      36.344  31.549  30.793  1.00  0.00     0.010 A 
ATOM     43  C   UNL A   1      37.713  33.253  29.750  1.00  0.00     0.010 A 
ATOM     44  C   UNL A   1      37.613  32.068  30.496  1.00  0.00    -0.014 A 
BRANCH  44  45
ATOM     45  C   UNL A   1      38.806  31.463  31.148  1.00  0.00     0.031 A 
ATOM     46  C   UNL A   1      39.137  31.879  32.555  1.00  0.00     0.074 A 
ATOM     47  C   UNL A   1      39.556  30.532  30.533  1.00  0.00     0.049 A 
ATOM     48  N   UNL A   1      40.060  31.424  33.363  1.00  0.00    -0.248 NA
ATOM     49  C   UNL A   1      38.330  32.973  33.112  1.00  0.00     0.031 C 
ATOM     50  C   UNL A   1      39.362  30.064  29.165  1.00  0.00     0.029 A 
ATOM     51  N   UNL A   1      40.608  29.781  31.001  1.00  0.00    -0.354 N 
ATOM     52  C   UNL A   1      39.968  32.199  34.514  1.00  0.00     0.074 A 
ATOM     53  C   UNL A   1      38.899  33.151  34.294  1.00  0.00     0.031 C 
ATOM     54  C   UNL A   1      40.219  29.054  28.927  1.00  0.00     0.029 A 
ATOM     55  C   UNL A   1      41.046  28.826  30.112  1.00  0.00     0.049 A 
ATOM     56  H   UNL A   1      41.010  29.913  31.891  1.00  0.00     0.167 HD
ATOM     57  C   UNL A   1      40.717  32.140  35.642  1.00  0.00     0.037 A 
ATOM     58  C   UNL A   1      41.988  27.869  30.247  1.00  0.00     0.037 A 
ATOM     59  C   UNL A   1      41.802  31.214  35.846  1.00  0.00     0.049 A 
ATOM     60  C   UNL A   1      42.771  27.775  31.537  1.00  0.00     0.074 A 
ATOM     61  C   UNL A   1      42.635  31.092  36.944  1.00  0.00     0.029 A 
ATOM     62  N   UNL A   1      42.216  30.262  34.926  1.00  0.00    -0.354 N 
ATOM     63  N   UNL A   1      42.660  28.497  32.628  1.00  0.00    -0.248 NA
ATOM     64  C   UNL A   1      43.819  26.747  31.607  1.00  0.00     0.031 C 
ATOM     65  C   UNL A   1      43.587  30.105  36.665  1.00  0.00     0.029 A 
ATOM     66  C   UNL A   1      43.305  29.561  35.423  1.00  0.00     0.049 A 
ATOM     67  H   UNL A   1      41.798  30.105  34.048  1.00  0.00     0.167 HD
ATOM     68  C   UNL A   1      43.632  28.022  33.505  1.00  0.00     0.074 A 
ATOM     69  C   UNL A   1      44.284  26.914  32.838  1.00  0.00     0.031 C 
ATOM     70  C   UNL A   1      43.969  28.473  34.742  1.00  0.00     0.037 A 
BRANCH  57  71
ATOM     71  C   UNL A   1      40.425  33.168  36.705  1.00  0.00     0.058 A 
ATOM     72  C   UNL A   1      39.450  32.963  37.694  1.00  0.00     0.135 A 
ATOM     73  C   UNL A   1      41.107  34.395  36.704  1.00  0.00     0.135 A 
ATOM     74  F   UNL A   1      38.752  31.817  37.731  1.00  0.00    -0.206 F 
ATOM     75  C   UNL A   1      39.122  33.960  38.609  1.00  0.00     0.059 A 
ATOM     76  C   UNL A   1      40.821  35.393  37.631  1.00  0.00     0.059 A 
ATOM     77  F   UNL A   1      42.051  34.646  35.782  1.00  0.00    -0.206 F 
ATOM     78  C   UNL A   1      39.807  35.175  38.562  1.00  0.00     0.060 A 
BRANCH  78  79
ATOM     79  S   UNL A   1      39.337  36.478  39.721  1.00  0.00     0.124 S 
ATOM     80  O   UNL A   1      38.271  35.825  40.474  1.00  0.00    -0.237 OA
ATOM     81  O   UNL A   1      40.579  36.708  40.451  1.00  0.00    -0.237 OA
ATOM     82  O   UNL A   1      38.913  37.570  38.851  1.00  0.00    -0.744 OA
ENDBRANCH  78  79
ENDBRANCH  57  71
BRANCH  58  83
ATOM     83  C   UNL A   1      42.236  26.905  29.136  1.00  0.00     0.058 A 
ATOM     84  C   UNL A   1      43.423  26.949  28.387  1.00  0.00     0.135 A 
ATOM     85  C   UNL A   1      41.303  25.909  28.810  1.00  0.00     0.135 A 
ATOM     86  F   UNL A   1      44.344  27.893  28.642  1.00  0.00    -0.206 F 
ATOM     87  C   UNL A   1      43.675  26.046  27.357  1.00  0.00     0.059 A 
ATOM     88  C   UNL A   1      41.547  24.972  27.809  1.00  0.00     0.059 A 
ATOM     89  F   UNL A   1      40.149  25.821  29.491  1.00  0.00    -0.206 F 
ATOM     90  C   UNL A   1      42.734  25.053  27.083  1.00  0.00     0.060 A 
BRANCH  90  91
ATOM     91  S   UNL A   1      43.102  23.831  25.803  1.00  0.00     0.124 S 
ATOM     92  O   UNL A   1      44.300  23.196  26.339  1.00  0.00    -0.237 OA
ATOM     93  O   UNL A   1      41.894  23.011  25.800  1.00  0.00    -0.237 OA
ATOM     94  O   UNL A   1      43.301  24.645  24.607  1.00  0.00    -0.744 OA
ENDBRANCH  90  91
ENDBRANCH  58  83
BRANCH  70  95
ATOM     95  C   UNL A   1      45.103  27.777  35.456  1.00  0.00     0.058 A 
ATOM     96  C   UNL A   1      44.884  26.668  36.291  1.00  0.00     0.135 A 
ATOM     97  C   UNL A   1      46.430  28.201  35.276  1.00  0.00     0.135 A 
ATOM     98  F   UNL A   1      43.637  26.213  36.497  1.00  0.00    -0.206 F 
ATOM     99  C   UNL A   1      45.931  26.037  36.957  1.00  0.00     0.059 A 
ATOM    100  C   UNL A   1      47.496  27.563  35.906  1.00  0.00     0.059 A 
ATOM    101  F   UNL A   1      46.706  29.242  34.474  1.00  0.00    -0.206 F 
ATOM    102  C   UNL A   1      47.235  26.495  36.761  1.00  0.00     0.060 A 
BRANCH 102 103
ATOM    103  S   UNL A   1      48.583  25.672  37.636  1.00  0.00     0.124 S 
ATOM    104  O   UNL A   1      48.998  26.707  38.578  1.00  0.00    -0.237 OA
ATOM    105  O   UNL A   1      47.917  24.512  38.221  1.00  0.00    -0.237 OA
ATOM    106  O   UNL A   1      49.541  25.369  36.578  1.00  0.00    -0.744 OA
ENDBRANCH 102 103
ENDBRANCH  70  95
ENDBRANCH  44  45
ENDBRANCH  37  39
ENDBRANCH  36  37
ENDBRANCH  35  36
ENDBRANCH  34  35
ENDBRANCH  33  34
ENDBRANCH   1  33
TORSDOF 23
ENDMDL
