MODEL 1
REMARK VINA RESULT:     -10.2      0.000      0.000
REMARK SMILES O=C(OCCOCCOCCOC(=O)[C@H]1CC=CC[C@H]1C(=O)N[C@@H]1CCN(c2cccc(Cl)c2)C1)c1ccc(-c2c3nc(c(-c4c(F)cc(S(=O)(=O)[O-])cc4F)c4ccc([nH]4)c(-c4c(F)cc(S(=O)(=O)[O-])cc4F)c4nc(c(-c5c(F)cc(S(=O)(=O)[O-])cc5F)c5ccc2[nH]5)C=C4)C=C3)cc1
REMARK SMILES IDX 7 1 6 2 5 3 4 4 3 5 2 6 1 7 36 8 37 9 101 10 38 11 100 12
REMARK SMILES IDX 39 13 40 14 41 15 94 16 42 17 99 18 93 19 95 20 43 21 98 22
REMARK SMILES IDX 92 23 91 24 44 26 78 27 57 28 77 29 58 30 61 31 76 32 96 33
REMARK SMILES IDX 59 34 60 35 75 37 97 38 62 39 45 40 46 41 55 42 47 43 48 44
REMARK SMILES IDX 54 45 56 46 49 47 50 48 51 49 52 50 53 51 79 52 80 53 89 54
REMARK SMILES IDX 81 55 82 56 88 57 90 58 83 59 84 60 85 61 86 62 87 63 63 64
REMARK SMILES IDX 64 65 73 66 65 67 66 68 72 69 74 70 67 71 68 72 69 73 70 74
REMARK SMILES IDX 71 75 8 76 9 77 10 78 11 79 12 80 13 81 14 82 15 83 16 84
REMARK SMILES IDX 20 85 17 86 19 87 18 88 21 89 22 90 23 91 24 93 25 94 35 95
REMARK SMILES IDX 26 96 27 97 28 98 29 99 34 100 30 101 32 102 31 103 33 104
REMARK H PARENT 95 25 61 36 23 92
REMARK Flexibility Score: inf
ROOT
ATOM      1  C   UNL A   1      35.618  31.437  28.891  1.00  0.00     0.188 C 
ENDROOT
BRANCH   1   2
ATOM      2  O   UNL A   1      35.194  32.761  29.107  1.00  0.00    -0.376 OA
BRANCH   2   3
ATOM      3  C   UNL A   1      34.911  33.035  30.453  1.00  0.00     0.202 C 
BRANCH   3   4
ATOM      4  C   UNL A   1      35.276  31.905  31.480  1.00  0.00     0.261 C 
BRANCH   4   5
ATOM      5  O   UNL A   1      36.708  31.157  31.802  1.00  0.00    -0.460 OA
BRANCH   5   6
ATOM      6  C   UNL A   1      37.936  30.602  32.102  1.00  0.00     0.338 C 
ATOM      7  O   UNL A   1      37.897  29.858  33.097  1.00  0.00    -0.246 OA
BRANCH   6   8
ATOM      8  C   UNL A   1      39.446  30.608  31.485  1.00  0.00     0.060 A 
ATOM      9  C   UNL A   1      40.577  29.944  31.928  1.00  0.00     0.016 A 
ATOM     10  C   UNL A   1      39.755  31.193  30.239  1.00  0.00     0.016 A 
ATOM     11  C   UNL A   1      41.820  29.723  31.310  1.00  0.00     0.010 A 
ATOM     12  C   UNL A   1      41.011  30.952  29.516  1.00  0.00     0.010 A 
ATOM     13  C   UNL A   1      42.037  30.141  30.032  1.00  0.00    -0.014 A 
BRANCH  13  14
ATOM     14  C   UNL A   1      43.292  29.590  29.406  1.00  0.00     0.031 A 
ATOM     15  C   UNL A   1      43.269  28.244  28.744  1.00  0.00     0.074 A 
ATOM     16  C   UNL A   1      44.279  30.413  28.963  1.00  0.00     0.049 A 
ATOM     17  N   UNL A   1      44.223  27.636  28.098  1.00  0.00    -0.248 NA
ATOM     18  C   UNL A   1      41.974  27.548  28.693  1.00  0.00     0.031 C 
ATOM     19  C   UNL A   1      44.124  31.848  28.888  1.00  0.00     0.029 A 
ATOM     20  N   UNL A   1      45.526  30.245  28.408  1.00  0.00    -0.354 N 
ATOM     21  C   UNL A   1      43.669  26.456  27.631  1.00  0.00     0.074 A 
ATOM     22  C   UNL A   1      42.262  26.485  27.955  1.00  0.00     0.031 C 
ATOM     23  C   UNL A   1      45.246  32.460  28.500  1.00  0.00     0.029 A 
ATOM     24  C   UNL A   1      46.230  31.435  28.257  1.00  0.00     0.049 A 
ATOM     25  H   UNL A   1      45.885  29.368  28.141  1.00  0.00     0.167 HD
ATOM     26  C   UNL A   1      44.326  25.417  27.073  1.00  0.00     0.037 A 
ATOM     27  C   UNL A   1      47.524  31.686  27.969  1.00  0.00     0.037 A 
ATOM     28  C   UNL A   1      45.744  25.447  26.824  1.00  0.00     0.049 A 
ATOM     29  C   UNL A   1      48.315  30.478  27.588  1.00  0.00     0.074 A 
ATOM     30  C   UNL A   1      46.583  24.405  26.482  1.00  0.00     0.029 A 
ATOM     31  N   UNL A   1      46.537  26.588  26.922  1.00  0.00    -0.354 N 
ATOM     32  N   UNL A   1      47.848  29.275  27.352  1.00  0.00    -0.248 NA
ATOM     33  C   UNL A   1      49.764  30.615  27.432  1.00  0.00     0.031 C 
ATOM     34  C   UNL A   1      47.893  24.897  26.468  1.00  0.00     0.029 A 
ATOM     35  C   UNL A   1      47.866  26.262  26.719  1.00  0.00     0.049 A 
ATOM     36  H   UNL A   1      46.201  27.494  27.107  1.00  0.00     0.167 HD
ATOM     37  C   UNL A   1      48.942  28.501  27.031  1.00  0.00     0.074 A 
ATOM     38  C   UNL A   1      50.094  29.387  27.053  1.00  0.00     0.031 C 
ATOM     39  C   UNL A   1      48.983  27.176  26.764  1.00  0.00     0.037 A 
BRANCH  26  40
ATOM     40  C   UNL A   1      43.572  24.124  26.978  1.00  0.00     0.058 A 
ATOM     41  C   UNL A   1      43.316  23.285  28.071  1.00  0.00     0.135 A 
ATOM     42  C   UNL A   1      43.138  23.699  25.709  1.00  0.00     0.135 A 
ATOM     43  F   UNL A   1      43.758  23.612  29.295  1.00  0.00    -0.206 F 
ATOM     44  C   UNL A   1      42.650  22.070  27.908  1.00  0.00     0.059 A 
ATOM     45  C   UNL A   1      42.456  22.503  25.526  1.00  0.00     0.059 A 
ATOM     46  F   UNL A   1      43.396  24.446  24.624  1.00  0.00    -0.206 F 
ATOM     47  C   UNL A   1      42.219  21.693  26.632  1.00  0.00     0.060 A 
BRANCH  47  48
ATOM     48  S   UNL A   1      41.325  20.135  26.436  1.00  0.00     0.124 S 
ATOM     49  O   UNL A   1      41.467  19.545  27.764  1.00  0.00    -0.237 OA
ATOM     50  O   UNL A   1      39.985  20.591  26.085  1.00  0.00    -0.237 OA
ATOM     51  O   UNL A   1      42.053  19.456  25.369  1.00  0.00    -0.744 OA
ENDBRANCH  47  48
ENDBRANCH  26  40
BRANCH  27  52
ATOM     52  C   UNL A   1      48.138  33.045  28.138  1.00  0.00     0.058 A 
ATOM     53  C   UNL A   1      48.631  33.516  29.365  1.00  0.00     0.135 A 
ATOM     54  C   UNL A   1      48.175  33.952  27.058  1.00  0.00     0.135 A 
ATOM     55  F   UNL A   1      48.632  32.712  30.439  1.00  0.00    -0.206 F 
ATOM     56  C   UNL A   1      49.093  34.827  29.527  1.00  0.00     0.059 A 
ATOM     57  C   UNL A   1      48.657  35.255  27.185  1.00  0.00     0.059 A 
ATOM     58  F   UNL A   1      47.724  33.581  25.849  1.00  0.00    -0.206 F 
ATOM     59  C   UNL A   1      49.090  35.694  28.433  1.00  0.00     0.060 A 
BRANCH  59  60
ATOM     60  S   UNL A   1      49.636  37.405  28.660  1.00  0.00     0.124 S 
ATOM     61  O   UNL A   1      48.369  38.126  28.616  1.00  0.00    -0.237 OA
ATOM     62  O   UNL A   1      50.293  37.348  29.962  1.00  0.00    -0.237 OA
ATOM     63  O   UNL A   1      50.525  37.630  27.524  1.00  0.00    -0.744 OA
ENDBRANCH  59  60
ENDBRANCH  27  52
BRANCH  39  64
ATOM     64  C   UNL A   1      50.336  26.607  26.504  1.00  0.00     0.058 A 
ATOM     65  C   UNL A   1      50.847  26.532  25.201  1.00  0.00     0.135 A 
ATOM     66  C   UNL A   1      51.152  26.215  27.575  1.00  0.00     0.135 A 
ATOM     67  F   UNL A   1      50.087  26.880  24.151  1.00  0.00    -0.206 F 
ATOM     68  C   UNL A   1      52.137  26.083  24.966  1.00  0.00     0.059 A 
ATOM     69  C   UNL A   1      52.455  25.794  27.364  1.00  0.00     0.059 A 
ATOM     70  F   UNL A   1      50.692  26.274  28.834  1.00  0.00    -0.206 F 
ATOM     71  C   UNL A   1      52.936  25.732  26.056  1.00  0.00     0.060 A 
BRANCH  71  72
ATOM     72  S   UNL A   1      54.640  25.242  25.739  1.00  0.00     0.124 S 
ATOM     73  O   UNL A   1      55.358  26.006  26.753  1.00  0.00    -0.237 OA
ATOM     74  O   UNL A   1      54.589  23.798  25.947  1.00  0.00    -0.237 OA
ATOM     75  O   UNL A   1      54.862  25.663  24.359  1.00  0.00    -0.744 OA
ENDBRANCH  71  72
ENDBRANCH  39  64
ENDBRANCH  13  14
ENDBRANCH   6   8
ENDBRANCH   5   6
ENDBRANCH   4   5
ENDBRANCH   3   4
ENDBRANCH   2   3
ENDBRANCH   1   2
BRANCH   1  76
ATOM     76  C   UNL A   1      34.706  30.808  27.846  1.00  0.00     0.188 C 
BRANCH  76  77
ATOM     77  O   UNL A   1      34.843  29.389  27.712  1.00  0.00    -0.376 OA
BRANCH  77  78
ATOM     78  C   UNL A   1      33.653  28.628  27.452  1.00  0.00     0.202 C 
BRANCH  78  79
ATOM     79  C   UNL A   1      33.570  27.955  26.079  1.00  0.00     0.261 C 
BRANCH  79  80
ATOM     80  O   UNL A   1      33.231  28.891  25.039  1.00  0.00    -0.463 OA
BRANCH  80  81
ATOM     81  C   UNL A   1      31.955  28.851  24.612  1.00  0.00     0.310 C 
ATOM     82  O   UNL A   1      31.018  29.350  25.232  1.00  0.00    -0.252 OA
BRANCH  81  83
ATOM     83  C   UNL A   1      31.746  28.261  23.231  1.00  0.00     0.115 C 
ATOM     84  C   UNL A   1      33.053  28.568  22.434  1.00  0.00     0.043 C 
ATOM     85  C   UNL A   1      31.050  26.880  22.982  1.00  0.00     0.096 C 
ATOM     86  C   UNL A   1      33.808  27.430  21.856  1.00  0.00    -0.030 C 
ATOM     87  C   UNL A   1      31.784  26.037  21.929  1.00  0.00     0.041 C 
ATOM     88  C   UNL A   1      33.204  26.279  21.601  1.00  0.00    -0.030 C 
BRANCH  85  89
ATOM     89  C   UNL A   1      30.309  26.117  24.177  1.00  0.00     0.224 C 
ATOM     90  O   UNL A   1      29.524  26.733  24.904  1.00  0.00    -0.275 OA
ATOM     91  N   UNL A   1      30.385  24.718  24.327  1.00  0.00    -0.351 N 
ATOM     92  H   UNL A   1      30.233  24.136  23.548  1.00  0.00     0.163 HD
BRANCH  91  93
ATOM     93  C   UNL A   1      30.701  24.092  25.683  1.00  0.00     0.103 C 
ATOM     94  C   UNL A   1      32.041  24.627  26.096  1.00  0.00     0.048 C 
ATOM     95  C   UNL A   1      31.036  22.492  25.810  1.00  0.00     0.141 C 
ATOM     96  C   UNL A   1      32.889  23.736  25.224  1.00  0.00     0.119 C 
ATOM     97  N   UNL A   1      32.527  22.314  25.550  1.00  0.00    -0.369 N 
BRANCH  97  98
ATOM     98  C   UNL A   1      33.101  21.139  24.964  1.00  0.00     0.038 A 
ATOM     99  C   UNL A   1      32.410  20.012  24.468  1.00  0.00     0.026 A 
ATOM    100  C   UNL A   1      34.483  20.885  24.928  1.00  0.00     0.046 A 
ATOM    101  C   UNL A   1      32.900  18.680  24.392  1.00  0.00     0.004 A 
ATOM    102  C   UNL A   1      35.030  19.573  24.772  1.00  0.00     0.043 A 
ATOM    103  C   UNL A   1      34.234  18.450  24.599  1.00  0.00     0.020 A 
ATOM    104  Cl  UNL A   1      36.732  19.335  24.844  1.00  0.00    -0.084 Cl
ENDBRANCH  97  98
ENDBRANCH  91  93
ENDBRANCH  85  89
ENDBRANCH  81  83
ENDBRANCH  80  81
ENDBRANCH  79  80
ENDBRANCH  78  79
ENDBRANCH  77  78
ENDBRANCH  76  77
ENDBRANCH   1  76
TORSDOF 23
ENDMDL
MODEL 2
REMARK VINA RESULT:     -10.1      2.144      4.067
REMARK SMILES O=C(OCCOCCOCCOC(=O)[C@H]1CC=CC[C@H]1C(=O)N[C@@H]1CCN(c2cccc(Cl)c2)C1)c1ccc(-c2c3nc(c(-c4c(F)cc(S(=O)(=O)[O-])cc4F)c4ccc([nH]4)c(-c4c(F)cc(S(=O)(=O)[O-])cc4F)c4nc(c(-c5c(F)cc(S(=O)(=O)[O-])cc5F)c5ccc2[nH]5)C=C4)C=C3)cc1
REMARK SMILES IDX 7 1 6 2 5 3 4 4 3 5 2 6 1 7 36 8 37 9 101 10 38 11 100 12
REMARK SMILES IDX 39 13 40 14 41 15 94 16 42 17 99 18 93 19 95 20 43 21 98 22
REMARK SMILES IDX 92 23 91 24 44 26 78 27 57 28 77 29 58 30 61 31 76 32 96 33
REMARK SMILES IDX 59 34 60 35 75 37 97 38 62 39 45 40 46 41 55 42 47 43 48 44
REMARK SMILES IDX 54 45 56 46 49 47 50 48 51 49 52 50 53 51 79 52 80 53 89 54
REMARK SMILES IDX 81 55 82 56 88 57 90 58 83 59 84 60 85 61 86 62 87 63 63 64
REMARK SMILES IDX 64 65 73 66 65 67 66 68 72 69 74 70 67 71 68 72 69 73 70 74
REMARK SMILES IDX 71 75 8 76 9 77 10 78 11 79 12 80 13 81 14 82 15 83 16 84
REMARK SMILES IDX 20 85 17 86 19 87 18 88 21 89 22 90 23 91 24 93 25 94 35 95
REMARK SMILES IDX 26 96 27 97 28 98 29 99 34 100 30 101 32 102 31 103 33 104
REMARK H PARENT 95 25 61 36 23 92
REMARK Flexibility Score: inf
ROOT
ATOM      1  C   UNL A   1      34.544  31.528  27.629  1.00  0.00     0.188 C 
ENDROOT
BRANCH   1   2
ATOM      2  O   UNL A   1      33.966  32.307  28.647  1.00  0.00    -0.376 OA
BRANCH   2   3
ATOM      3  C   UNL A   1      34.910  33.034  29.387  1.00  0.00     0.202 C 
BRANCH   3   4
ATOM      4  C   UNL A   1      35.248  32.475  30.814  1.00  0.00     0.261 C 
BRANCH   4   5
ATOM      5  O   UNL A   1      36.676  31.983  31.474  1.00  0.00    -0.460 OA
BRANCH   5   6
ATOM      6  C   UNL A   1      37.847  31.495  32.016  1.00  0.00     0.338 C 
ATOM      7  O   UNL A   1      37.989  31.805  33.212  1.00  0.00    -0.246 OA
BRANCH   6   8
ATOM      8  C   UNL A   1      39.103  30.570  31.539  1.00  0.00     0.060 A 
ATOM      9  C   UNL A   1      39.381  30.046  30.288  1.00  0.00     0.016 A 
ATOM     10  C   UNL A   1      40.222  30.325  32.363  1.00  0.00     0.016 A 
ATOM     11  C   UNL A   1      40.549  29.458  29.772  1.00  0.00     0.010 A 
ATOM     12  C   UNL A   1      41.490  29.769  31.870  1.00  0.00     0.010 A 
ATOM     13  C   UNL A   1      41.679  29.394  30.528  1.00  0.00    -0.014 A 
BRANCH  13  14
ATOM     14  C   UNL A   1      42.917  29.007  29.760  1.00  0.00     0.031 A 
ATOM     15  C   UNL A   1      42.940  27.729  28.975  1.00  0.00     0.074 A 
ATOM     16  C   UNL A   1      43.799  29.945  29.325  1.00  0.00     0.049 A 
ATOM     17  N   UNL A   1      43.881  27.263  28.203  1.00  0.00    -0.248 NA
ATOM     18  C   UNL A   1      41.702  26.936  28.954  1.00  0.00     0.031 C 
ATOM     19  C   UNL A   1      43.531  31.364  29.400  1.00  0.00     0.029 A 
ATOM     20  N   UNL A   1      45.005  29.932  28.663  1.00  0.00    -0.354 N 
ATOM     21  C   UNL A   1      43.380  26.088  27.667  1.00  0.00     0.074 A 
ATOM     22  C   UNL A   1      42.006  25.971  28.097  1.00  0.00     0.031 C 
ATOM     23  C   UNL A   1      44.568  32.098  28.989  1.00  0.00     0.029 A 
ATOM     24  C   UNL A   1      45.602  31.184  28.575  1.00  0.00     0.049 A 
ATOM     25  H   UNL A   1      45.406  29.114  28.288  1.00  0.00     0.167 HD
ATOM     26  C   UNL A   1      44.065  25.161  26.964  1.00  0.00     0.037 A 
ATOM     27  C   UNL A   1      46.846  31.566  28.216  1.00  0.00     0.037 A 
ATOM     28  C   UNL A   1      45.452  25.330  26.613  1.00  0.00     0.049 A 
ATOM     29  C   UNL A   1      47.691  30.467  27.663  1.00  0.00     0.074 A 
ATOM     30  C   UNL A   1      46.335  24.397  26.110  1.00  0.00     0.029 A 
ATOM     31  N   UNL A   1      46.161  26.520  26.761  1.00  0.00    -0.354 N 
ATOM     32  N   UNL A   1      47.298  29.256  27.348  1.00  0.00    -0.248 NA
ATOM     33  C   UNL A   1      49.108  30.737  27.412  1.00  0.00     0.031 C 
ATOM     34  C   UNL A   1      47.599  24.994  26.046  1.00  0.00     0.029 A 
ATOM     35  C   UNL A   1      47.490  26.324  26.428  1.00  0.00     0.049 A 
ATOM     36  H   UNL A   1      45.775  27.374  27.057  1.00  0.00     0.167 HD
ATOM     37  C   UNL A   1      48.416  28.607  26.872  1.00  0.00     0.074 A 
ATOM     38  C   UNL A   1      49.497  29.580  26.893  1.00  0.00     0.031 C 
ATOM     39  C   UNL A   1      48.535  27.319  26.477  1.00  0.00     0.037 A 
BRANCH  26  40
ATOM     40  C   UNL A   1      43.405  23.824  26.802  1.00  0.00     0.058 A 
ATOM     41  C   UNL A   1      42.774  23.399  25.625  1.00  0.00     0.135 A 
ATOM     42  C   UNL A   1      43.369  22.962  27.912  1.00  0.00     0.135 A 
ATOM     43  F   UNL A   1      42.726  24.205  24.552  1.00  0.00    -0.206 F 
ATOM     44  C   UNL A   1      42.135  22.162  25.554  1.00  0.00     0.059 A 
ATOM     45  C   UNL A   1      42.756  21.717  27.859  1.00  0.00     0.059 A 
ATOM     46  F   UNL A   1      43.921  23.340  29.076  1.00  0.00    -0.206 F 
ATOM     47  C   UNL A   1      42.139  21.326  26.675  1.00  0.00     0.060 A 
BRANCH  47  48
ATOM     48  S   UNL A   1      41.341  19.709  26.563  1.00  0.00     0.124 S 
ATOM     49  O   UNL A   1      40.037  20.062  26.010  1.00  0.00    -0.237 OA
ATOM     50  O   UNL A   1      42.236  18.986  25.666  1.00  0.00    -0.237 OA
ATOM     51  O   UNL A   1      41.328  19.238  27.945  1.00  0.00    -0.744 OA
ENDBRANCH  47  48
ENDBRANCH  26  40
BRANCH  27  52
ATOM     52  C   UNL A   1      47.368  32.951  28.469  1.00  0.00     0.058 A 
ATOM     53  C   UNL A   1      47.977  33.332  29.675  1.00  0.00     0.135 A 
ATOM     54  C   UNL A   1      47.194  33.967  27.506  1.00  0.00     0.135 A 
ATOM     55  F   UNL A   1      48.179  32.422  30.639  1.00  0.00    -0.206 F 
ATOM     56  C   UNL A   1      48.351  34.656  29.934  1.00  0.00     0.059 A 
ATOM     57  C   UNL A   1      47.584  35.288  27.727  1.00  0.00     0.059 A 
ATOM     58  F   UNL A   1      46.621  33.687  26.324  1.00  0.00    -0.206 F 
ATOM     59  C   UNL A   1      48.139  35.630  28.957  1.00  0.00     0.060 A 
BRANCH  59  60
ATOM     60  S   UNL A   1      48.573  37.351  29.316  1.00  0.00     0.124 S 
ATOM     61  O   UNL A   1      50.028  37.311  29.227  1.00  0.00    -0.237 OA
ATOM     62  O   UNL A   1      47.888  38.070  28.247  1.00  0.00    -0.237 OA
ATOM     63  O   UNL A   1      48.032  37.563  30.655  1.00  0.00    -0.744 OA
ENDBRANCH  59  60
ENDBRANCH  27  52
BRANCH  39  64
ATOM     64  C   UNL A   1      49.901  26.889  26.063  1.00  0.00     0.058 A 
ATOM     65  C   UNL A   1      50.358  27.106  24.755  1.00  0.00     0.135 A 
ATOM     66  C   UNL A   1      50.780  26.336  27.004  1.00  0.00     0.135 A 
ATOM     67  F   UNL A   1      49.537  27.615  23.823  1.00  0.00    -0.206 F 
ATOM     68  C   UNL A   1      51.656  26.785  24.392  1.00  0.00     0.059 A 
ATOM     69  C   UNL A   1      52.092  26.039  26.669  1.00  0.00     0.059 A 
ATOM     70  F   UNL A   1      50.374  26.116  28.263  1.00  0.00    -0.206 F 
ATOM     71  C   UNL A   1      52.518  26.268  25.360  1.00  0.00     0.060 A 
BRANCH  71  72
ATOM     72  S   UNL A   1      54.228  25.946  24.895  1.00  0.00     0.124 S 
ATOM     73  O   UNL A   1      54.299  24.495  25.028  1.00  0.00    -0.237 OA
ATOM     74  O   UNL A   1      54.278  26.463  23.531  1.00  0.00    -0.237 OA
ATOM     75  O   UNL A   1      54.995  26.707  25.876  1.00  0.00    -0.744 OA
ENDBRANCH  71  72
ENDBRANCH  39  64
ENDBRANCH  13  14
ENDBRANCH   6   8
ENDBRANCH   5   6
ENDBRANCH   4   5
ENDBRANCH   3   4
ENDBRANCH   2   3
ENDBRANCH   1   2
BRANCH   1  76
ATOM     76  C   UNL A   1      33.494  30.549  27.122  1.00  0.00     0.188 C 
BRANCH  76  77
ATOM     77  O   UNL A   1      33.939  29.191  27.033  1.00  0.00    -0.376 OA
BRANCH  77  78
ATOM     78  C   UNL A   1      32.993  28.159  27.357  1.00  0.00     0.202 C 
BRANCH  78  79
ATOM     79  C   UNL A   1      32.652  27.180  26.230  1.00  0.00     0.261 C 
BRANCH  79  80
ATOM     80  O   UNL A   1      33.625  26.124  26.121  1.00  0.00    -0.463 OA
BRANCH  80  81
ATOM     81  C   UNL A   1      33.139  24.872  26.205  1.00  0.00     0.310 C 
ATOM     82  O   UNL A   1      31.953  24.619  26.403  1.00  0.00    -0.252 OA
BRANCH  81  83
ATOM     83  C   UNL A   1      34.130  23.764  25.905  1.00  0.00     0.115 C 
ATOM     84  C   UNL A   1      34.323  22.990  27.247  1.00  0.00     0.043 C 
ATOM     85  C   UNL A   1      34.111  22.929  24.579  1.00  0.00     0.096 C 
ATOM     86  C   UNL A   1      34.029  21.537  27.268  1.00  0.00    -0.030 C 
ATOM     87  C   UNL A   1      34.326  21.429  24.830  1.00  0.00     0.041 C 
ATOM     88  C   UNL A   1      34.062  20.823  26.152  1.00  0.00    -0.030 C 
BRANCH  85  89
ATOM     89  C   UNL A   1      33.174  23.364  23.359  1.00  0.00     0.224 C 
ATOM     90  O   UNL A   1      32.810  22.520  22.534  1.00  0.00    -0.275 OA
ATOM     91  N   UNL A   1      32.601  24.649  23.282  1.00  0.00    -0.351 N 
ATOM     92  H   UNL A   1      32.150  25.028  24.070  1.00  0.00     0.163 HD
BRANCH  91  93
ATOM     93  C   UNL A   1      32.672  25.462  21.992  1.00  0.00     0.103 C 
ATOM     94  C   UNL A   1      33.588  26.619  22.268  1.00  0.00     0.048 C 
ATOM     95  C   UNL A   1      31.372  26.311  21.464  1.00  0.00     0.141 C 
ATOM     96  C   UNL A   1      32.607  27.474  23.029  1.00  0.00     0.119 C 
ATOM     97  N   UNL A   1      31.406  27.674  22.146  1.00  0.00    -0.369 N 
BRANCH  97  98
ATOM     98  C   UNL A   1      30.237  28.436  22.467  1.00  0.00     0.038 A 
ATOM     99  C   UNL A   1      29.121  28.005  23.218  1.00  0.00     0.026 A 
ATOM    100  C   UNL A   1      29.975  29.715  21.947  1.00  0.00     0.046 A 
ATOM    101  C   UNL A   1      27.787  28.484  23.109  1.00  0.00     0.004 A 
ATOM    102  C   UNL A   1      28.663  30.279  21.888  1.00  0.00     0.043 A 
ATOM    103  C   UNL A   1      27.547  29.621  22.384  1.00  0.00     0.020 A 
ATOM    104  Cl  UNL A   1      28.413  31.807  21.138  1.00  0.00    -0.084 Cl
ENDBRANCH  97  98
ENDBRANCH  91  93
ENDBRANCH  85  89
ENDBRANCH  81  83
ENDBRANCH  80  81
ENDBRANCH  79  80
ENDBRANCH  78  79
ENDBRANCH  77  78
ENDBRANCH  76  77
ENDBRANCH   1  76
TORSDOF 23
ENDMDL
MODEL 3
REMARK VINA RESULT:      -9.2      7.283     12.549
REMARK SMILES O=C(OCCOCCOCCOC(=O)[C@H]1CC=CC[C@H]1C(=O)N[C@@H]1CCN(c2cccc(Cl)c2)C1)c1ccc(-c2c3nc(c(-c4c(F)cc(S(=O)(=O)[O-])cc4F)c4ccc([nH]4)c(-c4c(F)cc(S(=O)(=O)[O-])cc4F)c4nc(c(-c5c(F)cc(S(=O)(=O)[O-])cc5F)c5ccc2[nH]5)C=C4)C=C3)cc1
REMARK SMILES IDX 7 1 6 2 5 3 4 4 3 5 2 6 1 7 36 8 37 9 101 10 38 11 100 12
REMARK SMILES IDX 39 13 40 14 41 15 94 16 42 17 99 18 93 19 95 20 43 21 98 22
REMARK SMILES IDX 92 23 91 24 44 26 78 27 57 28 77 29 58 30 61 31 76 32 96 33
REMARK SMILES IDX 59 34 60 35 75 37 97 38 62 39 45 40 46 41 55 42 47 43 48 44
REMARK SMILES IDX 54 45 56 46 49 47 50 48 51 49 52 50 53 51 79 52 80 53 89 54
REMARK SMILES IDX 81 55 82 56 88 57 90 58 83 59 84 60 85 61 86 62 87 63 63 64
REMARK SMILES IDX 64 65 73 66 65 67 66 68 72 69 74 70 67 71 68 72 69 73 70 74
REMARK SMILES IDX 71 75 8 76 9 77 10 78 11 79 12 80 13 81 14 82 15 83 16 84
REMARK SMILES IDX 20 85 17 86 19 87 18 88 21 89 22 90 23 91 24 93 25 94 35 95
REMARK SMILES IDX 26 96 27 97 28 98 29 99 34 100 30 101 32 102 31 103 33 104
REMARK H PARENT 95 25 61 36 23 92
REMARK Flexibility Score: inf
ROOT
ATOM      1  C   UNL A   1      34.322  31.432  28.257  1.00  0.00     0.188 C 
ENDROOT
BRANCH   1   2
ATOM      2  O   UNL A   1      35.574  31.575  27.633  1.00  0.00    -0.376 OA
BRANCH   2   3
ATOM      3  C   UNL A   1      36.302  30.377  27.581  1.00  0.00     0.202 C 
BRANCH   3   4
ATOM      4  C   UNL A   1      36.199  29.451  28.845  1.00  0.00     0.261 C 
BRANCH   4   5
ATOM      5  O   UNL A   1      36.689  29.685  30.400  1.00  0.00    -0.460 OA
BRANCH   5   6
ATOM      6  C   UNL A   1      37.109  29.960  31.686  1.00  0.00     0.338 C 
ATOM      7  O   UNL A   1      37.033  28.972  32.438  1.00  0.00    -0.246 OA
BRANCH   6   8
ATOM      8  C   UNL A   1      37.730  31.225  32.507  1.00  0.00     0.060 A 
ATOM      9  C   UNL A   1      38.706  31.238  33.490  1.00  0.00     0.016 A 
ATOM     10  C   UNL A   1      37.452  32.564  32.164  1.00  0.00     0.016 A 
ATOM     11  C   UNL A   1      39.439  32.299  34.049  1.00  0.00     0.010 A 
ATOM     12  C   UNL A   1      38.221  33.710  32.668  1.00  0.00     0.010 A 
ATOM     13  C   UNL A   1      39.285  33.566  33.576  1.00  0.00    -0.014 A 
BRANCH  13  14
ATOM     14  C   UNL A   1      40.328  34.539  34.062  1.00  0.00     0.031 A 
ATOM     15  C   UNL A   1      40.460  34.823  35.530  1.00  0.00     0.074 A 
ATOM     16  C   UNL A   1      41.457  34.781  33.344  1.00  0.00     0.049 A 
ATOM     17  N   UNL A   1      41.334  35.572  36.140  1.00  0.00    -0.248 NA
ATOM     18  C   UNL A   1      39.578  34.072  36.436  1.00  0.00     0.031 C 
ATOM     19  C   UNL A   1      41.823  34.005  32.181  1.00  0.00     0.029 A 
ATOM     20  N   UNL A   1      42.546  35.611  33.471  1.00  0.00    -0.354 N 
ATOM     21  C   UNL A   1      41.060  35.443  37.492  1.00  0.00     0.074 A 
ATOM     22  C   UNL A   1      40.022  34.448  37.627  1.00  0.00     0.031 C 
ATOM     23  C   UNL A   1      42.926  34.469  31.588  1.00  0.00     0.029 A 
ATOM     24  C   UNL A   1      43.388  35.593  32.364  1.00  0.00     0.049 A 
ATOM     25  H   UNL A   1      42.714  36.164  34.268  1.00  0.00     0.167 HD
ATOM     26  C   UNL A   1      41.579  36.179  38.498  1.00  0.00     0.037 A 
ATOM     27  C   UNL A   1      44.410  36.392  31.997  1.00  0.00     0.037 A 
ATOM     28  C   UNL A   1      42.580  37.191  38.275  1.00  0.00     0.049 A 
ATOM     29  C   UNL A   1      44.821  37.384  33.035  1.00  0.00     0.074 A 
ATOM     30  C   UNL A   1      43.032  38.164  39.142  1.00  0.00     0.029 A 
ATOM     31  N   UNL A   1      43.265  37.369  37.075  1.00  0.00    -0.354 N 
ATOM     32  N   UNL A   1      44.409  37.432  34.280  1.00  0.00    -0.248 NA
ATOM     33  C   UNL A   1      45.796  38.412  32.671  1.00  0.00     0.031 C 
ATOM     34  C   UNL A   1      43.917  38.988  38.438  1.00  0.00     0.029 A 
ATOM     35  C   UNL A   1      44.082  38.482  37.156  1.00  0.00     0.049 A 
ATOM     36  H   UNL A   1      43.181  36.788  36.285  1.00  0.00     0.167 HD
ATOM     37  C   UNL A   1      45.063  38.502  34.853  1.00  0.00     0.074 A 
ATOM     38  C   UNL A   1      45.939  39.045  33.828  1.00  0.00     0.031 C 
ATOM     39  C   UNL A   1      44.929  38.996  36.104  1.00  0.00     0.037 A 
BRANCH  26  40
ATOM     40  C   UNL A   1      40.871  36.098  39.818  1.00  0.00     0.058 A 
ATOM     41  C   UNL A   1      39.680  36.776  40.111  1.00  0.00     0.135 A 
ATOM     42  C   UNL A   1      41.463  35.339  40.843  1.00  0.00     0.135 A 
ATOM     43  F   UNL A   1      39.102  37.562  39.189  1.00  0.00    -0.206 F 
ATOM     44  C   UNL A   1      39.097  36.698  41.375  1.00  0.00     0.059 A 
ATOM     45  C   UNL A   1      40.890  35.231  42.103  1.00  0.00     0.059 A 
ATOM     46  F   UNL A   1      42.627  34.706  40.627  1.00  0.00    -0.206 F 
ATOM     47  C   UNL A   1      39.707  35.916  42.362  1.00  0.00     0.060 A 
BRANCH  47  48
ATOM     48  S   UNL A   1      38.925  35.792  43.986  1.00  0.00     0.124 S 
ATOM     49  O   UNL A   1      39.676  34.696  44.591  1.00  0.00    -0.237 OA
ATOM     50  O   UNL A   1      39.170  37.116  44.548  1.00  0.00    -0.237 OA
ATOM     51  O   UNL A   1      37.531  35.495  43.671  1.00  0.00    -0.744 OA
ENDBRANCH  47  48
ENDBRANCH  26  40
BRANCH  27  52
ATOM     52  C   UNL A   1      45.000  36.365  30.616  1.00  0.00     0.058 A 
ATOM     53  C   UNL A   1      44.386  36.971  29.509  1.00  0.00     0.135 A 
ATOM     54  C   UNL A   1      46.185  35.645  30.359  1.00  0.00     0.135 A 
ATOM     55  F   UNL A   1      43.256  37.675  29.672  1.00  0.00    -0.206 F 
ATOM     56  C   UNL A   1      44.891  36.835  28.211  1.00  0.00     0.059 A 
ATOM     57  C   UNL A   1      46.726  35.518  29.079  1.00  0.00     0.059 A 
ATOM     58  F   UNL A   1      46.836  35.036  31.363  1.00  0.00    -0.206 F 
ATOM     59  C   UNL A   1      46.057  36.095  28.005  1.00  0.00     0.060 A 
BRANCH  59  60
ATOM     60  S   UNL A   1      46.676  35.874  26.318  1.00  0.00     0.124 S 
ATOM     61  O   UNL A   1      47.910  35.134  26.553  1.00  0.00    -0.237 OA
ATOM     62  O   UNL A   1      45.594  35.126  25.688  1.00  0.00    -0.237 OA
ATOM     63  O   UNL A   1      46.847  37.243  25.839  1.00  0.00    -0.744 OA
ENDBRANCH  59  60
ENDBRANCH  27  52
BRANCH  39  64
ATOM     64  C   UNL A   1      45.737  40.209  36.415  1.00  0.00     0.058 A 
ATOM     65  C   UNL A   1      45.224  41.493  36.187  1.00  0.00     0.135 A 
ATOM     66  C   UNL A   1      46.994  40.080  37.022  1.00  0.00     0.135 A 
ATOM     67  F   UNL A   1      44.032  41.654  35.590  1.00  0.00    -0.206 F 
ATOM     68  C   UNL A   1      45.938  42.622  36.555  1.00  0.00     0.059 A 
ATOM     69  C   UNL A   1      47.710  41.195  37.427  1.00  0.00     0.059 A 
ATOM     70  F   UNL A   1      47.513  38.865  37.254  1.00  0.00    -0.206 F 
ATOM     71  C   UNL A   1      47.173  42.460  37.189  1.00  0.00     0.060 A 
BRANCH  71  72
ATOM     72  S   UNL A   1      48.043  43.935  37.745  1.00  0.00     0.124 S 
ATOM     73  O   UNL A   1      47.918  43.819  39.194  1.00  0.00    -0.237 OA
ATOM     74  O   UNL A   1      49.382  43.726  37.203  1.00  0.00    -0.237 OA
ATOM     75  O   UNL A   1      47.289  45.025  37.133  1.00  0.00    -0.744 OA
ENDBRANCH  71  72
ENDBRANCH  39  64
ENDBRANCH  13  14
ENDBRANCH   6   8
ENDBRANCH   5   6
ENDBRANCH   4   5
ENDBRANCH   3   4
ENDBRANCH   2   3
ENDBRANCH   1   2
BRANCH   1  76
ATOM     76  C   UNL A   1      33.322  30.947  27.215  1.00  0.00     0.188 C 
BRANCH  76  77
ATOM     77  O   UNL A   1      32.922  29.580  27.365  1.00  0.00    -0.376 OA
BRANCH  77  78
ATOM     78  C   UNL A   1      33.432  28.630  26.416  1.00  0.00     0.202 C 
BRANCH  78  79
ATOM     79  C   UNL A   1      32.922  27.193  26.561  1.00  0.00     0.261 C 
BRANCH  79  80
ATOM     80  O   UNL A   1      33.792  26.245  25.914  1.00  0.00    -0.463 OA
BRANCH  80  81
ATOM     81  C   UNL A   1      33.426  24.954  26.016  1.00  0.00     0.310 C 
ATOM     82  O   UNL A   1      32.294  24.595  26.333  1.00  0.00    -0.252 OA
BRANCH  81  83
ATOM     83  C   UNL A   1      34.469  23.943  25.581  1.00  0.00     0.115 C 
ATOM     84  C   UNL A   1      34.825  23.122  26.861  1.00  0.00     0.043 C 
ATOM     85  C   UNL A   1      34.407  23.174  24.218  1.00  0.00     0.096 C 
ATOM     86  C   UNL A   1      34.642  21.651  26.825  1.00  0.00    -0.030 C 
ATOM     87  C   UNL A   1      34.751  21.685  24.369  1.00  0.00     0.041 C 
ATOM     88  C   UNL A   1      34.639  20.997  25.673  1.00  0.00    -0.030 C 
BRANCH  85  89
ATOM     89  C   UNL A   1      33.345  23.594  23.097  1.00  0.00     0.224 C 
ATOM     90  O   UNL A   1      33.012  22.778  22.233  1.00  0.00    -0.275 OA
ATOM     91  N   UNL A   1      32.640  24.812  23.160  1.00  0.00    -0.351 N 
ATOM     92  H   UNL A   1      32.210  25.082  24.003  1.00  0.00     0.163 HD
BRANCH  91  93
ATOM     93  C   UNL A   1      32.535  25.720  21.937  1.00  0.00     0.103 C 
ATOM     94  C   UNL A   1      33.421  26.901  22.207  1.00  0.00     0.048 C 
ATOM     95  C   UNL A   1      31.148  26.533  21.612  1.00  0.00     0.141 C 
ATOM     96  C   UNL A   1      32.487  27.644  23.129  1.00  0.00     0.119 C 
ATOM     97  N   UNL A   1      31.192  27.842  22.392  1.00  0.00    -0.369 N 
BRANCH  97  98
ATOM     98  C   UNL A   1      30.029  28.514  22.890  1.00  0.00     0.038 A 
ATOM     99  C   UNL A   1      28.753  27.952  23.115  1.00  0.00     0.026 A 
ATOM    100  C   UNL A   1      29.964  29.902  23.101  1.00  0.00     0.046 A 
ATOM    101  C   UNL A   1      27.506  28.633  23.079  1.00  0.00     0.004 A 
ATOM    102  C   UNL A   1      28.732  30.625  23.156  1.00  0.00     0.043 A 
ATOM    103  C   UNL A   1      27.497  30.002  23.048  1.00  0.00     0.020 A 
ATOM    104  Cl  UNL A   1      28.744  32.338  23.312  1.00  0.00    -0.084 Cl
ENDBRANCH  97  98
ENDBRANCH  91  93
ENDBRANCH  85  89
ENDBRANCH  81  83
ENDBRANCH  80  81
ENDBRANCH  79  80
ENDBRANCH  78  79
ENDBRANCH  77  78
ENDBRANCH  76  77
ENDBRANCH   1  76
TORSDOF 23
ENDMDL
