MODEL 1
REMARK VINA RESULT:      -9.6      0.000      0.000
REMARK SMILES CC(C)C[C@@H](C(=O)OCCOCCOCCOC(=O)c1ccc(-c2c3nc(c(-c4c(F)cc(S(=O)(=O)[O-])cc4F)c4ccc([nH]4)c(-c4c(F)cc(S(=O)(=O)[O-])cc4F)c4nc(c(-c5c(F)cc(S(=O)(=O)[O-])cc5F)c5ccc2[nH]5)C=C4)C=C3)cc1)[C@@H]1CCC[C@@H](C)C1
REMARK SMILES IDX 13 1 12 2 11 3 10 4 9 5 8 6 6 7 7 8 5 9 4 10 2 11 1 12 3 13
REMARK SMILES IDX 86 14 87 15 92 16 88 17 90 18 89 19 91 20 14 21 15 22 16 23
REMARK SMILES IDX 17 24 18 25 19 26 20 27 21 28 85 29 22 30 84 31 23 32 24 33
REMARK SMILES IDX 25 34 78 35 26 36 83 37 77 38 79 39 27 40 82 41 76 42 75 43
REMARK SMILES IDX 28 45 62 46 41 47 61 48 42 49 45 50 60 51 80 52 43 53 44 54
REMARK SMILES IDX 59 56 81 57 46 58 29 59 30 60 39 61 31 62 32 63 38 64 40 65
REMARK SMILES IDX 33 66 34 67 35 68 36 69 37 70 63 71 64 72 73 73 65 74 66 75
REMARK SMILES IDX 72 76 74 77 67 78 68 79 69 80 70 81 71 82 47 83 48 84 57 85
REMARK SMILES IDX 49 86 50 87 56 88 58 89 51 90 52 91 53 92 54 93 55 94
REMARK H PARENT 79 44 45 55
REMARK Flexibility Score: inf
ROOT
ATOM      1  C   UNL A   1      31.739  29.572  24.752  1.00  0.00     0.188 C 
ENDROOT
BRANCH   1   2
ATOM      2  C   UNL A   1      30.794  28.438  24.312  1.00  0.00     0.188 C 
BRANCH   2   3
ATOM      3  O   UNL A   1      31.114  27.774  23.094  1.00  0.00    -0.376 OA
BRANCH   3   4
ATOM      4  C   UNL A   1      31.429  26.391  23.174  1.00  0.00     0.202 C 
BRANCH   4   5
ATOM      5  C   UNL A   1      31.913  25.913  24.541  1.00  0.00     0.261 C 
BRANCH   5   6
ATOM      6  O   UNL A   1      31.126  24.822  25.066  1.00  0.00    -0.463 OA
BRANCH   6   7
ATOM      7  C   UNL A   1      31.684  24.102  26.071  1.00  0.00     0.309 C 
ATOM      8  O   UNL A   1      31.390  24.226  27.253  1.00  0.00    -0.252 OA
BRANCH   7   9
ATOM      9  C   UNL A   1      32.824  23.195  25.603  1.00  0.00     0.102 C 
BRANCH   9  10
ATOM     10  C   UNL A   1      32.316  21.730  25.573  1.00  0.00     0.018 C 
BRANCH  10  11
ATOM     11  C   UNL A   1      31.995  21.047  24.219  1.00  0.00    -0.017 C 
ATOM     12  C   UNL A   1      32.502  21.783  22.983  1.00  0.00     0.007 C 
ATOM     13  C   UNL A   1      32.595  19.635  24.234  1.00  0.00     0.007 C 
ENDBRANCH  10  11
ENDBRANCH   9  10
BRANCH   9  14
ATOM     14  C   UNL A   1      34.224  23.410  26.240  1.00  0.00     0.003 C 
ATOM     15  C   UNL A   1      35.071  24.486  25.528  1.00  0.00     0.004 C 
ATOM     16  C   UNL A   1      35.059  22.103  26.302  1.00  0.00     0.007 C 
ATOM     17  C   UNL A   1      35.712  24.047  24.212  1.00  0.00     0.001 C 
ATOM     18  C   UNL A   1      35.575  21.650  24.927  1.00  0.00    -0.014 C 
ATOM     19  C   UNL A   1      36.468  22.734  24.331  1.00  0.00     0.003 C 
ATOM     20  C   UNL A   1      36.334  20.329  25.024  1.00  0.00     0.007 C 
ENDBRANCH   9  14
ENDBRANCH   7   9
ENDBRANCH   6   7
ENDBRANCH   5   6
ENDBRANCH   4   5
ENDBRANCH   3   4
ENDBRANCH   2   3
ENDBRANCH   1   2
BRANCH   1  21
ATOM     21  O   UNL A   1      31.187  30.588  25.583  1.00  0.00    -0.376 OA
BRANCH  21  22
ATOM     22  C   UNL A   1      31.773  30.760  26.870  1.00  0.00     0.202 C 
BRANCH  22  23
ATOM     23  C   UNL A   1      33.228  31.235  26.846  1.00  0.00     0.261 C 
BRANCH  23  24
ATOM     24  O   UNL A   1      33.921  30.829  28.044  1.00  0.00    -0.460 OA
BRANCH  24  25
ATOM     25  C   UNL A   1      34.446  29.581  28.024  1.00  0.00     0.338 C 
ATOM     26  O   UNL A   1      33.899  28.562  27.641  1.00  0.00    -0.246 OA
BRANCH  25  27
ATOM     27  C   UNL A   1      35.881  29.626  28.365  1.00  0.00     0.060 A 
ATOM     28  C   UNL A   1      36.778  29.891  27.326  1.00  0.00     0.016 A 
ATOM     29  C   UNL A   1      36.359  29.301  29.634  1.00  0.00     0.016 A 
ATOM     30  C   UNL A   1      38.154  29.782  27.528  1.00  0.00     0.010 A 
ATOM     31  C   UNL A   1      37.743  29.182  29.836  1.00  0.00     0.010 A 
ATOM     32  C   UNL A   1      38.647  29.383  28.775  1.00  0.00    -0.014 A 
BRANCH  32  33
ATOM     33  C   UNL A   1      40.081  29.007  28.920  1.00  0.00     0.031 A 
ATOM     34  C   UNL A   1      41.051  30.036  29.440  1.00  0.00     0.074 A 
ATOM     35  C   UNL A   1      40.518  27.766  28.643  1.00  0.00     0.049 A 
ATOM     36  N   UNL A   1      42.357  29.988  29.512  1.00  0.00    -0.248 NA
ATOM     37  C   UNL A   1      40.466  31.287  29.949  1.00  0.00     0.031 C 
ATOM     38  C   UNL A   1      39.678  26.642  28.233  1.00  0.00     0.029 A 
ATOM     39  N   UNL A   1      41.790  27.244  28.664  1.00  0.00    -0.354 N 
ATOM     40  C   UNL A   1      42.754  31.214  30.032  1.00  0.00     0.074 A 
ATOM     41  C   UNL A   1      41.549  31.984  30.260  1.00  0.00     0.031 C 
ATOM     42  C   UNL A   1      40.458  25.563  28.035  1.00  0.00     0.029 A 
ATOM     43  C   UNL A   1      41.856  25.934  28.249  1.00  0.00     0.049 A 
ATOM     44  H   UNL A   1      42.579  27.759  28.948  1.00  0.00     0.167 HD
ATOM     45  C   UNL A   1      44.006  31.663  30.291  1.00  0.00     0.037 A 
ATOM     46  C   UNL A   1      42.922  25.138  28.030  1.00  0.00     0.037 A 
ATOM     47  C   UNL A   1      45.201  30.885  30.093  1.00  0.00     0.049 A 
ATOM     48  C   UNL A   1      44.313  25.680  28.248  1.00  0.00     0.074 A 
ATOM     49  C   UNL A   1      46.516  31.252  30.324  1.00  0.00     0.029 A 
ATOM     50  N   UNL A   1      45.228  29.581  29.619  1.00  0.00    -0.354 N 
ATOM     51  N   UNL A   1      44.680  26.861  28.687  1.00  0.00    -0.248 NA
ATOM     52  C   UNL A   1      45.434  24.786  27.922  1.00  0.00     0.031 C 
ATOM     53  C   UNL A   1      47.340  30.182  29.953  1.00  0.00     0.029 A 
ATOM     54  C   UNL A   1      46.536  29.135  29.533  1.00  0.00     0.049 A 
ATOM     55  H   UNL A   1      44.434  29.051  29.381  1.00  0.00     0.167 HD
ATOM     56  C   UNL A   1      46.072  26.843  28.709  1.00  0.00     0.074 A 
ATOM     57  C   UNL A   1      46.481  25.533  28.247  1.00  0.00     0.031 C 
ATOM     58  C   UNL A   1      46.933  27.825  29.079  1.00  0.00     0.037 A 
BRANCH  45  59
ATOM     59  C   UNL A   1      44.147  33.083  30.762  1.00  0.00     0.058 A 
ATOM     60  C   UNL A   1      44.319  33.408  32.115  1.00  0.00     0.135 A 
ATOM     61  C   UNL A   1      44.106  34.138  29.835  1.00  0.00     0.135 A 
ATOM     62  F   UNL A   1      44.347  32.439  33.045  1.00  0.00    -0.206 F 
ATOM     63  C   UNL A   1      44.410  34.731  32.539  1.00  0.00     0.059 A 
ATOM     64  C   UNL A   1      44.219  35.466  30.233  1.00  0.00     0.059 A 
ATOM     65  F   UNL A   1      43.942  33.882  28.527  1.00  0.00    -0.206 F 
ATOM     66  C   UNL A   1      44.350  35.753  31.590  1.00  0.00     0.060 A 
BRANCH  66  67
ATOM     67  S   UNL A   1      44.438  37.466  32.152  1.00  0.00     0.124 S 
ATOM     68  O   UNL A   1      43.345  37.511  33.119  1.00  0.00    -0.237 OA
ATOM     69  O   UNL A   1      45.784  37.545  32.713  1.00  0.00    -0.237 OA
ATOM     70  O   UNL A   1      44.228  38.236  30.930  1.00  0.00    -0.744 OA
ENDBRANCH  66  67
ENDBRANCH  45  59
BRANCH  46  71
ATOM     71  C   UNL A   1      42.723  23.747  27.542  1.00  0.00     0.058 A 
ATOM     72  C   UNL A   1      42.726  23.454  26.170  1.00  0.00     0.135 A 
ATOM     73  C   UNL A   1      42.527  22.683  28.436  1.00  0.00     0.135 A 
ATOM     74  F   UNL A   1      42.889  24.440  25.274  1.00  0.00    -0.206 F 
ATOM     75  C   UNL A   1      42.539  22.157  25.700  1.00  0.00     0.059 A 
ATOM     76  C   UNL A   1      42.365  21.374  27.992  1.00  0.00     0.059 A 
ATOM     77  F   UNL A   1      42.516  22.909  29.759  1.00  0.00    -0.206 F 
ATOM     78  C   UNL A   1      42.365  21.122  26.621  1.00  0.00     0.060 A 
BRANCH  78  79
ATOM     79  S   UNL A   1      42.185  19.434  26.005  1.00  0.00     0.124 S 
ATOM     80  O   UNL A   1      42.617  18.653  27.159  1.00  0.00    -0.237 OA
ATOM     81  O   UNL A   1      40.763  19.370  25.687  1.00  0.00    -0.237 OA
ATOM     82  O   UNL A   1      43.080  19.401  24.851  1.00  0.00    -0.744 OA
ENDBRANCH  78  79
ENDBRANCH  46  71
BRANCH  58  83
ATOM     83  C   UNL A   1      48.403  27.516  29.034  1.00  0.00     0.058 A 
ATOM     84  C   UNL A   1      49.205  27.892  27.945  1.00  0.00     0.135 A 
ATOM     85  C   UNL A   1      49.030  26.885  30.123  1.00  0.00     0.135 A 
ATOM     86  F   UNL A   1      48.655  28.492  26.878  1.00  0.00    -0.206 F 
ATOM     87  C   UNL A   1      50.574  27.640  27.929  1.00  0.00     0.059 A 
ATOM     88  C   UNL A   1      50.401  26.644  30.137  1.00  0.00     0.059 A 
ATOM     89  F   UNL A   1      48.312  26.515  31.194  1.00  0.00    -0.206 F 
ATOM     90  C   UNL A   1      51.163  27.016  29.030  1.00  0.00     0.060 A 
BRANCH  90  91
ATOM     91  S   UNL A   1      52.946  26.728  29.014  1.00  0.00     0.124 S 
ATOM     92  O   UNL A   1      53.140  26.020  30.275  1.00  0.00    -0.237 OA
ATOM     93  O   UNL A   1      53.125  25.930  27.805  1.00  0.00    -0.237 OA
ATOM     94  O   UNL A   1      53.507  28.075  28.956  1.00  0.00    -0.744 OA
ENDBRANCH  90  91
ENDBRANCH  58  83
ENDBRANCH  32  33
ENDBRANCH  25  27
ENDBRANCH  24  25
ENDBRANCH  23  24
ENDBRANCH  22  23
ENDBRANCH  21  22
ENDBRANCH   1  21
TORSDOF 23
ENDMDL
MODEL 2
REMARK VINA RESULT:      -9.5      1.066      2.165
REMARK SMILES CC(C)C[C@@H](C(=O)OCCOCCOCCOC(=O)c1ccc(-c2c3nc(c(-c4c(F)cc(S(=O)(=O)[O-])cc4F)c4ccc([nH]4)c(-c4c(F)cc(S(=O)(=O)[O-])cc4F)c4nc(c(-c5c(F)cc(S(=O)(=O)[O-])cc5F)c5ccc2[nH]5)C=C4)C=C3)cc1)[C@@H]1CCC[C@@H](C)C1
REMARK SMILES IDX 13 1 12 2 11 3 10 4 9 5 8 6 6 7 7 8 5 9 4 10 2 11 1 12 3 13
REMARK SMILES IDX 86 14 87 15 92 16 88 17 90 18 89 19 91 20 14 21 15 22 16 23
REMARK SMILES IDX 17 24 18 25 19 26 20 27 21 28 85 29 22 30 84 31 23 32 24 33
REMARK SMILES IDX 25 34 78 35 26 36 83 37 77 38 79 39 27 40 82 41 76 42 75 43
REMARK SMILES IDX 28 45 62 46 41 47 61 48 42 49 45 50 60 51 80 52 43 53 44 54
REMARK SMILES IDX 59 56 81 57 46 58 29 59 30 60 39 61 31 62 32 63 38 64 40 65
REMARK SMILES IDX 33 66 34 67 35 68 36 69 37 70 63 71 64 72 73 73 65 74 66 75
REMARK SMILES IDX 72 76 74 77 67 78 68 79 69 80 70 81 71 82 47 83 48 84 57 85
REMARK SMILES IDX 49 86 50 87 56 88 58 89 51 90 52 91 53 92 54 93 55 94
REMARK H PARENT 79 44 45 55
REMARK Flexibility Score: inf
ROOT
ATOM      1  C   UNL A   1      32.044  28.844  23.598  1.00  0.00     0.188 C 
ENDROOT
BRANCH   1   2
ATOM      2  C   UNL A   1      30.745  28.116  23.205  1.00  0.00     0.188 C 
BRANCH   2   3
ATOM      3  O   UNL A   1      30.847  26.720  22.940  1.00  0.00    -0.376 OA
BRANCH   3   4
ATOM      4  C   UNL A   1      31.341  26.339  21.664  1.00  0.00     0.202 C 
BRANCH   4   5
ATOM      5  C   UNL A   1      32.860  26.360  21.522  1.00  0.00     0.261 C 
BRANCH   5   6
ATOM      6  O   UNL A   1      33.493  25.188  22.082  1.00  0.00    -0.463 OA
BRANCH   6   7
ATOM      7  C   UNL A   1      34.017  25.320  23.326  1.00  0.00     0.309 C 
ATOM      8  O   UNL A   1      34.336  26.390  23.829  1.00  0.00    -0.252 OA
BRANCH   7   9
ATOM      9  C   UNL A   1      34.298  23.980  24.008  1.00  0.00     0.102 C 
BRANCH   9  10
ATOM     10  C   UNL A   1      35.542  23.334  23.345  1.00  0.00     0.018 C 
BRANCH  10  11
ATOM     11  C   UNL A   1      36.817  23.060  24.185  1.00  0.00    -0.017 C 
ATOM     12  C   UNL A   1      36.864  23.760  25.540  1.00  0.00     0.007 C 
ATOM     13  C   UNL A   1      36.936  21.547  24.406  1.00  0.00     0.007 C 
ENDBRANCH  10  11
ENDBRANCH   9  10
BRANCH   9  14
ATOM     14  C   UNL A   1      33.095  23.029  24.253  1.00  0.00     0.003 C 
ATOM     15  C   UNL A   1      31.806  23.759  24.685  1.00  0.00     0.004 C 
ATOM     16  C   UNL A   1      33.404  21.934  25.309  1.00  0.00     0.007 C 
ATOM     17  C   UNL A   1      31.772  24.216  26.143  1.00  0.00     0.001 C 
ATOM     18  C   UNL A   1      33.474  22.480  26.744  1.00  0.00    -0.014 C 
ATOM     19  C   UNL A   1      32.136  23.110  27.119  1.00  0.00     0.003 C 
ATOM     20  C   UNL A   1      33.844  21.384  27.739  1.00  0.00     0.007 C 
ENDBRANCH   9  14
ENDBRANCH   7   9
ENDBRANCH   6   7
ENDBRANCH   5   6
ENDBRANCH   4   5
ENDBRANCH   3   4
ENDBRANCH   2   3
ENDBRANCH   1   2
BRANCH   1  21
ATOM     21  O   UNL A   1      32.265  29.068  24.986  1.00  0.00    -0.376 OA
BRANCH  21  22
ATOM     22  C   UNL A   1      31.970  27.991  25.870  1.00  0.00     0.202 C 
BRANCH  22  23
ATOM     23  C   UNL A   1      32.470  28.190  27.303  1.00  0.00     0.261 C 
BRANCH  23  24
ATOM     24  O   UNL A   1      33.888  28.453  27.321  1.00  0.00    -0.460 OA
BRANCH  24  25
ATOM     25  C   UNL A   1      34.246  29.711  27.672  1.00  0.00     0.338 C 
ATOM     26  O   UNL A   1      33.515  30.680  27.770  1.00  0.00    -0.246 OA
BRANCH  25  27
ATOM     27  C   UNL A   1      35.654  29.735  28.115  1.00  0.00     0.060 A 
ATOM     28  C   UNL A   1      36.619  30.072  27.161  1.00  0.00     0.016 A 
ATOM     29  C   UNL A   1      36.044  29.323  29.388  1.00  0.00     0.016 A 
ATOM     30  C   UNL A   1      37.978  29.950  27.450  1.00  0.00     0.010 A 
ATOM     31  C   UNL A   1      37.411  29.191  29.677  1.00  0.00     0.010 A 
ATOM     32  C   UNL A   1      38.386  29.467  28.698  1.00  0.00    -0.014 A 
BRANCH  32  33
ATOM     33  C   UNL A   1      39.808  29.083  28.916  1.00  0.00     0.031 A 
ATOM     34  C   UNL A   1      40.755  30.105  29.491  1.00  0.00     0.074 A 
ATOM     35  C   UNL A   1      40.254  27.841  28.657  1.00  0.00     0.049 A 
ATOM     36  N   UNL A   1      42.055  30.051  29.631  1.00  0.00    -0.248 NA
ATOM     37  C   UNL A   1      40.150  31.357  29.974  1.00  0.00     0.031 C 
ATOM     38  C   UNL A   1      39.432  26.723  28.198  1.00  0.00     0.029 A 
ATOM     39  N   UNL A   1      41.521  27.314  28.742  1.00  0.00    -0.354 N 
ATOM     40  C   UNL A   1      42.429  31.273  30.177  1.00  0.00     0.074 A 
ATOM     41  C   UNL A   1      41.218  32.048  30.344  1.00  0.00     0.031 C 
ATOM     42  C   UNL A   1      40.216  25.642  28.037  1.00  0.00     0.029 A 
ATOM     43  C   UNL A   1      41.602  26.005  28.326  1.00  0.00     0.049 A 
ATOM     44  H   UNL A   1      42.296  27.823  29.070  1.00  0.00     0.167 HD
ATOM     45  C   UNL A   1      43.668  31.714  30.502  1.00  0.00     0.037 A 
ATOM     46  C   UNL A   1      42.675  25.205  28.159  1.00  0.00     0.037 A 
ATOM     47  C   UNL A   1      44.869  30.932  30.364  1.00  0.00     0.049 A 
ATOM     48  C   UNL A   1      44.054  25.739  28.452  1.00  0.00     0.074 A 
ATOM     49  C   UNL A   1      46.171  31.292  30.665  1.00  0.00     0.029 A 
ATOM     50  N   UNL A   1      44.915  29.630  29.887  1.00  0.00    -0.354 N 
ATOM     51  N   UNL A   1      44.404  26.916  28.914  1.00  0.00    -0.248 NA
ATOM     52  C   UNL A   1      45.187  24.841  28.181  1.00  0.00     0.031 C 
ATOM     53  C   UNL A   1      47.009  30.220  30.333  1.00  0.00     0.029 A 
ATOM     54  C   UNL A   1      46.223  29.178  29.867  1.00  0.00     0.049 A 
ATOM     55  H   UNL A   1      44.132  29.104  29.605  1.00  0.00     0.167 HD
ATOM     56  C   UNL A   1      45.793  26.892  29.009  1.00  0.00     0.074 A 
ATOM     57  C   UNL A   1      46.219  25.582  28.564  1.00  0.00     0.031 C 
ATOM     58  C   UNL A   1      46.637  27.868  29.428  1.00  0.00     0.037 A 
BRANCH  45  59
ATOM     59  C   UNL A   1      43.791  33.132  30.987  1.00  0.00     0.058 A 
ATOM     60  C   UNL A   1      44.086  34.195  30.120  1.00  0.00     0.135 A 
ATOM     61  C   UNL A   1      43.608  33.428  32.348  1.00  0.00     0.135 A 
ATOM     62  F   UNL A   1      44.288  33.966  28.813  1.00  0.00    -0.206 F 
ATOM     63  C   UNL A   1      44.234  35.497  30.591  1.00  0.00     0.059 A 
ATOM     64  C   UNL A   1      43.727  34.724  32.837  1.00  0.00     0.059 A 
ATOM     65  F   UNL A   1      43.324  32.447  33.220  1.00  0.00    -0.206 F 
ATOM     66  C   UNL A   1      44.061  35.749  31.954  1.00  0.00     0.060 A 
BRANCH  66  67
ATOM     67  S   UNL A   1      44.283  37.435  32.560  1.00  0.00     0.124 S 
ATOM     68  O   UNL A   1      43.883  38.217  31.395  1.00  0.00    -0.237 OA
ATOM     69  O   UNL A   1      43.371  37.483  33.699  1.00  0.00    -0.237 OA
ATOM     70  O   UNL A   1      45.702  37.491  32.896  1.00  0.00    -0.744 OA
ENDBRANCH  66  67
ENDBRANCH  45  59
BRANCH  46  71
ATOM     71  C   UNL A   1      42.496  23.817  27.655  1.00  0.00     0.058 A 
ATOM     72  C   UNL A   1      42.367  23.556  26.283  1.00  0.00     0.135 A 
ATOM     73  C   UNL A   1      42.450  22.723  28.534  1.00  0.00     0.135 A 
ATOM     74  F   UNL A   1      42.383  24.570  25.403  1.00  0.00    -0.206 F 
ATOM     75  C   UNL A   1      42.197  22.262  25.798  1.00  0.00     0.059 A 
ATOM     76  C   UNL A   1      42.307  21.418  28.072  1.00  0.00     0.059 A 
ATOM     77  F   UNL A   1      42.568  22.918  29.856  1.00  0.00    -0.206 F 
ATOM     78  C   UNL A   1      42.174  21.199  26.702  1.00  0.00     0.060 A 
BRANCH  78  79
ATOM     79  S   UNL A   1      42.016  19.517  26.061  1.00  0.00     0.124 S 
ATOM     80  O   UNL A   1      40.587  19.444  25.778  1.00  0.00    -0.237 OA
ATOM     81  O   UNL A   1      42.897  19.546  24.897  1.00  0.00    -0.237 OA
ATOM     82  O   UNL A   1      42.483  18.690  27.170  1.00  0.00    -0.744 OA
ENDBRANCH  78  79
ENDBRANCH  46  71
BRANCH  58  83
ATOM     83  C   UNL A   1      48.107  27.552  29.459  1.00  0.00     0.058 A 
ATOM     84  C   UNL A   1      48.935  27.781  28.349  1.00  0.00     0.135 A 
ATOM     85  C   UNL A   1      48.705  27.068  30.635  1.00  0.00     0.135 A 
ATOM     86  F   UNL A   1      48.413  28.238  27.201  1.00  0.00    -0.206 F 
ATOM     87  C   UNL A   1      50.303  27.525  28.398  1.00  0.00     0.059 A 
ATOM     88  C   UNL A   1      50.074  26.827  30.713  1.00  0.00     0.059 A 
ATOM     89  F   UNL A   1      47.960  26.842  31.728  1.00  0.00    -0.206 F 
ATOM     90  C   UNL A   1      50.863  27.049  29.585  1.00  0.00     0.060 A 
BRANCH  90  91
ATOM     91  S   UNL A   1      52.644  26.757  29.650  1.00  0.00     0.124 S 
ATOM     92  O   UNL A   1      52.888  26.141  28.350  1.00  0.00    -0.237 OA
ATOM     93  O   UNL A   1      53.178  28.105  29.823  1.00  0.00    -0.237 OA
ATOM     94  O   UNL A   1      52.802  25.875  30.803  1.00  0.00    -0.744 OA
ENDBRANCH  90  91
ENDBRANCH  58  83
ENDBRANCH  32  33
ENDBRANCH  25  27
ENDBRANCH  24  25
ENDBRANCH  23  24
ENDBRANCH  22  23
ENDBRANCH  21  22
ENDBRANCH   1  21
TORSDOF 23
ENDMDL
MODEL 3
REMARK VINA RESULT:      -9.3      3.092      8.104
REMARK SMILES CC(C)C[C@@H](C(=O)OCCOCCOCCOC(=O)c1ccc(-c2c3nc(c(-c4c(F)cc(S(=O)(=O)[O-])cc4F)c4ccc([nH]4)c(-c4c(F)cc(S(=O)(=O)[O-])cc4F)c4nc(c(-c5c(F)cc(S(=O)(=O)[O-])cc5F)c5ccc2[nH]5)C=C4)C=C3)cc1)[C@@H]1CCC[C@@H](C)C1
REMARK SMILES IDX 13 1 12 2 11 3 10 4 9 5 8 6 6 7 7 8 5 9 4 10 2 11 1 12 3 13
REMARK SMILES IDX 86 14 87 15 92 16 88 17 90 18 89 19 91 20 14 21 15 22 16 23
REMARK SMILES IDX 17 24 18 25 19 26 20 27 21 28 85 29 22 30 84 31 23 32 24 33
REMARK SMILES IDX 25 34 78 35 26 36 83 37 77 38 79 39 27 40 82 41 76 42 75 43
REMARK SMILES IDX 28 45 62 46 41 47 61 48 42 49 45 50 60 51 80 52 43 53 44 54
REMARK SMILES IDX 59 56 81 57 46 58 29 59 30 60 39 61 31 62 32 63 38 64 40 65
REMARK SMILES IDX 33 66 34 67 35 68 36 69 37 70 63 71 64 72 73 73 65 74 66 75
REMARK SMILES IDX 72 76 74 77 67 78 68 79 69 80 70 81 71 82 47 83 48 84 57 85
REMARK SMILES IDX 49 86 50 87 56 88 58 89 51 90 52 91 53 92 54 93 55 94
REMARK H PARENT 79 44 45 55
REMARK Flexibility Score: inf
ROOT
ATOM      1  C   UNL A   1      36.330  22.378  25.028  1.00  0.00     0.188 C 
ENDROOT
BRANCH   1   2
ATOM      2  C   UNL A   1      36.851  22.808  23.644  1.00  0.00     0.188 C 
BRANCH   2   3
ATOM      3  O   UNL A   1      35.872  23.089  22.649  1.00  0.00    -0.376 OA
BRANCH   3   4
ATOM      4  C   UNL A   1      34.517  23.144  23.072  1.00  0.00     0.202 C 
BRANCH   4   5
ATOM      5  C   UNL A   1      33.540  23.723  22.052  1.00  0.00     0.261 C 
BRANCH   5   6
ATOM      6  O   UNL A   1      33.540  25.168  22.033  1.00  0.00    -0.463 OA
BRANCH   6   7
ATOM      7  C   UNL A   1      32.336  25.775  22.173  1.00  0.00     0.309 C 
ATOM      8  O   UNL A   1      31.569  26.006  21.247  1.00  0.00    -0.252 OA
BRANCH   7   9
ATOM      9  C   UNL A   1      32.070  26.267  23.597  1.00  0.00     0.102 C 
BRANCH   9  10
ATOM     10  C   UNL A   1      31.043  25.319  24.269  1.00  0.00     0.018 C 
BRANCH  10  11
ATOM     11  C   UNL A   1      31.520  24.256  25.293  1.00  0.00    -0.017 C 
ATOM     12  C   UNL A   1      32.829  24.581  26.004  1.00  0.00     0.007 C 
ATOM     13  C   UNL A   1      30.419  24.070  26.345  1.00  0.00     0.007 C 
ENDBRANCH  10  11
ENDBRANCH   9  10
BRANCH   9  14
ATOM     14  C   UNL A   1      31.819  27.786  23.800  1.00  0.00     0.003 C 
ATOM     15  C   UNL A   1      33.087  28.650  23.644  1.00  0.00     0.004 C 
ATOM     16  C   UNL A   1      31.184  28.108  25.180  1.00  0.00     0.007 C 
ATOM     17  C   UNL A   1      34.044  28.627  24.835  1.00  0.00     0.001 C 
ATOM     18  C   UNL A   1      32.168  27.949  26.349  1.00  0.00    -0.014 C 
ATOM     19  C   UNL A   1      33.349  28.896  26.159  1.00  0.00     0.003 C 
ATOM     20  C   UNL A   1      31.487  28.210  27.690  1.00  0.00     0.007 C 
ENDBRANCH   9  14
ENDBRANCH   7   9
ENDBRANCH   6   7
ENDBRANCH   5   6
ENDBRANCH   4   5
ENDBRANCH   3   4
ENDBRANCH   2   3
ENDBRANCH   1   2
BRANCH   1  21
ATOM     21  O   UNL A   1      36.658  21.062  25.462  1.00  0.00    -0.376 OA
BRANCH  21  22
ATOM     22  C   UNL A   1      37.981  20.606  25.201  1.00  0.00     0.202 C 
BRANCH  22  23
ATOM     23  C   UNL A   1      39.071  21.331  25.994  1.00  0.00     0.261 C 
BRANCH  23  24
ATOM     24  O   UNL A   1      39.813  20.404  26.815  1.00  0.00    -0.460 OA
BRANCH  24  25
ATOM     25  C   UNL A   1      41.021  20.030  26.331  1.00  0.00     0.338 C 
ATOM     26  O   UNL A   1      41.275  19.026  25.689  1.00  0.00    -0.246 OA
BRANCH  25  27
ATOM     27  C   UNL A   1      42.004  21.114  26.524  1.00  0.00     0.060 A 
ATOM     28  C   UNL A   1      42.284  21.496  27.839  1.00  0.00     0.016 A 
ATOM     29  C   UNL A   1      42.551  21.826  25.458  1.00  0.00     0.016 A 
ATOM     30  C   UNL A   1      43.066  22.621  28.102  1.00  0.00     0.010 A 
ATOM     31  C   UNL A   1      43.330  22.964  25.721  1.00  0.00     0.010 A 
ATOM     32  C   UNL A   1      43.561  23.391  27.043  1.00  0.00    -0.014 A 
BRANCH  32  33
ATOM     33  C   UNL A   1      44.160  24.727  27.313  1.00  0.00     0.031 A 
ATOM     34  C   UNL A   1      43.270  25.832  27.818  1.00  0.00     0.074 A 
ATOM     35  C   UNL A   1      45.478  24.956  27.162  1.00  0.00     0.049 A 
ATOM     36  N   UNL A   1      43.532  27.104  27.983  1.00  0.00    -0.248 NA
ATOM     37  C   UNL A   1      41.898  25.448  28.189  1.00  0.00     0.031 C 
ATOM     38  C   UNL A   1      46.474  23.956  26.782  1.00  0.00     0.029 A 
ATOM     39  N   UNL A   1      46.203  26.114  27.310  1.00  0.00    -0.354 N 
ATOM     40  C   UNL A   1      42.349  27.679  28.434  1.00  0.00     0.074 A 
ATOM     41  C   UNL A   1      41.370  26.617  28.519  1.00  0.00     0.031 C 
ATOM     42  C   UNL A   1      47.682  24.545  26.722  1.00  0.00     0.029 A 
ATOM     43  C   UNL A   1      47.536  25.973  27.002  1.00  0.00     0.049 A 
ATOM     44  H   UNL A   1      45.807  26.964  27.607  1.00  0.00     0.167 HD
ATOM     45  C   UNL A   1      42.099  28.975  28.742  1.00  0.00     0.037 A 
ATOM     46  C   UNL A   1      48.517  26.894  26.917  1.00  0.00     0.037 A 
ATOM     47  C   UNL A   1      43.082  30.025  28.686  1.00  0.00     0.049 A 
ATOM     48  C   UNL A   1      48.201  28.344  27.187  1.00  0.00     0.074 A 
ATOM     49  C   UNL A   1      42.924  31.369  28.978  1.00  0.00     0.029 A 
ATOM     50  N   UNL A   1      44.408  29.850  28.317  1.00  0.00    -0.354 N 
ATOM     51  N   UNL A   1      47.067  28.888  27.559  1.00  0.00    -0.248 NA
ATOM     52  C   UNL A   1      49.297  29.308  27.008  1.00  0.00     0.031 C 
ATOM     53  C   UNL A   1      44.146  32.013  28.747  1.00  0.00     0.029 A 
ATOM     54  C   UNL A   1      45.074  31.063  28.354  1.00  0.00     0.049 A 
ATOM     55  H   UNL A   1      44.815  28.990  28.066  1.00  0.00     0.167 HD
ATOM     56  C   UNL A   1      47.317  30.252  27.677  1.00  0.00     0.074 A 
ATOM     57  C   UNL A   1      48.713  30.450  27.346  1.00  0.00     0.031 C 
ATOM     58  C   UNL A   1      46.468  31.249  28.029  1.00  0.00     0.037 A 
BRANCH  45  59
ATOM     59  C   UNL A   1      40.687  29.335  29.112  1.00  0.00     0.058 A 
ATOM     60  C   UNL A   1      39.689  29.532  28.147  1.00  0.00     0.135 A 
ATOM     61  C   UNL A   1      40.332  29.487  30.463  1.00  0.00     0.135 A 
ATOM     62  F   UNL A   1      39.978  29.417  26.841  1.00  0.00    -0.206 F 
ATOM     63  C   UNL A   1      38.395  29.904  28.505  1.00  0.00     0.059 A 
ATOM     64  C   UNL A   1      39.041  29.834  30.845  1.00  0.00     0.059 A 
ATOM     65  F   UNL A   1      41.250  29.310  31.427  1.00  0.00    -0.206 F 
ATOM     66  C   UNL A   1      38.084  30.060  29.857  1.00  0.00     0.060 A 
BRANCH  66  67
ATOM     67  S   UNL A   1      36.413  30.570  30.310  1.00  0.00     0.124 S 
ATOM     68  O   UNL A   1      36.522  32.024  30.232  1.00  0.00    -0.237 OA
ATOM     69  O   UNL A   1      35.600  29.940  29.274  1.00  0.00    -0.237 OA
ATOM     70  O   UNL A   1      36.242  30.024  31.652  1.00  0.00    -0.744 OA
ENDBRANCH  66  67
ENDBRANCH  45  59
BRANCH  46  71
ATOM     71  C   UNL A   1      49.891  26.483  26.524  1.00  0.00     0.058 A 
ATOM     72  C   UNL A   1      50.846  26.129  27.488  1.00  0.00     0.135 A 
ATOM     73  C   UNL A   1      50.278  26.433  25.175  1.00  0.00     0.135 A 
ATOM     74  F   UNL A   1      50.532  26.179  28.792  1.00  0.00    -0.206 F 
ATOM     75  C   UNL A   1      52.135  25.742  27.133  1.00  0.00     0.059 A 
ATOM     76  C   UNL A   1      51.552  26.026  24.792  1.00  0.00     0.059 A 
ATOM     77  F   UNL A   1      49.403  26.762  24.212  1.00  0.00    -0.206 F 
ATOM     78  C   UNL A   1      52.477  25.689  25.780  1.00  0.00     0.060 A 
BRANCH  78  79
ATOM     79  S   UNL A   1      54.132  25.128  25.324  1.00  0.00     0.124 S 
ATOM     80  O   UNL A   1      53.874  23.750  24.920  1.00  0.00    -0.237 OA
ATOM     81  O   UNL A   1      54.487  26.052  24.252  1.00  0.00    -0.237 OA
ATOM     82  O   UNL A   1      54.894  25.292  26.560  1.00  0.00    -0.744 OA
ENDBRANCH  78  79
ENDBRANCH  46  71
BRANCH  58  83
ATOM     83  C   UNL A   1      47.024  32.643  28.109  1.00  0.00     0.058 A 
ATOM     84  C   UNL A   1      47.741  33.089  29.230  1.00  0.00     0.135 A 
ATOM     85  C   UNL A   1      46.887  33.527  27.025  1.00  0.00     0.135 A 
ATOM     86  F   UNL A   1      47.897  32.287  30.294  1.00  0.00    -0.206 F 
ATOM     87  C   UNL A   1      48.290  34.368  29.281  1.00  0.00     0.059 A 
ATOM     88  C   UNL A   1      47.446  34.801  27.045  1.00  0.00     0.059 A 
ATOM     89  F   UNL A   1      46.219  33.147  25.924  1.00  0.00    -0.206 F 
ATOM     90  C   UNL A   1      48.137  35.216  28.183  1.00  0.00     0.060 A 
BRANCH  90  91
ATOM     91  S   UNL A   1      48.885  36.859  28.244  1.00  0.00     0.124 S 
ATOM     92  O   UNL A   1      50.259  36.572  27.844  1.00  0.00    -0.237 OA
ATOM     93  O   UNL A   1      48.086  37.605  27.276  1.00  0.00    -0.237 OA
ATOM     94  O   UNL A   1      48.707  37.262  29.636  1.00  0.00    -0.744 OA
ENDBRANCH  90  91
ENDBRANCH  58  83
ENDBRANCH  32  33
ENDBRANCH  25  27
ENDBRANCH  24  25
ENDBRANCH  23  24
ENDBRANCH  22  23
ENDBRANCH  21  22
ENDBRANCH   1  21
TORSDOF 23
ENDMDL
