MODEL 1
REMARK VINA RESULT:      -8.9      0.000      0.000
REMARK SMILES COc1cc([C@H]([NH3+])CC(=O)OCCOCCOCCOC(=O)c2ccc(-c3c4nc(c(-c5c(F)cc(S(=O)(=O)[O-])cc5F)c5ccc([nH]5)c(-c5c(F)cc(S(=O)(=O)[O-])cc5F)c5nc(c(-c6c(F)cc(S(=O)(=O)[O-])cc6F)c6ccc3[nH]6)C=C5)C=C4)cc2)c([N+](=O)[O-])cc1OC
REMARK SMILES IDX 15 1 14 2 13 3 12 4 11 5 9 6 10 7 8 8 6 9 5 10 3 11 4 12
REMARK SMILES IDX 94 13 93 14 89 15 2 16 1 17 95 18 96 19 90 20 91 21 92 22
REMARK SMILES IDX 7 23 16 27 17 28 18 29 19 30 20 31 21 32 22 33 23 34 24 35
REMARK SMILES IDX 88 36 25 37 87 38 26 39 27 40 28 41 81 42 29 43 86 44 80 45
REMARK SMILES IDX 82 46 30 47 85 48 79 49 78 50 31 52 65 53 44 54 64 55 45 56
REMARK SMILES IDX 48 57 63 58 83 59 46 60 47 61 62 63 84 64 49 65 32 66 33 67
REMARK SMILES IDX 42 68 34 69 35 70 41 71 43 72 36 73 37 74 38 75 39 76 40 77
REMARK SMILES IDX 66 78 67 79 76 80 68 81 69 82 75 83 77 84 70 85 71 86 72 87
REMARK SMILES IDX 73 88 74 89 50 90 51 91 60 92 52 93 53 94 59 95 61 96 54 97
REMARK SMILES IDX 55 98 56 99 57 100 58 101
REMARK H PARENT 7 24 7 25 7 26 82 51 48 62
REMARK Flexibility Score: inf
ROOT
ATOM      1  C   UNL A   1      39.854  21.487  26.686  1.00  0.00     0.188 C 
ENDROOT
BRANCH   1   2
ATOM      2  O   UNL A   1      39.248  22.273  25.661  1.00  0.00    -0.376 OA
BRANCH   2   3
ATOM      3  C   UNL A   1      37.839  22.117  25.484  1.00  0.00     0.202 C 
BRANCH   3   4
ATOM      4  C   UNL A   1      36.999  23.390  25.678  1.00  0.00     0.261 C 
BRANCH   4   5
ATOM      5  O   UNL A   1      35.901  23.223  26.607  1.00  0.00    -0.463 OA
BRANCH   5   6
ATOM      6  C   UNL A   1      34.683  23.042  26.032  1.00  0.00     0.312 C 
ATOM      7  O   UNL A   1      34.460  22.250  25.123  1.00  0.00    -0.252 OA
BRANCH   6   8
ATOM      8  C   UNL A   1      33.554  23.770  26.736  1.00  0.00     0.193 C 
BRANCH   8   9
ATOM      9  C   UNL A   1      32.166  23.921  26.070  1.00  0.00     0.230 C 
BRANCH   9  10
ATOM     10  C   UNL A   1      32.119  25.266  25.305  1.00  0.00     0.091 A 
ATOM     11  C   UNL A   1      32.318  27.733  25.495  1.00  0.00     0.161 A 
ATOM     12  C   UNL A   1      32.503  26.436  26.011  1.00  0.00     0.067 A 
ATOM     13  C   UNL A   1      31.785  27.913  24.219  1.00  0.00     0.167 A 
ATOM     14  C   UNL A   1      31.515  26.782  23.450  1.00  0.00     0.136 A 
ATOM     15  C   UNL A   1      31.695  25.485  23.977  1.00  0.00     0.282 A 
BRANCH  11  16
ATOM     16  O   UNL A   1      32.774  28.809  26.207  1.00  0.00    -0.493 OA
ATOM     17  C   UNL A   1      34.116  28.652  26.670  1.00  0.00     0.278 C 
ENDBRANCH  11  16
BRANCH  13  18
ATOM     18  O   UNL A   1      31.534  29.094  23.576  1.00  0.00    -0.493 OA
ATOM     19  C   UNL A   1      30.285  29.723  23.848  1.00  0.00     0.278 C 
ENDBRANCH  13  18
BRANCH  15  20
ATOM     20  N   UNL A   1      31.523  24.406  23.012  1.00  0.00     0.063 N 
ATOM     21  O   UNL A   1      32.339  24.348  22.077  1.00  0.00    -0.258 OA
ATOM     22  O   UNL A   1      30.528  23.678  23.138  1.00  0.00    -0.258 OA
ENDBRANCH  15  20
ENDBRANCH   9  10
BRANCH   9  23
ATOM     23  N   UNL A   1      31.136  23.775  27.098  1.00  0.00    -0.351 N 
ATOM     24  H   UNL A   1      31.513  23.242  27.883  1.00  0.00     0.345 HD
ATOM     25  H   UNL A   1      30.333  23.283  26.709  1.00  0.00     0.345 HD
ATOM     26  H   UNL A   1      30.846  24.698  27.423  1.00  0.00     0.345 HD
ENDBRANCH   9  23
ENDBRANCH   8   9
ENDBRANCH   6   8
ENDBRANCH   5   6
ENDBRANCH   4   5
ENDBRANCH   3   4
ENDBRANCH   2   3
ENDBRANCH   1   2
BRANCH   1  27
ATOM     27  C   UNL A   1      40.380  20.122  26.236  1.00  0.00     0.188 C 
BRANCH  27  28
ATOM     28  O   UNL A   1      41.666  20.157  25.633  1.00  0.00    -0.376 OA
BRANCH  28  29
ATOM     29  C   UNL A   1      42.767  20.567  26.448  1.00  0.00     0.202 C 
BRANCH  29  30
ATOM     30  C   UNL A   1      43.512  21.865  26.066  1.00  0.00     0.261 C 
BRANCH  30  31
ATOM     31  O   UNL A   1      43.173  23.042  26.826  1.00  0.00    -0.460 OA
BRANCH  31  32
ATOM     32  C   UNL A   1      42.862  24.168  26.141  1.00  0.00     0.338 C 
ATOM     33  O   UNL A   1      42.754  24.266  24.930  1.00  0.00    -0.246 OA
BRANCH  32  34
ATOM     34  C   UNL A   1      42.396  25.198  27.110  1.00  0.00     0.060 A 
ATOM     35  C   UNL A   1      42.962  26.480  27.029  1.00  0.00     0.016 A 
ATOM     36  C   UNL A   1      41.373  24.950  28.031  1.00  0.00     0.016 A 
ATOM     37  C   UNL A   1      42.541  27.496  27.890  1.00  0.00     0.010 A 
ATOM     38  C   UNL A   1      40.962  25.965  28.905  1.00  0.00     0.010 A 
ATOM     39  C   UNL A   1      41.567  27.234  28.863  1.00  0.00    -0.014 A 
BRANCH  39  40
ATOM     40  C   UNL A   1      41.344  28.209  29.964  1.00  0.00     0.031 A 
ATOM     41  C   UNL A   1      42.250  28.141  31.166  1.00  0.00     0.074 A 
ATOM     42  C   UNL A   1      40.387  29.153  29.904  1.00  0.00     0.049 A 
ATOM     43  N   UNL A   1      42.237  28.856  32.260  1.00  0.00    -0.248 NA
ATOM     44  C   UNL A   1      43.313  27.124  31.124  1.00  0.00     0.031 C 
ATOM     45  C   UNL A   1      39.464  29.358  28.789  1.00  0.00     0.029 A 
ATOM     46  N   UNL A   1      40.029  30.117  30.817  1.00  0.00    -0.354 N 
ATOM     47  C   UNL A   1      43.281  28.371  33.040  1.00  0.00     0.074 A 
ATOM     48  C   UNL A   1      43.887  27.281  32.306  1.00  0.00     0.031 C 
ATOM     49  C   UNL A   1      38.635  30.374  29.090  1.00  0.00     0.029 A 
ATOM     50  C   UNL A   1      38.948  30.874  30.430  1.00  0.00     0.049 A 
ATOM     51  H   UNL A   1      40.502  30.252  31.670  1.00  0.00     0.167 HD
ATOM     52  C   UNL A   1      43.707  28.798  34.253  1.00  0.00     0.037 A 
ATOM     53  C   UNL A   1      38.276  31.842  31.089  1.00  0.00     0.037 A 
ATOM     54  C   UNL A   1      43.107  29.881  34.987  1.00  0.00     0.049 A 
ATOM     55  C   UNL A   1      38.723  32.259  32.469  1.00  0.00     0.074 A 
ATOM     56  C   UNL A   1      43.483  30.399  36.214  1.00  0.00     0.029 A 
ATOM     57  N   UNL A   1      41.998  30.603  34.572  1.00  0.00    -0.354 N 
ATOM     58  N   UNL A   1      39.731  31.812  33.181  1.00  0.00    -0.248 NA
ATOM     59  C   UNL A   1      37.943  33.313  33.134  1.00  0.00     0.031 C 
ATOM     60  C   UNL A   1      42.569  31.397  36.566  1.00  0.00     0.029 A 
ATOM     61  C   UNL A   1      41.659  31.543  35.533  1.00  0.00     0.049 A 
ATOM     62  H   UNL A   1      41.523  30.468  33.721  1.00  0.00     0.167 HD
ATOM     63  C   UNL A   1      39.722  32.550  34.363  1.00  0.00     0.074 A 
ATOM     64  C   UNL A   1      38.616  33.479  34.266  1.00  0.00     0.031 C 
ATOM     65  C   UNL A   1      40.558  32.469  35.427  1.00  0.00     0.037 A 
BRANCH  52  66
ATOM     66  C   UNL A   1      44.859  28.063  34.879  1.00  0.00     0.058 A 
ATOM     67  C   UNL A   1      44.669  26.923  35.676  1.00  0.00     0.135 A 
ATOM     68  C   UNL A   1      46.177  28.499  34.662  1.00  0.00     0.135 A 
ATOM     69  F   UNL A   1      43.429  26.476  35.932  1.00  0.00    -0.206 F 
ATOM     70  C   UNL A   1      45.742  26.259  36.262  1.00  0.00     0.059 A 
ATOM     71  C   UNL A   1      47.267  27.832  35.214  1.00  0.00     0.059 A 
ATOM     72  F   UNL A   1      46.416  29.585  33.911  1.00  0.00    -0.206 F 
ATOM     73  C   UNL A   1      47.038  26.724  36.026  1.00  0.00     0.060 A 
BRANCH  73  74
ATOM     74  S   UNL A   1      48.418  25.856  36.799  1.00  0.00     0.124 S 
ATOM     75  O   UNL A   1      48.293  26.291  38.188  1.00  0.00    -0.237 OA
ATOM     76  O   UNL A   1      48.092  24.458  36.541  1.00  0.00    -0.237 OA
ATOM     77  O   UNL A   1      49.585  26.367  36.085  1.00  0.00    -0.744 OA
ENDBRANCH  73  74
ENDBRANCH  52  66
BRANCH  53  78
ATOM     78  C   UNL A   1      37.088  32.482  30.458  1.00  0.00     0.058 A 
ATOM     79  C   UNL A   1      35.785  32.053  30.754  1.00  0.00     0.135 A 
ATOM     80  C   UNL A   1      37.234  33.534  29.539  1.00  0.00     0.135 A 
ATOM     81  F   UNL A   1      35.591  31.040  31.611  1.00  0.00    -0.206 F 
ATOM     82  C   UNL A   1      34.671  32.640  30.161  1.00  0.00     0.059 A 
ATOM     83  C   UNL A   1      36.135  34.154  28.953  1.00  0.00     0.059 A 
ATOM     84  F   UNL A   1      38.459  33.983  29.222  1.00  0.00    -0.206 F 
ATOM     85  C   UNL A   1      34.857  33.696  29.266  1.00  0.00     0.060 A 
BRANCH  85  86
ATOM     86  S   UNL A   1      33.401  34.497  28.559  1.00  0.00     0.124 S 
ATOM     87  O   UNL A   1      32.863  33.437  27.714  1.00  0.00    -0.237 OA
ATOM     88  O   UNL A   1      32.623  34.820  29.752  1.00  0.00    -0.237 OA
ATOM     89  O   UNL A   1      33.960  35.646  27.854  1.00  0.00    -0.744 OA
ENDBRANCH  85  86
ENDBRANCH  53  78
BRANCH  65  90
ATOM     90  C   UNL A   1      40.343  33.431  36.567  1.00  0.00     0.058 A 
ATOM     91  C   UNL A   1      41.027  34.655  36.647  1.00  0.00     0.135 A 
ATOM     92  C   UNL A   1      39.391  33.150  37.563  1.00  0.00     0.135 A 
ATOM     93  F   UNL A   1      41.949  34.974  35.725  1.00  0.00    -0.206 F 
ATOM     94  C   UNL A   1      40.794  35.552  37.685  1.00  0.00     0.059 A 
ATOM     95  C   UNL A   1      39.122  34.046  38.594  1.00  0.00     0.059 A 
ATOM     96  F   UNL A   1      38.697  32.001  37.529  1.00  0.00    -0.206 F 
ATOM     97  C   UNL A   1      39.838  35.240  38.654  1.00  0.00     0.060 A 
BRANCH  97  98
ATOM     98  S   UNL A   1      39.525  36.426  39.979  1.00  0.00     0.124 S 
ATOM     99  O   UNL A   1      39.295  37.654  39.226  1.00  0.00    -0.237 OA
ATOM    100  O   UNL A   1      38.354  35.857  40.638  1.00  0.00    -0.237 OA
ATOM    101  O   UNL A   1      40.756  36.392  40.763  1.00  0.00    -0.744 OA
ENDBRANCH  97  98
ENDBRANCH  65  90
ENDBRANCH  39  40
ENDBRANCH  32  34
ENDBRANCH  31  32
ENDBRANCH  30  31
ENDBRANCH  29  30
ENDBRANCH  28  29
ENDBRANCH  27  28
ENDBRANCH   1  27
TORSDOF 26
ENDMDL
MODEL 2
REMARK VINA RESULT:      -8.4      5.710     11.283
REMARK SMILES COc1cc([C@H]([NH3+])CC(=O)OCCOCCOCCOC(=O)c2ccc(-c3c4nc(c(-c5c(F)cc(S(=O)(=O)[O-])cc5F)c5ccc([nH]5)c(-c5c(F)cc(S(=O)(=O)[O-])cc5F)c5nc(c(-c6c(F)cc(S(=O)(=O)[O-])cc6F)c6ccc3[nH]6)C=C5)C=C4)cc2)c([N+](=O)[O-])cc1OC
REMARK SMILES IDX 15 1 14 2 13 3 12 4 11 5 9 6 10 7 8 8 6 9 5 10 3 11 4 12
REMARK SMILES IDX 94 13 93 14 89 15 2 16 1 17 95 18 96 19 90 20 91 21 92 22
REMARK SMILES IDX 7 23 16 27 17 28 18 29 19 30 20 31 21 32 22 33 23 34 24 35
REMARK SMILES IDX 88 36 25 37 87 38 26 39 27 40 28 41 81 42 29 43 86 44 80 45
REMARK SMILES IDX 82 46 30 47 85 48 79 49 78 50 31 52 65 53 44 54 64 55 45 56
REMARK SMILES IDX 48 57 63 58 83 59 46 60 47 61 62 63 84 64 49 65 32 66 33 67
REMARK SMILES IDX 42 68 34 69 35 70 41 71 43 72 36 73 37 74 38 75 39 76 40 77
REMARK SMILES IDX 66 78 67 79 76 80 68 81 69 82 75 83 77 84 70 85 71 86 72 87
REMARK SMILES IDX 73 88 74 89 50 90 51 91 60 92 52 93 53 94 59 95 61 96 54 97
REMARK SMILES IDX 55 98 56 99 57 100 58 101
REMARK H PARENT 7 24 7 25 7 26 82 51 48 62
REMARK Flexibility Score: inf
ROOT
ATOM      1  C   UNL A   1      33.743  30.615  27.086  1.00  0.00     0.188 C 
ENDROOT
BRANCH   1   2
ATOM      2  O   UNL A   1      32.835  29.749  26.410  1.00  0.00    -0.376 OA
BRANCH   2   3
ATOM      3  C   UNL A   1      31.794  29.169  27.200  1.00  0.00     0.202 C 
BRANCH   3   4
ATOM      4  C   UNL A   1      31.529  27.674  26.958  1.00  0.00     0.261 C 
BRANCH   4   5
ATOM      5  O   UNL A   1      31.797  27.250  25.600  1.00  0.00    -0.463 OA
BRANCH   5   6
ATOM      6  C   UNL A   1      30.762  26.627  24.977  1.00  0.00     0.312 C 
ATOM      7  O   UNL A   1      30.103  27.125  24.069  1.00  0.00    -0.252 OA
BRANCH   6   8
ATOM      8  C   UNL A   1      30.595  25.171  25.363  1.00  0.00     0.193 C 
BRANCH   8   9
ATOM      9  C   UNL A   1      30.954  24.038  24.372  1.00  0.00     0.230 C 
BRANCH   9  10
ATOM     10  C   UNL A   1      32.482  23.794  24.419  1.00  0.00     0.091 A 
ATOM     11  C   UNL A   1      34.340  22.697  25.645  1.00  0.00     0.161 A 
ATOM     12  C   UNL A   1      32.968  22.860  25.370  1.00  0.00     0.067 A 
ATOM     13  C   UNL A   1      35.292  23.429  24.936  1.00  0.00     0.167 A 
ATOM     14  C   UNL A   1      34.854  24.263  23.909  1.00  0.00     0.136 A 
ATOM     15  C   UNL A   1      33.477  24.428  23.644  1.00  0.00     0.282 A 
BRANCH  11  16
ATOM     16  O   UNL A   1      34.735  21.729  26.528  1.00  0.00    -0.493 OA
ATOM     17  C   UNL A   1      33.791  21.501  27.576  1.00  0.00     0.278 C 
ENDBRANCH  11  16
BRANCH  13  18
ATOM     18  O   UNL A   1      36.652  23.397  25.084  1.00  0.00    -0.493 OA
ATOM     19  C   UNL A   1      37.337  22.288  24.514  1.00  0.00     0.278 C 
ENDBRANCH  13  18
BRANCH  15  20
ATOM     20  N   UNL A   1      33.176  25.202  22.446  1.00  0.00     0.063 N 
ATOM     21  O   UNL A   1      33.229  24.606  21.359  1.00  0.00    -0.258 OA
ATOM     22  O   UNL A   1      32.976  26.418  22.586  1.00  0.00    -0.258 OA
ENDBRANCH  15  20
ENDBRANCH   9  10
BRANCH   9  23
ATOM     23  N   UNL A   1      30.440  24.395  23.049  1.00  0.00    -0.351 N 
ATOM     24  H   UNL A   1      29.420  24.394  23.070  1.00  0.00     0.345 HD
ATOM     25  H   UNL A   1      30.766  23.716  22.362  1.00  0.00     0.345 HD
ATOM     26  H   UNL A   1      30.774  25.325  22.795  1.00  0.00     0.345 HD
ENDBRANCH   9  23
ENDBRANCH   8   9
ENDBRANCH   6   8
ENDBRANCH   5   6
ENDBRANCH   4   5
ENDBRANCH   3   4
ENDBRANCH   2   3
ENDBRANCH   1   2
BRANCH   1  27
ATOM     27  C   UNL A   1      35.132  30.027  27.346  1.00  0.00     0.188 C 
BRANCH  27  28
ATOM     28  O   UNL A   1      35.823  30.611  28.442  1.00  0.00    -0.376 OA
BRANCH  28  29
ATOM     29  C   UNL A   1      35.112  31.559  29.242  1.00  0.00     0.202 C 
BRANCH  29  30
ATOM     30  C   UNL A   1      35.553  31.748  30.710  1.00  0.00     0.261 C 
BRANCH  30  31
ATOM     31  O   UNL A   1      36.347  32.918  30.992  1.00  0.00    -0.460 OA
BRANCH  31  32
ATOM     32  C   UNL A   1      37.357  32.796  31.886  1.00  0.00     0.338 C 
ATOM     33  O   UNL A   1      37.296  33.049  33.077  1.00  0.00    -0.246 OA
BRANCH  32  34
ATOM     34  C   UNL A   1      38.467  32.038  31.245  1.00  0.00     0.060 A 
ATOM     35  C   UNL A   1      39.164  31.106  32.030  1.00  0.00     0.016 A 
ATOM     36  C   UNL A   1      38.779  32.172  29.888  1.00  0.00     0.016 A 
ATOM     37  C   UNL A   1      40.194  30.342  31.474  1.00  0.00     0.010 A 
ATOM     38  C   UNL A   1      39.822  31.416  29.336  1.00  0.00     0.010 A 
ATOM     39  C   UNL A   1      40.558  30.522  30.134  1.00  0.00    -0.014 A 
BRANCH  39  40
ATOM     40  C   UNL A   1      41.834  29.946  29.633  1.00  0.00     0.031 A 
ATOM     41  C   UNL A   1      43.042  30.844  29.568  1.00  0.00     0.074 A 
ATOM     42  C   UNL A   1      41.944  28.655  29.267  1.00  0.00     0.049 A 
ATOM     43  N   UNL A   1      44.250  30.586  29.141  1.00  0.00    -0.248 NA
ATOM     44  C   UNL A   1      42.854  32.223  30.047  1.00  0.00     0.031 C 
ATOM     45  C   UNL A   1      40.870  27.665  29.313  1.00  0.00     0.029 A 
ATOM     46  N   UNL A   1      43.023  27.958  28.774  1.00  0.00    -0.354 N 
ATOM     47  C   UNL A   1      44.965  31.769  29.293  1.00  0.00     0.074 A 
ATOM     48  C   UNL A   1      44.046  32.754  29.822  1.00  0.00     0.031 C 
ATOM     49  C   UNL A   1      41.340  26.491  28.852  1.00  0.00     0.029 A 
ATOM     50  C   UNL A   1      42.738  26.652  28.451  1.00  0.00     0.049 A 
ATOM     51  H   UNL A   1      43.915  28.358  28.663  1.00  0.00     0.167 HD
ATOM     52  C   UNL A   1      46.269  32.015  29.027  1.00  0.00     0.037 A 
ATOM     53  C   UNL A   1      43.510  25.704  27.878  1.00  0.00     0.037 A 
ATOM     54  C   UNL A   1      47.187  31.040  28.500  1.00  0.00     0.049 A 
ATOM     55  C   UNL A   1      44.944  26.016  27.526  1.00  0.00     0.074 A 
ATOM     56  C   UNL A   1      48.533  31.192  28.219  1.00  0.00     0.029 A 
ATOM     57  N   UNL A   1      46.853  29.737  28.162  1.00  0.00    -0.354 N 
ATOM     58  N   UNL A   1      45.614  27.131  27.703  1.00  0.00    -0.248 NA
ATOM     59  C   UNL A   1      45.728  24.942  26.898  1.00  0.00     0.031 C 
ATOM     60  C   UNL A   1      49.001  29.998  27.659  1.00  0.00     0.029 A 
ATOM     61  C   UNL A   1      47.961  29.083  27.647  1.00  0.00     0.049 A 
ATOM     62  H   UNL A   1      45.960  29.336  28.271  1.00  0.00     0.167 HD
ATOM     63  C   UNL A   1      46.903  26.881  27.236  1.00  0.00     0.074 A 
ATOM     64  C   UNL A   1      46.922  25.508  26.778  1.00  0.00     0.031 C 
ATOM     65  C   UNL A   1      47.974  27.713  27.196  1.00  0.00     0.037 A 
BRANCH  52  66
ATOM     66  C   UNL A   1      46.773  33.411  29.269  1.00  0.00     0.058 A 
ATOM     67  C   UNL A   1      47.340  33.795  30.495  1.00  0.00     0.135 A 
ATOM     68  C   UNL A   1      46.702  34.375  28.250  1.00  0.00     0.135 A 
ATOM     69  F   UNL A   1      47.414  32.918  31.510  1.00  0.00    -0.206 F 
ATOM     70  C   UNL A   1      47.790  35.093  30.713  1.00  0.00     0.059 A 
ATOM     71  C   UNL A   1      47.173  35.672  28.437  1.00  0.00     0.059 A 
ATOM     72  F   UNL A   1      46.166  34.064  27.060  1.00  0.00    -0.206 F 
ATOM     73  C   UNL A   1      47.699  36.025  29.678  1.00  0.00     0.060 A 
BRANCH  73  74
ATOM     74  S   UNL A   1      48.280  37.707  29.979  1.00  0.00     0.124 S 
ATOM     75  O   UNL A   1      47.356  38.484  29.158  1.00  0.00    -0.237 OA
ATOM     76  O   UNL A   1      48.113  37.841  31.422  1.00  0.00    -0.237 OA
ATOM     77  O   UNL A   1      49.662  37.679  29.510  1.00  0.00    -0.744 OA
ENDBRANCH  73  74
ENDBRANCH  52  66
BRANCH  53  78
ATOM     78  C   UNL A   1      42.939  24.361  27.583  1.00  0.00     0.058 A 
ATOM     79  C   UNL A   1      42.252  24.108  26.385  1.00  0.00     0.135 A 
ATOM     80  C   UNL A   1      43.065  23.302  28.497  1.00  0.00     0.135 A 
ATOM     81  F   UNL A   1      42.088  25.089  25.486  1.00  0.00    -0.206 F 
ATOM     82  C   UNL A   1      41.707  22.858  26.106  1.00  0.00     0.059 A 
ATOM     83  C   UNL A   1      42.551  22.037  28.230  1.00  0.00     0.059 A 
ATOM     84  F   UNL A   1      43.714  23.491  29.657  1.00  0.00    -0.206 F 
ATOM     85  C   UNL A   1      41.869  21.825  27.034  1.00  0.00     0.060 A 
BRANCH  85  86
ATOM     86  S   UNL A   1      41.221  20.189  26.629  1.00  0.00     0.124 S 
ATOM     87  O   UNL A   1      41.111  19.580  27.950  1.00  0.00    -0.237 OA
ATOM     88  O   UNL A   1      39.960  20.517  25.969  1.00  0.00    -0.237 OA
ATOM     89  O   UNL A   1      42.249  19.628  25.757  1.00  0.00    -0.744 OA
ENDBRANCH  85  86
ENDBRANCH  53  78
BRANCH  65  90
ATOM     90  C   UNL A   1      49.275  27.161  26.674  1.00  0.00     0.058 A 
ATOM     91  C   UNL A   1      50.226  26.570  27.521  1.00  0.00     0.135 A 
ATOM     92  C   UNL A   1      49.547  27.170  25.294  1.00  0.00     0.135 A 
ATOM     93  F   UNL A   1      50.020  26.536  28.847  1.00  0.00    -0.206 F 
ATOM     94  C   UNL A   1      51.409  26.031  27.024  1.00  0.00     0.059 A 
ATOM     95  C   UNL A   1      50.710  26.610  24.772  1.00  0.00     0.059 A 
ATOM     96  F   UNL A   1      48.667  27.709  24.436  1.00  0.00    -0.206 F 
ATOM     97  C   UNL A   1      51.642  26.055  25.647  1.00  0.00     0.060 A 
BRANCH  97  98
ATOM     98  S   UNL A   1      53.167  25.326  25.012  1.00  0.00     0.124 S 
ATOM     99  O   UNL A   1      53.053  25.603  23.585  1.00  0.00    -0.237 OA
ATOM    100  O   UNL A   1      54.194  26.080  25.724  1.00  0.00    -0.237 OA
ATOM    101  O   UNL A   1      53.056  23.920  25.390  1.00  0.00    -0.744 OA
ENDBRANCH  97  98
ENDBRANCH  65  90
ENDBRANCH  39  40
ENDBRANCH  32  34
ENDBRANCH  31  32
ENDBRANCH  30  31
ENDBRANCH  29  30
ENDBRANCH  28  29
ENDBRANCH  27  28
ENDBRANCH   1  27
TORSDOF 26
ENDMDL
MODEL 3
REMARK VINA RESULT:      -8.3      4.397     12.180
REMARK SMILES COc1cc([C@H]([NH3+])CC(=O)OCCOCCOCCOC(=O)c2ccc(-c3c4nc(c(-c5c(F)cc(S(=O)(=O)[O-])cc5F)c5ccc([nH]5)c(-c5c(F)cc(S(=O)(=O)[O-])cc5F)c5nc(c(-c6c(F)cc(S(=O)(=O)[O-])cc6F)c6ccc3[nH]6)C=C5)C=C4)cc2)c([N+](=O)[O-])cc1OC
REMARK SMILES IDX 15 1 14 2 13 3 12 4 11 5 9 6 10 7 8 8 6 9 5 10 3 11 4 12
REMARK SMILES IDX 94 13 93 14 89 15 2 16 1 17 95 18 96 19 90 20 91 21 92 22
REMARK SMILES IDX 7 23 16 27 17 28 18 29 19 30 20 31 21 32 22 33 23 34 24 35
REMARK SMILES IDX 88 36 25 37 87 38 26 39 27 40 28 41 81 42 29 43 86 44 80 45
REMARK SMILES IDX 82 46 30 47 85 48 79 49 78 50 31 52 65 53 44 54 64 55 45 56
REMARK SMILES IDX 48 57 63 58 83 59 46 60 47 61 62 63 84 64 49 65 32 66 33 67
REMARK SMILES IDX 42 68 34 69 35 70 41 71 43 72 36 73 37 74 38 75 39 76 40 77
REMARK SMILES IDX 66 78 67 79 76 80 68 81 69 82 75 83 77 84 70 85 71 86 72 87
REMARK SMILES IDX 73 88 74 89 50 90 51 91 60 92 52 93 53 94 59 95 61 96 54 97
REMARK SMILES IDX 55 98 56 99 57 100 58 101
REMARK H PARENT 7 24 7 25 7 26 82 51 48 62
REMARK Flexibility Score: inf
ROOT
ATOM      1  C   UNL A   1      33.880  36.111  33.143  1.00  0.00     0.188 C 
ENDROOT
BRANCH   1   2
ATOM      2  O   UNL A   1      35.291  35.992  33.311  1.00  0.00    -0.376 OA
BRANCH   2   3
ATOM      3  C   UNL A   1      35.907  34.833  32.748  1.00  0.00     0.202 C 
BRANCH   3   4
ATOM      4  C   UNL A   1      36.258  33.715  33.744  1.00  0.00     0.261 C 
BRANCH   4   5
ATOM      5  O   UNL A   1      37.681  33.522  33.922  1.00  0.00    -0.463 OA
BRANCH   5   6
ATOM      6  C   UNL A   1      38.097  32.229  33.886  1.00  0.00     0.312 C 
ATOM      7  O   UNL A   1      37.412  31.295  33.479  1.00  0.00    -0.252 OA
BRANCH   6   8
ATOM      8  C   UNL A   1      39.565  32.043  34.217  1.00  0.00     0.193 C 
BRANCH   8   9
ATOM      9  C   UNL A   1      40.012  31.073  35.336  1.00  0.00     0.230 C 
BRANCH   9  10
ATOM     10  C   UNL A   1      41.558  31.046  35.390  1.00  0.00     0.091 A 
ATOM     11  C   UNL A   1      43.592  32.136  36.307  1.00  0.00     0.161 A 
ATOM     12  C   UNL A   1      42.199  31.924  36.302  1.00  0.00     0.067 A 
ATOM     13  C   UNL A   1      44.413  31.431  35.428  1.00  0.00     0.167 A 
ATOM     14  C   UNL A   1      43.830  30.469  34.605  1.00  0.00     0.136 A 
ATOM     15  C   UNL A   1      42.433  30.269  34.600  1.00  0.00     0.282 A 
BRANCH  11  16
ATOM     16  O   UNL A   1      44.142  32.948  37.260  1.00  0.00    -0.493 OA
ATOM     17  C   UNL A   1      43.754  34.317  37.129  1.00  0.00     0.278 C 
ENDBRANCH  11  16
BRANCH  13  18
ATOM     18  O   UNL A   1      45.772  31.524  35.297  1.00  0.00    -0.493 OA
ATOM     19  C   UNL A   1      46.502  30.302  35.262  1.00  0.00     0.278 C 
ENDBRANCH  13  18
BRANCH  15  20
ATOM     20  N   UNL A   1      41.984  29.128  33.810  1.00  0.00     0.063 N 
ATOM     21  O   UNL A   1      42.066  28.007  34.339  1.00  0.00    -0.258 OA
ATOM     22  O   UNL A   1      41.637  29.343  32.640  1.00  0.00    -0.258 OA
ENDBRANCH  15  20
ENDBRANCH   9  10
BRANCH   9  23
ATOM     23  N   UNL A   1      39.394  29.768  35.098  1.00  0.00    -0.351 N 
ATOM     24  H   UNL A   1      38.658  29.610  35.787  1.00  0.00     0.345 HD
ATOM     25  H   UNL A   1      40.099  29.037  35.181  1.00  0.00     0.345 HD
ATOM     26  H   UNL A   1      38.991  29.749  34.160  1.00  0.00     0.345 HD
ENDBRANCH   9  23
ENDBRANCH   8   9
ENDBRANCH   6   8
ENDBRANCH   5   6
ENDBRANCH   4   5
ENDBRANCH   3   4
ENDBRANCH   2   3
ENDBRANCH   1   2
BRANCH   1  27
ATOM     27  C   UNL A   1      33.421  37.324  32.330  1.00  0.00     0.188 C 
BRANCH  27  28
ATOM     28  O   UNL A   1      32.562  37.013  31.242  1.00  0.00    -0.376 OA
BRANCH  28  29
ATOM     29  C   UNL A   1      33.018  37.337  29.926  1.00  0.00     0.202 C 
BRANCH  29  30
ATOM     30  C   UNL A   1      33.358  36.175  28.967  1.00  0.00     0.261 C 
BRANCH  30  31
ATOM     31  O   UNL A   1      32.651  34.938  29.187  1.00  0.00    -0.460 OA
BRANCH  31  32
ATOM     32  C   UNL A   1      32.968  33.881  28.402  1.00  0.00     0.338 C 
ATOM     33  O   UNL A   1      32.360  33.516  27.409  1.00  0.00    -0.246 OA
BRANCH  32  34
ATOM     34  C   UNL A   1      34.329  33.406  28.773  1.00  0.00     0.060 A 
ATOM     35  C   UNL A   1      35.390  33.714  27.907  1.00  0.00     0.016 A 
ATOM     36  C   UNL A   1      34.587  32.740  29.976  1.00  0.00     0.016 A 
ATOM     37  C   UNL A   1      36.695  33.323  28.219  1.00  0.00     0.010 A 
ATOM     38  C   UNL A   1      35.894  32.335  30.280  1.00  0.00     0.010 A 
ATOM     39  C   UNL A   1      36.950  32.593  29.388  1.00  0.00    -0.014 A 
BRANCH  39  40
ATOM     40  C   UNL A   1      38.263  31.920  29.565  1.00  0.00     0.031 A 
ATOM     41  C   UNL A   1      39.380  32.699  30.210  1.00  0.00     0.074 A 
ATOM     42  C   UNL A   1      38.471  30.642  29.194  1.00  0.00     0.049 A 
ATOM     43  N   UNL A   1      40.616  32.344  30.445  1.00  0.00    -0.248 NA
ATOM     44  C   UNL A   1      39.053  34.066  30.646  1.00  0.00     0.031 C 
ATOM     45  C   UNL A   1      37.473  29.760  28.592  1.00  0.00     0.029 A 
ATOM     46  N   UNL A   1      39.605  29.867  29.266  1.00  0.00    -0.354 N 
ATOM     47  C   UNL A   1      41.216  33.444  31.048  1.00  0.00     0.074 A 
ATOM     48  C   UNL A   1      40.216  34.488  31.114  1.00  0.00     0.031 C 
ATOM     49  C   UNL A   1      38.044  28.568  28.336  1.00  0.00     0.029 A 
ATOM     50  C   UNL A   1      39.453  28.611  28.727  1.00  0.00     0.049 A 
ATOM     51  H   UNL A   1      40.447  30.184  29.665  1.00  0.00     0.167 HD
ATOM     52  C   UNL A   1      42.481  33.575  31.513  1.00  0.00     0.037 A 
ATOM     53  C   UNL A   1      40.353  27.620  28.550  1.00  0.00     0.037 A 
ATOM     54  C   UNL A   1      43.479  32.540  31.449  1.00  0.00     0.049 A 
ATOM     55  C   UNL A   1      41.777  27.808  29.015  1.00  0.00     0.074 A 
ATOM     56  C   UNL A   1      44.781  32.573  31.915  1.00  0.00     0.029 A 
ATOM     57  N   UNL A   1      43.293  31.293  30.871  1.00  0.00    -0.354 N 
ATOM     58  N   UNL A   1      42.322  28.842  29.611  1.00  0.00    -0.248 NA
ATOM     59  C   UNL A   1      42.707  26.693  28.786  1.00  0.00     0.031 C 
ATOM     60  C   UNL A   1      45.400  31.367  31.570  1.00  0.00     0.029 A 
ATOM     61  C   UNL A   1      44.467  30.559  30.944  1.00  0.00     0.049 A 
ATOM     62  H   UNL A   1      42.452  30.976  30.470  1.00  0.00     0.167 HD
ATOM     63  C   UNL A   1      43.648  28.491  29.853  1.00  0.00     0.074 A 
ATOM     64  C   UNL A   1      43.821  27.145  29.348  1.00  0.00     0.031 C 
ATOM     65  C   UNL A   1      44.630  29.216  30.443  1.00  0.00     0.037 A 
BRANCH  52  66
ATOM     66  C   UNL A   1      42.866  34.903  32.104  1.00  0.00     0.058 A 
ATOM     67  C   UNL A   1      42.645  35.208  33.456  1.00  0.00     0.135 A 
ATOM     68  C   UNL A   1      43.484  35.879  31.304  1.00  0.00     0.135 A 
ATOM     69  F   UNL A   1      42.039  34.319  34.260  1.00  0.00    -0.206 F 
ATOM     70  C   UNL A   1      42.993  36.445  33.989  1.00  0.00     0.059 A 
ATOM     71  C   UNL A   1      43.867  37.112  31.824  1.00  0.00     0.059 A 
ATOM     72  F   UNL A   1      43.717  35.642  30.005  1.00  0.00    -0.206 F 
ATOM     73  C   UNL A   1      43.602  37.392  33.163  1.00  0.00     0.060 A 
BRANCH  73  74
ATOM     74  S   UNL A   1      44.041  38.994  33.866  1.00  0.00     0.124 S 
ATOM     75  O   UNL A   1      43.923  38.725  35.297  1.00  0.00    -0.237 OA
ATOM     76  O   UNL A   1      45.398  39.193  33.368  1.00  0.00    -0.237 OA
ATOM     77  O   UNL A   1      43.034  39.896  33.314  1.00  0.00    -0.744 OA
ENDBRANCH  73  74
ENDBRANCH  52  66
BRANCH  53  78
ATOM     78  C   UNL A   1      39.941  26.353  27.884  1.00  0.00     0.058 A 
ATOM     79  C   UNL A   1      39.163  25.397  28.554  1.00  0.00     0.135 A 
ATOM     80  C   UNL A   1      40.323  26.072  26.562  1.00  0.00     0.135 A 
ATOM     81  F   UNL A   1      38.786  25.609  29.824  1.00  0.00    -0.206 F 
ATOM     82  C   UNL A   1      38.782  24.206  27.942  1.00  0.00     0.059 A 
ATOM     83  C   UNL A   1      39.934  24.901  25.920  1.00  0.00     0.059 A 
ATOM     84  F   UNL A   1      41.066  26.954  25.876  1.00  0.00    -0.206 F 
ATOM     85  C   UNL A   1      39.167  23.971  26.620  1.00  0.00     0.060 A 
BRANCH  85  86
ATOM     86  S   UNL A   1      38.607  22.456  25.813  1.00  0.00     0.124 S 
ATOM     87  O   UNL A   1      37.604  21.973  26.756  1.00  0.00    -0.237 OA
ATOM     88  O   UNL A   1      38.097  22.960  24.541  1.00  0.00    -0.237 OA
ATOM     89  O   UNL A   1      39.824  21.656  25.718  1.00  0.00    -0.744 OA
ENDBRANCH  85  86
ENDBRANCH  53  78
BRANCH  65  90
ATOM     90  C   UNL A   1      45.978  28.565  30.618  1.00  0.00     0.058 A 
ATOM     91  C   UNL A   1      46.311  27.841  31.774  1.00  0.00     0.135 A 
ATOM     92  C   UNL A   1      46.930  28.615  29.583  1.00  0.00     0.135 A 
ATOM     93  F   UNL A   1      45.443  27.763  32.794  1.00  0.00    -0.206 F 
ATOM     94  C   UNL A   1      47.546  27.214  31.910  1.00  0.00     0.059 A 
ATOM     95  C   UNL A   1      48.159  27.970  29.686  1.00  0.00     0.059 A 
ATOM     96  F   UNL A   1      46.660  29.281  28.449  1.00  0.00    -0.206 F 
ATOM     97  C   UNL A   1      48.464  27.283  30.860  1.00  0.00     0.060 A 
BRANCH  97  98
ATOM     98  S   UNL A   1      50.050  26.440  31.037  1.00  0.00     0.124 S 
ATOM     99  O   UNL A   1      50.682  27.221  32.094  1.00  0.00    -0.237 OA
ATOM    100  O   UNL A   1      49.647  25.086  31.404  1.00  0.00    -0.237 OA
ATOM    101  O   UNL A   1      50.655  26.570  29.714  1.00  0.00    -0.744 OA
ENDBRANCH  97  98
ENDBRANCH  65  90
ENDBRANCH  39  40
ENDBRANCH  32  34
ENDBRANCH  31  32
ENDBRANCH  30  31
ENDBRANCH  29  30
ENDBRANCH  28  29
ENDBRANCH  27  28
ENDBRANCH   1  27
TORSDOF 26
ENDMDL
