MODEL 1
REMARK VINA RESULT:     -10.6      0.000      0.000
REMARK SMILES O=C(OCCOCCOCCOC(=O)[C@H]1CS[C@]2(c3ccccc3)CCC(=O)N12)c1ccc(-c2c3nc(c(-c4c(F)cc(S(=O)(=O)[O-])cc4F)c4ccc([nH]4)c(-c4c(F)cc(S(=O)(=O)[O-])cc4F)c4nc(c(-c5c(F)cc(S(=O)(=O)[O-])cc5F)c5ccc2[nH]5)C=C4)C=C3)cc1
REMARK SMILES IDX 7 1 6 2 5 3 4 4 3 5 2 6 1 7 30 8 31 9 95 10 32 11 94 12
REMARK SMILES IDX 33 13 34 14 35 15 88 16 36 17 93 18 87 19 89 20 37 21 92 22
REMARK SMILES IDX 86 23 85 24 38 26 72 27 51 28 71 29 52 30 55 31 70 32 90 33
REMARK SMILES IDX 53 34 54 35 69 37 91 38 56 39 39 40 40 41 49 42 41 43 42 44
REMARK SMILES IDX 48 45 50 46 43 47 44 48 45 49 46 50 47 51 73 52 74 53 83 54
REMARK SMILES IDX 75 55 76 56 82 57 84 58 77 59 78 60 79 61 80 62 81 63 57 64
REMARK SMILES IDX 58 65 67 66 59 67 60 68 66 69 68 70 61 71 62 72 63 73 64 74
REMARK SMILES IDX 65 75 8 76 9 77 10 78 11 79 12 80 13 81 14 82 15 83 16 84
REMARK SMILES IDX 29 85 17 86 18 87 27 88 25 89 26 90 28 91 19 92 20 93 24 94
REMARK SMILES IDX 21 95 23 96 22 97
REMARK H PARENT 89 25 55 36
REMARK Flexibility Score: inf
ROOT
ATOM      1  C   UNL A   1      33.555  29.135  25.907  1.00  0.00     0.188 C 
ENDROOT
BRANCH   1   2
ATOM      2  O   UNL A   1      32.756  29.869  26.846  1.00  0.00    -0.376 OA
BRANCH   2   3
ATOM      3  C   UNL A   1      33.494  30.839  27.581  1.00  0.00     0.202 C 
BRANCH   3   4
ATOM      4  C   UNL A   1      35.008  30.560  27.619  1.00  0.00     0.261 C 
BRANCH   4   5
ATOM      5  O   UNL A   1      35.597  30.682  28.935  1.00  0.00    -0.460 OA
BRANCH   5   6
ATOM      6  C   UNL A   1      36.456  29.871  29.593  1.00  0.00     0.338 C 
ATOM      7  O   UNL A   1      36.088  29.339  30.639  1.00  0.00    -0.246 OA
BRANCH   6   8
ATOM      8  C   UNL A   1      37.872  29.684  29.153  1.00  0.00     0.060 A 
ATOM      9  C   UNL A   1      38.268  29.565  27.825  1.00  0.00     0.016 A 
ATOM     10  C   UNL A   1      38.879  29.683  30.137  1.00  0.00     0.016 A 
ATOM     11  C   UNL A   1      39.596  29.373  27.471  1.00  0.00     0.010 A 
ATOM     12  C   UNL A   1      40.227  29.519  29.792  1.00  0.00     0.010 A 
ATOM     13  C   UNL A   1      40.581  29.324  28.453  1.00  0.00    -0.014 A 
BRANCH  13  14
ATOM     14  C   UNL A   1      41.928  28.885  28.035  1.00  0.00     0.031 A 
ATOM     15  C   UNL A   1      43.039  29.893  28.075  1.00  0.00     0.074 A 
ATOM     16  C   UNL A   1      42.174  27.580  27.816  1.00  0.00     0.049 A 
ATOM     17  N   UNL A   1      44.309  29.731  27.828  1.00  0.00    -0.248 NA
ATOM     18  C   UNL A   1      42.672  31.263  28.477  1.00  0.00     0.031 C 
ATOM     19  C   UNL A   1      41.171  26.516  27.885  1.00  0.00     0.029 A 
ATOM     20  N   UNL A   1      43.338  26.919  27.528  1.00  0.00    -0.354 N 
ATOM     21  C   UNL A   1      44.893  30.972  28.044  1.00  0.00     0.074 A 
ATOM     22  C   UNL A   1      43.839  31.886  28.419  1.00  0.00     0.031 C 
ATOM     23  C   UNL A   1      41.764  25.334  27.652  1.00  0.00     0.029 A 
ATOM     24  C   UNL A   1      43.179  25.562  27.372  1.00  0.00     0.049 A 
ATOM     25  H   UNL A   1      44.207  27.373  27.440  1.00  0.00     0.167 HD
ATOM     26  C   UNL A   1      46.197  31.313  27.944  1.00  0.00     0.037 A 
ATOM     27  C   UNL A   1      44.075  24.620  27.019  1.00  0.00     0.037 A 
ATOM     28  C   UNL A   1      47.227  30.389  27.555  1.00  0.00     0.049 A 
ATOM     29  C   UNL A   1      45.501  25.054  26.790  1.00  0.00     0.074 A 
ATOM     30  C   UNL A   1      48.571  30.632  27.346  1.00  0.00     0.029 A 
ATOM     31  N   UNL A   1      47.017  29.037  27.311  1.00  0.00    -0.354 N 
ATOM     32  N   UNL A   1      46.035  26.244  26.950  1.00  0.00    -0.248 NA
ATOM     33  C   UNL A   1      46.445  24.027  26.332  1.00  0.00     0.031 C 
ATOM     34  C   UNL A   1      49.165  29.434  26.933  1.00  0.00     0.029 A 
ATOM     35  C   UNL A   1      48.203  28.436  26.933  1.00  0.00     0.049 A 
ATOM     36  H   UNL A   1      46.151  28.577  27.395  1.00  0.00     0.167 HD
ATOM     37  C   UNL A   1      47.379  26.105  26.631  1.00  0.00     0.074 A 
ATOM     38  C   UNL A   1      47.581  24.710  26.290  1.00  0.00     0.031 C 
ATOM     39  C   UNL A   1      48.362  27.039  26.611  1.00  0.00     0.037 A 
BRANCH  26  40
ATOM     40  C   UNL A   1      46.557  32.747  28.204  1.00  0.00     0.058 A 
ATOM     41  C   UNL A   1      46.500  33.722  27.196  1.00  0.00     0.135 A 
ATOM     42  C   UNL A   1      46.974  33.150  29.483  1.00  0.00     0.135 A 
ATOM     43  F   UNL A   1      46.143  33.382  25.947  1.00  0.00    -0.206 F 
ATOM     44  C   UNL A   1      46.857  35.044  27.443  1.00  0.00     0.059 A 
ATOM     45  C   UNL A   1      47.315  34.470  29.758  1.00  0.00     0.059 A 
ATOM     46  F   UNL A   1      47.063  32.253  30.477  1.00  0.00    -0.206 F 
ATOM     47  C   UNL A   1      47.263  35.408  28.729  1.00  0.00     0.060 A 
BRANCH  47  48
ATOM     48  S   UNL A   1      47.717  37.128  29.036  1.00  0.00     0.124 S 
ATOM     49  O   UNL A   1      46.528  37.832  28.564  1.00  0.00    -0.237 OA
ATOM     50  O   UNL A   1      47.929  37.140  30.480  1.00  0.00    -0.237 OA
ATOM     51  O   UNL A   1      48.917  37.313  28.227  1.00  0.00    -0.744 OA
ENDBRANCH  47  48
ENDBRANCH  26  40
BRANCH  27  52
ATOM     52  C   UNL A   1      43.655  23.207  26.803  1.00  0.00     0.058 A 
ATOM     53  C   UNL A   1      43.582  22.646  25.520  1.00  0.00     0.135 A 
ATOM     54  C   UNL A   1      43.279  22.395  27.887  1.00  0.00     0.135 A 
ATOM     55  F   UNL A   1      43.927  23.376  24.449  1.00  0.00    -0.206 F 
ATOM     56  C   UNL A   1      43.120  21.349  25.314  1.00  0.00     0.059 A 
ATOM     57  C   UNL A   1      42.843  21.085  27.711  1.00  0.00     0.059 A 
ATOM     58  F   UNL A   1      43.344  22.872  29.140  1.00  0.00    -0.206 F 
ATOM     59  C   UNL A   1      42.747  20.577  26.418  1.00  0.00     0.060 A 
BRANCH  59  60
ATOM     60  S   UNL A   1      42.153  18.894  26.143  1.00  0.00     0.124 S 
ATOM     61  O   UNL A   1      42.369  18.290  27.453  1.00  0.00    -0.237 OA
ATOM     62  O   UNL A   1      40.763  19.118  25.763  1.00  0.00    -0.237 OA
ATOM     63  O   UNL A   1      43.017  18.406  25.072  1.00  0.00    -0.744 OA
ENDBRANCH  59  60
ENDBRANCH  27  52
BRANCH  39  64
ATOM     64  C   UNL A   1      49.738  26.573  26.236  1.00  0.00     0.058 A 
ATOM     65  C   UNL A   1      50.242  26.740  24.936  1.00  0.00     0.135 A 
ATOM     66  C   UNL A   1      50.580  25.999  27.202  1.00  0.00     0.135 A 
ATOM     67  F   UNL A   1      49.473  27.279  23.978  1.00  0.00    -0.206 F 
ATOM     68  C   UNL A   1      51.525  26.328  24.600  1.00  0.00     0.059 A 
ATOM     69  C   UNL A   1      51.878  25.607  26.896  1.00  0.00     0.059 A 
ATOM     70  F   UNL A   1      50.148  25.832  28.462  1.00  0.00    -0.206 F 
ATOM     71  C   UNL A   1      52.336  25.763  25.588  1.00  0.00     0.060 A 
BRANCH  71  72
ATOM     72  S   UNL A   1      54.010  25.256  25.146  1.00  0.00     0.124 S 
ATOM     73  O   UNL A   1      54.771  25.724  26.300  1.00  0.00    -0.237 OA
ATOM     74  O   UNL A   1      53.874  23.807  25.022  1.00  0.00    -0.237 OA
ATOM     75  O   UNL A   1      54.262  25.966  23.896  1.00  0.00    -0.744 OA
ENDBRANCH  71  72
ENDBRANCH  39  64
ENDBRANCH  13  14
ENDBRANCH   6   8
ENDBRANCH   5   6
ENDBRANCH   4   5
ENDBRANCH   3   4
ENDBRANCH   2   3
ENDBRANCH   1   2
BRANCH   1  76
ATOM     76  C   UNL A   1      32.938  29.228  24.512  1.00  0.00     0.188 C 
BRANCH  76  77
ATOM     77  O   UNL A   1      32.737  27.932  23.954  1.00  0.00    -0.376 OA
BRANCH  77  78
ATOM     78  C   UNL A   1      31.624  27.758  23.086  1.00  0.00     0.202 C 
BRANCH  78  79
ATOM     79  C   UNL A   1      31.326  26.330  22.609  1.00  0.00     0.261 C 
BRANCH  79  80
ATOM     80  O   UNL A   1      32.429  25.674  21.953  1.00  0.00    -0.462 OA
BRANCH  80  81
ATOM     81  C   UNL A   1      33.182  24.798  22.677  1.00  0.00     0.329 C 
ATOM     82  O   UNL A   1      34.399  24.721  22.594  1.00  0.00    -0.250 OA
BRANCH  81  83
ATOM     83  C   UNL A   1      32.269  24.005  23.625  1.00  0.00     0.206 C 
ATOM     84  C   UNL A   1      31.945  22.599  23.120  1.00  0.00     0.109 C 
ATOM     85  N   UNL A   1      32.679  23.902  25.032  1.00  0.00    -0.309 N 
ATOM     86  S   UNL A   1      32.537  21.392  24.358  1.00  0.00    -0.126 SA
ATOM     87  C   UNL A   1      33.281  22.650  25.476  1.00  0.00     0.116 C 
ATOM     88  C   UNL A   1      31.734  24.376  25.948  1.00  0.00     0.224 C 
ATOM     89  C   UNL A   1      32.714  22.478  26.904  1.00  0.00     0.055 C 
ATOM     90  C   UNL A   1      31.435  23.289  26.939  1.00  0.00     0.104 C 
ATOM     91  O   UNL A   1      31.112  25.419  25.839  1.00  0.00    -0.275 OA
BRANCH  87  92
ATOM     92  C   UNL A   1      34.822  22.626  25.407  1.00  0.00    -0.012 A 
ATOM     93  C   UNL A   1      35.521  21.474  24.997  1.00  0.00     0.007 A 
ATOM     94  C   UNL A   1      35.630  23.723  25.776  1.00  0.00     0.007 A 
ATOM     95  C   UNL A   1      36.918  21.427  24.920  1.00  0.00     0.000 A 
ATOM     96  C   UNL A   1      37.030  23.677  25.718  1.00  0.00     0.000 A 
ATOM     97  C   UNL A   1      37.675  22.531  25.280  1.00  0.00     0.000 A 
ENDBRANCH  87  92
ENDBRANCH  81  83
ENDBRANCH  80  81
ENDBRANCH  79  80
ENDBRANCH  78  79
ENDBRANCH  77  78
ENDBRANCH  76  77
ENDBRANCH   1  76
TORSDOF 21
ENDMDL
MODEL 2
REMARK VINA RESULT:      -9.9      0.669      8.212
REMARK SMILES O=C(OCCOCCOCCOC(=O)[C@H]1CS[C@]2(c3ccccc3)CCC(=O)N12)c1ccc(-c2c3nc(c(-c4c(F)cc(S(=O)(=O)[O-])cc4F)c4ccc([nH]4)c(-c4c(F)cc(S(=O)(=O)[O-])cc4F)c4nc(c(-c5c(F)cc(S(=O)(=O)[O-])cc5F)c5ccc2[nH]5)C=C4)C=C3)cc1
REMARK SMILES IDX 7 1 6 2 5 3 4 4 3 5 2 6 1 7 30 8 31 9 95 10 32 11 94 12
REMARK SMILES IDX 33 13 34 14 35 15 88 16 36 17 93 18 87 19 89 20 37 21 92 22
REMARK SMILES IDX 86 23 85 24 38 26 72 27 51 28 71 29 52 30 55 31 70 32 90 33
REMARK SMILES IDX 53 34 54 35 69 37 91 38 56 39 39 40 40 41 49 42 41 43 42 44
REMARK SMILES IDX 48 45 50 46 43 47 44 48 45 49 46 50 47 51 73 52 74 53 83 54
REMARK SMILES IDX 75 55 76 56 82 57 84 58 77 59 78 60 79 61 80 62 81 63 57 64
REMARK SMILES IDX 58 65 67 66 59 67 60 68 66 69 68 70 61 71 62 72 63 73 64 74
REMARK SMILES IDX 65 75 8 76 9 77 10 78 11 79 12 80 13 81 14 82 15 83 16 84
REMARK SMILES IDX 29 85 17 86 18 87 27 88 25 89 26 90 28 91 19 92 20 93 24 94
REMARK SMILES IDX 21 95 23 96 22 97
REMARK H PARENT 89 25 55 36
REMARK Flexibility Score: inf
ROOT
ATOM      1  C   UNL A   1      32.149  29.663  27.231  1.00  0.00     0.188 C 
ENDROOT
BRANCH   1   2
ATOM      2  O   UNL A   1      32.772  30.887  27.647  1.00  0.00    -0.376 OA
BRANCH   2   3
ATOM      3  C   UNL A   1      34.122  31.010  27.216  1.00  0.00     0.202 C 
BRANCH   3   4
ATOM      4  C   UNL A   1      34.842  32.245  27.791  1.00  0.00     0.261 C 
BRANCH   4   5
ATOM      5  O   UNL A   1      36.166  31.969  28.305  1.00  0.00    -0.460 OA
BRANCH   5   6
ATOM      6  C   UNL A   1      36.614  30.963  29.089  1.00  0.00     0.338 C 
ATOM      7  O   UNL A   1      35.897  30.557  30.003  1.00  0.00    -0.246 OA
BRANCH   6   8
ATOM      8  C   UNL A   1      37.992  30.400  28.954  1.00  0.00     0.060 A 
ATOM      9  C   UNL A   1      38.918  30.345  29.990  1.00  0.00     0.016 A 
ATOM     10  C   UNL A   1      38.362  29.838  27.718  1.00  0.00     0.016 A 
ATOM     11  C   UNL A   1      40.193  29.830  29.806  1.00  0.00     0.010 A 
ATOM     12  C   UNL A   1      39.636  29.287  27.526  1.00  0.00     0.010 A 
ATOM     13  C   UNL A   1      40.569  29.319  28.567  1.00  0.00    -0.014 A 
BRANCH  13  14
ATOM     14  C   UNL A   1      41.999  29.006  28.372  1.00  0.00     0.031 A 
ATOM     15  C   UNL A   1      42.365  27.599  28.001  1.00  0.00     0.074 A 
ATOM     16  C   UNL A   1      42.908  29.998  28.342  1.00  0.00     0.049 A 
ATOM     17  N   UNL A   1      43.535  27.101  27.709  1.00  0.00    -0.248 NA
ATOM     18  C   UNL A   1      41.258  26.629  27.919  1.00  0.00     0.031 C 
ATOM     19  C   UNL A   1      42.610  31.414  28.565  1.00  0.00     0.029 A 
ATOM     20  N   UNL A   1      44.251  29.980  28.078  1.00  0.00    -0.354 N 
ATOM     21  C   UNL A   1      43.306  25.764  27.408  1.00  0.00     0.074 A 
ATOM     22  C   UNL A   1      41.893  25.519  27.575  1.00  0.00     0.031 C 
ATOM     23  C   UNL A   1      43.738  32.130  28.423  1.00  0.00     0.029 A 
ATOM     24  C   UNL A   1      44.844  31.219  28.144  1.00  0.00     0.049 A 
ATOM     25  H   UNL A   1      44.747  29.157  27.861  1.00  0.00     0.167 HD
ATOM     26  C   UNL A   1      44.202  24.829  27.020  1.00  0.00     0.037 A 
ATOM     27  C   UNL A   1      46.139  31.567  28.016  1.00  0.00     0.037 A 
ATOM     28  C   UNL A   1      45.607  25.093  26.875  1.00  0.00     0.049 A 
ATOM     29  C   UNL A   1      47.135  30.479  27.707  1.00  0.00     0.074 A 
ATOM     30  C   UNL A   1      46.623  24.212  26.560  1.00  0.00     0.029 A 
ATOM     31  N   UNL A   1      46.192  26.343  27.041  1.00  0.00    -0.354 N 
ATOM     32  N   UNL A   1      46.915  29.205  27.472  1.00  0.00    -0.248 NA
ATOM     33  C   UNL A   1      48.550  30.866  27.648  1.00  0.00     0.031 C 
ATOM     34  C   UNL A   1      47.829  24.921  26.580  1.00  0.00     0.029 A 
ATOM     35  C   UNL A   1      47.559  26.253  26.856  1.00  0.00     0.049 A 
ATOM     36  H   UNL A   1      45.704  27.169  27.259  1.00  0.00     0.167 HD
ATOM     37  C   UNL A   1      48.160  28.643  27.219  1.00  0.00     0.074 A 
ATOM     38  C   UNL A   1      49.126  29.721  27.308  1.00  0.00     0.031 C 
ATOM     39  C   UNL A   1      48.485  27.355  26.945  1.00  0.00     0.037 A 
BRANCH  26  40
ATOM     40  C   UNL A   1      43.688  23.438  26.787  1.00  0.00     0.058 A 
ATOM     41  C   UNL A   1      43.632  22.873  25.503  1.00  0.00     0.135 A 
ATOM     42  C   UNL A   1      43.238  22.660  27.866  1.00  0.00     0.135 A 
ATOM     43  F   UNL A   1      44.017  23.588  24.433  1.00  0.00    -0.206 F 
ATOM     44  C   UNL A   1      43.134  21.591  25.294  1.00  0.00     0.059 A 
ATOM     45  C   UNL A   1      42.756  21.368  27.684  1.00  0.00     0.059 A 
ATOM     46  F   UNL A   1      43.254  23.160  29.111  1.00  0.00    -0.206 F 
ATOM     47  C   UNL A   1      42.699  20.846  26.393  1.00  0.00     0.060 A 
BRANCH  47  48
ATOM     48  S   UNL A   1      42.061  19.181  26.108  1.00  0.00     0.124 S 
ATOM     49  O   UNL A   1      40.630  19.437  25.965  1.00  0.00    -0.237 OA
ATOM     50  O   UNL A   1      42.758  18.786  24.888  1.00  0.00    -0.237 OA
ATOM     51  O   UNL A   1      42.451  18.456  27.312  1.00  0.00    -0.744 OA
ENDBRANCH  47  48
ENDBRANCH  26  40
BRANCH  27  52
ATOM     52  C   UNL A   1      46.578  32.974  28.234  1.00  0.00     0.058 A 
ATOM     53  C   UNL A   1      46.886  33.463  29.512  1.00  0.00     0.135 A 
ATOM     54  C   UNL A   1      46.662  33.876  27.159  1.00  0.00     0.135 A 
ATOM     55  F   UNL A   1      46.820  32.647  30.575  1.00  0.00    -0.206 F 
ATOM     56  C   UNL A   1      47.225  34.797  29.724  1.00  0.00     0.059 A 
ATOM     57  C   UNL A   1      47.029  35.207  27.340  1.00  0.00     0.059 A 
ATOM     58  F   UNL A   1      46.396  33.462  25.911  1.00  0.00    -0.206 F 
ATOM     59  C   UNL A   1      47.289  35.663  28.630  1.00  0.00     0.060 A 
BRANCH  59  60
ATOM     60  S   UNL A   1      47.734  37.390  28.911  1.00  0.00     0.124 S 
ATOM     61  O   UNL A   1      48.805  37.579  27.939  1.00  0.00    -0.237 OA
ATOM     62  O   UNL A   1      46.482  38.080  28.625  1.00  0.00    -0.237 OA
ATOM     63  O   UNL A   1      48.143  37.405  30.313  1.00  0.00    -0.744 OA
ENDBRANCH  59  60
ENDBRANCH  27  52
BRANCH  39  64
ATOM     64  C   UNL A   1      49.934  27.056  26.697  1.00  0.00     0.058 A 
ATOM     65  C   UNL A   1      50.787  26.643  27.733  1.00  0.00     0.135 A 
ATOM     66  C   UNL A   1      50.461  27.135  25.398  1.00  0.00     0.135 A 
ATOM     67  F   UNL A   1      50.330  26.558  28.991  1.00  0.00    -0.206 F 
ATOM     68  C   UNL A   1      52.123  26.345  27.493  1.00  0.00     0.059 A 
ATOM     69  C   UNL A   1      51.787  26.812  25.131  1.00  0.00     0.059 A 
ATOM     70  F   UNL A   1      49.682  27.511  24.373  1.00  0.00    -0.206 F 
ATOM     71  C   UNL A   1      52.613  26.432  26.188  1.00  0.00     0.060 A 
BRANCH  71  72
ATOM     72  S   UNL A   1      54.342  26.017  25.885  1.00  0.00     0.124 S 
ATOM     73  O   UNL A   1      54.511  24.834  26.723  1.00  0.00    -0.237 OA
ATOM     74  O   UNL A   1      54.358  25.780  24.444  1.00  0.00    -0.237 OA
ATOM     75  O   UNL A   1      55.060  27.209  26.326  1.00  0.00    -0.744 OA
ENDBRANCH  71  72
ENDBRANCH  39  64
ENDBRANCH  13  14
ENDBRANCH   6   8
ENDBRANCH   5   6
ENDBRANCH   4   5
ENDBRANCH   3   4
ENDBRANCH   2   3
ENDBRANCH   1   2
BRANCH   1  76
ATOM     76  C   UNL A   1      32.336  29.467  25.727  1.00  0.00     0.188 C 
BRANCH  76  77
ATOM     77  O   UNL A   1      31.760  28.237  25.296  1.00  0.00    -0.376 OA
BRANCH  77  78
ATOM     78  C   UNL A   1      31.298  28.165  23.953  1.00  0.00     0.202 C 
BRANCH  78  79
ATOM     79  C   UNL A   1      31.658  26.904  23.156  1.00  0.00     0.261 C 
BRANCH  79  80
ATOM     80  O   UNL A   1      33.047  26.529  23.222  1.00  0.00    -0.462 OA
BRANCH  80  81
ATOM     81  C   UNL A   1      33.364  25.206  23.137  1.00  0.00     0.329 C 
ATOM     82  O   UNL A   1      34.307  24.774  22.490  1.00  0.00    -0.250 OA
BRANCH  81  83
ATOM     83  C   UNL A   1      32.400  24.395  24.018  1.00  0.00     0.206 C 
ATOM     84  C   UNL A   1      31.854  23.145  23.327  1.00  0.00     0.109 C 
ATOM     85  N   UNL A   1      32.866  24.009  25.357  1.00  0.00    -0.309 N 
ATOM     86  S   UNL A   1      32.334  21.685  24.314  1.00  0.00    -0.126 SA
ATOM     87  C   UNL A   1      33.308  22.633  25.553  1.00  0.00     0.116 C 
ATOM     88  C   UNL A   1      32.050  24.446  26.404  1.00  0.00     0.224 C 
ATOM     89  C   UNL A   1      32.801  22.306  26.977  1.00  0.00     0.055 C 
ATOM     90  C   UNL A   1      31.654  23.260  27.234  1.00  0.00     0.104 C 
ATOM     91  O   UNL A   1      31.576  25.566  26.505  1.00  0.00    -0.275 OA
BRANCH  87  92
ATOM     92  C   UNL A   1      34.825  22.418  25.365  1.00  0.00    -0.012 A 
ATOM     93  C   UNL A   1      35.372  21.128  25.228  1.00  0.00     0.007 A 
ATOM     94  C   UNL A   1      35.759  23.476  25.351  1.00  0.00     0.007 A 
ATOM     95  C   UNL A   1      36.743  20.905  25.050  1.00  0.00     0.000 A 
ATOM     96  C   UNL A   1      37.135  23.259  25.190  1.00  0.00     0.000 A 
ATOM     97  C   UNL A   1      37.627  21.973  25.030  1.00  0.00     0.000 A 
ENDBRANCH  87  92
ENDBRANCH  81  83
ENDBRANCH  80  81
ENDBRANCH  79  80
ENDBRANCH  78  79
ENDBRANCH  77  78
ENDBRANCH  76  77
ENDBRANCH   1  76
TORSDOF 21
ENDMDL
MODEL 3
REMARK VINA RESULT:      -9.7      6.665     11.935
REMARK SMILES O=C(OCCOCCOCCOC(=O)[C@H]1CS[C@]2(c3ccccc3)CCC(=O)N12)c1ccc(-c2c3nc(c(-c4c(F)cc(S(=O)(=O)[O-])cc4F)c4ccc([nH]4)c(-c4c(F)cc(S(=O)(=O)[O-])cc4F)c4nc(c(-c5c(F)cc(S(=O)(=O)[O-])cc5F)c5ccc2[nH]5)C=C4)C=C3)cc1
REMARK SMILES IDX 7 1 6 2 5 3 4 4 3 5 2 6 1 7 30 8 31 9 95 10 32 11 94 12
REMARK SMILES IDX 33 13 34 14 35 15 88 16 36 17 93 18 87 19 89 20 37 21 92 22
REMARK SMILES IDX 86 23 85 24 38 26 72 27 51 28 71 29 52 30 55 31 70 32 90 33
REMARK SMILES IDX 53 34 54 35 69 37 91 38 56 39 39 40 40 41 49 42 41 43 42 44
REMARK SMILES IDX 48 45 50 46 43 47 44 48 45 49 46 50 47 51 73 52 74 53 83 54
REMARK SMILES IDX 75 55 76 56 82 57 84 58 77 59 78 60 79 61 80 62 81 63 57 64
REMARK SMILES IDX 58 65 67 66 59 67 60 68 66 69 68 70 61 71 62 72 63 73 64 74
REMARK SMILES IDX 65 75 8 76 9 77 10 78 11 79 12 80 13 81 14 82 15 83 16 84
REMARK SMILES IDX 29 85 17 86 18 87 27 88 25 89 26 90 28 91 19 92 20 93 24 94
REMARK SMILES IDX 21 95 23 96 22 97
REMARK H PARENT 89 25 55 36
REMARK Flexibility Score: inf
ROOT
ATOM      1  C   UNL A   1      40.934  21.518  26.132  1.00  0.00     0.188 C 
ENDROOT
BRANCH   1   2
ATOM      2  O   UNL A   1      41.981  22.451  25.824  1.00  0.00    -0.376 OA
BRANCH   2   3
ATOM      3  C   UNL A   1      41.734  23.763  26.318  1.00  0.00     0.202 C 
BRANCH   3   4
ATOM      4  C   UNL A   1      42.385  24.872  25.471  1.00  0.00     0.261 C 
BRANCH   4   5
ATOM      5  O   UNL A   1      43.703  25.262  25.923  1.00  0.00    -0.460 OA
BRANCH   5   6
ATOM      6  C   UNL A   1      44.199  25.401  27.173  1.00  0.00     0.338 C 
ATOM      7  O   UNL A   1      45.008  24.572  27.587  1.00  0.00    -0.246 OA
BRANCH   6   8
ATOM      8  C   UNL A   1      43.719  26.464  28.108  1.00  0.00     0.060 A 
ATOM      9  C   UNL A   1      44.207  27.766  28.127  1.00  0.00     0.016 A 
ATOM     10  C   UNL A   1      42.668  26.148  28.990  1.00  0.00     0.016 A 
ATOM     11  C   UNL A   1      43.740  28.711  29.030  1.00  0.00     0.010 A 
ATOM     12  C   UNL A   1      42.166  27.100  29.888  1.00  0.00     0.010 A 
ATOM     13  C   UNL A   1      42.734  28.377  29.933  1.00  0.00    -0.014 A 
BRANCH  13  14
ATOM     14  C   UNL A   1      42.450  29.344  31.013  1.00  0.00     0.031 A 
ATOM     15  C   UNL A   1      41.204  30.173  30.903  1.00  0.00     0.074 A 
ATOM     16  C   UNL A   1      43.186  29.331  32.139  1.00  0.00     0.049 A 
ATOM     17  N   UNL A   1      40.706  31.029  31.751  1.00  0.00    -0.248 NA
ATOM     18  C   UNL A   1      40.394  29.989  29.685  1.00  0.00     0.031 C 
ATOM     19  C   UNL A   1      44.339  28.461  32.376  1.00  0.00     0.029 A 
ATOM     20  N   UNL A   1      43.061  30.038  33.305  1.00  0.00    -0.354 N 
ATOM     21  C   UNL A   1      39.528  31.485  31.173  1.00  0.00     0.074 A 
ATOM     22  C   UNL A   1      39.394  30.832  29.892  1.00  0.00     0.031 C 
ATOM     23  C   UNL A   1      44.812  28.682  33.614  1.00  0.00     0.029 A 
ATOM     24  C   UNL A   1      44.024  29.740  34.239  1.00  0.00     0.049 A 
ATOM     25  H   UNL A   1      42.348  30.699  33.459  1.00  0.00     0.167 HD
ATOM     26  C   UNL A   1      38.636  32.368  31.675  1.00  0.00     0.037 A 
ATOM     27  C   UNL A   1      44.253  30.283  35.451  1.00  0.00     0.037 A 
ATOM     28  C   UNL A   1      38.798  33.017  32.947  1.00  0.00     0.049 A 
ATOM     29  C   UNL A   1      43.312  31.357  35.932  1.00  0.00     0.074 A 
ATOM     30  C   UNL A   1      38.002  33.983  33.531  1.00  0.00     0.029 A 
ATOM     31  N   UNL A   1      39.839  32.761  33.832  1.00  0.00    -0.354 N 
ATOM     32  N   UNL A   1      42.225  31.818  35.354  1.00  0.00    -0.248 NA
ATOM     33  C   UNL A   1      43.623  31.989  37.220  1.00  0.00     0.031 C 
ATOM     34  C   UNL A   1      38.587  34.344  34.750  1.00  0.00     0.029 A 
ATOM     35  C   UNL A   1      39.719  33.567  34.949  1.00  0.00     0.049 A 
ATOM     36  H   UNL A   1      40.557  32.104  33.684  1.00  0.00     0.167 HD
ATOM     37  C   UNL A   1      41.713  32.779  36.216  1.00  0.00     0.074 A 
ATOM     38  C   UNL A   1      42.597  32.817  37.365  1.00  0.00     0.031 C 
ATOM     39  C   UNL A   1      40.618  33.567  36.076  1.00  0.00     0.037 A 
BRANCH  26  40
ATOM     40  C   UNL A   1      37.451  32.713  30.821  1.00  0.00     0.058 A 
ATOM     41  C   UNL A   1      37.528  33.668  29.796  1.00  0.00     0.135 A 
ATOM     42  C   UNL A   1      36.216  32.081  31.037  1.00  0.00     0.135 A 
ATOM     43  F   UNL A   1      38.677  34.328  29.571  1.00  0.00    -0.206 F 
ATOM     44  C   UNL A   1      36.419  33.997  29.024  1.00  0.00     0.059 A 
ATOM     45  C   UNL A   1      35.099  32.377  30.263  1.00  0.00     0.059 A 
ATOM     46  F   UNL A   1      36.085  31.173  32.016  1.00  0.00    -0.206 F 
ATOM     47  C   UNL A   1      35.207  33.344  29.266  1.00  0.00     0.060 A 
BRANCH  47  48
ATOM     48  S   UNL A   1      33.777  33.776  28.252  1.00  0.00     0.124 S 
ATOM     49  O   UNL A   1      34.378  34.670  27.265  1.00  0.00    -0.237 OA
ATOM     50  O   UNL A   1      33.349  32.474  27.749  1.00  0.00    -0.237 OA
ATOM     51  O   UNL A   1      32.866  34.409  29.199  1.00  0.00    -0.744 OA
ENDBRANCH  47  48
ENDBRANCH  26  40
BRANCH  27  52
ATOM     52  C   UNL A   1      45.435  29.874  36.261  1.00  0.00     0.058 A 
ATOM     53  C   UNL A   1      46.680  30.503  36.121  1.00  0.00     0.135 A 
ATOM     54  C   UNL A   1      45.347  28.809  37.174  1.00  0.00     0.135 A 
ATOM     55  F   UNL A   1      46.823  31.523  35.262  1.00  0.00    -0.206 F 
ATOM     56  C   UNL A   1      47.801  30.072  36.825  1.00  0.00     0.059 A 
ATOM     57  C   UNL A   1      46.445  28.379  37.914  1.00  0.00     0.059 A 
ATOM     58  F   UNL A   1      44.177  28.179  37.364  1.00  0.00    -0.206 F 
ATOM     59  C   UNL A   1      47.674  29.004  37.717  1.00  0.00     0.060 A 
BRANCH  59  60
ATOM     60  S   UNL A   1      49.132  28.454  38.631  1.00  0.00     0.124 S 
ATOM     61  O   UNL A   1      49.963  29.652  38.603  1.00  0.00    -0.237 OA
ATOM     62  O   UNL A   1      48.564  28.100  39.927  1.00  0.00    -0.237 OA
ATOM     63  O   UNL A   1      49.617  27.328  37.839  1.00  0.00    -0.744 OA
ENDBRANCH  59  60
ENDBRANCH  27  52
BRANCH  39  64
ATOM     64  C   UNL A   1      40.307  34.509  37.203  1.00  0.00     0.058 A 
ATOM     65  C   UNL A   1      40.758  35.838  37.194  1.00  0.00     0.135 A 
ATOM     66  C   UNL A   1      39.507  34.088  38.277  1.00  0.00     0.135 A 
ATOM     67  F   UNL A   1      41.530  36.283  36.191  1.00  0.00    -0.206 F 
ATOM     68  C   UNL A   1      40.449  36.712  38.229  1.00  0.00     0.059 A 
ATOM     69  C   UNL A   1      39.160  34.955  39.307  1.00  0.00     0.059 A 
ATOM     70  F   UNL A   1      39.041  32.831  38.323  1.00  0.00    -0.206 F 
ATOM     71  C   UNL A   1      39.648  36.261  39.280  1.00  0.00     0.060 A 
BRANCH  71  72
ATOM     72  S   UNL A   1      39.230  37.413  40.604  1.00  0.00     0.124 S 
ATOM     73  O   UNL A   1      40.516  38.060  40.847  1.00  0.00    -0.237 OA
ATOM     74  O   UNL A   1      38.208  38.248  39.980  1.00  0.00    -0.237 OA
ATOM     75  O   UNL A   1      38.753  36.542  41.674  1.00  0.00    -0.744 OA
ENDBRANCH  71  72
ENDBRANCH  39  64
ENDBRANCH  13  14
ENDBRANCH   6   8
ENDBRANCH   5   6
ENDBRANCH   4   5
ENDBRANCH   3   4
ENDBRANCH   2   3
ENDBRANCH   1   2
BRANCH   1  76
ATOM     76  C   UNL A   1      39.641  22.270  26.442  1.00  0.00     0.188 C 
BRANCH  76  77
ATOM     77  O   UNL A   1      38.502  21.525  26.018  1.00  0.00    -0.376 OA
BRANCH  77  78
ATOM     78  C   UNL A   1      37.681  22.100  25.009  1.00  0.00     0.202 C 
BRANCH  78  79
ATOM     79  C   UNL A   1      36.806  23.294  25.416  1.00  0.00     0.261 C 
BRANCH  79  80
ATOM     80  O   UNL A   1      35.416  23.169  25.059  1.00  0.00    -0.462 OA
BRANCH  80  81
ATOM     81  C   UNL A   1      34.492  23.137  26.060  1.00  0.00     0.329 C 
ATOM     82  O   UNL A   1      34.763  23.309  27.240  1.00  0.00    -0.250 OA
BRANCH  81  83
ATOM     83  C   UNL A   1      33.096  22.919  25.456  1.00  0.00     0.206 C 
ATOM     84  C   UNL A   1      32.048  22.497  26.487  1.00  0.00     0.109 C 
ATOM     85  N   UNL A   1      32.528  24.008  24.649  1.00  0.00    -0.309 N 
ATOM     86  S   UNL A   1      30.712  23.742  26.494  1.00  0.00    -0.126 SA
ATOM     87  C   UNL A   1      31.512  24.853  25.265  1.00  0.00     0.116 C 
ATOM     88  C   UNL A   1      32.179  23.642  23.346  1.00  0.00     0.224 C 
ATOM     89  C   UNL A   1      30.535  25.128  24.098  1.00  0.00     0.055 C 
ATOM     90  C   UNL A   1      30.738  23.993  23.117  1.00  0.00     0.104 C 
ATOM     91  O   UNL A   1      32.867  22.971  22.596  1.00  0.00    -0.275 OA
BRANCH  87  92
ATOM     92  C   UNL A   1      32.065  26.130  25.932  1.00  0.00    -0.012 A 
ATOM     93  C   UNL A   1      31.263  26.924  26.775  1.00  0.00     0.007 A 
ATOM     94  C   UNL A   1      33.378  26.604  25.724  1.00  0.00     0.007 A 
ATOM     95  C   UNL A   1      31.741  28.083  27.398  1.00  0.00     0.000 A 
ATOM     96  C   UNL A   1      33.858  27.773  26.331  1.00  0.00     0.000 A 
ATOM     97  C   UNL A   1      33.041  28.509  27.177  1.00  0.00     0.000 A 
ENDBRANCH  87  92
ENDBRANCH  81  83
ENDBRANCH  80  81
ENDBRANCH  79  80
ENDBRANCH  78  79
ENDBRANCH  77  78
ENDBRANCH  76  77
ENDBRANCH   1  76
TORSDOF 21
ENDMDL
