MODEL 1
REMARK VINA RESULT:      -9.7      0.000      0.000
REMARK SMILES CC(C)C(=O)Nc1ccc2c([C@H](C(=O)OCCOCCOCCOC(=O)c3ccc(-c4c5nc(c(-c6c(F)cc(S(=O)(=O)[O-])cc6F)c6ccc([nH]6)c(-c6c(F)cc(S(=O)(=O)[O-])cc6F)c6nc(c(-c7c(F)cc(S(=O)(=O)[O-])cc7F)c7ccc4[nH]7)C=C6)C=C5)cc3)[NH+]3CC[NH+](CC(=O)N(C)C)CC3)c[nH]c2c1
REMARK SMILES IDX 19 1 18 2 17 3 16 4 15 5 13 6 14 7 12 8 11 9 7 10 8 11
REMARK SMILES IDX 108 12 9 13 107 14 10 15 106 16 105 17 6 19 4 20 5 21 2 23
REMARK SMILES IDX 1 24 3 25 93 26 94 27 104 28 95 30 103 31 96 32 97 34 98 35
REMARK SMILES IDX 99 36 100 37 101 38 102 39 20 40 21 41 22 42 23 43 24 44
REMARK SMILES IDX 25 45 26 46 27 47 28 48 92 49 29 50 91 51 30 52 31 53 32 54
REMARK SMILES IDX 85 55 33 56 90 57 84 58 86 59 34 60 89 61 83 62 82 63 35 65
REMARK SMILES IDX 69 66 48 67 68 68 49 69 52 70 67 71 87 72 50 73 51 74 66 76
REMARK SMILES IDX 88 77 53 78 36 79 37 80 46 81 38 82 39 83 45 84 47 85 40 86
REMARK SMILES IDX 41 87 42 88 43 89 44 90 70 91 71 92 80 93 72 94 73 95 79 96
REMARK SMILES IDX 81 97 74 98 75 99 76 100 77 101 78 102 54 103 55 104 64 105
REMARK SMILES IDX 56 106 57 107 63 108 65 109 58 110 59 111 60 112 61 113
REMARK SMILES IDX 62 114
REMARK H PARENT 106 18 6 22 93 29 96 33 86 64 52 75
REMARK Flexibility Score: inf
ROOT
ATOM      1  C   UNL A   1      32.931  32.367  27.977  1.00  0.00     0.188 C 
ENDROOT
BRANCH   1   2
ATOM      2  O   UNL A   1      32.980  31.400  26.943  1.00  0.00    -0.376 OA
BRANCH   2   3
ATOM      3  C   UNL A   1      33.672  30.170  27.120  1.00  0.00     0.202 C 
BRANCH   3   4
ATOM      4  C   UNL A   1      33.550  29.029  26.103  1.00  0.00     0.261 C 
BRANCH   4   5
ATOM      5  O   UNL A   1      32.185  28.675  25.841  1.00  0.00    -0.459 OA
BRANCH   5   6
ATOM      6  C   UNL A   1      31.792  27.422  26.192  1.00  0.00     0.370 C 
ATOM      7  O   UNL A   1      31.294  27.168  27.286  1.00  0.00    -0.245 OA
BRANCH   6   8
ATOM      8  C   UNL A   1      32.029  26.347  25.101  1.00  0.00     0.328 C 
BRANCH   8   9
ATOM      9  C   UNL A   1      32.503  25.005  25.641  1.00  0.00     0.046 A 
ATOM     10  C   UNL A   1      36.071  22.743  25.648  1.00  0.00     0.043 A 
ATOM     11  C   UNL A   1      36.000  23.722  24.660  1.00  0.00     0.027 A 
ATOM     12  C   UNL A   1      34.958  22.420  26.414  1.00  0.00     0.052 A 
ATOM     13  C   UNL A   1      34.844  24.508  24.510  1.00  0.00     0.013 A 
ATOM     14  C   UNL A   1      33.843  23.255  26.285  1.00  0.00     0.048 A 
ATOM     15  C   UNL A   1      33.748  24.310  25.378  1.00  0.00     0.009 A 
ATOM     16  N   UNL A   1      32.708  23.273  27.044  1.00  0.00    -0.361 N 
ATOM     17  C   UNL A   1      31.903  24.309  26.683  1.00  0.00     0.094 A 
ATOM     18  H   UNL A   1      32.499  22.624  27.755  1.00  0.00     0.166 HD
BRANCH  10  19
ATOM     19  N   UNL A   1      37.267  22.080  25.925  1.00  0.00    -0.326 N 
ATOM     20  C   UNL A   1      38.452  22.647  26.310  1.00  0.00     0.226 C 
ATOM     21  O   UNL A   1      39.361  21.886  26.663  1.00  0.00    -0.274 OA
ATOM     22  H   UNL A   1      37.258  21.099  25.835  1.00  0.00     0.169 HD
BRANCH  20  23
ATOM     23  C   UNL A   1      38.685  24.163  26.345  1.00  0.00     0.072 C 
ATOM     24  C   UNL A   1      38.444  24.790  27.710  1.00  0.00     0.018 C 
ATOM     25  C   UNL A   1      40.010  24.607  25.728  1.00  0.00     0.018 C 
ENDBRANCH  20  23
ENDBRANCH  10  19
ENDBRANCH   8   9
BRANCH   8  26
ATOM     26  N   UNL A   1      31.035  26.270  24.003  1.00  0.00    -0.310 N 
ATOM     27  C   UNL A   1      29.607  26.471  24.263  1.00  0.00     0.325 C 
ATOM     28  C   UNL A   1      31.442  27.006  22.806  1.00  0.00     0.325 C 
ATOM     29  H   UNL A   1      31.071  25.261  23.858  1.00  0.00     0.349 HD
ATOM     30  C   UNL A   1      29.029  27.906  24.097  1.00  0.00     0.325 C 
ATOM     31  C   UNL A   1      31.035  28.494  22.787  1.00  0.00     0.325 C 
ATOM     32  N   UNL A   1      29.640  28.801  23.097  1.00  0.00    -0.318 N 
ATOM     33  H   UNL A   1      29.704  29.706  23.562  1.00  0.00     0.348 HD
BRANCH  32  34
ATOM     34  C   UNL A   1      28.781  29.077  21.934  1.00  0.00     0.364 C 
BRANCH  34  35
ATOM     35  C   UNL A   1      28.696  30.565  21.590  1.00  0.00     0.277 C 
ATOM     36  O   UNL A   1      29.095  30.957  20.488  1.00  0.00    -0.268 OA
ATOM     37  N   UNL A   1      28.234  31.456  22.551  1.00  0.00    -0.344 N 
ATOM     38  C   UNL A   1      27.445  31.124  23.727  1.00  0.00     0.146 C 
ATOM     39  C   UNL A   1      28.547  32.862  22.371  1.00  0.00     0.146 C 
ENDBRANCH  34  35
ENDBRANCH  32  34
ENDBRANCH   8  26
ENDBRANCH   6   8
ENDBRANCH   5   6
ENDBRANCH   4   5
ENDBRANCH   3   4
ENDBRANCH   2   3
ENDBRANCH   1   2
BRANCH   1  40
ATOM     40  C   UNL A   1      34.016  33.454  28.056  1.00  0.00     0.188 C 
BRANCH  40  41
ATOM     41  O   UNL A   1      35.374  33.293  27.673  1.00  0.00    -0.376 OA
BRANCH  41  42
ATOM     42  C   UNL A   1      36.345  32.935  28.631  1.00  0.00     0.202 C 
BRANCH  42  43
ATOM     43  C   UNL A   1      35.790  32.196  29.854  1.00  0.00     0.261 C 
BRANCH  43  44
ATOM     44  O   UNL A   1      36.075  30.794  29.841  1.00  0.00    -0.460 OA
BRANCH  44  45
ATOM     45  C   UNL A   1      36.859  30.365  30.871  1.00  0.00     0.338 C 
ATOM     46  O   UNL A   1      36.525  30.180  32.016  1.00  0.00    -0.246 OA
BRANCH  45  47
ATOM     47  C   UNL A   1      38.171  29.970  30.293  1.00  0.00     0.060 A 
ATOM     48  C   UNL A   1      39.210  29.651  31.174  1.00  0.00     0.016 A 
ATOM     49  C   UNL A   1      38.358  29.833  28.913  1.00  0.00     0.016 A 
ATOM     50  C   UNL A   1      40.433  29.205  30.671  1.00  0.00     0.010 A 
ATOM     51  C   UNL A   1      39.591  29.405  28.409  1.00  0.00     0.010 A 
ATOM     52  C   UNL A   1      40.642  29.101  29.285  1.00  0.00    -0.014 A 
BRANCH  52  53
ATOM     53  C   UNL A   1      42.025  28.940  28.765  1.00  0.00     0.031 A 
ATOM     54  C   UNL A   1      42.403  27.578  28.249  1.00  0.00     0.074 A 
ATOM     55  C   UNL A   1      42.924  29.944  28.739  1.00  0.00     0.049 A 
ATOM     56  N   UNL A   1      43.540  27.164  27.759  1.00  0.00    -0.248 NA
ATOM     57  C   UNL A   1      41.356  26.543  28.307  1.00  0.00     0.031 C 
ATOM     58  C   UNL A   1      42.695  31.306  29.211  1.00  0.00     0.029 A 
ATOM     59  N   UNL A   1      44.217  29.971  28.270  1.00  0.00    -0.354 N 
ATOM     60  C   UNL A   1      43.349  25.821  27.461  1.00  0.00     0.074 A 
ATOM     61  C   UNL A   1      41.985  25.493  27.807  1.00  0.00     0.031 C 
ATOM     62  C   UNL A   1      43.780  32.055  28.938  1.00  0.00     0.029 A 
ATOM     63  C   UNL A   1      44.827  31.202  28.377  1.00  0.00     0.049 A 
ATOM     64  H   UNL A   1      44.667  29.182  27.892  1.00  0.00     0.167 HD
ATOM     65  C   UNL A   1      44.235  24.925  26.974  1.00  0.00     0.037 A 
ATOM     66  C   UNL A   1      46.094  31.582  28.099  1.00  0.00     0.037 A 
ATOM     67  C   UNL A   1      45.613  25.220  26.703  1.00  0.00     0.049 A 
ATOM     68  C   UNL A   1      47.087  30.541  27.629  1.00  0.00     0.074 A 
ATOM     69  C   UNL A   1      46.604  24.362  26.265  1.00  0.00     0.029 A 
ATOM     70  N   UNL A   1      46.202  26.464  26.871  1.00  0.00    -0.354 N 
ATOM     71  N   UNL A   1      46.891  29.273  27.357  1.00  0.00    -0.248 NA
ATOM     72  C   UNL A   1      48.484  30.976  27.466  1.00  0.00     0.031 C 
ATOM     73  C   UNL A   1      47.806  25.074  26.220  1.00  0.00     0.029 A 
ATOM     74  C   UNL A   1      47.550  26.392  26.565  1.00  0.00     0.049 A 
ATOM     75  H   UNL A   1      45.731  27.278  27.164  1.00  0.00     0.167 HD
ATOM     76  C   UNL A   1      48.132  28.766  26.974  1.00  0.00     0.074 A 
ATOM     77  C   UNL A   1      49.069  29.867  27.033  1.00  0.00     0.031 C 
ATOM     78  C   UNL A   1      48.468  27.502  26.612  1.00  0.00     0.037 A 
BRANCH  65  79
ATOM     79  C   UNL A   1      43.747  23.518  26.794  1.00  0.00     0.058 A 
ATOM     80  C   UNL A   1      43.450  22.997  25.525  1.00  0.00     0.135 A 
ATOM     81  C   UNL A   1      43.550  22.692  27.911  1.00  0.00     0.135 A 
ATOM     82  F   UNL A   1      43.583  23.763  24.430  1.00  0.00    -0.206 F 
ATOM     83  C   UNL A   1      42.953  21.707  25.372  1.00  0.00     0.059 A 
ATOM     84  C   UNL A   1      43.081  21.390  27.778  1.00  0.00     0.059 A 
ATOM     85  F   UNL A   1      43.800  23.152  29.146  1.00  0.00    -0.206 F 
ATOM     86  C   UNL A   1      42.771  20.913  26.506  1.00  0.00     0.060 A 
BRANCH  86  87
ATOM     87  S   UNL A   1      42.121  19.243  26.292  1.00  0.00     0.124 S 
ATOM     88  O   UNL A   1      43.040  18.699  25.297  1.00  0.00    -0.237 OA
ATOM     89  O   UNL A   1      42.241  18.689  27.637  1.00  0.00    -0.237 OA
ATOM     90  O   UNL A   1      40.756  19.467  25.828  1.00  0.00    -0.744 OA
ENDBRANCH  86  87
ENDBRANCH  65  79
BRANCH  66  91
ATOM     91  C   UNL A   1      46.540  32.991  28.318  1.00  0.00     0.058 A 
ATOM     92  C   UNL A   1      47.052  33.410  29.557  1.00  0.00     0.135 A 
ATOM     93  C   UNL A   1      46.418  33.960  27.310  1.00  0.00     0.135 A 
ATOM     94  F   UNL A   1      47.169  32.533  30.565  1.00  0.00    -0.206 F 
ATOM     95  C   UNL A   1      47.408  34.737  29.794  1.00  0.00     0.059 A 
ATOM     96  C   UNL A   1      46.799  35.284  27.510  1.00  0.00     0.059 A 
ATOM     97  F   UNL A   1      45.933  33.621  26.105  1.00  0.00    -0.206 F 
ATOM     98  C   UNL A   1      47.280  35.667  28.761  1.00  0.00     0.060 A 
BRANCH  98  99
ATOM     99  S   UNL A   1      47.780  37.377  29.060  1.00  0.00     0.124 S 
ATOM    100  O   UNL A   1      46.816  37.794  30.070  1.00  0.00    -0.237 OA
ATOM    101  O   UNL A   1      49.157  37.218  29.516  1.00  0.00    -0.237 OA
ATOM    102  O   UNL A   1      47.630  38.002  27.749  1.00  0.00    -0.744 OA
ENDBRANCH  98  99
ENDBRANCH  66  91
BRANCH  78 103
ATOM    103  C   UNL A   1      49.891  27.234  26.201  1.00  0.00     0.058 A 
ATOM    104  C   UNL A   1      50.322  27.377  24.873  1.00  0.00     0.135 A 
ATOM    105  C   UNL A   1      50.857  26.921  27.173  1.00  0.00     0.135 A 
ATOM    106  F   UNL A   1      49.441  27.673  23.905  1.00  0.00    -0.206 F 
ATOM    107  C   UNL A   1      51.658  27.204  24.521  1.00  0.00     0.059 A 
ATOM    108  C   UNL A   1      52.202  26.773  26.848  1.00  0.00     0.059 A 
ATOM    109  F   UNL A   1      50.501  26.787  28.460  1.00  0.00    -0.206 F 
ATOM    110  C   UNL A   1      52.592  26.908  25.517  1.00  0.00     0.060 A 
BRANCH 110 111
ATOM    111  S   UNL A   1      54.329  26.741  25.054  1.00  0.00     0.124 S 
ATOM    112  O   UNL A   1      55.001  27.165  26.279  1.00  0.00    -0.237 OA
ATOM    113  O   UNL A   1      54.432  25.320  24.735  1.00  0.00    -0.237 OA
ATOM    114  O   UNL A   1      54.468  27.645  23.917  1.00  0.00    -0.744 OA
ENDBRANCH 110 111
ENDBRANCH  78 103
ENDBRANCH  52  53
ENDBRANCH  45  47
ENDBRANCH  44  45
ENDBRANCH  43  44
ENDBRANCH  42  43
ENDBRANCH  41  42
ENDBRANCH  40  41
ENDBRANCH   1  40
TORSDOF 26
ENDMDL
MODEL 2
REMARK VINA RESULT:      -8.4      5.860     14.641
REMARK SMILES CC(C)C(=O)Nc1ccc2c([C@H](C(=O)OCCOCCOCCOC(=O)c3ccc(-c4c5nc(c(-c6c(F)cc(S(=O)(=O)[O-])cc6F)c6ccc([nH]6)c(-c6c(F)cc(S(=O)(=O)[O-])cc6F)c6nc(c(-c7c(F)cc(S(=O)(=O)[O-])cc7F)c7ccc4[nH]7)C=C6)C=C5)cc3)[NH+]3CC[NH+](CC(=O)N(C)C)CC3)c[nH]c2c1
REMARK SMILES IDX 19 1 18 2 17 3 16 4 15 5 13 6 14 7 12 8 11 9 7 10 8 11
REMARK SMILES IDX 108 12 9 13 107 14 10 15 106 16 105 17 6 19 4 20 5 21 2 23
REMARK SMILES IDX 1 24 3 25 93 26 94 27 104 28 95 30 103 31 96 32 97 34 98 35
REMARK SMILES IDX 99 36 100 37 101 38 102 39 20 40 21 41 22 42 23 43 24 44
REMARK SMILES IDX 25 45 26 46 27 47 28 48 92 49 29 50 91 51 30 52 31 53 32 54
REMARK SMILES IDX 85 55 33 56 90 57 84 58 86 59 34 60 89 61 83 62 82 63 35 65
REMARK SMILES IDX 69 66 48 67 68 68 49 69 52 70 67 71 87 72 50 73 51 74 66 76
REMARK SMILES IDX 88 77 53 78 36 79 37 80 46 81 38 82 39 83 45 84 47 85 40 86
REMARK SMILES IDX 41 87 42 88 43 89 44 90 70 91 71 92 80 93 72 94 73 95 79 96
REMARK SMILES IDX 81 97 74 98 75 99 76 100 77 101 78 102 54 103 55 104 64 105
REMARK SMILES IDX 56 106 57 107 63 108 65 109 58 110 59 111 60 112 61 113
REMARK SMILES IDX 62 114
REMARK H PARENT 106 18 6 22 93 29 96 33 86 64 52 75
REMARK Flexibility Score: inf
ROOT
ATOM      1  C   UNL A   1      51.476  42.534  29.128  1.00  0.00     0.188 C 
ENDROOT
BRANCH   1   2
ATOM      2  O   UNL A   1      50.984  43.352  28.081  1.00  0.00    -0.376 OA
BRANCH   2   3
ATOM      3  C   UNL A   1      49.603  43.358  27.741  1.00  0.00     0.202 C 
BRANCH   3   4
ATOM      4  C   UNL A   1      48.742  44.614  27.907  1.00  0.00     0.261 C 
BRANCH   4   5
ATOM      5  O   UNL A   1      48.389  45.205  26.650  1.00  0.00    -0.459 OA
BRANCH   5   6
ATOM      6  C   UNL A   1      47.095  45.087  26.251  1.00  0.00     0.370 C 
ATOM      7  O   UNL A   1      46.174  45.674  26.813  1.00  0.00    -0.245 OA
BRANCH   6   8
ATOM      8  C   UNL A   1      46.883  44.150  25.034  1.00  0.00     0.328 C 
BRANCH   8   9
ATOM      9  C   UNL A   1      45.562  43.393  25.054  1.00  0.00     0.046 A 
ATOM     10  C   UNL A   1      44.153  39.635  26.370  1.00  0.00     0.043 A 
ATOM     11  C   UNL A   1      45.531  39.711  26.183  1.00  0.00     0.027 A 
ATOM     12  C   UNL A   1      43.317  40.660  25.947  1.00  0.00     0.052 A 
ATOM     13  C   UNL A   1      46.125  40.887  25.692  1.00  0.00     0.013 A 
ATOM     14  C   UNL A   1      43.937  41.839  25.519  1.00  0.00     0.048 A 
ATOM     15  C   UNL A   1      45.317  42.006  25.398  1.00  0.00     0.009 A 
ATOM     16  N   UNL A   1      43.359  43.042  25.233  1.00  0.00    -0.361 N 
ATOM     17  C   UNL A   1      44.307  43.981  24.963  1.00  0.00     0.094 A 
ATOM     18  H   UNL A   1      42.388  43.209  25.223  1.00  0.00     0.166 HD
BRANCH  10  19
ATOM     19  N   UNL A   1      43.571  38.545  27.019  1.00  0.00    -0.326 N 
ATOM     20  C   UNL A   1      43.280  38.442  28.353  1.00  0.00     0.226 C 
ATOM     21  O   UNL A   1      42.620  37.461  28.718  1.00  0.00    -0.274 OA
ATOM     22  H   UNL A   1      43.343  37.769  26.458  1.00  0.00     0.169 HD
BRANCH  20  23
ATOM     23  C   UNL A   1      43.710  39.487  29.390  1.00  0.00     0.072 C 
ATOM     24  C   UNL A   1      42.744  40.656  29.521  1.00  0.00     0.018 C 
ATOM     25  C   UNL A   1      44.098  38.901  30.746  1.00  0.00     0.018 C 
ENDBRANCH  20  23
ENDBRANCH  10  19
ENDBRANCH   8   9
BRANCH   8  26
ATOM     26  N   UNL A   1      47.295  44.665  23.706  1.00  0.00    -0.310 N 
ATOM     27  C   UNL A   1      48.380  44.028  22.954  1.00  0.00     0.325 C 
ATOM     28  C   UNL A   1      46.165  44.950  22.824  1.00  0.00     0.325 C 
ATOM     29  H   UNL A   1      47.750  45.520  24.027  1.00  0.00     0.349 HD
ATOM     30  C   UNL A   1      48.005  42.925  21.923  1.00  0.00     0.325 C 
ATOM     31  C   UNL A   1      45.682  43.754  21.976  1.00  0.00     0.325 C 
ATOM     32  N   UNL A   1      46.703  43.015  21.237  1.00  0.00    -0.318 N 
ATOM     33  H   UNL A   1      46.341  42.062  21.240  1.00  0.00     0.348 HD
BRANCH  32  34
ATOM     34  C   UNL A   1      46.802  43.336  19.804  1.00  0.00     0.364 C 
BRANCH  34  35
ATOM     35  C   UNL A   1      46.448  44.790  19.488  1.00  0.00     0.277 C 
ATOM     36  O   UNL A   1      47.253  45.686  19.766  1.00  0.00    -0.268 OA
ATOM     37  N   UNL A   1      45.197  45.082  18.957  1.00  0.00    -0.344 N 
ATOM     38  C   UNL A   1      44.304  44.147  18.290  1.00  0.00     0.146 C 
ATOM     39  C   UNL A   1      44.727  46.452  19.056  1.00  0.00     0.146 C 
ENDBRANCH  34  35
ENDBRANCH  32  34
ENDBRANCH   8  26
ENDBRANCH   6   8
ENDBRANCH   5   6
ENDBRANCH   4   5
ENDBRANCH   3   4
ENDBRANCH   2   3
ENDBRANCH   1   2
BRANCH   1  40
ATOM     40  C   UNL A   1      51.095  41.045  29.175  1.00  0.00     0.188 C 
BRANCH  40  41
ATOM     41  O   UNL A   1      51.237  40.123  28.105  1.00  0.00    -0.376 OA
BRANCH  41  42
ATOM     42  C   UNL A   1      50.121  39.395  27.641  1.00  0.00     0.202 C 
BRANCH  42  43
ATOM     43  C   UNL A   1      50.107  37.920  28.054  1.00  0.00     0.261 C 
BRANCH  43  44
ATOM     44  O   UNL A   1      48.963  37.211  27.568  1.00  0.00    -0.460 OA
BRANCH  44  45
ATOM     45  C   UNL A   1      47.990  36.996  28.500  1.00  0.00     0.338 C 
ATOM     46  O   UNL A   1      47.415  37.826  29.160  1.00  0.00    -0.246 OA
BRANCH  45  47
ATOM     47  C   UNL A   1      47.613  35.559  28.422  1.00  0.00     0.060 A 
ATOM     48  C   UNL A   1      47.098  35.078  27.214  1.00  0.00     0.016 A 
ATOM     49  C   UNL A   1      47.836  34.680  29.487  1.00  0.00     0.016 A 
ATOM     50  C   UNL A   1      46.801  33.721  27.079  1.00  0.00     0.010 A 
ATOM     51  C   UNL A   1      47.520  33.323  29.357  1.00  0.00     0.010 A 
ATOM     52  C   UNL A   1      46.987  32.837  28.155  1.00  0.00    -0.014 A 
BRANCH  52  53
ATOM     53  C   UNL A   1      46.374  31.484  28.103  1.00  0.00     0.031 A 
ATOM     54  C   UNL A   1      47.253  30.357  27.632  1.00  0.00     0.074 A 
ATOM     55  C   UNL A   1      45.096  31.240  28.455  1.00  0.00     0.049 A 
ATOM     56  N   UNL A   1      46.967  29.093  27.479  1.00  0.00    -0.248 NA
ATOM     57  C   UNL A   1      48.638  30.712  27.277  1.00  0.00     0.031 C 
ATOM     58  C   UNL A   1      44.134  32.235  28.920  1.00  0.00     0.029 A 
ATOM     59  N   UNL A   1      44.391  30.059  28.493  1.00  0.00    -0.354 N 
ATOM     60  C   UNL A   1      48.131  28.505  26.999  1.00  0.00     0.074 A 
ATOM     61  C   UNL A   1      49.131  29.544  26.904  1.00  0.00     0.031 C 
ATOM     62  C   UNL A   1      42.993  31.615  29.271  1.00  0.00     0.029 A 
ATOM     63  C   UNL A   1      43.097  30.192  28.947  1.00  0.00     0.049 A 
ATOM     64  H   UNL A   1      44.777  29.196  28.221  1.00  0.00     0.167 HD
ATOM     65  C   UNL A   1      48.346  27.222  26.636  1.00  0.00     0.037 A 
ATOM     66  C   UNL A   1      42.102  29.282  29.043  1.00  0.00     0.037 A 
ATOM     67  C   UNL A   1      47.338  26.200  26.649  1.00  0.00     0.049 A 
ATOM     68  C   UNL A   1      42.347  27.871  28.556  1.00  0.00     0.074 A 
ATOM     69  C   UNL A   1      47.446  24.884  26.242  1.00  0.00     0.029 A 
ATOM     70  N   UNL A   1      46.030  26.387  27.068  1.00  0.00    -0.354 N 
ATOM     71  N   UNL A   1      43.453  27.332  28.100  1.00  0.00    -0.248 NA
ATOM     72  C   UNL A   1      41.196  26.953  28.560  1.00  0.00     0.031 C 
ATOM     73  C   UNL A   1      46.186  24.288  26.362  1.00  0.00     0.029 A 
ATOM     74  C   UNL A   1      45.312  25.215  26.909  1.00  0.00     0.049 A 
ATOM     75  H   UNL A   1      45.666  27.230  27.426  1.00  0.00     0.167 HD
ATOM     76  C   UNL A   1      43.135  26.013  27.783  1.00  0.00     0.074 A 
ATOM     77  C   UNL A   1      41.738  25.828  28.113  1.00  0.00     0.031 C 
ATOM     78  C   UNL A   1      43.925  25.042  27.259  1.00  0.00     0.037 A 
BRANCH  65  79
ATOM     79  C   UNL A   1      49.710  26.887  26.108  1.00  0.00     0.058 A 
ATOM     80  C   UNL A   1      50.729  26.408  26.945  1.00  0.00     0.135 A 
ATOM     81  C   UNL A   1      50.005  27.073  24.748  1.00  0.00     0.135 A 
ATOM     82  F   UNL A   1      50.506  26.251  28.260  1.00  0.00    -0.206 F 
ATOM     83  C   UNL A   1      52.003  26.144  26.455  1.00  0.00     0.059 A 
ATOM     84  C   UNL A   1      51.263  26.790  24.232  1.00  0.00     0.059 A 
ATOM     85  F   UNL A   1      49.069  27.549  23.911  1.00  0.00    -0.206 F 
ATOM     86  C   UNL A   1      52.260  26.340  25.096  1.00  0.00     0.060 A 
BRANCH  86  87
ATOM     87  S   UNL A   1      53.920  25.999  24.475  1.00  0.00     0.124 S 
ATOM     88  O   UNL A   1      54.713  26.972  25.219  1.00  0.00    -0.237 OA
ATOM     89  O   UNL A   1      54.111  24.603  24.853  1.00  0.00    -0.237 OA
ATOM     90  O   UNL A   1      53.804  26.249  23.042  1.00  0.00    -0.744 OA
ENDBRANCH  86  87
ENDBRANCH  65  79
BRANCH  66  91
ATOM     91  C   UNL A   1      40.753  29.670  29.554  1.00  0.00     0.058 A 
ATOM     92  C   UNL A   1      40.512  29.830  30.929  1.00  0.00     0.135 A 
ATOM     93  C   UNL A   1      39.664  29.840  28.685  1.00  0.00     0.135 A 
ATOM     94  F   UNL A   1      41.510  29.656  31.809  1.00  0.00    -0.206 F 
ATOM     95  C   UNL A   1      39.243  30.125  31.423  1.00  0.00     0.059 A 
ATOM     96  C   UNL A   1      38.394  30.170  29.150  1.00  0.00     0.059 A 
ATOM     97  F   UNL A   1      39.831  29.698  27.361  1.00  0.00    -0.206 F 
ATOM     98  C   UNL A   1      38.189  30.296  30.524  1.00  0.00     0.060 A 
BRANCH  98  99
ATOM     99  S   UNL A   1      36.554  30.718  31.165  1.00  0.00     0.124 S 
ATOM    100  O   UNL A   1      36.784  32.053  31.704  1.00  0.00    -0.237 OA
ATOM    101  O   UNL A   1      35.726  30.645  29.966  1.00  0.00    -0.237 OA
ATOM    102  O   UNL A   1      36.304  29.673  32.154  1.00  0.00    -0.744 OA
ENDBRANCH  98  99
ENDBRANCH  66  91
BRANCH  78 103
ATOM    103  C   UNL A   1      43.330  23.675  27.051  1.00  0.00     0.058 A 
ATOM    104  C   UNL A   1      42.862  23.249  25.797  1.00  0.00     0.135 A 
ATOM    105  C   UNL A   1      43.316  22.745  28.104  1.00  0.00     0.135 A 
ATOM    106  F   UNL A   1      42.851  24.097  24.757  1.00  0.00    -0.206 F 
ATOM    107  C   UNL A   1      42.388  21.955  25.601  1.00  0.00     0.059 A 
ATOM    108  C   UNL A   1      42.874  21.438  27.923  1.00  0.00     0.059 A 
ATOM    109  F   UNL A   1      43.766  23.095  29.320  1.00  0.00    -0.206 F 
ATOM    110  C   UNL A   1      42.404  21.055  26.668  1.00  0.00     0.060 A 
BRANCH 110 111
ATOM    111  S   UNL A   1      41.837  19.364  26.385  1.00  0.00     0.124 S 
ATOM    112  O   UNL A   1      42.156  18.730  27.661  1.00  0.00    -0.237 OA
ATOM    113  O   UNL A   1      40.416  19.553  26.109  1.00  0.00    -0.237 OA
ATOM    114  O   UNL A   1      42.638  18.922  25.247  1.00  0.00    -0.744 OA
ENDBRANCH 110 111
ENDBRANCH  78 103
ENDBRANCH  52  53
ENDBRANCH  45  47
ENDBRANCH  44  45
ENDBRANCH  43  44
ENDBRANCH  42  43
ENDBRANCH  41  42
ENDBRANCH  40  41
ENDBRANCH   1  40
TORSDOF 26
ENDMDL
MODEL 3
REMARK VINA RESULT:      -8.3      7.950     15.892
REMARK SMILES CC(C)C(=O)Nc1ccc2c([C@H](C(=O)OCCOCCOCCOC(=O)c3ccc(-c4c5nc(c(-c6c(F)cc(S(=O)(=O)[O-])cc6F)c6ccc([nH]6)c(-c6c(F)cc(S(=O)(=O)[O-])cc6F)c6nc(c(-c7c(F)cc(S(=O)(=O)[O-])cc7F)c7ccc4[nH]7)C=C6)C=C5)cc3)[NH+]3CC[NH+](CC(=O)N(C)C)CC3)c[nH]c2c1
REMARK SMILES IDX 19 1 18 2 17 3 16 4 15 5 13 6 14 7 12 8 11 9 7 10 8 11
REMARK SMILES IDX 108 12 9 13 107 14 10 15 106 16 105 17 6 19 4 20 5 21 2 23
REMARK SMILES IDX 1 24 3 25 93 26 94 27 104 28 95 30 103 31 96 32 97 34 98 35
REMARK SMILES IDX 99 36 100 37 101 38 102 39 20 40 21 41 22 42 23 43 24 44
REMARK SMILES IDX 25 45 26 46 27 47 28 48 92 49 29 50 91 51 30 52 31 53 32 54
REMARK SMILES IDX 85 55 33 56 90 57 84 58 86 59 34 60 89 61 83 62 82 63 35 65
REMARK SMILES IDX 69 66 48 67 68 68 49 69 52 70 67 71 87 72 50 73 51 74 66 76
REMARK SMILES IDX 88 77 53 78 36 79 37 80 46 81 38 82 39 83 45 84 47 85 40 86
REMARK SMILES IDX 41 87 42 88 43 89 44 90 70 91 71 92 80 93 72 94 73 95 79 96
REMARK SMILES IDX 81 97 74 98 75 99 76 100 77 101 78 102 54 103 55 104 64 105
REMARK SMILES IDX 56 106 57 107 63 108 65 109 58 110 59 111 60 112 61 113
REMARK SMILES IDX 62 114
REMARK H PARENT 106 18 6 22 93 29 96 33 86 64 52 75
REMARK Flexibility Score: inf
ROOT
ATOM      1  C   UNL A   1      46.976  41.653  26.658  1.00  0.00     0.188 C 
ENDROOT
BRANCH   1   2
ATOM      2  O   UNL A   1      45.624  41.803  26.264  1.00  0.00    -0.376 OA
BRANCH   2   3
ATOM      3  C   UNL A   1      45.058  43.091  26.055  1.00  0.00     0.202 C 
BRANCH   3   4
ATOM      4  C   UNL A   1      44.979  43.715  24.658  1.00  0.00     0.261 C 
BRANCH   4   5
ATOM      5  O   UNL A   1      46.272  44.042  24.132  1.00  0.00    -0.459 OA
BRANCH   5   6
ATOM      6  C   UNL A   1      46.678  43.370  23.023  1.00  0.00     0.370 C 
ATOM      7  O   UNL A   1      46.933  42.168  23.035  1.00  0.00    -0.245 OA
BRANCH   6   8
ATOM      8  C   UNL A   1      46.793  44.245  21.749  1.00  0.00     0.328 C 
BRANCH   8   9
ATOM      9  C   UNL A   1      48.148  44.918  21.575  1.00  0.00     0.046 A 
ATOM     10  C   UNL A   1      51.740  44.175  19.479  1.00  0.00     0.043 A 
ATOM     11  C   UNL A   1      50.930  43.058  19.667  1.00  0.00     0.027 A 
ATOM     12  C   UNL A   1      51.463  45.374  20.124  1.00  0.00     0.052 A 
ATOM     13  C   UNL A   1      49.733  43.154  20.399  1.00  0.00     0.013 A 
ATOM     14  C   UNL A   1      50.238  45.459  20.794  1.00  0.00     0.048 A 
ATOM     15  C   UNL A   1      49.342  44.399  20.938  1.00  0.00     0.009 A 
ATOM     16  N   UNL A   1      49.649  46.562  21.341  1.00  0.00    -0.361 N 
ATOM     17  C   UNL A   1      48.403  46.264  21.803  1.00  0.00     0.094 A 
ATOM     18  H   UNL A   1      50.067  47.452  21.396  1.00  0.00     0.166 HD
BRANCH  10  19
ATOM     19  N   UNL A   1      52.833  44.138  18.612  1.00  0.00    -0.326 N 
ATOM     20  C   UNL A   1      52.990  44.855  17.456  1.00  0.00     0.226 C 
ATOM     21  O   UNL A   1      54.095  44.807  16.902  1.00  0.00    -0.274 OA
ATOM     22  H   UNL A   1      53.570  43.534  18.859  1.00  0.00     0.169 HD
BRANCH  20  23
ATOM     23  C   UNL A   1      51.879  45.718  16.845  1.00  0.00     0.072 C 
ATOM     24  C   UNL A   1      52.372  47.036  16.267  1.00  0.00     0.018 C 
ATOM     25  C   UNL A   1      50.963  44.967  15.880  1.00  0.00     0.018 C 
ENDBRANCH  20  23
ENDBRANCH  10  19
ENDBRANCH   8   9
BRANCH   8  26
ATOM     26  N   UNL A   1      46.190  43.709  20.505  1.00  0.00    -0.310 N 
ATOM     27  C   UNL A   1      44.789  43.282  20.469  1.00  0.00     0.325 C 
ATOM     28  C   UNL A   1      46.508  44.508  19.321  1.00  0.00     0.325 C 
ATOM     29  H   UNL A   1      46.674  42.811  20.496  1.00  0.00     0.349 HD
ATOM     30  C   UNL A   1      43.720  44.319  20.020  1.00  0.00     0.325 C 
ATOM     31  C   UNL A   1      45.535  45.673  19.042  1.00  0.00     0.325 C 
ATOM     32  N   UNL A   1      44.109  45.356  19.047  1.00  0.00    -0.318 N 
ATOM     33  H   UNL A   1      43.686  46.215  19.399  1.00  0.00     0.348 HD
BRANCH  32  34
ATOM     34  C   UNL A   1      43.492  45.194  17.720  1.00  0.00     0.364 C 
BRANCH  34  35
ATOM     35  C   UNL A   1      42.396  46.223  17.437  1.00  0.00     0.277 C 
ATOM     36  O   UNL A   1      41.235  45.987  17.790  1.00  0.00    -0.268 OA
ATOM     37  N   UNL A   1      42.717  47.375  16.728  1.00  0.00    -0.344 N 
ATOM     38  C   UNL A   1      44.047  47.932  16.545  1.00  0.00     0.146 C 
ATOM     39  C   UNL A   1      41.626  48.113  16.116  1.00  0.00     0.146 C 
ENDBRANCH  34  35
ENDBRANCH  32  34
ENDBRANCH   8  26
ENDBRANCH   6   8
ENDBRANCH   5   6
ENDBRANCH   4   5
ENDBRANCH   3   4
ENDBRANCH   2   3
ENDBRANCH   1   2
BRANCH   1  40
ATOM     40  C   UNL A   1      47.418  40.379  27.398  1.00  0.00     0.188 C 
BRANCH  40  41
ATOM     41  O   UNL A   1      48.074  40.342  28.656  1.00  0.00    -0.376 OA
BRANCH  41  42
ATOM     42  C   UNL A   1      48.810  39.201  29.041  1.00  0.00     0.202 C 
BRANCH  42  43
ATOM     43  C   UNL A   1      48.298  38.511  30.309  1.00  0.00     0.261 C 
BRANCH  43  44
ATOM     44  O   UNL A   1      47.958  37.136  30.103  1.00  0.00    -0.460 OA
BRANCH  44  45
ATOM     45  C   UNL A   1      46.671  36.924  29.703  1.00  0.00     0.338 C 
ATOM     46  O   UNL A   1      45.818  37.756  29.515  1.00  0.00    -0.246 OA
BRANCH  45  47
ATOM     47  C   UNL A   1      46.551  35.485  29.345  1.00  0.00     0.060 A 
ATOM     48  C   UNL A   1      46.224  35.161  28.024  1.00  0.00     0.016 A 
ATOM     49  C   UNL A   1      46.834  34.470  30.265  1.00  0.00     0.016 A 
ATOM     50  C   UNL A   1      46.174  33.822  27.632  1.00  0.00     0.010 A 
ATOM     51  C   UNL A   1      46.765  33.128  29.876  1.00  0.00     0.010 A 
ATOM     52  C   UNL A   1      46.421  32.794  28.558  1.00  0.00    -0.014 A 
BRANCH  52  53
ATOM     53  C   UNL A   1      46.053  31.397  28.214  1.00  0.00     0.031 A 
ATOM     54  C   UNL A   1      44.624  30.991  28.457  1.00  0.00     0.074 A 
ATOM     55  C   UNL A   1      46.927  30.508  27.703  1.00  0.00     0.049 A 
ATOM     56  N   UNL A   1      44.046  29.837  28.260  1.00  0.00    -0.248 NA
ATOM     57  C   UNL A   1      43.734  32.028  29.007  1.00  0.00     0.031 C 
ATOM     58  C   UNL A   1      48.338  30.763  27.424  1.00  0.00     0.029 A 
ATOM     59  N   UNL A   1      46.745  29.203  27.307  1.00  0.00    -0.354 N 
ATOM     60  C   UNL A   1      42.730  30.006  28.673  1.00  0.00     0.074 A 
ATOM     61  C   UNL A   1      42.589  31.375  29.113  1.00  0.00     0.031 C 
ATOM     62  C   UNL A   1      48.873  29.680  26.832  1.00  0.00     0.029 A 
ATOM     63  C   UNL A   1      47.877  28.609  26.793  1.00  0.00     0.049 A 
ATOM     64  H   UNL A   1      45.883  28.736  27.384  1.00  0.00     0.167 HD
ATOM     65  C   UNL A   1      41.731  29.098  28.717  1.00  0.00     0.037 A 
ATOM     66  C   UNL A   1      48.095  27.339  26.385  1.00  0.00     0.037 A 
ATOM     67  C   UNL A   1      41.881  27.716  28.359  1.00  0.00     0.049 A 
ATOM     68  C   UNL A   1      46.981  26.323  26.517  1.00  0.00     0.074 A 
ATOM     69  C   UNL A   1      40.941  26.705  28.427  1.00  0.00     0.029 A 
ATOM     70  N   UNL A   1      43.054  27.145  27.890  1.00  0.00    -0.354 N 
ATOM     71  N   UNL A   1      45.743  26.499  26.915  1.00  0.00    -0.248 NA
ATOM     72  C   UNL A   1      47.306  24.927  26.183  1.00  0.00     0.031 C 
ATOM     73  C   UNL A   1      41.562  25.510  28.053  1.00  0.00     0.029 A 
ATOM     74  C   UNL A   1      42.869  25.789  27.686  1.00  0.00     0.049 A 
ATOM     75  H   UNL A   1      43.895  27.632  27.728  1.00  0.00     0.167 HD
ATOM     76  C   UNL A   1      45.141  25.243  26.859  1.00  0.00     0.074 A 
ATOM     77  C   UNL A   1      46.143  24.320  26.375  1.00  0.00     0.031 C 
ATOM     78  C   UNL A   1      43.873  24.884  27.186  1.00  0.00     0.037 A 
BRANCH  65  79
ATOM     79  C   UNL A   1      40.412  29.567  29.258  1.00  0.00     0.058 A 
ATOM     80  C   UNL A   1      39.323  29.835  28.416  1.00  0.00     0.135 A 
ATOM     81  C   UNL A   1      40.249  29.773  30.636  1.00  0.00     0.135 A 
ATOM     82  F   UNL A   1      39.443  29.691  27.086  1.00  0.00    -0.206 F 
ATOM     83  C   UNL A   1      38.119  30.314  28.922  1.00  0.00     0.059 A 
ATOM     84  C   UNL A   1      39.046  30.224  31.166  1.00  0.00     0.059 A 
ATOM     85  F   UNL A   1      41.269  29.551  31.480  1.00  0.00    -0.206 F 
ATOM     86  C   UNL A   1      37.993  30.506  30.299  1.00  0.00     0.060 A 
BRANCH  86  87
ATOM     87  S   UNL A   1      36.426  31.133  30.941  1.00  0.00     0.124 S 
ATOM     88  O   UNL A   1      36.035  30.061  31.850  1.00  0.00    -0.237 OA
ATOM     89  O   UNL A   1      36.829  32.386  31.572  1.00  0.00    -0.237 OA
ATOM     90  O   UNL A   1      35.601  31.272  29.745  1.00  0.00    -0.744 OA
ENDBRANCH  86  87
ENDBRANCH  65  79
BRANCH  66  91
ATOM     91  C   UNL A   1      49.433  26.914  25.875  1.00  0.00     0.058 A 
ATOM     92  C   UNL A   1      50.358  26.263  26.708  1.00  0.00     0.135 A 
ATOM     93  C   UNL A   1      49.836  27.194  24.560  1.00  0.00     0.135 A 
ATOM     94  F   UNL A   1      50.037  25.991  27.982  1.00  0.00    -0.206 F 
ATOM     95  C   UNL A   1      51.634  25.922  26.264  1.00  0.00     0.059 A 
ATOM     96  C   UNL A   1      51.093  26.833  24.081  1.00  0.00     0.059 A 
ATOM     97  F   UNL A   1      48.997  27.817  23.717  1.00  0.00    -0.206 F 
ATOM     98  C   UNL A   1      51.991  26.209  24.945  1.00  0.00     0.060 A 
BRANCH  98  99
ATOM     99  S   UNL A   1      53.632  25.730  24.361  1.00  0.00     0.124 S 
ATOM    100  O   UNL A   1      53.585  26.154  22.968  1.00  0.00    -0.237 OA
ATOM    101  O   UNL A   1      54.507  26.503  25.237  1.00  0.00    -0.237 OA
ATOM    102  O   UNL A   1      53.656  24.286  24.582  1.00  0.00    -0.744 OA
ENDBRANCH  98  99
ENDBRANCH  66  91
BRANCH  78 103
ATOM    103  C   UNL A   1      43.467  23.449  26.990  1.00  0.00     0.058 A 
ATOM    104  C   UNL A   1      43.310  22.564  28.069  1.00  0.00     0.135 A 
ATOM    105  C   UNL A   1      43.138  22.978  25.707  1.00  0.00     0.135 A 
ATOM    106  F   UNL A   1      43.612  22.960  29.316  1.00  0.00    -0.206 F 
ATOM    107  C   UNL A   1      42.857  21.262  27.881  1.00  0.00     0.059 A 
ATOM    108  C   UNL A   1      42.656  21.690  25.499  1.00  0.00     0.059 A 
ATOM    109  F   UNL A   1      43.256  23.787  24.641  1.00  0.00    -0.206 F 
ATOM    110  C   UNL A   1      42.526  20.836  26.592  1.00  0.00     0.060 A 
BRANCH 110 111
ATOM    111  S   UNL A   1      41.888  19.162  26.370  1.00  0.00     0.124 S 
ATOM    112  O   UNL A   1      41.979  18.630  27.726  1.00  0.00    -0.237 OA
ATOM    113  O   UNL A   1      40.537  19.406  25.874  1.00  0.00    -0.237 OA
ATOM    114  O   UNL A   1      42.808  18.572  25.402  1.00  0.00    -0.744 OA
ENDBRANCH 110 111
ENDBRANCH  78 103
ENDBRANCH  52  53
ENDBRANCH  45  47
ENDBRANCH  44  45
ENDBRANCH  43  44
ENDBRANCH  42  43
ENDBRANCH  41  42
ENDBRANCH  40  41
ENDBRANCH   1  40
TORSDOF 26
ENDMDL
