MODEL 1
REMARK VINA RESULT:     -10.1      0.000      0.000
REMARK SMILES COC(=O)CNC(=O)N1[C@@H](C(=O)OCCOCCOCCOC(=O)c2ccc(-c3c4nc(c(-c5c(F)cc(S(=O)(=O)[O-])cc5F)c5ccc([nH]5)c(-c5c(F)cc(S(=O)(=O)[O-])cc5F)c5nc(c(-c6c(F)cc(S(=O)(=O)[O-])cc6F)c6ccc3[nH]6)C=C5)C=C4)cc2)CC[C@@H]2CCCC[C@H]21
REMARK SMILES IDX 17 1 16 2 15 3 14 4 13 5 11 6 12 7 10 8 9 9 98 10 91 11
REMARK SMILES IDX 93 12 97 13 92 14 94 15 96 16 95 17 7 18 6 19 8 21 5 22 3 23
REMARK SMILES IDX 4 24 2 25 1 26 18 27 19 28 20 29 21 30 22 31 23 32 24 33
REMARK SMILES IDX 25 34 26 35 90 36 27 37 89 38 28 39 29 40 30 41 83 42 31 43
REMARK SMILES IDX 88 44 82 45 84 46 32 47 87 48 81 49 80 50 33 52 67 53 46 54
REMARK SMILES IDX 66 55 47 56 50 57 65 58 85 59 48 60 49 61 64 63 86 64 51 65
REMARK SMILES IDX 34 66 35 67 44 68 36 69 37 70 43 71 45 72 38 73 39 74 40 75
REMARK SMILES IDX 41 76 42 77 68 78 69 79 78 80 70 81 71 82 77 83 79 84 72 85
REMARK SMILES IDX 73 86 74 87 75 88 76 89 52 90 53 91 62 92 54 93 55 94 61 95
REMARK SMILES IDX 63 96 56 97 57 98 58 99 59 100 60 101
REMARK H PARENT 6 20 84 51 50 62
REMARK Flexibility Score: inf
ROOT
ATOM      1  C   UNL A   1      32.042  30.347  26.693  1.00  0.00     0.188 C 
ENDROOT
BRANCH   1   2
ATOM      2  O   UNL A   1      31.422  29.117  26.972  1.00  0.00    -0.376 OA
BRANCH   2   3
ATOM      3  C   UNL A   1      32.170  27.952  27.263  1.00  0.00     0.202 C 
BRANCH   3   4
ATOM      4  C   UNL A   1      32.175  26.644  26.451  1.00  0.00     0.261 C 
BRANCH   4   5
ATOM      5  O   UNL A   1      30.983  25.845  26.359  1.00  0.00    -0.462 OA
BRANCH   5   6
ATOM      6  C   UNL A   1      31.185  24.505  26.495  1.00  0.00     0.329 C 
ATOM      7  O   UNL A   1      30.301  23.719  26.827  1.00  0.00    -0.250 OA
BRANCH   6   8
ATOM      8  C   UNL A   1      32.632  24.045  26.252  1.00  0.00     0.197 C 
ATOM      9  N   UNL A   1      33.049  23.807  24.850  1.00  0.00    -0.308 N 
ATOM     10  C   UNL A   1      34.499  23.523  24.682  1.00  0.00     0.091 C 
ATOM     11  C   UNL A   1      33.133  22.957  27.209  1.00  0.00     0.038 C 
ATOM     12  C   UNL A   1      35.056  22.509  25.716  1.00  0.00     0.012 C 
ATOM     13  C   UNL A   1      34.928  23.074  23.270  1.00  0.00     0.025 C 
ATOM     14  C   UNL A   1      34.651  22.879  27.136  1.00  0.00     0.008 C 
ATOM     15  C   UNL A   1      36.585  22.419  25.621  1.00  0.00     0.006 C 
ATOM     16  C   UNL A   1      36.446  22.920  23.156  1.00  0.00     0.002 C 
ATOM     17  C   UNL A   1      37.013  21.989  24.224  1.00  0.00     0.000 C 
BRANCH   9  18
ATOM     18  C   UNL A   1      32.141  23.284  23.956  1.00  0.00     0.318 C 
ATOM     19  N   UNL A   1      31.683  24.116  22.974  1.00  0.00    -0.327 N 
ATOM     20  H   UNL A   1      31.164  23.677  22.261  1.00  0.00     0.166 HD
ATOM     21  O   UNL A   1      31.802  22.104  23.942  1.00  0.00    -0.249 OA
BRANCH  19  22
ATOM     22  C   UNL A   1      31.848  25.556  22.825  1.00  0.00     0.240 C 
BRANCH  22  23
ATOM     23  C   UNL A   1      33.098  26.178  22.237  1.00  0.00     0.325 C 
ATOM     24  O   UNL A   1      33.406  26.079  21.054  1.00  0.00    -0.250 OA
BRANCH  23  25
ATOM     25  O   UNL A   1      33.688  27.009  23.136  1.00  0.00    -0.468 OA
ATOM     26  C   UNL A   1      33.853  28.335  22.628  1.00  0.00     0.282 C 
ENDBRANCH  23  25
ENDBRANCH  22  23
ENDBRANCH  19  22
ENDBRANCH   9  18
ENDBRANCH   6   8
ENDBRANCH   5   6
ENDBRANCH   4   5
ENDBRANCH   3   4
ENDBRANCH   2   3
ENDBRANCH   1   2
BRANCH   1  27
ATOM     27  C   UNL A   1      33.569  30.406  26.740  1.00  0.00     0.188 C 
BRANCH  27  28
ATOM     28  O   UNL A   1      34.253  30.617  27.952  1.00  0.00    -0.376 OA
BRANCH  28  29
ATOM     29  C   UNL A   1      34.829  31.891  28.183  1.00  0.00     0.202 C 
BRANCH  29  30
ATOM     30  C   UNL A   1      35.313  32.354  29.576  1.00  0.00     0.261 C 
BRANCH  30  31
ATOM     31  O   UNL A   1      36.010  31.405  30.402  1.00  0.00    -0.460 OA
BRANCH  31  32
ATOM     32  C   UNL A   1      37.146  31.859  31.000  1.00  0.00     0.338 C 
ATOM     33  O   UNL A   1      37.206  32.592  31.967  1.00  0.00    -0.246 OA
BRANCH  32  34
ATOM     34  C   UNL A   1      38.325  31.120  30.465  1.00  0.00     0.060 A 
ATOM     35  C   UNL A   1      39.341  30.755  31.364  1.00  0.00     0.016 A 
ATOM     36  C   UNL A   1      38.452  30.803  29.112  1.00  0.00     0.016 A 
ATOM     37  C   UNL A   1      40.495  30.110  30.915  1.00  0.00     0.010 A 
ATOM     38  C   UNL A   1      39.630  30.188  28.656  1.00  0.00     0.010 A 
ATOM     39  C   UNL A   1      40.676  29.872  29.548  1.00  0.00    -0.014 A 
BRANCH  39  40
ATOM     40  C   UNL A   1      42.027  29.492  29.048  1.00  0.00     0.031 A 
ATOM     41  C   UNL A   1      42.248  28.077  28.575  1.00  0.00     0.074 A 
ATOM     42  C   UNL A   1      43.030  30.387  28.954  1.00  0.00     0.049 A 
ATOM     43  N   UNL A   1      43.332  27.514  28.104  1.00  0.00    -0.248 NA
ATOM     44  C   UNL A   1      41.085  27.176  28.641  1.00  0.00     0.031 C 
ATOM     45  C   UNL A   1      42.945  31.797  29.330  1.00  0.00     0.029 A 
ATOM     46  N   UNL A   1      44.323  30.235  28.512  1.00  0.00    -0.354 N 
ATOM     47  C   UNL A   1      42.986  26.195  27.827  1.00  0.00     0.074 A 
ATOM     48  C   UNL A   1      41.601  26.034  28.213  1.00  0.00     0.031 C 
ATOM     49  C   UNL A   1      44.138  32.378  29.114  1.00  0.00     0.029 A 
ATOM     50  C   UNL A   1      45.081  31.378  28.611  1.00  0.00     0.049 A 
ATOM     51  H   UNL A   1      44.673  29.386  28.158  1.00  0.00     0.167 HD
ATOM     52  C   UNL A   1      43.747  25.209  27.294  1.00  0.00     0.037 A 
ATOM     53  C   UNL A   1      46.388  31.590  28.346  1.00  0.00     0.037 A 
ATOM     54  C   UNL A   1      45.127  25.365  26.911  1.00  0.00     0.049 A 
ATOM     55  C   UNL A   1      47.234  30.458  27.814  1.00  0.00     0.074 A 
ATOM     56  C   UNL A   1      45.974  24.427  26.344  1.00  0.00     0.029 A 
ATOM     57  N   UNL A   1      45.869  26.528  27.061  1.00  0.00    -0.354 N 
ATOM     58  N   UNL A   1      46.887  29.223  27.537  1.00  0.00    -0.248 NA
ATOM     59  C   UNL A   1      48.650  30.754  27.551  1.00  0.00     0.031 C 
ATOM     60  C   UNL A   1      47.242  25.003  26.210  1.00  0.00     0.029 A 
ATOM     61  C   UNL A   1      47.169  26.322  26.627  1.00  0.00     0.049 A 
ATOM     62  H   UNL A   1      45.522  27.375  27.424  1.00  0.00     0.167 HD
ATOM     63  C   UNL A   1      48.034  28.605  27.044  1.00  0.00     0.074 A 
ATOM     64  C   UNL A   1      49.077  29.609  27.038  1.00  0.00     0.031 C 
ATOM     65  C   UNL A   1      48.208  27.323  26.631  1.00  0.00     0.037 A 
BRANCH  52  66
ATOM     66  C   UNL A   1      43.110  23.855  27.118  1.00  0.00     0.058 A 
ATOM     67  C   UNL A   1      43.136  22.883  28.132  1.00  0.00     0.135 A 
ATOM     68  C   UNL A   1      42.432  23.539  25.929  1.00  0.00     0.135 A 
ATOM     69  F   UNL A   1      43.784  23.123  29.283  1.00  0.00    -0.206 F 
ATOM     70  C   UNL A   1      42.536  21.639  27.963  1.00  0.00     0.059 A 
ATOM     71  C   UNL A   1      41.798  22.313  25.750  1.00  0.00     0.059 A 
ATOM     72  F   UNL A   1      42.378  24.429  24.926  1.00  0.00    -0.206 F 
ATOM     73  C   UNL A   1      41.867  21.364  26.768  1.00  0.00     0.060 A 
BRANCH  73  74
ATOM     74  S   UNL A   1      41.087  19.748  26.569  1.00  0.00     0.124 S 
ATOM     75  O   UNL A   1      40.923  19.330  27.958  1.00  0.00    -0.237 OA
ATOM     76  O   UNL A   1      39.856  20.083  25.859  1.00  0.00    -0.237 OA
ATOM     77  O   UNL A   1      42.066  18.990  25.797  1.00  0.00    -0.744 OA
ENDBRANCH  73  74
ENDBRANCH  52  66
BRANCH  53  78
ATOM     78  C   UNL A   1      46.991  32.931  28.588  1.00  0.00     0.058 A 
ATOM     79  C   UNL A   1      47.046  33.900  27.574  1.00  0.00     0.135 A 
ATOM     80  C   UNL A   1      47.541  33.265  29.836  1.00  0.00     0.135 A 
ATOM     81  F   UNL A   1      46.553  33.625  26.356  1.00  0.00    -0.206 F 
ATOM     82  C   UNL A   1      47.632  35.144  27.783  1.00  0.00     0.059 A 
ATOM     83  C   UNL A   1      48.104  34.514  30.078  1.00  0.00     0.059 A 
ATOM     84  F   UNL A   1      47.515  32.376  30.841  1.00  0.00    -0.206 F 
ATOM     85  C   UNL A   1      48.151  35.445  29.043  1.00  0.00     0.060 A 
BRANCH  85  86
ATOM     86  S   UNL A   1      48.848  37.088  29.321  1.00  0.00     0.124 S 
ATOM     87  O   UNL A   1      50.270  36.790  29.442  1.00  0.00    -0.237 OA
ATOM     88  O   UNL A   1      48.444  37.797  28.111  1.00  0.00    -0.237 OA
ATOM     89  O   UNL A   1      48.188  37.530  30.545  1.00  0.00    -0.744 OA
ENDBRANCH  85  86
ENDBRANCH  53  78
BRANCH  65  90
ATOM     90  C   UNL A   1      49.570  26.940  26.110  1.00  0.00     0.058 A 
ATOM     91  C   UNL A   1      50.588  26.472  26.958  1.00  0.00     0.135 A 
ATOM     92  C   UNL A   1      49.860  27.031  24.737  1.00  0.00     0.135 A 
ATOM     93  F   UNL A   1      50.370  26.363  28.277  1.00  0.00    -0.206 F 
ATOM     94  C   UNL A   1      51.856  26.161  26.472  1.00  0.00     0.059 A 
ATOM     95  C   UNL A   1      51.109  26.692  24.226  1.00  0.00     0.059 A 
ATOM     96  F   UNL A   1      48.922  27.455  23.874  1.00  0.00    -0.206 F 
ATOM     97  C   UNL A   1      52.109  26.279  25.106  1.00  0.00     0.060 A 
BRANCH  97  98
ATOM     98  S   UNL A   1      53.761  25.888  24.492  1.00  0.00     0.124 S 
ATOM     99  O   UNL A   1      54.583  26.834  25.239  1.00  0.00    -0.237 OA
ATOM    100  O   UNL A   1      53.910  24.485  24.868  1.00  0.00    -0.237 OA
ATOM    101  O   UNL A   1      53.661  26.140  23.058  1.00  0.00    -0.744 OA
ENDBRANCH  97  98
ENDBRANCH  65  90
ENDBRANCH  39  40
ENDBRANCH  32  34
ENDBRANCH  31  32
ENDBRANCH  30  31
ENDBRANCH  29  30
ENDBRANCH  28  29
ENDBRANCH  27  28
ENDBRANCH   1  27
TORSDOF 24
ENDMDL
MODEL 2
REMARK VINA RESULT:      -9.9      1.686      8.325
REMARK SMILES COC(=O)CNC(=O)N1[C@@H](C(=O)OCCOCCOCCOC(=O)c2ccc(-c3c4nc(c(-c5c(F)cc(S(=O)(=O)[O-])cc5F)c5ccc([nH]5)c(-c5c(F)cc(S(=O)(=O)[O-])cc5F)c5nc(c(-c6c(F)cc(S(=O)(=O)[O-])cc6F)c6ccc3[nH]6)C=C5)C=C4)cc2)CC[C@@H]2CCCC[C@H]21
REMARK SMILES IDX 17 1 16 2 15 3 14 4 13 5 11 6 12 7 10 8 9 9 98 10 91 11
REMARK SMILES IDX 93 12 97 13 92 14 94 15 96 16 95 17 7 18 6 19 8 21 5 22 3 23
REMARK SMILES IDX 4 24 2 25 1 26 18 27 19 28 20 29 21 30 22 31 23 32 24 33
REMARK SMILES IDX 25 34 26 35 90 36 27 37 89 38 28 39 29 40 30 41 83 42 31 43
REMARK SMILES IDX 88 44 82 45 84 46 32 47 87 48 81 49 80 50 33 52 67 53 46 54
REMARK SMILES IDX 66 55 47 56 50 57 65 58 85 59 48 60 49 61 64 63 86 64 51 65
REMARK SMILES IDX 34 66 35 67 44 68 36 69 37 70 43 71 45 72 38 73 39 74 40 75
REMARK SMILES IDX 41 76 42 77 68 78 69 79 78 80 70 81 71 82 77 83 79 84 72 85
REMARK SMILES IDX 73 86 74 87 75 88 76 89 52 90 53 91 62 92 54 93 55 94 61 95
REMARK SMILES IDX 63 96 56 97 57 98 58 99 59 100 60 101
REMARK H PARENT 6 20 84 51 50 62
REMARK Flexibility Score: inf
ROOT
ATOM      1  C   UNL A   1      33.962  33.231  28.047  1.00  0.00     0.188 C 
ENDROOT
BRANCH   1   2
ATOM      2  O   UNL A   1      33.932  31.870  28.397  1.00  0.00    -0.376 OA
BRANCH   2   3
ATOM      3  C   UNL A   1      33.971  30.846  27.421  1.00  0.00     0.202 C 
BRANCH   3   4
ATOM      4  C   UNL A   1      32.759  30.110  26.822  1.00  0.00     0.261 C 
BRANCH   4   5
ATOM      5  O   UNL A   1      32.848  28.712  26.501  1.00  0.00    -0.462 OA
BRANCH   5   6
ATOM      6  C   UNL A   1      32.753  28.425  25.172  1.00  0.00     0.329 C 
ATOM      7  O   UNL A   1      32.425  29.251  24.325  1.00  0.00    -0.250 OA
BRANCH   6   8
ATOM      8  C   UNL A   1      33.037  26.958  24.810  1.00  0.00     0.197 C 
ATOM      9  N   UNL A   1      31.881  26.107  24.441  1.00  0.00    -0.308 N 
ATOM     10  C   UNL A   1      32.250  24.753  23.950  1.00  0.00     0.091 C 
ATOM     11  C   UNL A   1      34.022  26.242  25.742  1.00  0.00     0.038 C 
ATOM     12  C   UNL A   1      33.333  24.054  24.814  1.00  0.00     0.012 C 
ATOM     13  C   UNL A   1      31.073  23.777  23.749  1.00  0.00     0.025 C 
ATOM     14  C   UNL A   1      34.520  24.971  25.072  1.00  0.00     0.008 C 
ATOM     15  C   UNL A   1      33.814  22.760  24.143  1.00  0.00     0.006 C 
ATOM     16  C   UNL A   1      31.527  22.452  23.132  1.00  0.00     0.002 C 
ATOM     17  C   UNL A   1      32.652  21.799  23.930  1.00  0.00     0.000 C 
BRANCH   9  18
ATOM     18  C   UNL A   1      30.673  26.301  25.072  1.00  0.00     0.318 C 
ATOM     19  N   UNL A   1      29.667  26.858  24.334  1.00  0.00    -0.327 N 
ATOM     20  H   UNL A   1      28.777  26.838  24.756  1.00  0.00     0.166 HD
ATOM     21  O   UNL A   1      30.432  25.919  26.213  1.00  0.00    -0.249 OA
BRANCH  19  22
ATOM     22  C   UNL A   1      29.715  27.476  23.015  1.00  0.00     0.240 C 
BRANCH  22  23
ATOM     23  C   UNL A   1      28.861  28.669  22.640  1.00  0.00     0.325 C 
ATOM     24  O   UNL A   1      27.756  28.884  23.126  1.00  0.00    -0.250 OA
BRANCH  23  25
ATOM     25  O   UNL A   1      29.568  29.544  21.877  1.00  0.00    -0.468 OA
ATOM     26  C   UNL A   1      28.853  30.757  21.631  1.00  0.00     0.282 C 
ENDBRANCH  23  25
ENDBRANCH  22  23
ENDBRANCH  19  22
ENDBRANCH   9  18
ENDBRANCH   6   8
ENDBRANCH   5   6
ENDBRANCH   4   5
ENDBRANCH   3   4
ENDBRANCH   2   3
ENDBRANCH   1   2
BRANCH   1  27
ATOM     27  C   UNL A   1      34.475  34.227  29.086  1.00  0.00     0.188 C 
BRANCH  27  28
ATOM     28  O   UNL A   1      33.996  34.213  30.409  1.00  0.00    -0.376 OA
BRANCH  28  29
ATOM     29  C   UNL A   1      34.826  34.741  31.428  1.00  0.00     0.202 C 
BRANCH  29  30
ATOM     30  C   UNL A   1      35.904  33.902  32.152  1.00  0.00     0.261 C 
BRANCH  30  31
ATOM     31  O   UNL A   1      36.792  33.102  31.353  1.00  0.00    -0.460 OA
BRANCH  31  32
ATOM     32  C   UNL A   1      36.475  31.781  31.254  1.00  0.00     0.338 C 
ATOM     33  O   UNL A   1      35.378  31.288  31.426  1.00  0.00    -0.246 OA
BRANCH  32  34
ATOM     34  C   UNL A   1      37.614  31.037  30.643  1.00  0.00     0.060 A 
ATOM     35  C   UNL A   1      38.571  30.471  31.503  1.00  0.00     0.016 A 
ATOM     36  C   UNL A   1      37.762  30.905  29.262  1.00  0.00     0.016 A 
ATOM     37  C   UNL A   1      39.689  29.810  30.991  1.00  0.00     0.010 A 
ATOM     38  C   UNL A   1      38.906  30.273  28.748  1.00  0.00     0.010 A 
ATOM     39  C   UNL A   1      39.896  29.755  29.608  1.00  0.00    -0.014 A 
BRANCH  39  40
ATOM     40  C   UNL A   1      41.232  29.347  29.088  1.00  0.00     0.031 A 
ATOM     41  C   UNL A   1      42.325  30.385  29.020  1.00  0.00     0.074 A 
ATOM     42  C   UNL A   1      41.502  28.075  28.736  1.00  0.00     0.049 A 
ATOM     43  N   UNL A   1      43.560  30.270  28.602  1.00  0.00    -0.248 NA
ATOM     44  C   UNL A   1      41.974  31.736  29.489  1.00  0.00     0.031 C 
ATOM     45  C   UNL A   1      40.558  26.961  28.795  1.00  0.00     0.029 A 
ATOM     46  N   UNL A   1      42.659  27.509  28.256  1.00  0.00    -0.354 N 
ATOM     47  C   UNL A   1      44.130  31.530  28.749  1.00  0.00     0.074 A 
ATOM     48  C   UNL A   1      43.097  32.402  29.264  1.00  0.00     0.031 C 
ATOM     49  C   UNL A   1      41.171  25.848  28.356  1.00  0.00     0.029 A 
ATOM     50  C   UNL A   1      42.541  26.172  27.957  1.00  0.00     0.049 A 
ATOM     51  H   UNL A   1      43.496  28.015  28.136  1.00  0.00     0.167 HD
ATOM     52  C   UNL A   1      45.400  31.927  28.488  1.00  0.00     0.037 A 
ATOM     53  C   UNL A   1      43.426  25.314  27.408  1.00  0.00     0.037 A 
ATOM     54  C   UNL A   1      46.431  31.062  27.973  1.00  0.00     0.049 A 
ATOM     55  C   UNL A   1      44.816  25.794  27.063  1.00  0.00     0.074 A 
ATOM     56  C   UNL A   1      47.752  31.371  27.695  1.00  0.00     0.029 A 
ATOM     57  N   UNL A   1      46.260  29.724  27.650  1.00  0.00    -0.354 N 
ATOM     58  N   UNL A   1      45.346  26.983  27.229  1.00  0.00    -0.248 NA
ATOM     59  C   UNL A   1      45.729  24.810  26.464  1.00  0.00     0.031 C 
ATOM     60  C   UNL A   1      48.362  30.238  27.146  1.00  0.00     0.029 A 
ATOM     61  C   UNL A   1      47.442  29.202  27.147  1.00  0.00     0.049 A 
ATOM     62  H   UNL A   1      45.422  29.220  27.761  1.00  0.00     0.167 HD
ATOM     63  C   UNL A   1      46.660  26.881  26.779  1.00  0.00     0.074 A 
ATOM     64  C   UNL A   1      46.850  25.509  26.358  1.00  0.00     0.031 C 
ATOM     65  C   UNL A   1      47.625  27.836  26.721  1.00  0.00     0.037 A 
BRANCH  52  66
ATOM     66  C   UNL A   1      45.741  33.375  28.727  1.00  0.00     0.058 A 
ATOM     67  C   UNL A   1      45.584  34.351  27.730  1.00  0.00     0.135 A 
ATOM     68  C   UNL A   1      46.198  33.797  29.986  1.00  0.00     0.135 A 
ATOM     69  F   UNL A   1      45.167  34.003  26.501  1.00  0.00    -0.206 F 
ATOM     70  C   UNL A   1      45.892  35.688  27.964  1.00  0.00     0.059 A 
ATOM     71  C   UNL A   1      46.482  35.134  30.253  1.00  0.00     0.059 A 
ATOM     72  F   UNL A   1      46.369  32.907  30.976  1.00  0.00    -0.206 F 
ATOM     73  C   UNL A   1      46.339  36.069  29.230  1.00  0.00     0.060 A 
BRANCH  73  74
ATOM     74  S   UNL A   1      46.727  37.809  29.520  1.00  0.00     0.124 S 
ATOM     75  O   UNL A   1      47.181  37.780  30.906  1.00  0.00    -0.237 OA
ATOM     76  O   UNL A   1      47.759  38.067  28.520  1.00  0.00    -0.237 OA
ATOM     77  O   UNL A   1      45.453  38.485  29.291  1.00  0.00    -0.744 OA
ENDBRANCH  73  74
ENDBRANCH  52  66
BRANCH  53  78
ATOM     78  C   UNL A   1      43.029  23.903  27.137  1.00  0.00     0.058 A 
ATOM     79  C   UNL A   1      43.024  22.937  28.155  1.00  0.00     0.135 A 
ATOM     80  C   UNL A   1      42.662  23.489  25.846  1.00  0.00     0.135 A 
ATOM     81  F   UNL A   1      43.386  23.276  29.402  1.00  0.00    -0.206 F 
ATOM     82  C   UNL A   1      42.681  21.613  27.904  1.00  0.00     0.059 A 
ATOM     83  C   UNL A   1      42.285  22.177  25.577  1.00  0.00     0.059 A 
ATOM     84  F   UNL A   1      42.649  24.372  24.835  1.00  0.00    -0.206 F 
ATOM     85  C   UNL A   1      42.304  21.243  26.612  1.00  0.00     0.060 A 
BRANCH  85  86
ATOM     86  S   UNL A   1      41.796  19.537  26.314  1.00  0.00     0.124 S 
ATOM     87  O   UNL A   1      42.222  18.882  27.546  1.00  0.00    -0.237 OA
ATOM     88  O   UNL A   1      40.355  19.678  26.131  1.00  0.00    -0.237 OA
ATOM     89  O   UNL A   1      42.538  19.169  25.113  1.00  0.00    -0.744 OA
ENDBRANCH  85  86
ENDBRANCH  53  78
BRANCH  65  90
ATOM     90  C   UNL A   1      48.982  27.423  26.210  1.00  0.00     0.058 A 
ATOM     91  C   UNL A   1      50.004  26.994  27.074  1.00  0.00     0.135 A 
ATOM     92  C   UNL A   1      49.263  27.446  24.833  1.00  0.00     0.135 A 
ATOM     93  F   UNL A   1      49.794  26.951  28.399  1.00  0.00    -0.206 F 
ATOM     94  C   UNL A   1      51.268  26.655  26.597  1.00  0.00     0.059 A 
ATOM     95  C   UNL A   1      50.508  27.077  24.332  1.00  0.00     0.059 A 
ATOM     96  F   UNL A   1      48.321  27.829  23.957  1.00  0.00    -0.206 F 
ATOM     97  C   UNL A   1      51.512  26.705  25.224  1.00  0.00     0.060 A 
BRANCH  97  98
ATOM     98  S   UNL A   1      53.159  26.279  24.620  1.00  0.00     0.124 S 
ATOM     99  O   UNL A   1      52.940  26.232  23.178  1.00  0.00    -0.237 OA
ATOM    100  O   UNL A   1      53.967  27.395  25.102  1.00  0.00    -0.237 OA
ATOM    101  O   UNL A   1      53.433  24.993  25.255  1.00  0.00    -0.744 OA
ENDBRANCH  97  98
ENDBRANCH  65  90
ENDBRANCH  39  40
ENDBRANCH  32  34
ENDBRANCH  31  32
ENDBRANCH  30  31
ENDBRANCH  29  30
ENDBRANCH  28  29
ENDBRANCH  27  28
ENDBRANCH   1  27
TORSDOF 24
ENDMDL
MODEL 3
REMARK VINA RESULT:      -9.6      5.859     11.351
REMARK SMILES COC(=O)CNC(=O)N1[C@@H](C(=O)OCCOCCOCCOC(=O)c2ccc(-c3c4nc(c(-c5c(F)cc(S(=O)(=O)[O-])cc5F)c5ccc([nH]5)c(-c5c(F)cc(S(=O)(=O)[O-])cc5F)c5nc(c(-c6c(F)cc(S(=O)(=O)[O-])cc6F)c6ccc3[nH]6)C=C5)C=C4)cc2)CC[C@@H]2CCCC[C@H]21
REMARK SMILES IDX 17 1 16 2 15 3 14 4 13 5 11 6 12 7 10 8 9 9 98 10 91 11
REMARK SMILES IDX 93 12 97 13 92 14 94 15 96 16 95 17 7 18 6 19 8 21 5 22 3 23
REMARK SMILES IDX 4 24 2 25 1 26 18 27 19 28 20 29 21 30 22 31 23 32 24 33
REMARK SMILES IDX 25 34 26 35 90 36 27 37 89 38 28 39 29 40 30 41 83 42 31 43
REMARK SMILES IDX 88 44 82 45 84 46 32 47 87 48 81 49 80 50 33 52 67 53 46 54
REMARK SMILES IDX 66 55 47 56 50 57 65 58 85 59 48 60 49 61 64 63 86 64 51 65
REMARK SMILES IDX 34 66 35 67 44 68 36 69 37 70 43 71 45 72 38 73 39 74 40 75
REMARK SMILES IDX 41 76 42 77 68 78 69 79 78 80 70 81 71 82 77 83 79 84 72 85
REMARK SMILES IDX 73 86 74 87 75 88 76 89 52 90 53 91 62 92 54 93 55 94 61 95
REMARK SMILES IDX 63 96 56 97 57 98 58 99 59 100 60 101
REMARK H PARENT 6 20 84 51 50 62
REMARK Flexibility Score: inf
ROOT
ATOM      1  C   UNL A   1      39.696  21.557  26.282  1.00  0.00     0.188 C 
ENDROOT
BRANCH   1   2
ATOM      2  O   UNL A   1      38.530  21.402  25.513  1.00  0.00    -0.376 OA
BRANCH   2   3
ATOM      3  C   UNL A   1      37.617  22.465  25.318  1.00  0.00     0.202 C 
BRANCH   3   4
ATOM      4  C   UNL A   1      36.104  22.433  25.599  1.00  0.00     0.261 C 
BRANCH   4   5
ATOM      5  O   UNL A   1      35.270  23.531  25.194  1.00  0.00    -0.462 OA
BRANCH   5   6
ATOM      6  C   UNL A   1      34.229  23.795  26.034  1.00  0.00     0.329 C 
ATOM      7  O   UNL A   1      33.939  23.086  26.993  1.00  0.00    -0.250 OA
BRANCH   6   8
ATOM      8  C   UNL A   1      33.398  25.032  25.656  1.00  0.00     0.197 C 
ATOM      9  N   UNL A   1      32.788  25.063  24.306  1.00  0.00    -0.308 N 
ATOM     10  C   UNL A   1      31.872  26.211  24.074  1.00  0.00     0.091 C 
ATOM     11  C   UNL A   1      34.025  26.375  26.051  1.00  0.00     0.038 C 
ATOM     12  C   UNL A   1      32.438  27.567  24.571  1.00  0.00     0.012 C 
ATOM     13  C   UNL A   1      31.380  26.383  22.622  1.00  0.00     0.025 C 
ATOM     14  C   UNL A   1      32.964  27.464  25.996  1.00  0.00     0.008 C 
ATOM     15  C   UNL A   1      31.369  28.665  24.492  1.00  0.00     0.006 C 
ATOM     16  C   UNL A   1      30.352  27.510  22.497  1.00  0.00     0.002 C 
ATOM     17  C   UNL A   1      30.871  28.830  23.063  1.00  0.00     0.000 C 
BRANCH   9  18
ATOM     18  C   UNL A   1      33.468  24.505  23.247  1.00  0.00     0.318 C 
ATOM     19  N   UNL A   1      33.033  23.290  22.797  1.00  0.00    -0.327 N 
ATOM     20  H   UNL A   1      33.429  22.991  21.947  1.00  0.00     0.166 HD
ATOM     21  O   UNL A   1      34.368  25.076  22.638  1.00  0.00    -0.249 OA
BRANCH  19  22
ATOM     22  C   UNL A   1      32.068  22.372  23.389  1.00  0.00     0.240 C 
BRANCH  22  23
ATOM     23  C   UNL A   1      32.370  20.906  23.620  1.00  0.00     0.325 C 
ATOM     24  O   UNL A   1      32.100  20.028  22.808  1.00  0.00    -0.250 OA
BRANCH  23  25
ATOM     25  O   UNL A   1      33.150  20.745  24.722  1.00  0.00    -0.468 OA
ATOM     26  C   UNL A   1      33.833  19.490  24.730  1.00  0.00     0.282 C 
ENDBRANCH  23  25
ENDBRANCH  22  23
ENDBRANCH  19  22
ENDBRANCH   9  18
ENDBRANCH   6   8
ENDBRANCH   5   6
ENDBRANCH   4   5
ENDBRANCH   3   4
ENDBRANCH   2   3
ENDBRANCH   1   2
BRANCH   1  27
ATOM     27  C   UNL A   1      40.608  20.343  26.453  1.00  0.00     0.188 C 
BRANCH  27  28
ATOM     28  O   UNL A   1      41.888  20.467  27.027  1.00  0.00    -0.376 OA
BRANCH  28  29
ATOM     29  C   UNL A   1      42.952  20.906  26.201  1.00  0.00     0.202 C 
BRANCH  29  30
ATOM     30  C   UNL A   1      43.472  22.362  26.204  1.00  0.00     0.261 C 
BRANCH  30  31
ATOM     31  O   UNL A   1      42.545  23.413  25.882  1.00  0.00    -0.460 OA
BRANCH  31  32
ATOM     32  C   UNL A   1      43.083  24.657  25.743  1.00  0.00     0.338 C 
ATOM     33  O   UNL A   1      43.789  25.039  24.832  1.00  0.00    -0.246 OA
BRANCH  32  34
ATOM     34  C   UNL A   1      42.469  25.582  26.739  1.00  0.00     0.060 A 
ATOM     35  C   UNL A   1      42.917  26.913  26.770  1.00  0.00     0.016 A 
ATOM     36  C   UNL A   1      41.489  25.162  27.639  1.00  0.00     0.016 A 
ATOM     37  C   UNL A   1      42.421  27.812  27.715  1.00  0.00     0.010 A 
ATOM     38  C   UNL A   1      41.018  26.058  28.614  1.00  0.00     0.010 A 
ATOM     39  C   UNL A   1      41.509  27.378  28.683  1.00  0.00    -0.014 A 
BRANCH  39  40
ATOM     40  C   UNL A   1      41.241  28.238  29.869  1.00  0.00     0.031 A 
ATOM     41  C   UNL A   1      42.110  28.071  31.091  1.00  0.00     0.074 A 
ATOM     42  C   UNL A   1      40.290  29.192  29.858  1.00  0.00     0.049 A 
ATOM     43  N   UNL A   1      42.067  28.699  32.239  1.00  0.00    -0.248 NA
ATOM     44  C   UNL A   1      43.175  27.057  31.003  1.00  0.00     0.031 C 
ATOM     45  C   UNL A   1      39.408  29.497  28.732  1.00  0.00     0.029 A 
ATOM     46  N   UNL A   1      39.908  30.083  30.833  1.00  0.00    -0.354 N 
ATOM     47  C   UNL A   1      43.087  28.153  33.010  1.00  0.00     0.074 A 
ATOM     48  C   UNL A   1      43.712  27.121  32.211  1.00  0.00     0.031 C 
ATOM     49  C   UNL A   1      38.580  30.496  29.085  1.00  0.00     0.029 A 
ATOM     50  C   UNL A   1      38.851  30.885  30.470  1.00  0.00     0.049 A 
ATOM     51  H   UNL A   1      40.350  30.141  31.711  1.00  0.00     0.167 HD
ATOM     52  C   UNL A   1      43.477  28.483  34.265  1.00  0.00     0.037 A 
ATOM     53  C   UNL A   1      38.168  31.810  31.176  1.00  0.00     0.037 A 
ATOM     54  C   UNL A   1      42.856  29.509  35.065  1.00  0.00     0.049 A 
ATOM     55  C   UNL A   1      38.578  32.116  32.597  1.00  0.00     0.074 A 
ATOM     56  C   UNL A   1      43.195  29.927  36.341  1.00  0.00     0.029 A 
ATOM     57  N   UNL A   1      41.765  30.272  34.674  1.00  0.00    -0.354 N 
ATOM     58  N   UNL A   1      39.559  31.607  33.304  1.00  0.00    -0.248 NA
ATOM     59  C   UNL A   1      37.789  33.131  33.312  1.00  0.00     0.031 C 
ATOM     60  C   UNL A   1      42.271  30.898  36.744  1.00  0.00     0.029 A 
ATOM     61  C   UNL A   1      41.400  31.136  35.695  1.00  0.00     0.049 A 
ATOM     62  H   UNL A   1      41.317  30.208  33.800  1.00  0.00     0.167 HD
ATOM     63  C   UNL A   1      39.520  32.257  34.535  1.00  0.00     0.074 A 
ATOM     64  C   UNL A   1      38.435  33.213  34.466  1.00  0.00     0.031 C 
ATOM     65  C   UNL A   1      40.312  32.081  35.625  1.00  0.00     0.037 A 
BRANCH  52  66
ATOM     66  C   UNL A   1      44.616  27.704  34.870  1.00  0.00     0.058 A 
ATOM     67  C   UNL A   1      45.948  28.141  34.778  1.00  0.00     0.135 A 
ATOM     68  C   UNL A   1      44.366  26.520  35.583  1.00  0.00     0.135 A 
ATOM     69  F   UNL A   1      46.249  29.256  34.093  1.00  0.00    -0.206 F 
ATOM     70  C   UNL A   1      46.992  27.419  35.348  1.00  0.00     0.059 A 
ATOM     71  C   UNL A   1      45.391  25.799  36.189  1.00  0.00     0.059 A 
ATOM     72  F   UNL A   1      43.113  26.055  35.701  1.00  0.00    -0.206 F 
ATOM     73  C   UNL A   1      46.703  26.250  36.054  1.00  0.00     0.060 A 
BRANCH  73  74
ATOM     74  S   UNL A   1      48.068  25.330  36.795  1.00  0.00     0.124 S 
ATOM     75  O   UNL A   1      47.505  23.987  36.878  1.00  0.00    -0.237 OA
ATOM     76  O   UNL A   1      49.133  25.511  35.813  1.00  0.00    -0.237 OA
ATOM     77  O   UNL A   1      48.278  26.003  38.074  1.00  0.00    -0.744 OA
ENDBRANCH  73  74
ENDBRANCH  52  66
BRANCH  53  78
ATOM     78  C   UNL A   1      37.011  32.517  30.558  1.00  0.00     0.058 A 
ATOM     79  C   UNL A   1      35.689  32.153  30.856  1.00  0.00     0.135 A 
ATOM     80  C   UNL A   1      37.206  33.563  29.642  1.00  0.00     0.135 A 
ATOM     81  F   UNL A   1      35.447  31.146  31.710  1.00  0.00    -0.206 F 
ATOM     82  C   UNL A   1      34.604  32.790  30.262  1.00  0.00     0.059 A 
ATOM     83  C   UNL A   1      36.137  34.236  29.059  1.00  0.00     0.059 A 
ATOM     84  F   UNL A   1      38.450  33.953  29.321  1.00  0.00    -0.206 F 
ATOM     85  C   UNL A   1      34.838  33.837  29.370  1.00  0.00     0.060 A 
BRANCH  85  86
ATOM     86  S   UNL A   1      33.420  34.701  28.659  1.00  0.00     0.124 S 
ATOM     87  O   UNL A   1      32.888  33.694  27.747  1.00  0.00    -0.237 OA
ATOM     88  O   UNL A   1      32.613  34.983  29.842  1.00  0.00    -0.237 OA
ATOM     89  O   UNL A   1      34.021  35.870  28.027  1.00  0.00    -0.744 OA
ENDBRANCH  85  86
ENDBRANCH  53  78
BRANCH  65  90
ATOM     90  C   UNL A   1      40.054  32.962  36.821  1.00  0.00     0.058 A 
ATOM     91  C   UNL A   1      40.844  34.090  37.100  1.00  0.00     0.135 A 
ATOM     92  C   UNL A   1      38.993  32.680  37.699  1.00  0.00     0.135 A 
ATOM     93  F   UNL A   1      41.870  34.411  36.297  1.00  0.00    -0.206 F 
ATOM     94  C   UNL A   1      40.624  34.873  38.231  1.00  0.00     0.059 A 
ATOM     95  C   UNL A   1      38.733  33.469  38.815  1.00  0.00     0.059 A 
ATOM     96  F   UNL A   1      38.192  31.625  37.475  1.00  0.00    -0.206 F 
ATOM     97  C   UNL A   1      39.569  34.551  39.085  1.00  0.00     0.060 A 
BRANCH  97  98
ATOM     98  S   UNL A   1      39.305  35.565  40.557  1.00  0.00     0.124 S 
ATOM     99  O   UNL A   1      38.207  34.857  41.206  1.00  0.00    -0.237 OA
ATOM    100  O   UNL A   1      40.598  35.482  41.229  1.00  0.00    -0.237 OA
ATOM    101  O   UNL A   1      38.970  36.877  40.011  1.00  0.00    -0.744 OA
ENDBRANCH  97  98
ENDBRANCH  65  90
ENDBRANCH  39  40
ENDBRANCH  32  34
ENDBRANCH  31  32
ENDBRANCH  30  31
ENDBRANCH  29  30
ENDBRANCH  28  29
ENDBRANCH  27  28
ENDBRANCH   1  27
TORSDOF 24
ENDMDL
