MODEL 1
REMARK VINA RESULT:     -11.6      0.000      0.000
REMARK SMILES Cn1c(=O)c2c(nc(Nc3cccc(Cl)c3Cl)n2CC(=O)OCCOCCOCCOC(=O)c2ccc(-c3c4nc(c(-c5c(F)cc(S(=O)(=O)[O-])cc5F)c5ccc([nH]5)c(-c5c(F)cc(S(=O)(=O)[O-])cc5F)c5nc(c(-c6c(F)cc(S(=O)(=O)[O-])cc6F)c6ccc3[nH]6)C=C5)C=C4)cc2)n(C)c1=O
REMARK SMILES IDX 26 1 25 2 24 3 23 4 22 5 20 6 21 7 19 8 18 9 1 10 2 11 3 12
REMARK SMILES IDX 102 13 4 14 5 15 100 16 103 17 6 18 101 19 7 20 8 21 9 22
REMARK SMILES IDX 10 24 11 25 16 26 12 27 14 28 17 29 13 30 15 31 27 32 28 33
REMARK SMILES IDX 29 34 30 35 31 36 32 37 33 38 34 39 35 40 99 41 36 42 98 43
REMARK SMILES IDX 37 44 38 45 39 46 92 47 40 48 97 49 91 50 93 51 41 52 96 53
REMARK SMILES IDX 90 54 89 55 42 57 76 58 55 59 75 60 56 61 59 62 74 63 94 64
REMARK SMILES IDX 57 65 58 66 73 68 95 69 60 70 43 71 44 72 53 73 45 74 46 75
REMARK SMILES IDX 52 76 54 77 47 78 48 79 49 80 50 81 51 82 77 83 78 84 87 85
REMARK SMILES IDX 79 86 80 87 86 88 88 89 81 90 82 91 83 92 84 93 85 94 61 95
REMARK SMILES IDX 62 96 71 97 63 98 64 99 70 100 72 101 65 102 66 103 67 104
REMARK SMILES IDX 68 105 69 106
REMARK H PARENT 9 23 93 56 59 67
REMARK Flexibility Score: inf
ROOT
ATOM      1  C   UNL A   1      40.742  21.489  27.198  1.00  0.00     0.188 C 
ENDROOT
BRANCH   1   2
ATOM      2  O   UNL A   1      40.111  22.620  26.659  1.00  0.00    -0.376 OA
BRANCH   2   3
ATOM      3  C   UNL A   1      38.812  22.397  26.146  1.00  0.00     0.202 C 
BRANCH   3   4
ATOM      4  C   UNL A   1      37.833  23.601  25.905  1.00  0.00     0.261 C 
BRANCH   4   5
ATOM      5  O   UNL A   1      36.775  23.479  24.869  1.00  0.00    -0.462 OA
BRANCH   5   6
ATOM      6  C   UNL A   1      35.666  22.721  25.081  1.00  0.00     0.326 C 
ATOM      7  O   UNL A   1      35.655  21.531  24.754  1.00  0.00    -0.250 OA
BRANCH   6   8
ATOM      8  C   UNL A   1      34.487  23.287  25.951  1.00  0.00     0.248 C 
BRANCH   8   9
ATOM      9  N   UNL A   1      33.162  23.804  25.480  1.00  0.00    -0.293 N 
ATOM     10  C   UNL A   1      32.977  28.910  24.825  1.00  0.00     0.159 C 
ATOM     11  N   UNL A   1      32.536  27.530  24.903  1.00  0.00    -0.261 N 
ATOM     12  C   UNL A   1      33.288  26.494  25.516  1.00  0.00     0.282 A 
ATOM     13  C   UNL A   1      31.308  27.374  24.280  1.00  0.00     0.332 A 
ATOM     14  O   UNL A   1      34.333  26.681  26.136  1.00  0.00    -0.267 OA
ATOM     15  C   UNL A   1      32.725  25.160  25.325  1.00  0.00     0.154 A 
ATOM     16  N   UNL A   1      30.727  26.129  24.354  1.00  0.00    -0.279 N 
ATOM     17  O   UNL A   1      30.743  28.317  23.717  1.00  0.00    -0.247 OA
ATOM     18  C   UNL A   1      31.458  25.054  24.815  1.00  0.00     0.170 A 
ATOM     19  C   UNL A   1      29.360  26.019  23.917  1.00  0.00     0.157 C 
ATOM     20  N   UNL A   1      31.007  23.785  24.847  1.00  0.00    -0.194 NA
ATOM     21  C   UNL A   1      31.986  23.056  25.340  1.00  0.00     0.210 A 
BRANCH  21  22
ATOM     22  N   UNL A   1      31.772  21.748  25.599  1.00  0.00    -0.324 N 
ATOM     23  H   UNL A   1      31.121  21.585  26.319  1.00  0.00     0.170 HD
BRANCH  22  24
ATOM     24  C   UNL A   1      32.301  20.580  25.037  1.00  0.00     0.061 A 
ATOM     25  C   UNL A   1      32.820  19.636  25.934  1.00  0.00     0.028 A 
ATOM     26  C   UNL A   1      32.305  20.284  23.657  1.00  0.00     0.083 A 
ATOM     27  C   UNL A   1      33.170  18.361  25.502  1.00  0.00     0.004 A 
ATOM     28  C   UNL A   1      32.586  18.977  23.238  1.00  0.00     0.061 A 
ATOM     29  Cl  UNL A   1      31.876  21.516  22.502  1.00  0.00    -0.080 Cl
ATOM     30  C   UNL A   1      33.001  18.017  24.164  1.00  0.00     0.022 A 
ATOM     31  Cl  UNL A   1      32.339  18.453  21.608  1.00  0.00    -0.083 Cl
ENDBRANCH  22  24
ENDBRANCH  21  22
ENDBRANCH   8   9
ENDBRANCH   6   8
ENDBRANCH   5   6
ENDBRANCH   4   5
ENDBRANCH   3   4
ENDBRANCH   2   3
ENDBRANCH   1   2
BRANCH   1  32
ATOM     32  C   UNL A   1      41.677  20.642  26.313  1.00  0.00     0.188 C 
BRANCH  32  33
ATOM     33  O   UNL A   1      42.640  21.106  25.396  1.00  0.00    -0.376 OA
BRANCH  33  34
ATOM     34  C   UNL A   1      43.820  21.744  25.818  1.00  0.00     0.202 C 
BRANCH  34  35
ATOM     35  C   UNL A   1      44.440  22.886  25.016  1.00  0.00     0.261 C 
BRANCH  35  36
ATOM     36  O   UNL A   1      43.562  23.911  24.544  1.00  0.00    -0.460 OA
BRANCH  36  37
ATOM     37  C   UNL A   1      43.585  25.012  25.325  1.00  0.00     0.338 C 
ATOM     38  O   UNL A   1      44.557  25.787  25.407  1.00  0.00    -0.246 OA
BRANCH  37  39
ATOM     39  C   UNL A   1      42.403  25.123  26.173  1.00  0.00     0.060 A 
ATOM     40  C   UNL A   1      41.267  25.846  25.775  1.00  0.00     0.016 A 
ATOM     41  C   UNL A   1      42.887  25.312  27.452  1.00  0.00     0.016 A 
ATOM     42  C   UNL A   1      41.076  27.101  26.385  1.00  0.00     0.010 A 
ATOM     43  C   UNL A   1      42.288  26.281  28.198  1.00  0.00     0.010 A 
ATOM     44  C   UNL A   1      41.853  27.419  27.527  1.00  0.00    -0.014 A 
BRANCH  44  45
ATOM     45  C   UNL A   1      41.582  28.554  28.469  1.00  0.00     0.031 A 
ATOM     46  C   UNL A   1      42.800  29.510  28.162  1.00  0.00     0.074 A 
ATOM     47  C   UNL A   1      40.423  28.716  29.268  1.00  0.00     0.049 A 
ATOM     48  N   UNL A   1      43.869  29.608  28.897  1.00  0.00    -0.248 NA
ATOM     49  C   UNL A   1      43.153  30.028  26.780  1.00  0.00     0.031 C 
ATOM     50  C   UNL A   1      39.214  27.851  29.568  1.00  0.00     0.029 A 
ATOM     51  N   UNL A   1      40.026  29.797  30.081  1.00  0.00    -0.354 N 
ATOM     52  C   UNL A   1      44.654  30.604  28.302  1.00  0.00     0.074 A 
ATOM     53  C   UNL A   1      44.368  30.566  26.919  1.00  0.00     0.031 C 
ATOM     54  C   UNL A   1      38.170  28.571  30.109  1.00  0.00     0.029 A 
ATOM     55  C   UNL A   1      38.601  29.930  30.379  1.00  0.00     0.049 A 
ATOM     56  H   UNL A   1      40.684  30.439  30.435  1.00  0.00     0.167 HD
ATOM     57  C   UNL A   1      45.072  31.649  29.064  1.00  0.00     0.037 A 
ATOM     58  C   UNL A   1      37.930  30.982  31.023  1.00  0.00     0.037 A 
ATOM     59  C   UNL A   1      44.958  31.251  30.444  1.00  0.00     0.049 A 
ATOM     60  C   UNL A   1      39.021  31.793  31.637  1.00  0.00     0.074 A 
ATOM     61  C   UNL A   1      45.524  30.249  31.202  1.00  0.00     0.029 A 
ATOM     62  N   UNL A   1      43.723  31.513  30.970  1.00  0.00    -0.354 N 
ATOM     63  N   UNL A   1      39.754  31.313  32.608  1.00  0.00    -0.248 NA
ATOM     64  C   UNL A   1      39.662  32.704  30.690  1.00  0.00     0.031 C 
ATOM     65  C   UNL A   1      44.464  29.731  32.003  1.00  0.00     0.029 A 
ATOM     66  C   UNL A   1      43.350  30.554  31.867  1.00  0.00     0.049 A 
ATOM     67  H   UNL A   1      43.173  32.295  30.732  1.00  0.00     0.167 HD
ATOM     68  C   UNL A   1      41.045  31.427  32.121  1.00  0.00     0.074 A 
ATOM     69  C   UNL A   1      40.914  32.279  30.909  1.00  0.00     0.031 C 
ATOM     70  C   UNL A   1      42.035  30.536  32.459  1.00  0.00     0.037 A 
BRANCH  57  71
ATOM     71  C   UNL A   1      45.040  33.110  28.649  1.00  0.00     0.058 A 
ATOM     72  C   UNL A   1      46.262  33.807  28.674  1.00  0.00     0.135 A 
ATOM     73  C   UNL A   1      43.885  33.919  28.487  1.00  0.00     0.135 A 
ATOM     74  F   UNL A   1      47.416  33.145  28.850  1.00  0.00    -0.206 F 
ATOM     75  C   UNL A   1      46.341  35.193  28.567  1.00  0.00     0.059 A 
ATOM     76  C   UNL A   1      43.945  35.310  28.332  1.00  0.00     0.059 A 
ATOM     77  F   UNL A   1      42.646  33.414  28.537  1.00  0.00    -0.206 F 
ATOM     78  C   UNL A   1      45.181  35.937  28.387  1.00  0.00     0.060 A 
BRANCH  78  79
ATOM     79  S   UNL A   1      45.340  37.724  28.220  1.00  0.00     0.124 S 
ATOM     80  O   UNL A   1      44.016  38.183  28.624  1.00  0.00    -0.237 OA
ATOM     81  O   UNL A   1      46.425  38.008  29.155  1.00  0.00    -0.237 OA
ATOM     82  O   UNL A   1      45.671  37.907  26.811  1.00  0.00    -0.744 OA
ENDBRANCH  78  79
ENDBRANCH  57  71
BRANCH  58  83
ATOM     83  C   UNL A   1      36.574  31.676  30.745  1.00  0.00     0.058 A 
ATOM     84  C   UNL A   1      35.694  32.324  31.680  1.00  0.00     0.135 A 
ATOM     85  C   UNL A   1      36.302  32.003  29.412  1.00  0.00     0.135 A 
ATOM     86  F   UNL A   1      35.816  32.109  33.002  1.00  0.00    -0.206 F 
ATOM     87  C   UNL A   1      34.673  33.253  31.293  1.00  0.00     0.059 A 
ATOM     88  C   UNL A   1      35.324  32.925  29.012  1.00  0.00     0.059 A 
ATOM     89  F   UNL A   1      37.062  31.490  28.438  1.00  0.00    -0.206 F 
ATOM     90  C   UNL A   1      34.522  33.572  29.944  1.00  0.00     0.060 A 
BRANCH  90  91
ATOM     91  S   UNL A   1      33.370  34.870  29.370  1.00  0.00     0.124 S 
ATOM     92  O   UNL A   1      32.667  35.237  30.595  1.00  0.00    -0.237 OA
ATOM     93  O   UNL A   1      34.268  35.881  28.825  1.00  0.00    -0.237 OA
ATOM     94  O   UNL A   1      32.551  34.175  28.377  1.00  0.00    -0.744 OA
ENDBRANCH  90  91
ENDBRANCH  58  83
BRANCH  70  95
ATOM     95  C   UNL A   1      41.807  29.471  33.521  1.00  0.00     0.058 A 
ATOM     96  C   UNL A   1      41.426  28.127  33.308  1.00  0.00     0.135 A 
ATOM     97  C   UNL A   1      42.246  29.786  34.812  1.00  0.00     0.135 A 
ATOM     98  F   UNL A   1      41.145  27.678  32.078  1.00  0.00    -0.206 F 
ATOM     99  C   UNL A   1      41.405  27.177  34.345  1.00  0.00     0.059 A 
ATOM    100  C   UNL A   1      42.272  28.855  35.846  1.00  0.00     0.059 A 
ATOM    101  F   UNL A   1      42.745  31.006  35.061  1.00  0.00    -0.206 F 
ATOM    102  C   UNL A   1      41.818  27.560  35.620  1.00  0.00     0.060 A 
BRANCH 102 103
ATOM    103  S   UNL A   1      41.779  26.368  36.982  1.00  0.00     0.124 S 
ATOM    104  O   UNL A   1      40.485  26.647  37.596  1.00  0.00    -0.237 OA
ATOM    105  O   UNL A   1      41.890  25.088  36.291  1.00  0.00    -0.237 OA
ATOM    106  O   UNL A   1      42.940  26.735  37.791  1.00  0.00    -0.744 OA
ENDBRANCH 102 103
ENDBRANCH  70  95
ENDBRANCH  44  45
ENDBRANCH  37  39
ENDBRANCH  36  37
ENDBRANCH  35  36
ENDBRANCH  34  35
ENDBRANCH  33  34
ENDBRANCH  32  33
ENDBRANCH   1  32
TORSDOF 23
ENDMDL
MODEL 2
REMARK VINA RESULT:     -10.6      2.405      3.177
REMARK SMILES Cn1c(=O)c2c(nc(Nc3cccc(Cl)c3Cl)n2CC(=O)OCCOCCOCCOC(=O)c2ccc(-c3c4nc(c(-c5c(F)cc(S(=O)(=O)[O-])cc5F)c5ccc([nH]5)c(-c5c(F)cc(S(=O)(=O)[O-])cc5F)c5nc(c(-c6c(F)cc(S(=O)(=O)[O-])cc6F)c6ccc3[nH]6)C=C5)C=C4)cc2)n(C)c1=O
REMARK SMILES IDX 26 1 25 2 24 3 23 4 22 5 20 6 21 7 19 8 18 9 1 10 2 11 3 12
REMARK SMILES IDX 102 13 4 14 5 15 100 16 103 17 6 18 101 19 7 20 8 21 9 22
REMARK SMILES IDX 10 24 11 25 16 26 12 27 14 28 17 29 13 30 15 31 27 32 28 33
REMARK SMILES IDX 29 34 30 35 31 36 32 37 33 38 34 39 35 40 99 41 36 42 98 43
REMARK SMILES IDX 37 44 38 45 39 46 92 47 40 48 97 49 91 50 93 51 41 52 96 53
REMARK SMILES IDX 90 54 89 55 42 57 76 58 55 59 75 60 56 61 59 62 74 63 94 64
REMARK SMILES IDX 57 65 58 66 73 68 95 69 60 70 43 71 44 72 53 73 45 74 46 75
REMARK SMILES IDX 52 76 54 77 47 78 48 79 49 80 50 81 51 82 77 83 78 84 87 85
REMARK SMILES IDX 79 86 80 87 86 88 88 89 81 90 82 91 83 92 84 93 85 94 61 95
REMARK SMILES IDX 62 96 71 97 63 98 64 99 70 100 72 101 65 102 66 103 67 104
REMARK SMILES IDX 68 105 69 106
REMARK H PARENT 9 23 93 56 59 67
REMARK Flexibility Score: inf
ROOT
ATOM      1  C   UNL A   1      40.976  20.110  26.908  1.00  0.00     0.188 C 
ENDROOT
BRANCH   1   2
ATOM      2  O   UNL A   1      40.510  21.287  26.302  1.00  0.00    -0.376 OA
BRANCH   2   3
ATOM      3  C   UNL A   1      39.120  21.322  26.043  1.00  0.00     0.202 C 
BRANCH   3   4
ATOM      4  C   UNL A   1      38.390  22.689  25.793  1.00  0.00     0.261 C 
BRANCH   4   5
ATOM      5  O   UNL A   1      37.168  22.715  24.949  1.00  0.00    -0.462 OA
BRANCH   5   6
ATOM      6  C   UNL A   1      35.961  22.333  25.445  1.00  0.00     0.326 C 
ATOM      7  O   UNL A   1      35.732  21.141  25.672  1.00  0.00    -0.250 OA
BRANCH   6   8
ATOM      8  C   UNL A   1      34.945  23.418  25.952  1.00  0.00     0.248 C 
BRANCH   8   9
ATOM      9  N   UNL A   1      33.607  23.766  25.375  1.00  0.00    -0.293 N 
ATOM     10  C   UNL A   1      32.666  28.821  25.071  1.00  0.00     0.159 C 
ATOM     11  N   UNL A   1      32.448  27.388  25.001  1.00  0.00    -0.261 N 
ATOM     12  C   UNL A   1      33.293  26.429  25.618  1.00  0.00     0.282 A 
ATOM     13  C   UNL A   1      31.329  27.102  24.235  1.00  0.00     0.332 A 
ATOM     14  O   UNL A   1      34.228  26.718  26.362  1.00  0.00    -0.267 OA
ATOM     15  C   UNL A   1      32.974  25.047  25.270  1.00  0.00     0.154 A 
ATOM     16  N   UNL A   1      30.952  25.781  24.155  1.00  0.00    -0.279 N 
ATOM     17  O   UNL A   1      30.678  27.994  23.682  1.00  0.00    -0.247 OA
ATOM     18  C   UNL A   1      31.798  24.795  24.616  1.00  0.00     0.170 A 
ATOM     19  C   UNL A   1      29.671  25.503  23.561  1.00  0.00     0.157 C 
ATOM     20  N   UNL A   1      31.556  23.474  24.507  1.00  0.00    -0.194 NA
ATOM     21  C   UNL A   1      32.586  22.862  25.052  1.00  0.00     0.210 A 
BRANCH  21  22
ATOM     22  N   UNL A   1      32.561  21.519  25.191  1.00  0.00    -0.324 N 
ATOM     23  H   UNL A   1      32.669  21.212  26.120  1.00  0.00     0.170 HD
BRANCH  22  24
ATOM     24  C   UNL A   1      32.411  20.481  24.263  1.00  0.00     0.061 A 
ATOM     25  C   UNL A   1      32.043  20.855  22.963  1.00  0.00     0.028 A 
ATOM     26  C   UNL A   1      32.642  19.117  24.541  1.00  0.00     0.083 A 
ATOM     27  C   UNL A   1      32.076  19.934  21.921  1.00  0.00     0.004 A 
ATOM     28  C   UNL A   1      32.749  18.210  23.478  1.00  0.00     0.061 A 
ATOM     29  Cl  UNL A   1      32.883  18.593  26.186  1.00  0.00    -0.080 Cl
ATOM     30  C   UNL A   1      32.481  18.626  22.172  1.00  0.00     0.022 A 
ATOM     31  Cl  UNL A   1      33.309  16.588  23.696  1.00  0.00    -0.083 Cl
ENDBRANCH  22  24
ENDBRANCH  21  22
ENDBRANCH   8   9
ENDBRANCH   6   8
ENDBRANCH   5   6
ENDBRANCH   4   5
ENDBRANCH   3   4
ENDBRANCH   2   3
ENDBRANCH   1   2
BRANCH   1  32
ATOM     32  C   UNL A   1      41.933  19.181  26.135  1.00  0.00     0.188 C 
BRANCH  32  33
ATOM     33  O   UNL A   1      42.718  19.504  25.012  1.00  0.00    -0.376 OA
BRANCH  33  34
ATOM     34  C   UNL A   1      44.101  19.249  24.976  1.00  0.00     0.202 C 
BRANCH  34  35
ATOM     35  C   UNL A   1      45.093  20.297  24.478  1.00  0.00     0.261 C 
BRANCH  35  36
ATOM     36  O   UNL A   1      44.574  21.370  23.687  1.00  0.00    -0.460 OA
BRANCH  36  37
ATOM     37  C   UNL A   1      44.758  22.575  24.268  1.00  0.00     0.338 C 
ATOM     38  O   UNL A   1      45.668  23.367  23.956  1.00  0.00    -0.246 OA
BRANCH  37  39
ATOM     39  C   UNL A   1      43.859  22.796  25.396  1.00  0.00     0.060 A 
ATOM     40  C   UNL A   1      42.652  23.500  25.260  1.00  0.00     0.016 A 
ATOM     41  C   UNL A   1      44.681  23.103  26.462  1.00  0.00     0.016 A 
ATOM     42  C   UNL A   1      42.629  24.813  25.768  1.00  0.00     0.010 A 
ATOM     43  C   UNL A   1      44.308  24.154  27.243  1.00  0.00     0.010 A 
ATOM     44  C   UNL A   1      43.693  25.227  26.607  1.00  0.00    -0.014 A 
BRANCH  44  45
ATOM     45  C   UNL A   1      43.689  26.457  27.467  1.00  0.00     0.031 A 
ATOM     46  C   UNL A   1      45.036  27.150  27.023  1.00  0.00     0.074 A 
ATOM     47  C   UNL A   1      42.630  26.884  28.304  1.00  0.00     0.049 A 
ATOM     48  N   UNL A   1      46.149  27.103  27.695  1.00  0.00    -0.248 NA
ATOM     49  C   UNL A   1      45.390  27.495  25.588  1.00  0.00     0.031 C 
ATOM     50  C   UNL A   1      41.306  26.279  28.732  1.00  0.00     0.029 A 
ATOM     51  N   UNL A   1      42.484  28.075  29.045  1.00  0.00    -0.354 N 
ATOM     52  C   UNL A   1      47.061  27.894  26.985  1.00  0.00     0.074 A 
ATOM     53  C   UNL A   1      46.688  27.810  25.625  1.00  0.00     0.031 C 
ATOM     54  C   UNL A   1      40.443  27.215  29.262  1.00  0.00     0.029 A 
ATOM     55  C   UNL A   1      41.127  28.488  29.400  1.00  0.00     0.049 A 
ATOM     56  H   UNL A   1      43.266  28.610  29.314  1.00  0.00     0.167 HD
ATOM     57  C   UNL A   1      47.705  28.896  27.637  1.00  0.00     0.037 A 
ATOM     58  C   UNL A   1      40.696  29.688  29.988  1.00  0.00     0.037 A 
ATOM     59  C   UNL A   1      47.609  28.625  29.049  1.00  0.00     0.049 A 
ATOM     60  C   UNL A   1      41.950  30.328  30.480  1.00  0.00     0.074 A 
ATOM     61  C   UNL A   1      48.032  27.593  29.859  1.00  0.00     0.029 A 
ATOM     62  N   UNL A   1      46.475  29.146  29.611  1.00  0.00    -0.354 N 
ATOM     63  N   UNL A   1      42.644  29.792  31.451  1.00  0.00    -0.248 NA
ATOM     64  C   UNL A   1      42.683  31.036  29.432  1.00  0.00     0.031 C 
ATOM     65  C   UNL A   1      46.949  27.336  30.749  1.00  0.00     0.029 A 
ATOM     66  C   UNL A   1      45.994  28.337  30.600  1.00  0.00     0.049 A 
ATOM     67  H   UNL A   1      46.060  29.996  29.337  1.00  0.00     0.167 HD
ATOM     68  C   UNL A   1      43.902  29.633  30.893  1.00  0.00     0.074 A 
ATOM     69  C   UNL A   1      43.850  30.406  29.624  1.00  0.00     0.031 C 
ATOM     70  C   UNL A   1      44.736  28.602  31.255  1.00  0.00     0.037 A 
BRANCH  57  71
ATOM     71  C   UNL A   1      47.909  30.305  27.108  1.00  0.00     0.058 A 
ATOM     72  C   UNL A   1      49.210  30.835  27.189  1.00  0.00     0.135 A 
ATOM     73  C   UNL A   1      46.894  31.240  26.777  1.00  0.00     0.135 A 
ATOM     74  F   UNL A   1      50.244  30.047  27.522  1.00  0.00    -0.206 F 
ATOM     75  C   UNL A   1      49.489  32.183  26.980  1.00  0.00     0.059 A 
ATOM     76  C   UNL A   1      47.158  32.592  26.519  1.00  0.00     0.059 A 
ATOM     77  F   UNL A   1      45.596  30.908  26.753  1.00  0.00    -0.206 F 
ATOM     78  C   UNL A   1      48.461  33.054  26.636  1.00  0.00     0.060 A 
BRANCH  78  79
ATOM     79  S   UNL A   1      48.878  34.782  26.344  1.00  0.00     0.124 S 
ATOM     80  O   UNL A   1      47.725  35.471  26.913  1.00  0.00    -0.237 OA
ATOM     81  O   UNL A   1      50.127  34.909  27.089  1.00  0.00    -0.237 OA
ATOM     82  O   UNL A   1      49.010  34.860  24.893  1.00  0.00    -0.744 OA
ENDBRANCH  78  79
ENDBRANCH  57  71
BRANCH  58  83
ATOM     83  C   UNL A   1      39.471  30.597  29.720  1.00  0.00     0.058 A 
ATOM     84  C   UNL A   1      38.467  30.465  28.698  1.00  0.00     0.135 A 
ATOM     85  C   UNL A   1      39.094  31.459  30.756  1.00  0.00     0.135 A 
ATOM     86  F   UNL A   1      38.676  29.679  27.628  1.00  0.00    -0.206 F 
ATOM     87  C   UNL A   1      37.188  31.110  28.757  1.00  0.00     0.059 A 
ATOM     88  C   UNL A   1      37.841  32.083  30.845  1.00  0.00     0.059 A 
ATOM     89  F   UNL A   1      39.925  31.654  31.787  1.00  0.00    -0.206 F 
ATOM     90  C   UNL A   1      36.875  31.896  29.865  1.00  0.00     0.060 A 
BRANCH  90  91
ATOM     91  S   UNL A   1      35.213  32.615  30.114  1.00  0.00     0.124 S 
ATOM     92  O   UNL A   1      35.473  34.050  30.053  1.00  0.00    -0.237 OA
ATOM     93  O   UNL A   1      34.450  32.060  29.002  1.00  0.00    -0.237 OA
ATOM     94  O   UNL A   1      34.827  32.117  31.434  1.00  0.00    -0.744 OA
ENDBRANCH  90  91
ENDBRANCH  58  83
BRANCH  70  95
ATOM     95  C   UNL A   1      44.388  27.676  32.410  1.00  0.00     0.058 A 
ATOM     96  C   UNL A   1      44.006  26.318  32.324  1.00  0.00     0.135 A 
ATOM     97  C   UNL A   1      44.706  28.142  33.690  1.00  0.00     0.135 A 
ATOM     98  F   UNL A   1      43.837  25.725  31.135  1.00  0.00    -0.206 F 
ATOM     99  C   UNL A   1      43.868  25.501  33.461  1.00  0.00     0.059 A 
ATOM    100  C   UNL A   1      44.616  27.344  34.827  1.00  0.00     0.059 A 
ATOM    101  F   UNL A   1      45.200  29.381  33.838  1.00  0.00    -0.206 F 
ATOM    102  C   UNL A   1      44.164  26.033  34.715  1.00  0.00     0.060 A 
BRANCH 102 103
ATOM    103  S   UNL A   1      43.972  25.016  36.200  1.00  0.00     0.124 S 
ATOM    104  O   UNL A   1      43.628  26.010  37.210  1.00  0.00    -0.237 OA
ATOM    105  O   UNL A   1      42.901  24.098  35.823  1.00  0.00    -0.237 OA
ATOM    106  O   UNL A   1      45.286  24.396  36.361  1.00  0.00    -0.744 OA
ENDBRANCH 102 103
ENDBRANCH  70  95
ENDBRANCH  44  45
ENDBRANCH  37  39
ENDBRANCH  36  37
ENDBRANCH  35  36
ENDBRANCH  34  35
ENDBRANCH  33  34
ENDBRANCH  32  33
ENDBRANCH   1  32
TORSDOF 23
ENDMDL
MODEL 3
REMARK VINA RESULT:     -10.3      3.622      9.706
REMARK SMILES Cn1c(=O)c2c(nc(Nc3cccc(Cl)c3Cl)n2CC(=O)OCCOCCOCCOC(=O)c2ccc(-c3c4nc(c(-c5c(F)cc(S(=O)(=O)[O-])cc5F)c5ccc([nH]5)c(-c5c(F)cc(S(=O)(=O)[O-])cc5F)c5nc(c(-c6c(F)cc(S(=O)(=O)[O-])cc6F)c6ccc3[nH]6)C=C5)C=C4)cc2)n(C)c1=O
REMARK SMILES IDX 26 1 25 2 24 3 23 4 22 5 20 6 21 7 19 8 18 9 1 10 2 11 3 12
REMARK SMILES IDX 102 13 4 14 5 15 100 16 103 17 6 18 101 19 7 20 8 21 9 22
REMARK SMILES IDX 10 24 11 25 16 26 12 27 14 28 17 29 13 30 15 31 27 32 28 33
REMARK SMILES IDX 29 34 30 35 31 36 32 37 33 38 34 39 35 40 99 41 36 42 98 43
REMARK SMILES IDX 37 44 38 45 39 46 92 47 40 48 97 49 91 50 93 51 41 52 96 53
REMARK SMILES IDX 90 54 89 55 42 57 76 58 55 59 75 60 56 61 59 62 74 63 94 64
REMARK SMILES IDX 57 65 58 66 73 68 95 69 60 70 43 71 44 72 53 73 45 74 46 75
REMARK SMILES IDX 52 76 54 77 47 78 48 79 49 80 50 81 51 82 77 83 78 84 87 85
REMARK SMILES IDX 79 86 80 87 86 88 88 89 81 90 82 91 83 92 84 93 85 94 61 95
REMARK SMILES IDX 62 96 71 97 63 98 64 99 70 100 72 101 65 102 66 103 67 104
REMARK SMILES IDX 68 105 69 106
REMARK H PARENT 9 23 93 56 59 67
REMARK Flexibility Score: inf
ROOT
ATOM      1  C   UNL A   1      33.627  30.657  26.864  1.00  0.00     0.188 C 
ENDROOT
BRANCH   1   2
ATOM      2  O   UNL A   1      32.824  29.517  27.022  1.00  0.00    -0.376 OA
BRANCH   2   3
ATOM      3  C   UNL A   1      32.835  28.617  25.931  1.00  0.00     0.202 C 
BRANCH   3   4
ATOM      4  C   UNL A   1      33.696  28.923  24.654  1.00  0.00     0.261 C 
BRANCH   4   5
ATOM      5  O   UNL A   1      34.199  27.794  23.830  1.00  0.00    -0.462 OA
BRANCH   5   6
ATOM      6  C   UNL A   1      33.663  26.549  23.940  1.00  0.00     0.326 C 
ATOM      7  O   UNL A   1      34.033  25.790  24.840  1.00  0.00    -0.250 OA
BRANCH   6   8
ATOM      8  C   UNL A   1      32.410  26.158  23.076  1.00  0.00     0.248 C 
BRANCH   8   9
ATOM      9  N   UNL A   1      30.970  26.454  23.358  1.00  0.00    -0.293 N 
ATOM     10  C   UNL A   1      29.331  30.990  21.549  1.00  0.00     0.159 C 
ATOM     11  N   UNL A   1      29.324  29.722  22.253  1.00  0.00    -0.261 N 
ATOM     12  C   UNL A   1      30.496  28.983  22.562  1.00  0.00     0.282 A 
ATOM     13  C   UNL A   1      28.026  29.336  22.550  1.00  0.00     0.332 A 
ATOM     14  O   UNL A   1      31.637  29.393  22.361  1.00  0.00    -0.267 OA
ATOM     15  C   UNL A   1      30.232  27.660  23.122  1.00  0.00     0.154 A 
ATOM     16  N   UNL A   1      27.874  28.190  23.297  1.00  0.00    -0.279 N 
ATOM     17  O   UNL A   1      27.054  30.009  22.195  1.00  0.00    -0.247 OA
ATOM     18  C   UNL A   1      28.954  27.361  23.513  1.00  0.00     0.170 A 
ATOM     19  C   UNL A   1      26.556  27.912  23.804  1.00  0.00     0.157 C 
ATOM     20  N   UNL A   1      28.889  26.180  24.158  1.00  0.00    -0.194 NA
ATOM     21  C   UNL A   1      30.110  25.688  24.156  1.00  0.00     0.210 A 
BRANCH  21  22
ATOM     22  N   UNL A   1      30.368  24.555  24.843  1.00  0.00    -0.324 N 
ATOM     23  H   UNL A   1      29.857  24.470  25.679  1.00  0.00     0.170 HD
BRANCH  22  24
ATOM     24  C   UNL A   1      31.226  23.477  24.590  1.00  0.00     0.061 A 
ATOM     25  C   UNL A   1      31.162  22.917  23.306  1.00  0.00     0.028 A 
ATOM     26  C   UNL A   1      32.159  22.961  25.515  1.00  0.00     0.083 A 
ATOM     27  C   UNL A   1      32.112  21.993  22.885  1.00  0.00     0.004 A 
ATOM     28  C   UNL A   1      33.159  22.088  25.063  1.00  0.00     0.061 A 
ATOM     29  Cl  UNL A   1      32.114  23.479  27.177  1.00  0.00    -0.080 Cl
ATOM     30  C   UNL A   1      33.140  21.621  23.747  1.00  0.00     0.022 A 
ATOM     31  Cl  UNL A   1      34.504  21.631  26.050  1.00  0.00    -0.083 Cl
ENDBRANCH  22  24
ENDBRANCH  21  22
ENDBRANCH   8   9
ENDBRANCH   6   8
ENDBRANCH   5   6
ENDBRANCH   4   5
ENDBRANCH   3   4
ENDBRANCH   2   3
ENDBRANCH   1   2
BRANCH   1  32
ATOM     32  C   UNL A   1      34.117  31.424  28.107  1.00  0.00     0.188 C 
BRANCH  32  33
ATOM     33  O   UNL A   1      35.233  32.278  28.201  1.00  0.00    -0.376 OA
BRANCH  33  34
ATOM     34  C   UNL A   1      36.186  32.143  29.226  1.00  0.00     0.202 C 
BRANCH  34  35
ATOM     35  C   UNL A   1      36.357  30.831  29.989  1.00  0.00     0.261 C 
BRANCH  35  36
ATOM     36  O   UNL A   1      37.423  30.757  30.940  1.00  0.00    -0.460 OA
BRANCH  36  37
ATOM     37  C   UNL A   1      36.982  30.797  32.215  1.00  0.00     0.338 C 
ATOM     38  O   UNL A   1      36.079  31.556  32.617  1.00  0.00    -0.246 OA
BRANCH  37  39
ATOM     39  C   UNL A   1      37.771  29.953  33.107  1.00  0.00     0.060 A 
ATOM     40  C   UNL A   1      38.931  30.423  33.743  1.00  0.00     0.016 A 
ATOM     41  C   UNL A   1      37.812  28.715  32.497  1.00  0.00     0.016 A 
ATOM     42  C   UNL A   1      40.159  29.973  33.221  1.00  0.00     0.010 A 
ATOM     43  C   UNL A   1      39.020  28.089  32.459  1.00  0.00     0.010 A 
ATOM     44  C   UNL A   1      40.145  28.892  32.304  1.00  0.00    -0.014 A 
BRANCH  44  45
ATOM     45  C   UNL A   1      41.346  28.097  31.885  1.00  0.00     0.031 A 
ATOM     46  C   UNL A   1      41.961  27.701  33.284  1.00  0.00     0.074 A 
ATOM     47  C   UNL A   1      41.669  27.713  30.560  1.00  0.00     0.049 A 
ATOM     48  N   UNL A   1      42.977  28.294  33.840  1.00  0.00    -0.248 NA
ATOM     49  C   UNL A   1      41.197  26.987  34.384  1.00  0.00     0.031 C 
ATOM     50  C   UNL A   1      41.093  28.031  29.194  1.00  0.00     0.029 A 
ATOM     51  N   UNL A   1      42.696  26.870  30.085  1.00  0.00    -0.354 N 
ATOM     52  C   UNL A   1      43.227  27.595  35.028  1.00  0.00     0.074 A 
ATOM     53  C   UNL A   1      41.982  27.084  35.460  1.00  0.00     0.031 C 
ATOM     54  C   UNL A   1      41.505  27.140  28.225  1.00  0.00     0.029 A 
ATOM     55  C   UNL A   1      42.505  26.245  28.778  1.00  0.00     0.049 A 
ATOM     56  H   UNL A   1      43.510  26.708  30.614  1.00  0.00     0.167 HD
ATOM     57  C   UNL A   1      44.477  27.111  35.252  1.00  0.00     0.037 A 
ATOM     58  C   UNL A   1      43.285  25.260  28.150  1.00  0.00     0.037 A 
ATOM     59  C   UNL A   1      45.378  27.824  34.382  1.00  0.00     0.049 A 
ATOM     60  C   UNL A   1      44.540  25.216  28.955  1.00  0.00     0.074 A 
ATOM     61  C   UNL A   1      45.728  29.150  34.243  1.00  0.00     0.029 A 
ATOM     62  N   UNL A   1      45.499  27.239  33.152  1.00  0.00    -0.354 N 
ATOM     63  N   UNL A   1      45.363  26.232  28.975  1.00  0.00    -0.248 NA
ATOM     64  C   UNL A   1      44.412  24.421  30.175  1.00  0.00     0.031 C 
ATOM     65  C   UNL A   1      45.773  29.389  32.838  1.00  0.00     0.029 A 
ATOM     66  C   UNL A   1      45.656  28.173  32.169  1.00  0.00     0.049 A 
ATOM     67  H   UNL A   1      45.476  26.267  32.995  1.00  0.00     0.167 HD
ATOM     68  C   UNL A   1      45.467  26.531  30.323  1.00  0.00     0.074 A 
ATOM     69  C   UNL A   1      44.829  25.379  31.013  1.00  0.00     0.031 C 
ATOM     70  C   UNL A   1      45.674  27.814  30.773  1.00  0.00     0.037 A 
BRANCH  57  71
ATOM     71  C   UNL A   1      44.805  25.725  35.777  1.00  0.00     0.058 A 
ATOM     72  C   UNL A   1      45.705  25.648  36.856  1.00  0.00     0.135 A 
ATOM     73  C   UNL A   1      44.510  24.488  35.146  1.00  0.00     0.135 A 
ATOM     74  F   UNL A   1      46.077  26.760  37.509  1.00  0.00    -0.206 F 
ATOM     75  C   UNL A   1      46.285  24.452  37.270  1.00  0.00     0.059 A 
ATOM     76  C   UNL A   1      45.047  23.267  35.574  1.00  0.00     0.059 A 
ATOM     77  F   UNL A   1      43.745  24.410  34.050  1.00  0.00    -0.206 F 
ATOM     78  C   UNL A   1      45.945  23.264  36.631  1.00  0.00     0.060 A 
BRANCH  78  79
ATOM     79  S   UNL A   1      46.698  21.739  37.226  1.00  0.00     0.124 S 
ATOM     80  O   UNL A   1      47.842  21.600  36.331  1.00  0.00    -0.237 OA
ATOM     81  O   UNL A   1      47.011  22.089  38.608  1.00  0.00    -0.237 OA
ATOM     82  O   UNL A   1      45.640  20.749  37.060  1.00  0.00    -0.744 OA
ENDBRANCH  78  79
ENDBRANCH  57  71
BRANCH  58  83
ATOM     83  C   UNL A   1      42.908  24.010  27.317  1.00  0.00     0.058 A 
ATOM     84  C   UNL A   1      43.674  23.358  26.289  1.00  0.00     0.135 A 
ATOM     85  C   UNL A   1      41.863  23.221  27.811  1.00  0.00     0.135 A 
ATOM     86  F   UNL A   1      44.709  23.984  25.702  1.00  0.00    -0.206 F 
ATOM     87  C   UNL A   1      43.428  22.016  25.848  1.00  0.00     0.059 A 
ATOM     88  C   UNL A   1      41.618  21.900  27.412  1.00  0.00     0.059 A 
ATOM     89  F   UNL A   1      41.086  23.696  28.791  1.00  0.00    -0.206 F 
ATOM     90  C   UNL A   1      42.407  21.281  26.451  1.00  0.00     0.060 A 
BRANCH  90  91
ATOM     91  S   UNL A   1      42.128  19.512  26.082  1.00  0.00     0.124 S 
ATOM     92  O   UNL A   1      43.014  19.280  24.946  1.00  0.00    -0.237 OA
ATOM     93  O   UNL A   1      42.508  18.859  27.329  1.00  0.00    -0.237 OA
ATOM     94  O   UNL A   1      40.701  19.457  25.769  1.00  0.00    -0.744 OA
ENDBRANCH  90  91
ENDBRANCH  58  83
BRANCH  70  95
ATOM     95  C   UNL A   1      45.967  28.950  29.805  1.00  0.00     0.058 A 
ATOM     96  C   UNL A   1      47.094  29.078  28.961  1.00  0.00     0.135 A 
ATOM     97  C   UNL A   1      44.910  29.831  29.552  1.00  0.00     0.135 A 
ATOM     98  F   UNL A   1      48.092  28.186  29.008  1.00  0.00    -0.206 F 
ATOM     99  C   UNL A   1      47.191  30.082  27.981  1.00  0.00     0.059 A 
ATOM    100  C   UNL A   1      44.965  30.808  28.562  1.00  0.00     0.059 A 
ATOM    101  F   UNL A   1      43.757  29.690  30.223  1.00  0.00    -0.206 F 
ATOM    102  C   UNL A   1      46.119  30.955  27.800  1.00  0.00     0.060 A 
BRANCH 102 103
ATOM    103  S   UNL A   1      46.222  32.273  26.564  1.00  0.00     0.124 S 
ATOM    104  O   UNL A   1      45.757  33.434  27.315  1.00  0.00    -0.237 OA
ATOM    105  O   UNL A   1      47.639  32.272  26.213  1.00  0.00    -0.237 OA
ATOM    106  O   UNL A   1      45.324  31.819  25.505  1.00  0.00    -0.744 OA
ENDBRANCH 102 103
ENDBRANCH  70  95
ENDBRANCH  44  45
ENDBRANCH  37  39
ENDBRANCH  36  37
ENDBRANCH  35  36
ENDBRANCH  34  35
ENDBRANCH  33  34
ENDBRANCH  32  33
ENDBRANCH   1  32
TORSDOF 23
ENDMDL
