MODEL 1
REMARK VINA RESULT:     -10.1      0.000      0.000
REMARK SMILES CCC[C@]1(C(=O)NC[C@@H]2CC[C@H](C(=O)OCCOCCOCCOC(=O)c3ccc(-c4c5nc(c(-c6c(F)cc(S(=O)(=O)[O-])cc6F)c6ccc([nH]6)c(-c6c(F)cc(S(=O)(=O)[O-])cc6F)c6nc(c(-c7c(F)cc(S(=O)(=O)[O-])cc7F)c7ccc4[nH]7)C=C6)C=C5)cc3)O2)CCC[NH2+]C1
REMARK SMILES IDX 19 1 18 2 17 3 16 4 15 5 13 6 14 7 12 8 9 9 10 10 93 11
REMARK SMILES IDX 11 12 8 13 7 14 5 15 6 16 4 18 94 19 98 20 95 21 97 22 96 23
REMARK SMILES IDX 3 26 2 27 1 28 20 29 21 30 22 31 23 32 24 33 25 34 26 35
REMARK SMILES IDX 27 36 28 37 92 38 29 39 91 40 30 41 31 42 32 43 85 44 33 45
REMARK SMILES IDX 90 46 84 47 86 48 34 49 89 50 83 51 82 52 35 54 69 55 48 56
REMARK SMILES IDX 68 57 49 58 52 59 67 60 87 61 50 62 51 63 66 65 88 66 53 67
REMARK SMILES IDX 36 68 37 69 46 70 38 71 39 72 45 73 47 74 40 75 41 76 42 77
REMARK SMILES IDX 43 78 44 79 70 80 71 81 80 82 72 83 73 84 79 85 81 86 74 87
REMARK SMILES IDX 75 88 76 89 77 90 78 91 54 92 55 93 64 94 56 95 57 96 63 97
REMARK SMILES IDX 65 98 58 99 59 100 60 101 61 102 62 103
REMARK H PARENT 7 17 97 24 97 25 86 53 52 64
REMARK Flexibility Score: inf
ROOT
ATOM      1  C   UNL A   1      34.463  29.995  27.150  1.00  0.00     0.188 C 
ENDROOT
BRANCH   1   2
ATOM      2  O   UNL A   1      33.604  28.920  27.503  1.00  0.00    -0.376 OA
BRANCH   2   3
ATOM      3  C   UNL A   1      32.218  29.073  27.215  1.00  0.00     0.202 C 
BRANCH   3   4
ATOM      4  C   UNL A   1      31.358  27.801  27.125  1.00  0.00     0.261 C 
BRANCH   4   5
ATOM      5  O   UNL A   1      31.303  27.165  25.829  1.00  0.00    -0.461 OA
BRANCH   5   6
ATOM      6  C   UNL A   1      30.302  26.247  25.679  1.00  0.00     0.335 C 
ATOM      7  O   UNL A   1      29.876  25.546  26.593  1.00  0.00    -0.249 OA
BRANCH   6   8
ATOM      8  C   UNL A   1      29.770  26.110  24.242  1.00  0.00     0.228 C 
ATOM      9  C   UNL A   1      31.408  25.451  22.709  1.00  0.00     0.138 C 
ATOM     10  C   UNL A   1      31.324  26.970  22.708  1.00  0.00     0.037 C 
ATOM     11  O   UNL A   1      30.439  24.978  23.658  1.00  0.00    -0.361 OA
ATOM     12  C   UNL A   1      29.951  27.241  23.250  1.00  0.00     0.047 C 
BRANCH   9  13
ATOM     13  C   UNL A   1      32.803  24.920  23.085  1.00  0.00     0.147 C 
BRANCH  13  14
ATOM     14  N   UNL A   1      33.001  24.942  24.527  1.00  0.00    -0.353 N 
ATOM     15  C   UNL A   1      33.517  24.054  25.411  1.00  0.00     0.232 C 
ATOM     16  O   UNL A   1      32.980  24.086  26.524  1.00  0.00    -0.274 OA
ATOM     17  H   UNL A   1      32.695  25.777  24.950  1.00  0.00     0.163 HD
BRANCH  15  18
ATOM     18  C   UNL A   1      34.610  23.009  25.082  1.00  0.00     0.098 C 
ATOM     19  C   UNL A   1      35.719  23.767  24.309  1.00  0.00     0.028 C 
ATOM     20  C   UNL A   1      35.201  22.315  26.334  1.00  0.00     0.277 C 
ATOM     21  C   UNL A   1      37.037  23.011  24.180  1.00  0.00     0.063 C 
ATOM     22  N   UNL A   1      36.434  21.555  26.061  1.00  0.00    -0.345 N 
ATOM     23  C   UNL A   1      37.474  22.429  25.516  1.00  0.00     0.260 C 
ATOM     24  H   UNL A   1      36.768  21.137  26.928  1.00  0.00     0.346 HD
ATOM     25  H   UNL A   1      36.225  20.830  25.374  1.00  0.00     0.346 HD
BRANCH  18  26
ATOM     26  C   UNL A   1      34.022  21.935  24.094  1.00  0.00     0.022 C 
BRANCH  26  27
ATOM     27  C   UNL A   1      32.659  21.291  24.410  1.00  0.00    -0.002 C 
ATOM     28  C   UNL A   1      32.354  19.995  23.676  1.00  0.00     0.004 C 
ENDBRANCH  26  27
ENDBRANCH  18  26
ENDBRANCH  15  18
ENDBRANCH  13  14
ENDBRANCH   9  13
ENDBRANCH   6   8
ENDBRANCH   5   6
ENDBRANCH   4   5
ENDBRANCH   3   4
ENDBRANCH   2   3
ENDBRANCH   1   2
BRANCH   1  29
ATOM     29  C   UNL A   1      34.054  31.395  27.614  1.00  0.00     0.188 C 
BRANCH  29  30
ATOM     30  O   UNL A   1      35.087  32.370  27.626  1.00  0.00    -0.376 OA
BRANCH  30  31
ATOM     31  C   UNL A   1      35.327  33.021  28.878  1.00  0.00     0.202 C 
BRANCH  31  32
ATOM     32  C   UNL A   1      35.113  32.154  30.143  1.00  0.00     0.261 C 
BRANCH  32  33
ATOM     33  O   UNL A   1      35.775  30.868  30.142  1.00  0.00    -0.460 OA
BRANCH  33  34
ATOM     34  C   UNL A   1      36.575  30.586  31.198  1.00  0.00     0.338 C 
ATOM     35  O   UNL A   1      36.200  30.311  32.326  1.00  0.00    -0.246 OA
BRANCH  34  36
ATOM     36  C   UNL A   1      37.969  30.379  30.714  1.00  0.00     0.060 A 
ATOM     37  C   UNL A   1      38.179  30.360  29.328  1.00  0.00     0.016 A 
ATOM     38  C   UNL A   1      39.063  30.264  31.579  1.00  0.00     0.016 A 
ATOM     39  C   UNL A   1      39.461  30.164  28.807  1.00  0.00     0.010 A 
ATOM     40  C   UNL A   1      40.349  30.058  31.055  1.00  0.00     0.010 A 
ATOM     41  C   UNL A   1      40.552  29.964  29.665  1.00  0.00    -0.014 A 
BRANCH  41  42
ATOM     42  C   UNL A   1      41.840  29.471  29.102  1.00  0.00     0.031 A 
ATOM     43  C   UNL A   1      43.003  30.428  29.017  1.00  0.00     0.074 A 
ATOM     44  C   UNL A   1      42.012  28.187  28.733  1.00  0.00     0.049 A 
ATOM     45  N   UNL A   1      44.231  30.215  28.621  1.00  0.00    -0.248 NA
ATOM     46  C   UNL A   1      42.741  31.814  29.441  1.00  0.00     0.031 C 
ATOM     47  C   UNL A   1      40.988  27.146  28.778  1.00  0.00     0.029 A 
ATOM     48  N   UNL A   1      43.125  27.541  28.247  1.00  0.00    -0.354 N 
ATOM     49  C   UNL A   1      44.890  31.433  28.751  1.00  0.00     0.074 A 
ATOM     50  C   UNL A   1      43.913  32.391  29.223  1.00  0.00     0.031 C 
ATOM     51  C   UNL A   1      41.520  25.990  28.339  1.00  0.00     0.029 A 
ATOM     52  C   UNL A   1      42.917  26.211  27.963  1.00  0.00     0.049 A 
ATOM     53  H   UNL A   1      43.992  27.989  28.114  1.00  0.00     0.167 HD
ATOM     54  C   UNL A   1      46.191  31.729  28.515  1.00  0.00     0.037 A 
ATOM     55  C   UNL A   1      43.751  25.281  27.453  1.00  0.00     0.037 A 
ATOM     56  C   UNL A   1      47.168  30.786  28.038  1.00  0.00     0.049 A 
ATOM     57  C   UNL A   1      45.183  25.647  27.147  1.00  0.00     0.074 A 
ATOM     58  C   UNL A   1      48.514  30.994  27.786  1.00  0.00     0.029 A 
ATOM     59  N   UNL A   1      46.907  29.459  27.729  1.00  0.00    -0.354 N 
ATOM     60  N   UNL A   1      45.798  26.795  27.309  1.00  0.00    -0.248 NA
ATOM     61  C   UNL A   1      46.039  24.583  26.600  1.00  0.00     0.031 C 
ATOM     62  C   UNL A   1      49.055  29.807  27.277  1.00  0.00     0.029 A 
ATOM     63  C   UNL A   1      48.060  28.843  27.267  1.00  0.00     0.049 A 
ATOM     64  H   UNL A   1      46.032  29.019  27.825  1.00  0.00     0.167 HD
ATOM     65  C   UNL A   1      47.115  26.584  26.908  1.00  0.00     0.074 A 
ATOM     66  C   UNL A   1      47.212  25.194  26.517  1.00  0.00     0.031 C 
ATOM     67  C   UNL A   1      48.151  27.460  26.869  1.00  0.00     0.037 A 
BRANCH  54  68
ATOM     68  C   UNL A   1      46.630  33.150  28.750  1.00  0.00     0.058 A 
ATOM     69  C   UNL A   1      47.138  33.571  29.990  1.00  0.00     0.135 A 
ATOM     70  C   UNL A   1      46.569  34.095  27.713  1.00  0.00     0.135 A 
ATOM     71  F   UNL A   1      47.200  32.715  31.022  1.00  0.00    -0.206 F 
ATOM     72  C   UNL A   1      47.544  34.884  30.201  1.00  0.00     0.059 A 
ATOM     73  C   UNL A   1      46.997  35.407  27.894  1.00  0.00     0.059 A 
ATOM     74  F   UNL A   1      46.089  33.748  26.509  1.00  0.00    -0.206 F 
ATOM     75  C   UNL A   1      47.469  35.795  29.147  1.00  0.00     0.060 A 
BRANCH  75  76
ATOM     76  S   UNL A   1      48.003  37.496  29.436  1.00  0.00     0.124 S 
ATOM     77  O   UNL A   1      49.255  37.538  28.687  1.00  0.00    -0.237 OA
ATOM     78  O   UNL A   1      46.901  38.269  28.872  1.00  0.00    -0.237 OA
ATOM     79  O   UNL A   1      48.138  37.568  30.888  1.00  0.00    -0.744 OA
ENDBRANCH  75  76
ENDBRANCH  54  68
BRANCH  55  80
ATOM     80  C   UNL A   1      43.261  23.898  27.194  1.00  0.00     0.058 A 
ATOM     81  C   UNL A   1      43.144  22.958  28.229  1.00  0.00     0.135 A 
ATOM     82  C   UNL A   1      42.922  23.482  25.896  1.00  0.00     0.135 A 
ATOM     83  F   UNL A   1      43.473  23.300  29.485  1.00  0.00    -0.206 F 
ATOM     84  C   UNL A   1      42.723  21.653  27.988  1.00  0.00     0.059 A 
ATOM     85  C   UNL A   1      42.472  22.191  25.634  1.00  0.00     0.059 A 
ATOM     86  F   UNL A   1      43.014  24.342  24.870  1.00  0.00    -0.206 F 
ATOM     87  C   UNL A   1      42.385  21.281  26.686  1.00  0.00     0.060 A 
BRANCH  87  88
ATOM     88  S   UNL A   1      41.789  19.601  26.391  1.00  0.00     0.124 S 
ATOM     89  O   UNL A   1      42.237  18.913  27.597  1.00  0.00    -0.237 OA
ATOM     90  O   UNL A   1      40.349  19.806  26.270  1.00  0.00    -0.237 OA
ATOM     91  O   UNL A   1      42.467  19.218  25.157  1.00  0.00    -0.744 OA
ENDBRANCH  87  88
ENDBRANCH  55  80
BRANCH  67  92
ATOM     92  C   UNL A   1      49.489  26.934  26.415  1.00  0.00     0.058 A 
ATOM     93  C   UNL A   1      49.900  27.011  25.075  1.00  0.00     0.135 A 
ATOM     94  C   UNL A   1      50.374  26.346  27.334  1.00  0.00     0.135 A 
ATOM     95  F   UNL A   1      49.097  27.564  24.151  1.00  0.00    -0.206 F 
ATOM     96  C   UNL A   1      51.115  26.477  24.652  1.00  0.00     0.059 A 
ATOM     97  C   UNL A   1      51.607  25.835  26.940  1.00  0.00     0.059 A 
ATOM     98  F   UNL A   1      50.044  26.262  28.632  1.00  0.00    -0.206 F 
ATOM     99  C   UNL A   1      51.958  25.882  25.591  1.00  0.00     0.060 A 
BRANCH  99 100
ATOM    100  S   UNL A   1      53.520  25.170  25.031  1.00  0.00     0.124 S 
ATOM    101  O   UNL A   1      53.597  25.672  23.664  1.00  0.00    -0.237 OA
ATOM    102  O   UNL A   1      54.480  25.740  25.971  1.00  0.00    -0.237 OA
ATOM    103  O   UNL A   1      53.304  23.732  25.162  1.00  0.00    -0.744 OA
ENDBRANCH  99 100
ENDBRANCH  67  92
ENDBRANCH  41  42
ENDBRANCH  34  36
ENDBRANCH  33  34
ENDBRANCH  32  33
ENDBRANCH  31  32
ENDBRANCH  30  31
ENDBRANCH  29  30
ENDBRANCH   1  29
TORSDOF 25
ENDMDL
MODEL 2
REMARK VINA RESULT:      -9.5      6.013     11.786
REMARK SMILES CCC[C@]1(C(=O)NC[C@@H]2CC[C@H](C(=O)OCCOCCOCCOC(=O)c3ccc(-c4c5nc(c(-c6c(F)cc(S(=O)(=O)[O-])cc6F)c6ccc([nH]6)c(-c6c(F)cc(S(=O)(=O)[O-])cc6F)c6nc(c(-c7c(F)cc(S(=O)(=O)[O-])cc7F)c7ccc4[nH]7)C=C6)C=C5)cc3)O2)CCC[NH2+]C1
REMARK SMILES IDX 19 1 18 2 17 3 16 4 15 5 13 6 14 7 12 8 9 9 10 10 93 11
REMARK SMILES IDX 11 12 8 13 7 14 5 15 6 16 4 18 94 19 98 20 95 21 97 22 96 23
REMARK SMILES IDX 3 26 2 27 1 28 20 29 21 30 22 31 23 32 24 33 25 34 26 35
REMARK SMILES IDX 27 36 28 37 92 38 29 39 91 40 30 41 31 42 32 43 85 44 33 45
REMARK SMILES IDX 90 46 84 47 86 48 34 49 89 50 83 51 82 52 35 54 69 55 48 56
REMARK SMILES IDX 68 57 49 58 52 59 67 60 87 61 50 62 51 63 66 65 88 66 53 67
REMARK SMILES IDX 36 68 37 69 46 70 38 71 39 72 45 73 47 74 40 75 41 76 42 77
REMARK SMILES IDX 43 78 44 79 70 80 71 81 80 82 72 83 73 84 79 85 81 86 74 87
REMARK SMILES IDX 75 88 76 89 77 90 78 91 54 92 55 93 64 94 56 95 57 96 63 97
REMARK SMILES IDX 65 98 58 99 59 100 60 101 61 102 62 103
REMARK H PARENT 7 17 97 24 97 25 86 53 52 64
REMARK Flexibility Score: inf
ROOT
ATOM      1  C   UNL A   1      38.684  22.141  25.756  1.00  0.00     0.188 C 
ENDROOT
BRANCH   1   2
ATOM      2  O   UNL A   1      37.582  21.613  25.031  1.00  0.00    -0.376 OA
BRANCH   2   3
ATOM      3  C   UNL A   1      36.368  21.411  25.747  1.00  0.00     0.202 C 
BRANCH   3   4
ATOM      4  C   UNL A   1      35.244  22.444  25.560  1.00  0.00     0.261 C 
BRANCH   4   5
ATOM      5  O   UNL A   1      34.849  22.710  24.197  1.00  0.00    -0.461 OA
BRANCH   5   6
ATOM      6  C   UNL A   1      33.634  22.199  23.838  1.00  0.00     0.335 C 
ATOM      7  O   UNL A   1      33.311  21.026  24.005  1.00  0.00    -0.249 OA
BRANCH   6   8
ATOM      8  C   UNL A   1      32.697  23.202  23.144  1.00  0.00     0.228 C 
ATOM      9  C   UNL A   1      31.892  24.862  24.583  1.00  0.00     0.138 C 
ATOM     10  C   UNL A   1      30.882  23.726  24.537  1.00  0.00     0.037 C 
ATOM     11  O   UNL A   1      32.977  24.493  23.715  1.00  0.00    -0.361 OA
ATOM     12  C   UNL A   1      31.195  23.036  23.241  1.00  0.00     0.047 C 
BRANCH   9  13
ATOM     13  C   UNL A   1      32.433  25.138  25.997  1.00  0.00     0.147 C 
BRANCH  13  14
ATOM     14  N   UNL A   1      31.623  26.135  26.682  1.00  0.00    -0.353 N 
ATOM     15  C   UNL A   1      31.654  27.489  26.732  1.00  0.00     0.232 C 
ATOM     16  O   UNL A   1      31.302  27.958  27.820  1.00  0.00    -0.274 OA
ATOM     17  H   UNL A   1      30.900  25.743  27.225  1.00  0.00     0.163 HD
BRANCH  15  18
ATOM     18  C   UNL A   1      32.167  28.406  25.596  1.00  0.00     0.098 C 
ATOM     19  C   UNL A   1      33.607  27.932  25.272  1.00  0.00     0.028 C 
ATOM     20  C   UNL A   1      31.286  28.368  24.323  1.00  0.00     0.277 C 
ATOM     21  C   UNL A   1      34.177  28.472  23.964  1.00  0.00     0.063 C 
ATOM     22  N   UNL A   1      31.922  28.987  23.147  1.00  0.00    -0.345 N 
ATOM     23  C   UNL A   1      33.183  28.319  22.823  1.00  0.00     0.260 C 
ATOM     24  H   UNL A   1      31.290  28.917  22.349  1.00  0.00     0.346 HD
ATOM     25  H   UNL A   1      32.117  29.966  23.359  1.00  0.00     0.346 HD
BRANCH  18  26
ATOM     26  C   UNL A   1      32.285  29.881  26.130  1.00  0.00     0.022 C 
BRANCH  26  27
ATOM     27  C   UNL A   1      31.139  30.872  25.852  1.00  0.00    -0.002 C 
ATOM     28  C   UNL A   1      31.301  32.256  26.460  1.00  0.00     0.004 C 
ENDBRANCH  26  27
ENDBRANCH  18  26
ENDBRANCH  15  18
ENDBRANCH  13  14
ENDBRANCH   9  13
ENDBRANCH   6   8
ENDBRANCH   5   6
ENDBRANCH   4   5
ENDBRANCH   3   4
ENDBRANCH   2   3
ENDBRANCH   1   2
BRANCH   1  29
ATOM     29  C   UNL A   1      39.665  21.134  26.363  1.00  0.00     0.188 C 
BRANCH  29  30
ATOM     30  O   UNL A   1      40.381  21.579  27.506  1.00  0.00    -0.376 OA
BRANCH  30  31
ATOM     31  C   UNL A   1      41.744  21.153  27.603  1.00  0.00     0.202 C 
BRANCH  31  32
ATOM     32  C   UNL A   1      42.784  22.039  26.874  1.00  0.00     0.261 C 
BRANCH  32  33
ATOM     33  O   UNL A   1      43.057  23.319  27.489  1.00  0.00    -0.460 OA
BRANCH  33  34
ATOM     34  C   UNL A   1      42.730  24.426  26.779  1.00  0.00     0.338 C 
ATOM     35  O   UNL A   1      42.642  24.496  25.564  1.00  0.00    -0.246 OA
BRANCH  34  36
ATOM     36  C   UNL A   1      42.214  25.470  27.710  1.00  0.00     0.060 A 
ATOM     37  C   UNL A   1      43.013  26.601  27.924  1.00  0.00     0.016 A 
ATOM     38  C   UNL A   1      40.958  25.387  28.318  1.00  0.00     0.016 A 
ATOM     39  C   UNL A   1      42.591  27.615  28.789  1.00  0.00     0.010 A 
ATOM     40  C   UNL A   1      40.538  26.402  29.195  1.00  0.00     0.010 A 
ATOM     41  C   UNL A   1      41.371  27.503  29.469  1.00  0.00    -0.014 A 
BRANCH  41  42
ATOM     42  C   UNL A   1      41.077  28.434  30.594  1.00  0.00     0.031 A 
ATOM     43  C   UNL A   1      41.908  28.332  31.850  1.00  0.00     0.074 A 
ATOM     44  C   UNL A   1      40.144  29.400  30.496  1.00  0.00     0.049 A 
ATOM     45  N   UNL A   1      41.878  29.067  32.932  1.00  0.00    -0.248 NA
ATOM     46  C   UNL A   1      42.911  27.254  31.884  1.00  0.00     0.031 C 
ATOM     47  C   UNL A   1      39.282  29.632  29.339  1.00  0.00     0.029 A 
ATOM     48  N   UNL A   1      39.770  30.373  31.393  1.00  0.00    -0.354 N 
ATOM     49  C   UNL A   1      42.856  28.547  33.773  1.00  0.00     0.074 A 
ATOM     50  C   UNL A   1      43.433  27.409  33.092  1.00  0.00     0.031 C 
ATOM     51  C   UNL A   1      38.479  30.682  29.597  1.00  0.00     0.029 A 
ATOM     52  C   UNL A   1      38.755  31.186  30.942  1.00  0.00     0.049 A 
ATOM     53  H   UNL A   1      40.190  30.480  32.277  1.00  0.00     0.167 HD
ATOM     54  C   UNL A   1      43.252  28.983  34.993  1.00  0.00     0.037 A 
ATOM     55  C   UNL A   1      38.119  32.212  31.545  1.00  0.00     0.037 A 
ATOM     56  C   UNL A   1      42.678  30.110  35.682  1.00  0.00     0.049 A 
ATOM     57  C   UNL A   1      38.541  32.646  32.928  1.00  0.00     0.074 A 
ATOM     58  C   UNL A   1      43.028  30.633  36.915  1.00  0.00     0.029 A 
ATOM     59  N   UNL A   1      41.630  30.882  35.206  1.00  0.00    -0.354 N 
ATOM     60  N   UNL A   1      39.491  32.165  33.694  1.00  0.00    -0.248 NA
ATOM     61  C   UNL A   1      37.808  33.774  33.522  1.00  0.00     0.031 C 
ATOM     62  C   UNL A   1      42.157  31.690  37.208  1.00  0.00     0.029 A 
ATOM     63  C   UNL A   1      41.303  31.862  36.131  1.00  0.00     0.049 A 
ATOM     64  H   UNL A   1      41.183  30.754  34.339  1.00  0.00     0.167 HD
ATOM     65  C   UNL A   1      39.486  32.947  34.847  1.00  0.00     0.074 A 
ATOM     66  C   UNL A   1      38.453  33.945  34.667  1.00  0.00     0.031 C 
ATOM     67  C   UNL A   1      40.267  32.849  35.952  1.00  0.00     0.037 A 
BRANCH  54  68
ATOM     68  C   UNL A   1      44.352  28.217  35.677  1.00  0.00     0.058 A 
ATOM     69  C   UNL A   1      44.078  27.201  36.608  1.00  0.00     0.135 A 
ATOM     70  C   UNL A   1      45.698  28.482  35.377  1.00  0.00     0.135 A 
ATOM     71  F   UNL A   1      42.810  26.920  36.948  1.00  0.00    -0.206 F 
ATOM     72  C   UNL A   1      45.098  26.496  37.236  1.00  0.00     0.059 A 
ATOM     73  C   UNL A   1      46.734  27.769  35.972  1.00  0.00     0.059 A 
ATOM     74  F   UNL A   1      46.017  29.444  34.497  1.00  0.00    -0.206 F 
ATOM     75  C   UNL A   1      46.424  26.787  36.912  1.00  0.00     0.060 A 
BRANCH  75  76
ATOM     76  S   UNL A   1      47.738  25.860  37.734  1.00  0.00     0.124 S 
ATOM     77  O   UNL A   1      47.701  26.434  39.075  1.00  0.00    -0.237 OA
ATOM     78  O   UNL A   1      47.266  24.484  37.619  1.00  0.00    -0.237 OA
ATOM     79  O   UNL A   1      48.925  26.181  36.947  1.00  0.00    -0.744 OA
ENDBRANCH  75  76
ENDBRANCH  54  68
BRANCH  55  80
ATOM     80  C   UNL A   1      37.004  32.913  30.848  1.00  0.00     0.058 A 
ATOM     81  C   UNL A   1      35.675  32.478  30.972  1.00  0.00     0.135 A 
ATOM     82  C   UNL A   1      37.250  34.021  30.022  1.00  0.00     0.135 A 
ATOM     83  F   UNL A   1      35.389  31.411  31.736  1.00  0.00    -0.206 F 
ATOM     84  C   UNL A   1      34.634  33.104  30.294  1.00  0.00     0.059 A 
ATOM     85  C   UNL A   1      36.223  34.682  29.355  1.00  0.00     0.059 A 
ATOM     86  F   UNL A   1      38.502  34.480  29.870  1.00  0.00    -0.206 F 
ATOM     87  C   UNL A   1      34.918  34.209  29.490  1.00  0.00     0.060 A 
BRANCH  87  88
ATOM     88  S   UNL A   1      33.553  35.049  28.656  1.00  0.00     0.124 S 
ATOM     89  O   UNL A   1      34.096  35.233  27.315  1.00  0.00    -0.237 OA
ATOM     90  O   UNL A   1      32.474  34.074  28.780  1.00  0.00    -0.237 OA
ATOM     91  O   UNL A   1      33.381  36.267  29.441  1.00  0.00    -0.744 OA
ENDBRANCH  87  88
ENDBRANCH  55  80
BRANCH  67  92
ATOM     92  C   UNL A   1      40.055  33.868  37.044  1.00  0.00     0.058 A 
ATOM     93  C   UNL A   1      39.170  33.640  38.110  1.00  0.00     0.135 A 
ATOM     94  C   UNL A   1      40.750  35.089  37.025  1.00  0.00     0.135 A 
ATOM     95  F   UNL A   1      38.481  32.489  38.182  1.00  0.00    -0.206 F 
ATOM     96  C   UNL A   1      38.941  34.604  39.088  1.00  0.00     0.059 A 
ATOM     97  C   UNL A   1      40.560  36.055  38.009  1.00  0.00     0.059 A 
ATOM     98  F   UNL A   1      41.623  35.355  36.041  1.00  0.00    -0.206 F 
ATOM     99  C   UNL A   1      39.634  35.814  39.023  1.00  0.00     0.060 A 
BRANCH  99 100
ATOM    100  S   UNL A   1      39.311  37.070  40.279  1.00  0.00     0.124 S 
ATOM    101  O   UNL A   1      40.656  37.349  40.767  1.00  0.00    -0.237 OA
ATOM    102  O   UNL A   1      38.684  38.136  39.504  1.00  0.00    -0.237 OA
ATOM    103  O   UNL A   1      38.428  36.388  41.222  1.00  0.00    -0.744 OA
ENDBRANCH  99 100
ENDBRANCH  67  92
ENDBRANCH  41  42
ENDBRANCH  34  36
ENDBRANCH  33  34
ENDBRANCH  32  33
ENDBRANCH  31  32
ENDBRANCH  30  31
ENDBRANCH  29  30
ENDBRANCH   1  29
TORSDOF 25
ENDMDL
MODEL 3
REMARK VINA RESULT:      -9.4      6.062     11.791
REMARK SMILES CCC[C@]1(C(=O)NC[C@@H]2CC[C@H](C(=O)OCCOCCOCCOC(=O)c3ccc(-c4c5nc(c(-c6c(F)cc(S(=O)(=O)[O-])cc6F)c6ccc([nH]6)c(-c6c(F)cc(S(=O)(=O)[O-])cc6F)c6nc(c(-c7c(F)cc(S(=O)(=O)[O-])cc7F)c7ccc4[nH]7)C=C6)C=C5)cc3)O2)CCC[NH2+]C1
REMARK SMILES IDX 19 1 18 2 17 3 16 4 15 5 13 6 14 7 12 8 9 9 10 10 93 11
REMARK SMILES IDX 11 12 8 13 7 14 5 15 6 16 4 18 94 19 98 20 95 21 97 22 96 23
REMARK SMILES IDX 3 26 2 27 1 28 20 29 21 30 22 31 23 32 24 33 25 34 26 35
REMARK SMILES IDX 27 36 28 37 92 38 29 39 91 40 30 41 31 42 32 43 85 44 33 45
REMARK SMILES IDX 90 46 84 47 86 48 34 49 89 50 83 51 82 52 35 54 69 55 48 56
REMARK SMILES IDX 68 57 49 58 52 59 67 60 87 61 50 62 51 63 66 65 88 66 53 67
REMARK SMILES IDX 36 68 37 69 46 70 38 71 39 72 45 73 47 74 40 75 41 76 42 77
REMARK SMILES IDX 43 78 44 79 70 80 71 81 80 82 72 83 73 84 79 85 81 86 74 87
REMARK SMILES IDX 75 88 76 89 77 90 78 91 54 92 55 93 64 94 56 95 57 96 63 97
REMARK SMILES IDX 65 98 58 99 59 100 60 101 61 102 62 103
REMARK H PARENT 7 17 97 24 97 25 86 53 52 64
REMARK Flexibility Score: inf
ROOT
ATOM      1  C   UNL A   1      40.506  20.653  26.245  1.00  0.00     0.188 C 
ENDROOT
BRANCH   1   2
ATOM      2  O   UNL A   1      39.178  20.829  25.772  1.00  0.00    -0.376 OA
BRANCH   2   3
ATOM      3  C   UNL A   1      38.573  22.100  25.990  1.00  0.00     0.202 C 
BRANCH   3   4
ATOM      4  C   UNL A   1      37.242  22.393  25.277  1.00  0.00     0.261 C 
BRANCH   4   5
ATOM      5  O   UNL A   1      36.049  21.940  25.953  1.00  0.00    -0.461 OA
BRANCH   5   6
ATOM      6  C   UNL A   1      34.912  22.631  25.643  1.00  0.00     0.335 C 
ATOM      7  O   UNL A   1      34.507  23.598  26.282  1.00  0.00    -0.249 OA
BRANCH   6   8
ATOM      8  C   UNL A   1      34.127  22.070  24.446  1.00  0.00     0.228 C 
ATOM      9  C   UNL A   1      31.860  22.645  24.475  1.00  0.00     0.138 C 
ATOM     10  C   UNL A   1      32.026  21.286  25.139  1.00  0.00     0.037 C 
ATOM     11  O   UNL A   1      33.170  23.076  24.069  1.00  0.00    -0.361 OA
ATOM     12  C   UNL A   1      33.331  20.789  24.588  1.00  0.00     0.047 C 
BRANCH   9  13
ATOM     13  C   UNL A   1      31.232  23.701  25.401  1.00  0.00     0.147 C 
BRANCH  13  14
ATOM     14  N   UNL A   1      30.470  24.680  24.640  1.00  0.00    -0.353 N 
ATOM     15  C   UNL A   1      30.357  26.030  24.705  1.00  0.00     0.232 C 
ATOM     16  O   UNL A   1      29.236  26.452  24.402  1.00  0.00    -0.274 OA
ATOM     17  H   UNL A   1      29.922  24.279  23.927  1.00  0.00     0.163 HD
BRANCH  15  18
ATOM     18  C   UNL A   1      31.465  26.989  25.200  1.00  0.00     0.098 C 
ATOM     19  C   UNL A   1      31.075  28.402  24.696  1.00  0.00     0.028 C 
ATOM     20  C   UNL A   1      31.639  26.994  26.739  1.00  0.00     0.277 C 
ATOM     21  C   UNL A   1      31.843  29.547  25.348  1.00  0.00     0.063 C 
ATOM     22  N   UNL A   1      32.463  28.109  27.236  1.00  0.00    -0.345 N 
ATOM     23  C   UNL A   1      31.879  29.398  26.861  1.00  0.00     0.260 C 
ATOM     24  H   UNL A   1      32.525  28.052  28.253  1.00  0.00     0.346 HD
ATOM     25  H   UNL A   1      33.392  28.040  26.820  1.00  0.00     0.346 HD
BRANCH  18  26
ATOM     26  C   UNL A   1      32.825  26.619  24.502  1.00  0.00     0.022 C 
BRANCH  26  27
ATOM     27  C   UNL A   1      32.971  26.831  22.984  1.00  0.00    -0.002 C 
ATOM     28  C   UNL A   1      33.776  28.050  22.561  1.00  0.00     0.004 C 
ENDBRANCH  26  27
ENDBRANCH  18  26
ENDBRANCH  15  18
ENDBRANCH  13  14
ENDBRANCH   9  13
ENDBRANCH   6   8
ENDBRANCH   5   6
ENDBRANCH   4   5
ENDBRANCH   3   4
ENDBRANCH   2   3
ENDBRANCH   1   2
BRANCH   1  29
ATOM     29  C   UNL A   1      40.863  21.310  27.581  1.00  0.00     0.188 C 
BRANCH  29  30
ATOM     30  O   UNL A   1      42.054  22.084  27.592  1.00  0.00    -0.376 OA
BRANCH  30  31
ATOM     31  C   UNL A   1      42.434  22.676  26.346  1.00  0.00     0.202 C 
BRANCH  31  32
ATOM     32  C   UNL A   1      41.811  24.060  26.036  1.00  0.00     0.261 C 
BRANCH  32  33
ATOM     33  O   UNL A   1      42.751  25.124  25.763  1.00  0.00    -0.460 OA
BRANCH  33  34
ATOM     34  C   UNL A   1      43.707  25.355  26.695  1.00  0.00     0.338 C 
ATOM     35  O   UNL A   1      44.891  25.081  26.589  1.00  0.00    -0.246 OA
BRANCH  34  36
ATOM     36  C   UNL A   1      43.155  26.253  27.749  1.00  0.00     0.060 A 
ATOM     37  C   UNL A   1      43.608  27.580  27.774  1.00  0.00     0.016 A 
ATOM     38  C   UNL A   1      42.175  25.842  28.658  1.00  0.00     0.016 A 
ATOM     39  C   UNL A   1      43.135  28.473  28.740  1.00  0.00     0.010 A 
ATOM     40  C   UNL A   1      41.707  26.737  29.634  1.00  0.00     0.010 A 
ATOM     41  C   UNL A   1      42.216  28.047  29.708  1.00  0.00    -0.014 A 
BRANCH  41  42
ATOM     42  C   UNL A   1      41.950  28.915  30.890  1.00  0.00     0.031 A 
ATOM     43  C   UNL A   1      40.752  29.831  30.857  1.00  0.00     0.074 A 
ATOM     44  C   UNL A   1      42.704  28.854  32.004  1.00  0.00     0.049 A 
ATOM     45  N   UNL A   1      40.287  30.630  31.782  1.00  0.00    -0.248 NA
ATOM     46  C   UNL A   1      39.972  29.842  29.607  1.00  0.00     0.031 C 
ATOM     47  C   UNL A   1      43.877  28.002  32.189  1.00  0.00     0.029 A 
ATOM     48  N   UNL A   1      42.587  29.526  33.198  1.00  0.00    -0.354 N 
ATOM     49  C   UNL A   1      39.162  31.235  31.233  1.00  0.00     0.074 A 
ATOM     50  C   UNL A   1      39.038  30.741  29.879  1.00  0.00     0.031 C 
ATOM     51  C   UNL A   1      44.372  28.203  33.425  1.00  0.00     0.029 A 
ATOM     52  C   UNL A   1      43.565  29.210  34.114  1.00  0.00     0.049 A 
ATOM     53  H   UNL A   1      41.870  30.175  33.382  1.00  0.00     0.167 HD
ATOM     54  C   UNL A   1      38.298  32.110  31.803  1.00  0.00     0.037 A 
ATOM     55  C   UNL A   1      43.787  29.681  35.359  1.00  0.00     0.037 A 
ATOM     56  C   UNL A   1      38.417  32.613  33.147  1.00  0.00     0.049 A 
ATOM     57  C   UNL A   1      42.842  30.696  35.955  1.00  0.00     0.074 A 
ATOM     58  C   UNL A   1      37.579  33.490  33.815  1.00  0.00     0.029 A 
ATOM     59  N   UNL A   1      39.440  32.295  34.028  1.00  0.00    -0.354 N 
ATOM     60  N   UNL A   1      41.764  31.231  35.433  1.00  0.00    -0.248 NA
ATOM     61  C   UNL A   1      43.141  31.162  37.317  1.00  0.00     0.031 C 
ATOM     62  C   UNL A   1      38.123  33.742  35.080  1.00  0.00     0.029 A 
ATOM     63  C   UNL A   1      39.269  32.976  35.223  1.00  0.00     0.049 A 
ATOM     64  H   UNL A   1      40.180  31.676  33.833  1.00  0.00     0.167 HD
ATOM     65  C   UNL A   1      41.243  32.075  36.413  1.00  0.00     0.074 A 
ATOM     66  C   UNL A   1      42.114  31.962  37.564  1.00  0.00     0.031 C 
ATOM     67  C   UNL A   1      40.143  32.869  36.364  1.00  0.00     0.037 A 
BRANCH  54  68
ATOM     68  C   UNL A   1      37.152  32.600  30.960  1.00  0.00     0.058 A 
ATOM     69  C   UNL A   1      35.879  32.012  31.029  1.00  0.00     0.135 A 
ATOM     70  C   UNL A   1      37.322  33.692  30.093  1.00  0.00     0.135 A 
ATOM     71  F   UNL A   1      35.665  30.953  31.826  1.00  0.00    -0.206 F 
ATOM     72  C   UNL A   1      34.823  32.470  30.248  1.00  0.00     0.059 A 
ATOM     73  C   UNL A   1      36.272  34.184  29.323  1.00  0.00     0.059 A 
ATOM     74  F   UNL A   1      38.519  34.289  29.985  1.00  0.00    -0.206 F 
ATOM     75  C   UNL A   1      35.030  33.557  29.398  1.00  0.00     0.060 A 
BRANCH  75  76
ATOM     76  S   UNL A   1      33.648  34.142  28.394  1.00  0.00     0.124 S 
ATOM     77  O   UNL A   1      34.302  35.141  27.555  1.00  0.00    -0.237 OA
ATOM     78  O   UNL A   1      33.220  32.924  27.713  1.00  0.00    -0.237 OA
ATOM     79  O   UNL A   1      32.709  34.669  29.380  1.00  0.00    -0.744 OA
ENDBRANCH  75  76
ENDBRANCH  54  68
BRANCH  55  80
ATOM     80  C   UNL A   1      44.961  29.201  36.141  1.00  0.00     0.058 A 
ATOM     81  C   UNL A   1      44.863  28.098  37.003  1.00  0.00     0.135 A 
ATOM     82  C   UNL A   1      46.201  29.855  36.060  1.00  0.00     0.135 A 
ATOM     83  F   UNL A   1      43.694  27.449  37.130  1.00  0.00    -0.206 F 
ATOM     84  C   UNL A   1      45.945  27.667  37.765  1.00  0.00     0.059 A 
ATOM     85  C   UNL A   1      47.305  29.427  36.791  1.00  0.00     0.059 A 
ATOM     86  F   UNL A   1      46.350  30.914  35.250  1.00  0.00    -0.206 F 
ATOM     87  C   UNL A   1      47.164  28.337  37.649  1.00  0.00     0.060 A 
BRANCH  87  88
ATOM     88  S   UNL A   1      48.577  27.739  38.603  1.00  0.00     0.124 S 
ATOM     89  O   UNL A   1      48.976  26.566  37.833  1.00  0.00    -0.237 OA
ATOM     90  O   UNL A   1      49.486  28.879  38.548  1.00  0.00    -0.237 OA
ATOM     91  O   UNL A   1      48.002  27.467  39.917  1.00  0.00    -0.744 OA
ENDBRANCH  87  88
ENDBRANCH  55  80
BRANCH  67  92
ATOM     92  C   UNL A   1      39.801  33.656  37.603  1.00  0.00     0.058 A 
ATOM     93  C   UNL A   1      40.354  34.923  37.854  1.00  0.00     0.135 A 
ATOM     94  C   UNL A   1      38.905  33.139  38.553  1.00  0.00     0.135 A 
ATOM     95  F   UNL A   1      41.215  35.469  36.980  1.00  0.00    -0.206 F 
ATOM     96  C   UNL A   1      40.074  35.624  39.024  1.00  0.00     0.059 A 
ATOM     97  C   UNL A   1      38.585  33.836  39.715  1.00  0.00     0.059 A 
ATOM     98  F   UNL A   1      38.330  31.942  38.359  1.00  0.00    -0.206 F 
ATOM     99  C   UNL A   1      39.195  35.066  39.954  1.00  0.00     0.060 A 
BRANCH  99 100
ATOM    100  S   UNL A   1      38.857  35.970  41.480  1.00  0.00     0.124 S 
ATOM    101  O   UNL A   1      39.938  35.505  42.342  1.00  0.00    -0.237 OA
ATOM    102  O   UNL A   1      38.944  37.361  41.048  1.00  0.00    -0.237 OA
ATOM    103  O   UNL A   1      37.518  35.520  41.852  1.00  0.00    -0.744 OA
ENDBRANCH  99 100
ENDBRANCH  67  92
ENDBRANCH  41  42
ENDBRANCH  34  36
ENDBRANCH  33  34
ENDBRANCH  32  33
ENDBRANCH  31  32
ENDBRANCH  30  31
ENDBRANCH  29  30
ENDBRANCH   1  29
TORSDOF 25
ENDMDL
