MODEL 1
REMARK VINA RESULT:     -11.0      0.000      0.000
REMARK SMILES O=Cc1c(OCc2ccc(C(=O)OCCOCCOCCOC(=O)c3ccc(-c4c5nc(c(-c6c(F)cc(S(=O)(=O)[O-])cc6F)c6ccc([nH]6)c(-c6c(F)cc(S(=O)(=O)[O-])cc6F)c6nc(c(-c7c(F)cc(S(=O)(=O)[O-])cc7F)c7ccc4[nH]7)C=C6)C=C5)cc3)cc2)ccc2ccccc12
REMARK SMILES IDX 17 1 16 2 15 3 14 4 13 5 11 6 12 7 10 8 7 9 8 10 92 11 9 12
REMARK SMILES IDX 91 13 6 14 5 15 4 16 3 17 100 18 93 19 95 20 99 21 94 22
REMARK SMILES IDX 96 23 98 24 97 25 2 26 1 27 18 28 19 29 20 30 21 31 22 32
REMARK SMILES IDX 23 33 24 34 25 35 26 36 90 37 27 38 89 39 28 40 29 41 30 42
REMARK SMILES IDX 83 43 31 44 88 45 82 46 84 47 32 48 87 49 81 50 80 51 33 53
REMARK SMILES IDX 67 54 46 55 66 56 47 57 50 58 65 59 85 60 48 61 49 62 64 64
REMARK SMILES IDX 86 65 51 66 34 67 35 68 44 69 36 70 37 71 43 72 45 73 38 74
REMARK SMILES IDX 39 75 40 76 41 77 42 78 68 79 69 80 78 81 70 82 71 83 77 84
REMARK SMILES IDX 79 85 72 86 73 87 74 88 75 89 76 90 52 91 53 92 62 93 54 94
REMARK SMILES IDX 55 95 61 96 63 97 56 98 57 99 58 100 59 101 60 102
REMARK H PARENT 84 52 50 63
REMARK Flexibility Score: inf
ROOT
ATOM      1  C   UNL A   1      44.506  19.586  25.046  1.00  0.00     0.188 C 
ENDROOT
BRANCH   1   2
ATOM      2  O   UNL A   1      43.181  19.122  24.959  1.00  0.00    -0.376 OA
BRANCH   2   3
ATOM      3  C   UNL A   1      42.496  18.698  26.123  1.00  0.00     0.202 C 
BRANCH   3   4
ATOM      4  C   UNL A   1      41.562  19.582  26.975  1.00  0.00     0.261 C 
BRANCH   4   5
ATOM      5  O   UNL A   1      40.737  20.540  26.310  1.00  0.00    -0.460 OA
BRANCH   5   6
ATOM      6  C   UNL A   1      40.507  21.699  26.967  1.00  0.00     0.338 C 
ATOM      7  O   UNL A   1      41.256  22.242  27.772  1.00  0.00    -0.246 OA
BRANCH   6   8
ATOM      8  C   UNL A   1      39.271  22.319  26.446  1.00  0.00     0.060 A 
ATOM      9  C   UNL A   1      36.942  23.569  25.479  1.00  0.00    -0.011 A 
ATOM     10  C   UNL A   1      37.799  24.239  26.367  1.00  0.00     0.008 A 
ATOM     11  C   UNL A   1      37.271  22.261  25.086  1.00  0.00     0.008 A 
ATOM     12  C   UNL A   1      38.950  23.617  26.856  1.00  0.00     0.016 A 
ATOM     13  C   UNL A   1      38.440  21.644  25.548  1.00  0.00     0.016 A 
BRANCH   9  14
ATOM     14  C   UNL A   1      35.670  24.269  25.027  1.00  0.00     0.265 C 
BRANCH  14  15
ATOM     15  O   UNL A   1      34.460  23.771  25.603  1.00  0.00    -0.488 OA
BRANCH  15  16
ATOM     16  C   UNL A   1      33.788  22.741  25.002  1.00  0.00     0.130 A 
ATOM     17  C   UNL A   1      33.704  21.533  25.720  1.00  0.00     0.064 A 
ATOM     18  C   UNL A   1      33.198  20.342  25.127  1.00  0.00    -0.004 A 
ATOM     19  C   UNL A   1      33.277  22.790  23.706  1.00  0.00     0.048 A 
ATOM     20  C   UNL A   1      32.743  20.414  23.789  1.00  0.00    -0.017 A 
ATOM     21  C   UNL A   1      33.116  19.085  25.779  1.00  0.00     0.009 A 
ATOM     22  C   UNL A   1      32.767  21.637  23.108  1.00  0.00     0.012 A 
ATOM     23  C   UNL A   1      32.271  19.262  23.142  1.00  0.00     0.009 A 
ATOM     24  C   UNL A   1      32.646  17.947  25.121  1.00  0.00     0.001 A 
ATOM     25  C   UNL A   1      32.230  18.034  23.799  1.00  0.00     0.001 A 
BRANCH  17  26
ATOM     26  C   UNL A   1      34.221  21.484  27.107  1.00  0.00     0.264 C 
ATOM     27  O   UNL A   1      34.028  22.368  27.933  1.00  0.00    -0.298 OA
ENDBRANCH  17  26
ENDBRANCH  15  16
ENDBRANCH  14  15
ENDBRANCH   9  14
ENDBRANCH   6   8
ENDBRANCH   5   6
ENDBRANCH   4   5
ENDBRANCH   3   4
ENDBRANCH   2   3
ENDBRANCH   1   2
BRANCH   1  28
ATOM     28  C   UNL A   1      44.656  21.100  24.786  1.00  0.00     0.188 C 
BRANCH  28  29
ATOM     29  O   UNL A   1      43.507  21.926  24.661  1.00  0.00    -0.376 OA
BRANCH  29  30
ATOM     30  C   UNL A   1      43.652  23.339  24.614  1.00  0.00     0.202 C 
BRANCH  30  31
ATOM     31  C   UNL A   1      43.367  24.222  25.842  1.00  0.00     0.261 C 
BRANCH  31  32
ATOM     32  O   UNL A   1      42.104  24.899  25.862  1.00  0.00    -0.460 OA
BRANCH  32  33
ATOM     33  C   UNL A   1      42.169  26.249  25.785  1.00  0.00     0.338 C 
ATOM     34  O   UNL A   1      42.102  26.937  24.774  1.00  0.00    -0.246 OA
BRANCH  33  35
ATOM     35  C   UNL A   1      42.161  26.821  27.142  1.00  0.00     0.060 A 
ATOM     36  C   UNL A   1      41.216  26.345  28.061  1.00  0.00     0.016 A 
ATOM     37  C   UNL A   1      43.032  27.855  27.490  1.00  0.00     0.016 A 
ATOM     38  C   UNL A   1      41.120  26.920  29.326  1.00  0.00     0.010 A 
ATOM     39  C   UNL A   1      42.920  28.446  28.752  1.00  0.00     0.010 A 
ATOM     40  C   UNL A   1      41.943  28.001  29.663  1.00  0.00    -0.014 A 
BRANCH  40  41
ATOM     41  C   UNL A   1      41.657  28.784  30.889  1.00  0.00     0.031 A 
ATOM     42  C   UNL A   1      40.500  29.745  30.872  1.00  0.00     0.074 A 
ATOM     43  C   UNL A   1      42.398  28.632  32.001  1.00  0.00     0.049 A 
ATOM     44  N   UNL A   1      40.092  30.571  31.800  1.00  0.00    -0.248 NA
ATOM     45  C   UNL A   1      39.698  29.782  29.638  1.00  0.00     0.031 C 
ATOM     46  C   UNL A   1      43.516  27.704  32.152  1.00  0.00     0.029 A 
ATOM     47  N   UNL A   1      42.323  29.271  33.214  1.00  0.00    -0.354 N 
ATOM     48  C   UNL A   1      38.993  31.230  31.262  1.00  0.00     0.074 A 
ATOM     49  C   UNL A   1      38.816  30.730  29.916  1.00  0.00     0.031 C 
ATOM     50  C   UNL A   1      44.035  27.846  33.385  1.00  0.00     0.029 A 
ATOM     51  C   UNL A   1      43.306  28.895  34.096  1.00  0.00     0.049 A 
ATOM     52  H   UNL A   1      41.629  29.934  33.431  1.00  0.00     0.167 HD
ATOM     53  C   UNL A   1      38.200  32.164  31.840  1.00  0.00     0.037 A 
ATOM     54  C   UNL A   1      43.599  29.365  35.325  1.00  0.00     0.037 A 
ATOM     55  C   UNL A   1      38.386  32.662  33.177  1.00  0.00     0.049 A 
ATOM     56  C   UNL A   1      42.745  30.453  35.924  1.00  0.00     0.074 A 
ATOM     57  C   UNL A   1      37.630  33.599  33.859  1.00  0.00     0.029 A 
ATOM     58  N   UNL A   1      39.407  32.273  34.032  1.00  0.00    -0.354 N 
ATOM     59  N   UNL A   1      41.695  31.055  35.414  1.00  0.00    -0.248 NA
ATOM     60  C   UNL A   1      43.111  30.925  37.267  1.00  0.00     0.031 C 
ATOM     61  C   UNL A   1      38.223  33.815  35.108  1.00  0.00     0.029 A 
ATOM     62  C   UNL A   1      39.315  32.968  35.227  1.00  0.00     0.049 A 
ATOM     63  H   UNL A   1      40.096  31.602  33.822  1.00  0.00     0.167 HD
ATOM     64  C   UNL A   1      41.258  31.950  36.386  1.00  0.00     0.074 A 
ATOM     65  C   UNL A   1      42.152  31.807  37.516  1.00  0.00     0.031 C 
ATOM     66  C   UNL A   1      40.207  32.808  36.349  1.00  0.00     0.037 A 
BRANCH  53  67
ATOM     67  C   UNL A   1      37.080  32.729  31.011  1.00  0.00     0.058 A 
ATOM     68  C   UNL A   1      37.309  33.678  30.002  1.00  0.00     0.135 A 
ATOM     69  C   UNL A   1      35.758  32.302  31.221  1.00  0.00     0.135 A 
ATOM     70  F   UNL A   1      38.551  34.135  29.773  1.00  0.00    -0.206 F 
ATOM     71  C   UNL A   1      36.265  34.206  29.251  1.00  0.00     0.059 A 
ATOM     72  C   UNL A   1      34.702  32.798  30.462  1.00  0.00     0.059 A 
ATOM     73  F   UNL A   1      35.481  31.401  32.175  1.00  0.00    -0.206 F 
ATOM     74  C   UNL A   1      34.964  33.761  29.490  1.00  0.00     0.060 A 
BRANCH  74  75
ATOM     75  S   UNL A   1      33.619  34.463  28.511  1.00  0.00     0.124 S 
ATOM     76  O   UNL A   1      34.280  35.603  27.883  1.00  0.00    -0.237 OA
ATOM     77  O   UNL A   1      33.273  33.361  27.621  1.00  0.00    -0.237 OA
ATOM     78  O   UNL A   1      32.610  34.799  29.512  1.00  0.00    -0.744 OA
ENDBRANCH  74  75
ENDBRANCH  53  67
BRANCH  54  79
ATOM     79  C   UNL A   1      44.761  28.814  36.074  1.00  0.00     0.058 A 
ATOM     80  C   UNL A   1      44.614  27.723  36.943  1.00  0.00     0.135 A 
ATOM     81  C   UNL A   1      46.044  29.368  35.933  1.00  0.00     0.135 A 
ATOM     82  F   UNL A   1      43.406  27.167  37.121  1.00  0.00    -0.206 F 
ATOM     83  C   UNL A   1      45.692  27.208  37.656  1.00  0.00     0.059 A 
ATOM     84  C   UNL A   1      47.143  28.853  36.613  1.00  0.00     0.059 A 
ATOM     85  F   UNL A   1      46.241  30.408  35.107  1.00  0.00    -0.206 F 
ATOM     86  C   UNL A   1      46.955  27.778  37.479  1.00  0.00     0.060 A 
BRANCH  86  87
ATOM     87  S   UNL A   1      48.356  27.065  38.368  1.00  0.00     0.124 S 
ATOM     88  O   UNL A   1      48.961  26.225  37.342  1.00  0.00    -0.237 OA
ATOM     89  O   UNL A   1      49.113  28.254  38.749  1.00  0.00    -0.237 OA
ATOM     90  O   UNL A   1      47.723  26.354  39.475  1.00  0.00    -0.744 OA
ENDBRANCH  86  87
ENDBRANCH  54  79
BRANCH  66  91
ATOM     91  C   UNL A   1      39.930  33.629  37.582  1.00  0.00     0.058 A 
ATOM     92  C   UNL A   1      40.581  34.847  37.825  1.00  0.00     0.135 A 
ATOM     93  C   UNL A   1      38.951  33.215  38.501  1.00  0.00     0.135 A 
ATOM     94  F   UNL A   1      41.528  35.287  36.982  1.00  0.00    -0.206 F 
ATOM     95  C   UNL A   1      40.290  35.615  38.949  1.00  0.00     0.059 A 
ATOM     96  C   UNL A   1      38.623  33.980  39.615  1.00  0.00     0.059 A 
ATOM     97  F   UNL A   1      38.288  32.062  38.310  1.00  0.00    -0.206 F 
ATOM     98  C   UNL A   1      39.307  35.174  39.838  1.00  0.00     0.060 A 
BRANCH  98  99
ATOM     99  S   UNL A   1      38.914  36.196  41.273  1.00  0.00     0.124 S 
ATOM    100  O   UNL A   1      38.625  37.483  40.648  1.00  0.00    -0.237 OA
ATOM    101  O   UNL A   1      37.768  35.500  41.849  1.00  0.00    -0.237 OA
ATOM    102  O   UNL A   1      40.136  36.145  42.071  1.00  0.00    -0.744 OA
ENDBRANCH  98  99
ENDBRANCH  66  91
ENDBRANCH  40  41
ENDBRANCH  33  35
ENDBRANCH  32  33
ENDBRANCH  31  32
ENDBRANCH  30  31
ENDBRANCH  29  30
ENDBRANCH  28  29
ENDBRANCH   1  28
TORSDOF 24
ENDMDL
MODEL 2
REMARK VINA RESULT:     -10.7      2.076      8.561
REMARK SMILES O=Cc1c(OCc2ccc(C(=O)OCCOCCOCCOC(=O)c3ccc(-c4c5nc(c(-c6c(F)cc(S(=O)(=O)[O-])cc6F)c6ccc([nH]6)c(-c6c(F)cc(S(=O)(=O)[O-])cc6F)c6nc(c(-c7c(F)cc(S(=O)(=O)[O-])cc7F)c7ccc4[nH]7)C=C6)C=C5)cc3)cc2)ccc2ccccc12
REMARK SMILES IDX 17 1 16 2 15 3 14 4 13 5 11 6 12 7 10 8 7 9 8 10 92 11 9 12
REMARK SMILES IDX 91 13 6 14 5 15 4 16 3 17 100 18 93 19 95 20 99 21 94 22
REMARK SMILES IDX 96 23 98 24 97 25 2 26 1 27 18 28 19 29 20 30 21 31 22 32
REMARK SMILES IDX 23 33 24 34 25 35 26 36 90 37 27 38 89 39 28 40 29 41 30 42
REMARK SMILES IDX 83 43 31 44 88 45 82 46 84 47 32 48 87 49 81 50 80 51 33 53
REMARK SMILES IDX 67 54 46 55 66 56 47 57 50 58 65 59 85 60 48 61 49 62 64 64
REMARK SMILES IDX 86 65 51 66 34 67 35 68 44 69 36 70 37 71 43 72 45 73 38 74
REMARK SMILES IDX 39 75 40 76 41 77 42 78 68 79 69 80 78 81 70 82 71 83 77 84
REMARK SMILES IDX 79 85 72 86 73 87 74 88 75 89 76 90 52 91 53 92 62 93 54 94
REMARK SMILES IDX 55 95 61 96 63 97 56 98 57 99 58 100 59 101 60 102
REMARK H PARENT 84 52 50 63
REMARK Flexibility Score: inf
ROOT
ATOM      1  C   UNL A   1      40.545  21.384  27.287  1.00  0.00     0.188 C 
ENDROOT
BRANCH   1   2
ATOM      2  O   UNL A   1      40.164  22.562  26.619  1.00  0.00    -0.376 OA
BRANCH   2   3
ATOM      3  C   UNL A   1      38.852  22.696  26.102  1.00  0.00     0.202 C 
BRANCH   3   4
ATOM      4  C   UNL A   1      37.997  21.543  25.539  1.00  0.00     0.261 C 
BRANCH   4   5
ATOM      5  O   UNL A   1      36.581  21.590  25.728  1.00  0.00    -0.460 OA
BRANCH   5   6
ATOM      6  C   UNL A   1      35.846  20.710  25.010  1.00  0.00     0.338 C 
ATOM      7  O   UNL A   1      36.069  19.512  24.876  1.00  0.00    -0.246 OA
BRANCH   6   8
ATOM      8  C   UNL A   1      34.619  21.378  24.530  1.00  0.00     0.060 A 
ATOM      9  C   UNL A   1      32.324  22.698  23.575  1.00  0.00    -0.011 A 
ATOM     10  C   UNL A   1      33.597  23.270  23.419  1.00  0.00     0.008 A 
ATOM     11  C   UNL A   1      32.221  21.455  24.220  1.00  0.00     0.008 A 
ATOM     12  C   UNL A   1      34.736  22.621  23.902  1.00  0.00     0.016 A 
ATOM     13  C   UNL A   1      33.362  20.785  24.677  1.00  0.00     0.016 A 
BRANCH   9  14
ATOM     14  C   UNL A   1      31.113  23.477  23.087  1.00  0.00     0.265 C 
BRANCH  14  15
ATOM     15  O   UNL A   1      30.470  24.288  24.073  1.00  0.00    -0.488 OA
BRANCH  15  16
ATOM     16  C   UNL A   1      30.845  25.594  24.238  1.00  0.00     0.130 A 
ATOM     17  C   UNL A   1      31.341  25.957  25.504  1.00  0.00     0.064 A 
ATOM     18  C   UNL A   1      31.585  27.316  25.853  1.00  0.00    -0.004 A 
ATOM     19  C   UNL A   1      30.674  26.586  23.273  1.00  0.00     0.048 A 
ATOM     20  C   UNL A   1      31.345  28.302  24.867  1.00  0.00    -0.017 A 
ATOM     21  C   UNL A   1      32.052  27.755  27.118  1.00  0.00     0.009 A 
ATOM     22  C   UNL A   1      30.917  27.923  23.589  1.00  0.00     0.012 A 
ATOM     23  C   UNL A   1      31.530  29.660  25.169  1.00  0.00     0.009 A 
ATOM     24  C   UNL A   1      32.230  29.111  27.404  1.00  0.00     0.001 A 
ATOM     25  C   UNL A   1      31.961  30.064  26.430  1.00  0.00     0.001 A 
BRANCH  17  26
ATOM     26  C   UNL A   1      31.549  24.904  26.525  1.00  0.00     0.264 C 
ATOM     27  O   UNL A   1      32.583  24.253  26.625  1.00  0.00    -0.298 OA
ENDBRANCH  17  26
ENDBRANCH  15  16
ENDBRANCH  14  15
ENDBRANCH   9  14
ENDBRANCH   6   8
ENDBRANCH   5   6
ENDBRANCH   4   5
ENDBRANCH   3   4
ENDBRANCH   2   3
ENDBRANCH   1   2
BRANCH   1  28
ATOM     28  C   UNL A   1      41.327  20.389  26.404  1.00  0.00     0.188 C 
BRANCH  28  29
ATOM     29  O   UNL A   1      42.391  20.844  25.578  1.00  0.00    -0.376 OA
BRANCH  29  30
ATOM     30  C   UNL A   1      43.563  21.388  26.169  1.00  0.00     0.202 C 
BRANCH  30  31
ATOM     31  C   UNL A   1      43.947  22.867  25.988  1.00  0.00     0.261 C 
BRANCH  31  32
ATOM     32  O   UNL A   1      43.202  23.819  26.760  1.00  0.00    -0.460 OA
BRANCH  32  33
ATOM     33  C   UNL A   1      42.888  24.966  26.116  1.00  0.00     0.338 C 
ATOM     34  O   UNL A   1      42.904  25.166  24.907  1.00  0.00    -0.246 OA
BRANCH  33  35
ATOM     35  C   UNL A   1      42.338  25.937  27.078  1.00  0.00     0.060 A 
ATOM     36  C   UNL A   1      42.836  27.246  27.062  1.00  0.00     0.016 A 
ATOM     37  C   UNL A   1      41.388  25.550  28.024  1.00  0.00     0.016 A 
ATOM     38  C   UNL A   1      42.404  28.170  28.011  1.00  0.00     0.010 A 
ATOM     39  C   UNL A   1      40.973  26.471  28.990  1.00  0.00     0.010 A 
ATOM     40  C   UNL A   1      41.502  27.775  29.006  1.00  0.00    -0.014 A 
BRANCH  40  41
ATOM     41  C   UNL A   1      41.258  28.664  30.167  1.00  0.00     0.031 A 
ATOM     42  C   UNL A   1      42.128  28.510  31.384  1.00  0.00     0.074 A 
ATOM     43  C   UNL A   1      40.294  29.601  30.135  1.00  0.00     0.049 A 
ATOM     44  N   UNL A   1      42.070  29.134  32.532  1.00  0.00    -0.248 NA
ATOM     45  C   UNL A   1      43.209  27.514  31.294  1.00  0.00     0.031 C 
ATOM     46  C   UNL A   1      39.414  29.873  29.000  1.00  0.00     0.029 A 
ATOM     47  N   UNL A   1      39.888  30.492  31.098  1.00  0.00    -0.354 N 
ATOM     48  C   UNL A   1      43.097  28.602  33.302  1.00  0.00     0.074 A 
ATOM     49  C   UNL A   1      43.744  27.585  32.503  1.00  0.00     0.031 C 
ATOM     50  C   UNL A   1      38.559  30.855  29.338  1.00  0.00     0.029 A 
ATOM     51  C   UNL A   1      38.810  31.256  30.722  1.00  0.00     0.049 A 
ATOM     52  H   UNL A   1      40.328  30.576  31.974  1.00  0.00     0.167 HD
ATOM     53  C   UNL A   1      43.470  28.935  34.561  1.00  0.00     0.037 A 
ATOM     54  C   UNL A   1      38.093  32.157  31.424  1.00  0.00     0.037 A 
ATOM     55  C   UNL A   1      42.817  29.944  35.353  1.00  0.00     0.049 A 
ATOM     56  C   UNL A   1      38.484  32.465  32.847  1.00  0.00     0.074 A 
ATOM     57  C   UNL A   1      43.127  30.364  36.635  1.00  0.00     0.029 A 
ATOM     58  N   UNL A   1      41.716  30.682  34.946  1.00  0.00    -0.354 N 
ATOM     59  N   UNL A   1      39.470  31.971  33.559  1.00  0.00    -0.248 NA
ATOM     60  C   UNL A   1      37.667  33.456  33.562  1.00  0.00     0.031 C 
ATOM     61  C   UNL A   1      42.181  31.321  37.022  1.00  0.00     0.029 A 
ATOM     62  C   UNL A   1      41.318  31.539  35.959  1.00  0.00     0.049 A 
ATOM     63  H   UNL A   1      41.280  30.607  34.066  1.00  0.00     0.167 HD
ATOM     64  C   UNL A   1      39.412  32.615  34.792  1.00  0.00     0.074 A 
ATOM     65  C   UNL A   1      38.297  33.537  34.727  1.00  0.00     0.031 C 
ATOM     66  C   UNL A   1      40.212  32.461  35.877  1.00  0.00     0.037 A 
BRANCH  53  67
ATOM     67  C   UNL A   1      44.619  28.176  35.167  1.00  0.00     0.058 A 
ATOM     68  C   UNL A   1      45.953  28.561  34.959  1.00  0.00     0.135 A 
ATOM     69  C   UNL A   1      44.379  27.057  35.981  1.00  0.00     0.135 A 
ATOM     70  F   UNL A   1      46.240  29.611  34.173  1.00  0.00    -0.206 F 
ATOM     71  C   UNL A   1      47.010  27.844  35.510  1.00  0.00     0.059 A 
ATOM     72  C   UNL A   1      45.420  26.343  36.565  1.00  0.00     0.059 A 
ATOM     73  F   UNL A   1      43.123  26.644  36.209  1.00  0.00    -0.206 F 
ATOM     74  C   UNL A   1      46.733  26.734  36.311  1.00  0.00     0.060 A 
BRANCH  74  75
ATOM     75  S   UNL A   1      48.116  25.810  37.012  1.00  0.00     0.124 S 
ATOM     76  O   UNL A   1      48.071  26.235  38.408  1.00  0.00    -0.237 OA
ATOM     77  O   UNL A   1      47.728  24.427  36.759  1.00  0.00    -0.237 OA
ATOM     78  O   UNL A   1      49.265  26.287  36.249  1.00  0.00    -0.744 OA
ENDBRANCH  74  75
ENDBRANCH  53  67
BRANCH  54  79
ATOM     79  C   UNL A   1      36.925  32.830  30.794  1.00  0.00     0.058 A 
ATOM     80  C   UNL A   1      35.615  32.394  31.042  1.00  0.00     0.135 A 
ATOM     81  C   UNL A   1      37.097  33.925  29.932  1.00  0.00     0.135 A 
ATOM     82  F   UNL A   1      35.400  31.344  31.848  1.00  0.00    -0.206 F 
ATOM     83  C   UNL A   1      34.518  33.011  30.449  1.00  0.00     0.059 A 
ATOM     84  C   UNL A   1      36.014  34.576  29.349  1.00  0.00     0.059 A 
ATOM     85  F   UNL A   1      38.330  34.387  29.668  1.00  0.00    -0.206 F 
ATOM     86  C   UNL A   1      34.728  34.105  29.607  1.00  0.00     0.060 A 
BRANCH  86  87
ATOM     87  S   UNL A   1      33.292  34.930  28.887  1.00  0.00     0.124 S 
ATOM     88  O   UNL A   1      33.910  36.068  28.217  1.00  0.00    -0.237 OA
ATOM     89  O   UNL A   1      32.749  33.892  28.016  1.00  0.00    -0.237 OA
ATOM     90  O   UNL A   1      32.472  35.251  30.052  1.00  0.00    -0.744 OA
ENDBRANCH  86  87
ENDBRANCH  54  79
BRANCH  66  91
ATOM     91  C   UNL A   1      39.949  33.340  37.071  1.00  0.00     0.058 A 
ATOM     92  C   UNL A   1      40.632  34.549  37.269  1.00  0.00     0.135 A 
ATOM     93  C   UNL A   1      38.951  32.993  37.999  1.00  0.00     0.135 A 
ATOM     94  F   UNL A   1      41.597  34.927  36.416  1.00  0.00    -0.206 F 
ATOM     95  C   UNL A   1      40.354  35.372  38.356  1.00  0.00     0.059 A 
ATOM     96  C   UNL A   1      38.637  33.814  39.077  1.00  0.00     0.059 A 
ATOM     97  F   UNL A   1      38.258  31.853  37.851  1.00  0.00    -0.206 F 
ATOM     98  C   UNL A   1      39.352  34.997  39.254  1.00  0.00     0.060 A 
BRANCH  98  99
ATOM     99  S   UNL A   1      38.978  36.090  40.641  1.00  0.00     0.124 S 
ATOM    100  O   UNL A   1      40.290  36.239  41.261  1.00  0.00    -0.237 OA
ATOM    101  O   UNL A   1      38.455  37.277  39.972  1.00  0.00    -0.237 OA
ATOM    102  O   UNL A   1      37.999  35.333  41.416  1.00  0.00    -0.744 OA
ENDBRANCH  98  99
ENDBRANCH  66  91
ENDBRANCH  40  41
ENDBRANCH  33  35
ENDBRANCH  32  33
ENDBRANCH  31  32
ENDBRANCH  30  31
ENDBRANCH  29  30
ENDBRANCH  28  29
ENDBRANCH   1  28
TORSDOF 24
ENDMDL
MODEL 3
REMARK VINA RESULT:     -10.6      1.981      3.468
REMARK SMILES O=Cc1c(OCc2ccc(C(=O)OCCOCCOCCOC(=O)c3ccc(-c4c5nc(c(-c6c(F)cc(S(=O)(=O)[O-])cc6F)c6ccc([nH]6)c(-c6c(F)cc(S(=O)(=O)[O-])cc6F)c6nc(c(-c7c(F)cc(S(=O)(=O)[O-])cc7F)c7ccc4[nH]7)C=C6)C=C5)cc3)cc2)ccc2ccccc12
REMARK SMILES IDX 17 1 16 2 15 3 14 4 13 5 11 6 12 7 10 8 7 9 8 10 92 11 9 12
REMARK SMILES IDX 91 13 6 14 5 15 4 16 3 17 100 18 93 19 95 20 99 21 94 22
REMARK SMILES IDX 96 23 98 24 97 25 2 26 1 27 18 28 19 29 20 30 21 31 22 32
REMARK SMILES IDX 23 33 24 34 25 35 26 36 90 37 27 38 89 39 28 40 29 41 30 42
REMARK SMILES IDX 83 43 31 44 88 45 82 46 84 47 32 48 87 49 81 50 80 51 33 53
REMARK SMILES IDX 67 54 46 55 66 56 47 57 50 58 65 59 85 60 48 61 49 62 64 64
REMARK SMILES IDX 86 65 51 66 34 67 35 68 44 69 36 70 37 71 43 72 45 73 38 74
REMARK SMILES IDX 39 75 40 76 41 77 42 78 68 79 69 80 78 81 70 82 71 83 77 84
REMARK SMILES IDX 79 85 72 86 73 87 74 88 75 89 76 90 52 91 53 92 62 93 54 94
REMARK SMILES IDX 55 95 61 96 63 97 56 98 57 99 58 100 59 101 60 102
REMARK H PARENT 84 52 50 63
REMARK Flexibility Score: inf
ROOT
ATOM      1  C   UNL A   1      41.078  21.006  27.312  1.00  0.00     0.188 C 
ENDROOT
BRANCH   1   2
ATOM      2  O   UNL A   1      40.657  22.334  27.113  1.00  0.00    -0.376 OA
BRANCH   2   3
ATOM      3  C   UNL A   1      39.429  22.602  26.460  1.00  0.00     0.202 C 
BRANCH   3   4
ATOM      4  C   UNL A   1      38.355  21.548  26.122  1.00  0.00     0.261 C 
BRANCH   4   5
ATOM      5  O   UNL A   1      37.298  21.915  25.232  1.00  0.00    -0.460 OA
BRANCH   5   6
ATOM      6  C   UNL A   1      36.444  20.930  24.870  1.00  0.00     0.338 C 
ATOM      7  O   UNL A   1      36.624  19.724  25.001  1.00  0.00    -0.246 OA
BRANCH   6   8
ATOM      8  C   UNL A   1      35.165  21.529  24.435  1.00  0.00     0.060 A 
ATOM      9  C   UNL A   1      32.769  22.716  23.558  1.00  0.00    -0.011 A 
ATOM     10  C   UNL A   1      34.010  23.305  23.264  1.00  0.00     0.008 A 
ATOM     11  C   UNL A   1      32.751  21.523  24.299  1.00  0.00     0.008 A 
ATOM     12  C   UNL A   1      35.200  22.723  23.708  1.00  0.00     0.016 A 
ATOM     13  C   UNL A   1      33.941  20.918  24.719  1.00  0.00     0.016 A 
BRANCH   9  14
ATOM     14  C   UNL A   1      31.503  23.425  23.105  1.00  0.00     0.265 C 
BRANCH  14  15
ATOM     15  O   UNL A   1      30.834  24.185  24.114  1.00  0.00    -0.488 OA
BRANCH  15  16
ATOM     16  C   UNL A   1      31.062  25.531  24.225  1.00  0.00     0.130 A 
ATOM     17  C   UNL A   1      31.604  25.985  25.442  1.00  0.00     0.064 A 
ATOM     18  C   UNL A   1      31.710  27.372  25.745  1.00  0.00    -0.004 A 
ATOM     19  C   UNL A   1      30.702  26.468  23.258  1.00  0.00     0.048 A 
ATOM     20  C   UNL A   1      31.281  28.295  24.762  1.00  0.00    -0.017 A 
ATOM     21  C   UNL A   1      32.215  27.898  26.961  1.00  0.00     0.009 A 
ATOM     22  C   UNL A   1      30.807  27.832  23.528  1.00  0.00     0.012 A 
ATOM     23  C   UNL A   1      31.324  29.673  25.022  1.00  0.00     0.009 A 
ATOM     24  C   UNL A   1      32.250  29.273  27.207  1.00  0.00     0.001 A 
ATOM     25  C   UNL A   1      31.798  30.160  26.239  1.00  0.00     0.001 A 
BRANCH  17  26
ATOM     26  C   UNL A   1      32.012  24.992  26.463  1.00  0.00     0.264 C 
ATOM     27  O   UNL A   1      33.132  24.497  26.516  1.00  0.00    -0.298 OA
ENDBRANCH  17  26
ENDBRANCH  15  16
ENDBRANCH  14  15
ENDBRANCH   9  14
ENDBRANCH   6   8
ENDBRANCH   5   6
ENDBRANCH   4   5
ENDBRANCH   3   4
ENDBRANCH   2   3
ENDBRANCH   1   2
BRANCH   1  28
ATOM     28  C   UNL A   1      41.882  20.422  26.132  1.00  0.00     0.188 C 
BRANCH  28  29
ATOM     29  O   UNL A   1      42.749  21.251  25.371  1.00  0.00    -0.376 OA
BRANCH  29  30
ATOM     30  C   UNL A   1      43.854  21.885  26.000  1.00  0.00     0.202 C 
BRANCH  30  31
ATOM     31  C   UNL A   1      44.060  23.408  25.929  1.00  0.00     0.261 C 
BRANCH  31  32
ATOM     32  O   UNL A   1      43.217  24.207  26.769  1.00  0.00    -0.460 OA
BRANCH  32  33
ATOM     33  C   UNL A   1      42.727  25.331  26.197  1.00  0.00     0.338 C 
ATOM     34  O   UNL A   1      42.592  25.555  25.000  1.00  0.00    -0.246 OA
BRANCH  33  35
ATOM     35  C   UNL A   1      42.198  26.226  27.241  1.00  0.00     0.060 A 
ATOM     36  C   UNL A   1      42.760  27.502  27.373  1.00  0.00     0.016 A 
ATOM     37  C   UNL A   1      41.203  25.793  28.119  1.00  0.00     0.016 A 
ATOM     38  C   UNL A   1      42.346  28.345  28.402  1.00  0.00     0.010 A 
ATOM     39  C   UNL A   1      40.805  26.631  29.165  1.00  0.00     0.010 A 
ATOM     40  C   UNL A   1      41.397  27.897  29.329  1.00  0.00    -0.014 A 
BRANCH  40  41
ATOM     41  C   UNL A   1      41.163  28.674  30.569  1.00  0.00     0.031 A 
ATOM     42  C   UNL A   1      40.051  29.688  30.581  1.00  0.00     0.074 A 
ATOM     43  C   UNL A   1      41.910  28.473  31.669  1.00  0.00     0.049 A 
ATOM     44  N   UNL A   1      39.693  30.517  31.526  1.00  0.00    -0.248 NA
ATOM     45  C   UNL A   1      39.236  29.779  29.358  1.00  0.00     0.031 C 
ATOM     46  C   UNL A   1      42.986  27.493  31.793  1.00  0.00     0.029 A 
ATOM     47  N   UNL A   1      41.879  29.097  32.891  1.00  0.00    -0.354 N 
ATOM     48  C   UNL A   1      38.618  31.234  31.012  1.00  0.00     0.074 A 
ATOM     49  C   UNL A   1      38.401  30.762  29.661  1.00  0.00     0.031 C 
ATOM     50  C   UNL A   1      43.527  27.593  33.020  1.00  0.00     0.029 A 
ATOM     51  C   UNL A   1      42.856  28.665  33.755  1.00  0.00     0.049 A 
ATOM     52  H   UNL A   1      41.219  29.788  33.127  1.00  0.00     0.167 HD
ATOM     53  C   UNL A   1      37.876  32.195  31.612  1.00  0.00     0.037 A 
ATOM     54  C   UNL A   1      43.185  29.103  34.987  1.00  0.00     0.037 A 
ATOM     55  C   UNL A   1      38.102  32.664  32.954  1.00  0.00     0.049 A 
ATOM     56  C   UNL A   1      42.389  30.220  35.612  1.00  0.00     0.074 A 
ATOM     57  C   UNL A   1      37.398  33.626  33.658  1.00  0.00     0.029 A 
ATOM     58  N   UNL A   1      39.115  32.217  33.790  1.00  0.00    -0.354 N 
ATOM     59  N   UNL A   1      41.362  30.876  35.125  1.00  0.00    -0.248 NA
ATOM     60  C   UNL A   1      42.794  30.655  36.956  1.00  0.00     0.031 C 
ATOM     61  C   UNL A   1      38.016  33.796  34.902  1.00  0.00     0.029 A 
ATOM     62  C   UNL A   1      39.069  32.898  34.995  1.00  0.00     0.049 A 
ATOM     63  H   UNL A   1      39.769  31.518  33.561  1.00  0.00     0.167 HD
ATOM     64  C   UNL A   1      40.978  31.776  36.114  1.00  0.00     0.074 A 
ATOM     65  C   UNL A   1      41.880  31.577  37.230  1.00  0.00     0.031 C 
ATOM     66  C   UNL A   1      39.967  32.682  36.103  1.00  0.00     0.037 A 
BRANCH  53  67
ATOM     67  C   UNL A   1      36.773  32.822  30.807  1.00  0.00     0.058 A 
ATOM     68  C   UNL A   1      37.025  33.826  29.857  1.00  0.00     0.135 A 
ATOM     69  C   UNL A   1      35.443  32.401  30.976  1.00  0.00     0.135 A 
ATOM     70  F   UNL A   1      38.275  34.279  29.669  1.00  0.00    -0.206 F 
ATOM     71  C   UNL A   1      35.996  34.411  29.127  1.00  0.00     0.059 A 
ATOM     72  C   UNL A   1      34.403  32.954  30.236  1.00  0.00     0.059 A 
ATOM     73  F   UNL A   1      35.145  31.449  31.873  1.00  0.00    -0.206 F 
ATOM     74  C   UNL A   1      34.687  33.969  29.326  1.00  0.00     0.060 A 
BRANCH  74  75
ATOM     75  S   UNL A   1      33.362  34.745  28.376  1.00  0.00     0.124 S 
ATOM     76  O   UNL A   1      34.112  35.676  27.538  1.00  0.00    -0.237 OA
ATOM     77  O   UNL A   1      32.767  33.608  27.683  1.00  0.00    -0.237 OA
ATOM     78  O   UNL A   1      32.524  35.360  29.402  1.00  0.00    -0.744 OA
ENDBRANCH  74  75
ENDBRANCH  53  67
BRANCH  54  79
ATOM     79  C   UNL A   1      44.330  28.489  35.712  1.00  0.00     0.058 A 
ATOM     80  C   UNL A   1      45.641  28.953  35.528  1.00  0.00     0.135 A 
ATOM     81  C   UNL A   1      44.135  27.423  36.605  1.00  0.00     0.135 A 
ATOM     82  F   UNL A   1      45.881  29.961  34.675  1.00  0.00    -0.206 F 
ATOM     83  C   UNL A   1      46.719  28.378  36.193  1.00  0.00     0.059 A 
ATOM     84  C   UNL A   1      45.193  26.849  37.304  1.00  0.00     0.059 A 
ATOM     85  F   UNL A   1      42.899  26.946  36.825  1.00  0.00    -0.206 F 
ATOM     86  C   UNL A   1      46.483  27.328  37.084  1.00  0.00     0.060 A 
BRANCH  86  87
ATOM     87  S   UNL A   1      47.884  26.626  37.982  1.00  0.00     0.124 S 
ATOM     88  O   UNL A   1      47.706  25.200  37.739  1.00  0.00    -0.237 OA
ATOM     89  O   UNL A   1      49.020  27.252  37.312  1.00  0.00    -0.237 OA
ATOM     90  O   UNL A   1      47.655  27.067  39.355  1.00  0.00    -0.744 OA
ENDBRANCH  86  87
ENDBRANCH  54  79
BRANCH  66  91
ATOM     91  C   UNL A   1      39.744  33.497  37.350  1.00  0.00     0.058 A 
ATOM     92  C   UNL A   1      40.424  34.701  37.583  1.00  0.00     0.135 A 
ATOM     93  C   UNL A   1      38.788  33.092  38.297  1.00  0.00     0.135 A 
ATOM     94  F   UNL A   1      41.351  35.133  36.713  1.00  0.00    -0.206 F 
ATOM     95  C   UNL A   1      40.182  35.465  38.721  1.00  0.00     0.059 A 
ATOM     96  C   UNL A   1      38.508  33.853  39.427  1.00  0.00     0.059 A 
ATOM     97  F   UNL A   1      38.099  31.953  38.118  1.00  0.00    -0.206 F 
ATOM     98  C   UNL A   1      39.220  35.033  39.637  1.00  0.00     0.060 A 
BRANCH  98  99
ATOM     99  S   UNL A   1      38.891  36.049  41.093  1.00  0.00     0.124 S 
ATOM    100  O   UNL A   1      40.176  36.002  41.781  1.00  0.00    -0.237 OA
ATOM    101  O   UNL A   1      38.536  37.336  40.502  1.00  0.00    -0.237 OA
ATOM    102  O   UNL A   1      37.796  35.348  41.757  1.00  0.00    -0.744 OA
ENDBRANCH  98  99
ENDBRANCH  66  91
ENDBRANCH  40  41
ENDBRANCH  33  35
ENDBRANCH  32  33
ENDBRANCH  31  32
ENDBRANCH  30  31
ENDBRANCH  29  30
ENDBRANCH  28  29
ENDBRANCH   1  28
TORSDOF 24
ENDMDL
