MODEL 1
REMARK VINA RESULT:     -10.7      0.000      0.000
REMARK SMILES O=C(OCCOCCOCCOC(=O)[C@@H]1CN(c2nc(-c3ccccc3)no2)CC[NH2+]1)c1ccc(-c2c3nc(c(-c4c(F)cc(S(=O)(=O)[O-])cc4F)c4ccc([nH]4)c(-c4c(F)cc(S(=O)(=O)[O-])cc4F)c4nc(c(-c5c(F)cc(S(=O)(=O)[O-])cc5F)c5ccc2[nH]5)C=C4)C=C3)cc1
REMARK SMILES IDX 7 1 6 2 5 3 4 4 3 5 2 6 1 7 32 8 33 9 97 10 34 11 96 12
REMARK SMILES IDX 35 13 36 14 37 15 90 16 38 17 95 18 89 19 91 20 39 21 94 22
REMARK SMILES IDX 88 23 87 24 40 26 74 27 53 28 73 29 54 30 57 31 72 32 92 33
REMARK SMILES IDX 55 34 56 35 71 37 93 38 58 39 41 40 42 41 51 42 43 43 44 44
REMARK SMILES IDX 50 45 52 46 45 47 46 48 47 49 48 50 49 51 75 52 76 53 85 54
REMARK SMILES IDX 77 55 78 56 84 57 86 58 79 59 80 60 81 61 82 62 83 63 59 64
REMARK SMILES IDX 60 65 69 66 61 67 62 68 68 69 70 70 63 71 64 72 65 73 66 74
REMARK SMILES IDX 67 75 8 76 9 77 10 78 11 79 12 80 13 81 14 82 15 83 16 84
REMARK SMILES IDX 31 85 17 86 30 87 29 90 18 91 19 92 28 93 20 94 27 95 21 96
REMARK SMILES IDX 22 97 26 98 23 99 25 100 24 101
REMARK H PARENT 91 25 57 36 31 88 31 89
REMARK Flexibility Score: inf
ROOT
ATOM      1  C   UNL A   1      46.032  20.649  25.115  1.00  0.00     0.188 C 
ENDROOT
BRANCH   1   2
ATOM      2  O   UNL A   1      46.292  21.976  25.583  1.00  0.00    -0.376 OA
BRANCH   2   3
ATOM      3  C   UNL A   1      45.250  22.910  25.290  1.00  0.00     0.202 C 
BRANCH   3   4
ATOM      4  C   UNL A   1      44.558  23.568  26.500  1.00  0.00     0.261 C 
BRANCH   4   5
ATOM      5  O   UNL A   1      44.721  24.994  26.579  1.00  0.00    -0.460 OA
BRANCH   5   6
ATOM      6  C   UNL A   1      43.775  25.965  26.484  1.00  0.00     0.338 C 
ATOM      7  O   UNL A   1      43.333  26.233  25.367  1.00  0.00    -0.246 OA
BRANCH   6   8
ATOM      8  C   UNL A   1      43.263  26.753  27.653  1.00  0.00     0.060 A 
ATOM      9  C   UNL A   1      43.789  27.967  28.094  1.00  0.00     0.016 A 
ATOM     10  C   UNL A   1      42.133  26.261  28.326  1.00  0.00     0.016 A 
ATOM     11  C   UNL A   1      43.280  28.646  29.193  1.00  0.00     0.010 A 
ATOM     12  C   UNL A   1      41.577  26.963  29.404  1.00  0.00     0.010 A 
ATOM     13  C   UNL A   1      42.165  28.158  29.851  1.00  0.00    -0.014 A 
BRANCH  13  14
ATOM     14  C   UNL A   1      41.701  28.829  31.080  1.00  0.00     0.031 A 
ATOM     15  C   UNL A   1      40.614  29.845  30.950  1.00  0.00     0.074 A 
ATOM     16  C   UNL A   1      42.155  28.483  32.300  1.00  0.00     0.049 A 
ATOM     17  N   UNL A   1      40.147  30.657  31.853  1.00  0.00    -0.248 NA
ATOM     18  C   UNL A   1      39.902  29.892  29.659  1.00  0.00     0.031 C 
ATOM     19  C   UNL A   1      42.957  27.305  32.619  1.00  0.00     0.029 A 
ATOM     20  N   UNL A   1      42.056  29.134  33.504  1.00  0.00    -0.354 N 
ATOM     21  C   UNL A   1      39.059  31.276  31.262  1.00  0.00     0.074 A 
ATOM     22  C   UNL A   1      38.965  30.796  29.902  1.00  0.00     0.031 C 
ATOM     23  C   UNL A   1      43.424  27.407  33.875  1.00  0.00     0.029 A 
ATOM     24  C   UNL A   1      42.975  28.671  34.422  1.00  0.00     0.049 A 
ATOM     25  H   UNL A   1      41.404  29.847  33.692  1.00  0.00     0.167 HD
ATOM     26  C   UNL A   1      38.197  32.139  31.839  1.00  0.00     0.037 A 
ATOM     27  C   UNL A   1      43.458  29.260  35.529  1.00  0.00     0.037 A 
ATOM     28  C   UNL A   1      38.332  32.590  33.197  1.00  0.00     0.049 A 
ATOM     29  C   UNL A   1      42.726  30.466  36.024  1.00  0.00     0.074 A 
ATOM     30  C   UNL A   1      37.517  33.451  33.905  1.00  0.00     0.029 A 
ATOM     31  N   UNL A   1      39.373  32.232  34.042  1.00  0.00    -0.354 N 
ATOM     32  N   UNL A   1      41.695  31.062  35.476  1.00  0.00    -0.248 NA
ATOM     33  C   UNL A   1      43.145  31.024  37.314  1.00  0.00     0.031 C 
ATOM     34  C   UNL A   1      38.112  33.678  35.150  1.00  0.00     0.029 A 
ATOM     35  C   UNL A   1      39.266  32.912  35.239  1.00  0.00     0.049 A 
ATOM     36  H   UNL A   1      40.084  31.587  33.820  1.00  0.00     0.167 HD
ATOM     37  C   UNL A   1      41.281  32.012  36.394  1.00  0.00     0.074 A 
ATOM     38  C   UNL A   1      42.204  31.937  37.513  1.00  0.00     0.031 C 
ATOM     39  C   UNL A   1      40.205  32.832  36.331  1.00  0.00     0.037 A 
BRANCH  26  40
ATOM     40  C   UNL A   1      37.082  32.674  30.997  1.00  0.00     0.058 A 
ATOM     41  C   UNL A   1      37.278  33.705  30.065  1.00  0.00     0.135 A 
ATOM     42  C   UNL A   1      35.801  32.117  31.106  1.00  0.00     0.135 A 
ATOM     43  F   UNL A   1      38.477  34.299  29.953  1.00  0.00    -0.206 F 
ATOM     44  C   UNL A   1      36.239  34.160  29.261  1.00  0.00     0.059 A 
ATOM     45  C   UNL A   1      34.751  32.542  30.299  1.00  0.00     0.059 A 
ATOM     46  F   UNL A   1      35.559  31.150  32.005  1.00  0.00    -0.206 F 
ATOM     47  C   UNL A   1      34.981  33.563  29.378  1.00  0.00     0.060 A 
BRANCH  47  48
ATOM     48  S   UNL A   1      33.657  34.123  28.289  1.00  0.00     0.124 S 
ATOM     49  O   UNL A   1      34.351  35.107  27.465  1.00  0.00    -0.237 OA
ATOM     50  O   UNL A   1      33.271  32.888  27.614  1.00  0.00    -0.237 OA
ATOM     51  O   UNL A   1      32.665  34.666  29.212  1.00  0.00    -0.744 OA
ENDBRANCH  47  48
ENDBRANCH  26  40
BRANCH  27  52
ATOM     52  C   UNL A   1      44.691  28.772  36.201  1.00  0.00     0.058 A 
ATOM     53  C   UNL A   1      45.950  29.311  35.916  1.00  0.00     0.135 A 
ATOM     54  C   UNL A   1      44.630  27.681  37.089  1.00  0.00     0.135 A 
ATOM     55  F   UNL A   1      46.056  30.352  35.080  1.00  0.00    -0.206 F 
ATOM     56  C   UNL A   1      47.112  28.757  36.446  1.00  0.00     0.059 A 
ATOM     57  C   UNL A   1      45.779  27.115  37.639  1.00  0.00     0.059 A 
ATOM     58  F   UNL A   1      43.443  27.141  37.406  1.00  0.00    -0.206 F 
ATOM     59  C   UNL A   1      47.019  27.648  37.293  1.00  0.00     0.060 A 
BRANCH  59  60
ATOM     60  S   UNL A   1      48.553  26.891  37.879  1.00  0.00     0.124 S 
ATOM     61  O   UNL A   1      48.716  27.532  39.179  1.00  0.00    -0.237 OA
ATOM     62  O   UNL A   1      48.201  25.478  37.911  1.00  0.00    -0.237 OA
ATOM     63  O   UNL A   1      49.535  27.279  36.867  1.00  0.00    -0.744 OA
ENDBRANCH  59  60
ENDBRANCH  27  52
BRANCH  39  64
ATOM     64  C   UNL A   1      39.954  33.699  37.521  1.00  0.00     0.058 A 
ATOM     65  C   UNL A   1      40.517  34.978  37.623  1.00  0.00     0.135 A 
ATOM     66  C   UNL A   1      39.092  33.265  38.541  1.00  0.00     0.135 A 
ATOM     67  F   UNL A   1      41.363  35.422  36.681  1.00  0.00    -0.206 F 
ATOM     68  C   UNL A   1      40.236  35.801  38.703  1.00  0.00     0.059 A 
ATOM     69  C   UNL A   1      38.770  34.085  39.612  1.00  0.00     0.059 A 
ATOM     70  F   UNL A   1      38.532  32.046  38.482  1.00  0.00    -0.206 F 
ATOM     71  C   UNL A   1      39.352  35.350  39.686  1.00  0.00     0.060 A 
BRANCH  71  72
ATOM     72  S   UNL A   1      38.937  36.464  41.040  1.00  0.00     0.124 S 
ATOM     73  O   UNL A   1      40.209  36.550  41.749  1.00  0.00    -0.237 OA
ATOM     74  O   UNL A   1      38.521  37.669  40.332  1.00  0.00    -0.237 OA
ATOM     75  O   UNL A   1      37.871  35.758  41.745  1.00  0.00    -0.744 OA
ENDBRANCH  71  72
ENDBRANCH  39  64
ENDBRANCH  13  14
ENDBRANCH   6   8
ENDBRANCH   5   6
ENDBRANCH   4   5
ENDBRANCH   3   4
ENDBRANCH   2   3
ENDBRANCH   1   2
BRANCH   1  76
ATOM     76  C   UNL A   1      44.737  20.524  24.314  1.00  0.00     0.188 C 
BRANCH  76  77
ATOM     77  O   UNL A   1      44.031  19.286  24.387  1.00  0.00    -0.376 OA
BRANCH  77  78
ATOM     78  C   UNL A   1      43.030  19.155  25.388  1.00  0.00     0.202 C 
BRANCH  78  79
ATOM     79  C   UNL A   1      42.714  20.364  26.288  1.00  0.00     0.261 C 
BRANCH  79  80
ATOM     80  O   UNL A   1      41.364  20.839  26.235  1.00  0.00    -0.459 OA
BRANCH  80  81
ATOM     81  C   UNL A   1      41.020  21.690  27.243  1.00  0.00     0.366 C 
ATOM     82  O   UNL A   1      41.687  21.857  28.260  1.00  0.00    -0.245 OA
BRANCH  81  83
ATOM     83  C   UNL A   1      39.708  22.435  26.996  1.00  0.00     0.313 C 
ATOM     84  C   UNL A   1      38.977  21.690  25.868  1.00  0.00     0.199 C 
ATOM     85  N   UNL A   1      39.870  23.892  26.703  1.00  0.00    -0.332 N 
ATOM     86  N   UNL A   1      37.677  22.302  25.640  1.00  0.00    -0.312 N 
ATOM     87  C   UNL A   1      38.530  24.489  26.472  1.00  0.00     0.283 C 
ATOM     88  H   UNL A   1      40.446  24.010  25.870  1.00  0.00     0.347 HD
ATOM     89  H   UNL A   1      40.323  24.355  27.491  1.00  0.00     0.347 HD
ATOM     90  C   UNL A   1      37.579  23.742  25.507  1.00  0.00     0.183 C 
BRANCH  86  91
ATOM     91  C   UNL A   1      36.577  21.534  25.682  1.00  0.00     0.324 A 
ATOM     92  N   UNL A   1      36.357  20.376  25.115  1.00  0.00    -0.171 NA
ATOM     93  O   UNL A   1      35.468  22.071  26.269  1.00  0.00    -0.315 OA
ATOM     94  C   UNL A   1      34.991  20.238  25.269  1.00  0.00     0.204 A 
ATOM     95  N   UNL A   1      34.417  21.220  25.980  1.00  0.00    -0.055 NA
BRANCH  94  96
ATOM     96  C   UNL A   1      34.222  19.249  24.527  1.00  0.00     0.023 A 
ATOM     97  C   UNL A   1      32.973  19.592  23.988  1.00  0.00     0.012 A 
ATOM     98  C   UNL A   1      34.752  17.980  24.258  1.00  0.00     0.012 A 
ATOM     99  C   UNL A   1      32.275  18.695  23.181  1.00  0.00     0.001 A 
ATOM    100  C   UNL A   1      34.047  17.078  23.456  1.00  0.00     0.001 A 
ATOM    101  C   UNL A   1      32.814  17.438  22.913  1.00  0.00     0.000 A 
ENDBRANCH  94  96
ENDBRANCH  86  91
ENDBRANCH  81  83
ENDBRANCH  80  81
ENDBRANCH  79  80
ENDBRANCH  78  79
ENDBRANCH  77  78
ENDBRANCH  76  77
ENDBRANCH   1  76
TORSDOF 22
ENDMDL
MODEL 2
REMARK VINA RESULT:     -10.5      2.366      3.490
REMARK SMILES O=C(OCCOCCOCCOC(=O)[C@@H]1CN(c2nc(-c3ccccc3)no2)CC[NH2+]1)c1ccc(-c2c3nc(c(-c4c(F)cc(S(=O)(=O)[O-])cc4F)c4ccc([nH]4)c(-c4c(F)cc(S(=O)(=O)[O-])cc4F)c4nc(c(-c5c(F)cc(S(=O)(=O)[O-])cc5F)c5ccc2[nH]5)C=C4)C=C3)cc1
REMARK SMILES IDX 7 1 6 2 5 3 4 4 3 5 2 6 1 7 32 8 33 9 97 10 34 11 96 12
REMARK SMILES IDX 35 13 36 14 37 15 90 16 38 17 95 18 89 19 91 20 39 21 94 22
REMARK SMILES IDX 88 23 87 24 40 26 74 27 53 28 73 29 54 30 57 31 72 32 92 33
REMARK SMILES IDX 55 34 56 35 71 37 93 38 58 39 41 40 42 41 51 42 43 43 44 44
REMARK SMILES IDX 50 45 52 46 45 47 46 48 47 49 48 50 49 51 75 52 76 53 85 54
REMARK SMILES IDX 77 55 78 56 84 57 86 58 79 59 80 60 81 61 82 62 83 63 59 64
REMARK SMILES IDX 60 65 69 66 61 67 62 68 68 69 70 70 63 71 64 72 65 73 66 74
REMARK SMILES IDX 67 75 8 76 9 77 10 78 11 79 12 80 13 81 14 82 15 83 16 84
REMARK SMILES IDX 31 85 17 86 30 87 29 90 18 91 19 92 28 93 20 94 27 95 21 96
REMARK SMILES IDX 22 97 26 98 23 99 25 100 24 101
REMARK H PARENT 91 25 57 36 31 88 31 89
REMARK Flexibility Score: inf
ROOT
ATOM      1  C   UNL A   1      43.045  21.613  25.693  1.00  0.00     0.188 C 
ENDROOT
BRANCH   1   2
ATOM      2  O   UNL A   1      43.023  22.630  24.686  1.00  0.00    -0.376 OA
BRANCH   2   3
ATOM      3  C   UNL A   1      44.250  23.352  24.561  1.00  0.00     0.202 C 
BRANCH   3   4
ATOM      4  C   UNL A   1      44.220  24.834  24.983  1.00  0.00     0.261 C 
BRANCH   4   5
ATOM      5  O   UNL A   1      42.947  25.292  25.469  1.00  0.00    -0.460 OA
BRANCH   5   6
ATOM      6  C   UNL A   1      42.520  26.566  25.665  1.00  0.00     0.338 C 
ATOM      7  O   UNL A   1      42.457  27.311  24.687  1.00  0.00    -0.246 OA
BRANCH   6   8
ATOM      8  C   UNL A   1      42.154  27.130  27.006  1.00  0.00     0.060 A 
ATOM      9  C   UNL A   1      41.200  26.593  27.869  1.00  0.00     0.016 A 
ATOM     10  C   UNL A   1      42.864  28.255  27.455  1.00  0.00     0.016 A 
ATOM     11  C   UNL A   1      40.895  27.167  29.096  1.00  0.00     0.010 A 
ATOM     12  C   UNL A   1      42.603  28.814  28.714  1.00  0.00     0.010 A 
ATOM     13  C   UNL A   1      41.598  28.274  29.534  1.00  0.00    -0.014 A 
BRANCH  13  14
ATOM     14  C   UNL A   1      41.191  28.938  30.787  1.00  0.00     0.031 A 
ATOM     15  C   UNL A   1      40.147  30.002  30.704  1.00  0.00     0.074 A 
ATOM     16  C   UNL A   1      41.656  28.545  31.989  1.00  0.00     0.049 A 
ATOM     17  N   UNL A   1      39.737  30.814  31.635  1.00  0.00    -0.248 NA
ATOM     18  C   UNL A   1      39.410  30.109  29.431  1.00  0.00     0.031 C 
ATOM     19  C   UNL A   1      42.412  27.327  32.265  1.00  0.00     0.029 A 
ATOM     20  N   UNL A   1      41.612  29.173  33.209  1.00  0.00    -0.354 N 
ATOM     21  C   UNL A   1      38.664  31.493  31.082  1.00  0.00     0.074 A 
ATOM     22  C   UNL A   1      38.520  31.048  29.715  1.00  0.00     0.031 C 
ATOM     23  C   UNL A   1      42.910  27.380  33.511  1.00  0.00     0.029 A 
ATOM     24  C   UNL A   1      42.530  28.649  34.095  1.00  0.00     0.049 A 
ATOM     25  H   UNL A   1      40.997  29.910  33.427  1.00  0.00     0.167 HD
ATOM     26  C   UNL A   1      37.854  32.380  31.697  1.00  0.00     0.037 A 
ATOM     27  C   UNL A   1      43.063  29.192  35.203  1.00  0.00     0.037 A 
ATOM     28  C   UNL A   1      38.038  32.794  33.060  1.00  0.00     0.049 A 
ATOM     29  C   UNL A   1      42.396  30.417  35.741  1.00  0.00     0.074 A 
ATOM     30  C   UNL A   1      37.278  33.674  33.805  1.00  0.00     0.029 A 
ATOM     31  N   UNL A   1      39.081  32.372  33.873  1.00  0.00    -0.354 N 
ATOM     32  N   UNL A   1      41.380  31.071  35.229  1.00  0.00    -0.248 NA
ATOM     33  C   UNL A   1      42.866  30.928  37.032  1.00  0.00     0.031 C 
ATOM     34  C   UNL A   1      37.909  33.847  35.040  1.00  0.00     0.029 A 
ATOM     35  C   UNL A   1      39.030  33.029  35.087  1.00  0.00     0.049 A 
ATOM     36  H   UNL A   1      39.758  31.702  33.622  1.00  0.00     0.167 HD
ATOM     37  C   UNL A   1      41.029  32.017  36.176  1.00  0.00     0.074 A 
ATOM     38  C   UNL A   1      41.971  31.877  37.271  1.00  0.00     0.031 C 
ATOM     39  C   UNL A   1      39.989  32.884  36.155  1.00  0.00     0.037 A 
BRANCH  26  40
ATOM     40  C   UNL A   1      36.746  32.981  30.892  1.00  0.00     0.058 A 
ATOM     41  C   UNL A   1      35.428  32.505  30.961  1.00  0.00     0.135 A 
ATOM     42  C   UNL A   1      37.009  34.078  30.059  1.00  0.00     0.135 A 
ATOM     43  F   UNL A   1      35.133  31.431  31.712  1.00  0.00    -0.206 F 
ATOM     44  C   UNL A   1      34.403  33.105  30.237  1.00  0.00     0.059 A 
ATOM     45  C   UNL A   1      35.998  34.706  29.341  1.00  0.00     0.059 A 
ATOM     46  F   UNL A   1      38.260  34.549  29.938  1.00  0.00    -0.206 F 
ATOM     47  C   UNL A   1      34.697  34.213  29.438  1.00  0.00     0.060 A 
BRANCH  47  48
ATOM     48  S   UNL A   1      33.349  35.016  28.549  1.00  0.00     0.124 S 
ATOM     49  O   UNL A   1      34.080  35.874  27.622  1.00  0.00    -0.237 OA
ATOM     50  O   UNL A   1      32.655  33.881  27.951  1.00  0.00    -0.237 OA
ATOM     51  O   UNL A   1      32.616  35.713  29.601  1.00  0.00    -0.744 OA
ENDBRANCH  47  48
ENDBRANCH  26  40
BRANCH  27  52
ATOM     52  C   UNL A   1      44.287  28.636  35.836  1.00  0.00     0.058 A 
ATOM     53  C   UNL A   1      45.567  29.066  35.473  1.00  0.00     0.135 A 
ATOM     54  C   UNL A   1      44.189  27.586  36.769  1.00  0.00     0.135 A 
ATOM     55  F   UNL A   1      45.710  30.066  34.591  1.00  0.00    -0.206 F 
ATOM     56  C   UNL A   1      46.710  28.445  35.970  1.00  0.00     0.059 A 
ATOM     57  C   UNL A   1      45.318  26.954  37.287  1.00  0.00     0.059 A 
ATOM     58  F   UNL A   1      42.982  27.151  37.162  1.00  0.00    -0.206 F 
ATOM     59  C   UNL A   1      46.576  27.378  36.863  1.00  0.00     0.060 A 
BRANCH  59  60
ATOM     60  S   UNL A   1      48.076  26.528  37.407  1.00  0.00     0.124 S 
ATOM     61  O   UNL A   1      49.115  27.350  36.798  1.00  0.00    -0.237 OA
ATOM     62  O   UNL A   1      47.967  26.619  38.858  1.00  0.00    -0.237 OA
ATOM     63  O   UNL A   1      47.934  25.186  36.842  1.00  0.00    -0.744 OA
ENDBRANCH  59  60
ENDBRANCH  27  52
BRANCH  39  64
ATOM     64  C   UNL A   1      39.802  33.735  37.369  1.00  0.00     0.058 A 
ATOM     65  C   UNL A   1      40.381  35.008  37.463  1.00  0.00     0.135 A 
ATOM     66  C   UNL A   1      38.986  33.292  38.422  1.00  0.00     0.135 A 
ATOM     67  F   UNL A   1      41.185  35.459  36.488  1.00  0.00    -0.206 F 
ATOM     68  C   UNL A   1      40.159  35.816  38.568  1.00  0.00     0.059 A 
ATOM     69  C   UNL A   1      38.723  34.098  39.519  1.00  0.00     0.059 A 
ATOM     70  F   UNL A   1      38.413  32.078  38.372  1.00  0.00    -0.206 F 
ATOM     71  C   UNL A   1      39.319  35.357  39.584  1.00  0.00     0.060 A 
BRANCH  71  72
ATOM     72  S   UNL A   1      38.978  36.453  40.974  1.00  0.00     0.124 S 
ATOM     73  O   UNL A   1      38.557  37.671  40.290  1.00  0.00    -0.237 OA
ATOM     74  O   UNL A   1      37.931  35.731  41.688  1.00  0.00    -0.237 OA
ATOM     75  O   UNL A   1      40.261  36.532  41.666  1.00  0.00    -0.744 OA
ENDBRANCH  71  72
ENDBRANCH  39  64
ENDBRANCH  13  14
ENDBRANCH   6   8
ENDBRANCH   5   6
ENDBRANCH   4   5
ENDBRANCH   3   4
ENDBRANCH   2   3
ENDBRANCH   1   2
BRANCH   1  76
ATOM     76  C   UNL A   1      42.447  22.059  27.026  1.00  0.00     0.188 C 
BRANCH  76  77
ATOM     77  O   UNL A   1      41.121  21.627  27.334  1.00  0.00    -0.376 OA
BRANCH  77  78
ATOM     78  C   UNL A   1      40.226  21.419  26.249  1.00  0.00     0.202 C 
BRANCH  78  79
ATOM     79  C   UNL A   1      38.899  22.199  26.217  1.00  0.00     0.261 C 
BRANCH  79  80
ATOM     80  O   UNL A   1      37.807  21.538  25.568  1.00  0.00    -0.459 OA
BRANCH  80  81
ATOM     81  C   UNL A   1      36.882  22.374  25.017  1.00  0.00     0.366 C 
ATOM     82  O   UNL A   1      37.145  23.478  24.546  1.00  0.00    -0.245 OA
BRANCH  81  83
ATOM     83  C   UNL A   1      35.460  21.812  25.034  1.00  0.00     0.313 C 
ATOM     84  C   UNL A   1      34.709  22.531  26.165  1.00  0.00     0.199 C 
ATOM     85  N   UNL A   1      35.385  20.324  25.158  1.00  0.00    -0.332 N 
ATOM     86  N   UNL A   1      33.320  22.100  26.181  1.00  0.00    -0.312 N 
ATOM     87  C   UNL A   1      33.959  19.913  25.176  1.00  0.00     0.283 C 
ATOM     88  H   UNL A   1      35.837  20.031  26.025  1.00  0.00     0.347 HD
ATOM     89  H   UNL A   1      35.861  19.887  24.369  1.00  0.00     0.347 HD
ATOM     90  C   UNL A   1      33.010  20.685  26.124  1.00  0.00     0.183 C 
BRANCH  86  91
ATOM     91  C   UNL A   1      32.347  23.024  26.123  1.00  0.00     0.324 A 
ATOM     92  N   UNL A   1      32.036  23.832  25.142  1.00  0.00    -0.171 NA
ATOM     93  O   UNL A   1      31.664  23.279  27.275  1.00  0.00    -0.315 OA
ATOM     94  C   UNL A   1      31.179  24.718  25.765  1.00  0.00     0.204 A 
ATOM     95  N   UNL A   1      30.904  24.411  27.042  1.00  0.00    -0.055 NA
BRANCH  94  96
ATOM     96  C   UNL A   1      30.804  25.989  25.163  1.00  0.00     0.023 A 
ATOM     97  C   UNL A   1      31.603  27.125  25.366  1.00  0.00     0.012 A 
ATOM     98  C   UNL A   1      29.704  26.080  24.300  1.00  0.00     0.012 A 
ATOM     99  C   UNL A   1      31.321  28.321  24.707  1.00  0.00     0.001 A 
ATOM    100  C   UNL A   1      29.417  27.281  23.646  1.00  0.00     0.001 A 
ATOM    101  C   UNL A   1      30.229  28.397  23.845  1.00  0.00     0.000 A 
ENDBRANCH  94  96
ENDBRANCH  86  91
ENDBRANCH  81  83
ENDBRANCH  80  81
ENDBRANCH  79  80
ENDBRANCH  78  79
ENDBRANCH  77  78
ENDBRANCH  76  77
ENDBRANCH   1  76
TORSDOF 22
ENDMDL
MODEL 3
REMARK VINA RESULT:     -10.2      5.446      8.743
REMARK SMILES O=C(OCCOCCOCCOC(=O)[C@@H]1CN(c2nc(-c3ccccc3)no2)CC[NH2+]1)c1ccc(-c2c3nc(c(-c4c(F)cc(S(=O)(=O)[O-])cc4F)c4ccc([nH]4)c(-c4c(F)cc(S(=O)(=O)[O-])cc4F)c4nc(c(-c5c(F)cc(S(=O)(=O)[O-])cc5F)c5ccc2[nH]5)C=C4)C=C3)cc1
REMARK SMILES IDX 7 1 6 2 5 3 4 4 3 5 2 6 1 7 32 8 33 9 97 10 34 11 96 12
REMARK SMILES IDX 35 13 36 14 37 15 90 16 38 17 95 18 89 19 91 20 39 21 94 22
REMARK SMILES IDX 88 23 87 24 40 26 74 27 53 28 73 29 54 30 57 31 72 32 92 33
REMARK SMILES IDX 55 34 56 35 71 37 93 38 58 39 41 40 42 41 51 42 43 43 44 44
REMARK SMILES IDX 50 45 52 46 45 47 46 48 47 49 48 50 49 51 75 52 76 53 85 54
REMARK SMILES IDX 77 55 78 56 84 57 86 58 79 59 80 60 81 61 82 62 83 63 59 64
REMARK SMILES IDX 60 65 69 66 61 67 62 68 68 69 70 70 63 71 64 72 65 73 66 74
REMARK SMILES IDX 67 75 8 76 9 77 10 78 11 79 12 80 13 81 14 82 15 83 16 84
REMARK SMILES IDX 31 85 17 86 30 87 29 90 18 91 19 92 28 93 20 94 27 95 21 96
REMARK SMILES IDX 22 97 26 98 23 99 25 100 24 101
REMARK H PARENT 91 25 57 36 31 88 31 89
REMARK Flexibility Score: inf
ROOT
ATOM      1  C   UNL A   1      34.059  21.103  25.860  1.00  0.00     0.188 C 
ENDROOT
BRANCH   1   2
ATOM      2  O   UNL A   1      35.464  21.185  26.116  1.00  0.00    -0.376 OA
BRANCH   2   3
ATOM      3  C   UNL A   1      36.281  20.806  25.006  1.00  0.00     0.202 C 
BRANCH   3   4
ATOM      4  C   UNL A   1      37.784  21.131  25.117  1.00  0.00     0.261 C 
BRANCH   4   5
ATOM      5  O   UNL A   1      38.106  22.141  26.088  1.00  0.00    -0.460 OA
BRANCH   5   6
ATOM      6  C   UNL A   1      37.961  23.488  25.995  1.00  0.00     0.338 C 
ATOM      7  O   UNL A   1      37.049  23.924  25.292  1.00  0.00    -0.246 OA
BRANCH   6   8
ATOM      8  C   UNL A   1      38.867  24.477  26.667  1.00  0.00     0.060 A 
ATOM      9  C   UNL A   1      38.953  24.679  28.044  1.00  0.00     0.016 A 
ATOM     10  C   UNL A   1      39.738  25.221  25.854  1.00  0.00     0.016 A 
ATOM     11  C   UNL A   1      39.803  25.620  28.609  1.00  0.00     0.010 A 
ATOM     12  C   UNL A   1      40.639  26.136  26.416  1.00  0.00     0.010 A 
ATOM     13  C   UNL A   1      40.660  26.348  27.804  1.00  0.00    -0.014 A 
BRANCH  13  14
ATOM     14  C   UNL A   1      41.479  27.418  28.405  1.00  0.00     0.031 A 
ATOM     15  C   UNL A   1      40.768  28.592  28.994  1.00  0.00     0.074 A 
ATOM     16  C   UNL A   1      42.817  27.316  28.521  1.00  0.00     0.049 A 
ATOM     17  N   UNL A   1      41.269  29.705  29.443  1.00  0.00    -0.248 NA
ATOM     18  C   UNL A   1      39.311  28.458  29.180  1.00  0.00     0.031 C 
ATOM     19  C   UNL A   1      43.612  26.111  28.301  1.00  0.00     0.029 A 
ATOM     20  N   UNL A   1      43.763  28.272  28.797  1.00  0.00    -0.354 N 
ATOM     21  C   UNL A   1      40.204  30.385  30.009  1.00  0.00     0.074 A 
ATOM     22  C   UNL A   1      39.014  29.593  29.795  1.00  0.00     0.031 C 
ATOM     23  C   UNL A   1      44.916  26.432  28.272  1.00  0.00     0.029 A 
ATOM     24  C   UNL A   1      45.031  27.866  28.439  1.00  0.00     0.049 A 
ATOM     25  H   UNL A   1      43.560  29.145  29.204  1.00  0.00     0.167 HD
ATOM     26  C   UNL A   1      40.245  31.554  30.682  1.00  0.00     0.037 A 
ATOM     27  C   UNL A   1      46.130  28.598  28.188  1.00  0.00     0.037 A 
ATOM     28  C   UNL A   1      41.453  32.308  30.867  1.00  0.00     0.049 A 
ATOM     29  C   UNL A   1      46.095  30.033  28.607  1.00  0.00     0.074 A 
ATOM     30  C   UNL A   1      41.632  33.499  31.543  1.00  0.00     0.029 A 
ATOM     31  N   UNL A   1      42.688  31.952  30.342  1.00  0.00    -0.354 N 
ATOM     32  N   UNL A   1      45.094  30.690  29.144  1.00  0.00    -0.248 NA
ATOM     33  C   UNL A   1      47.337  30.801  28.484  1.00  0.00     0.031 C 
ATOM     34  C   UNL A   1      42.957  33.904  31.356  1.00  0.00     0.029 A 
ATOM     35  C   UNL A   1      43.619  32.935  30.614  1.00  0.00     0.049 A 
ATOM     36  H   UNL A   1      42.874  31.119  29.849  1.00  0.00     0.167 HD
ATOM     37  C   UNL A   1      45.607  31.922  29.506  1.00  0.00     0.074 A 
ATOM     38  C   UNL A   1      46.997  31.933  29.086  1.00  0.00     0.031 C 
ATOM     39  C   UNL A   1      44.992  32.929  30.171  1.00  0.00     0.037 A 
BRANCH  26  40
ATOM     40  C   UNL A   1      38.955  32.093  31.215  1.00  0.00     0.058 A 
ATOM     41  C   UNL A   1      38.170  33.003  30.490  1.00  0.00     0.135 A 
ATOM     42  C   UNL A   1      38.485  31.663  32.463  1.00  0.00     0.135 A 
ATOM     43  F   UNL A   1      38.597  33.477  29.309  1.00  0.00    -0.206 F 
ATOM     44  C   UNL A   1      36.953  33.460  30.984  1.00  0.00     0.059 A 
ATOM     45  C   UNL A   1      37.264  32.091  32.968  1.00  0.00     0.059 A 
ATOM     46  F   UNL A   1      39.218  30.816  33.205  1.00  0.00    -0.206 F 
ATOM     47  C   UNL A   1      36.504  32.989  32.220  1.00  0.00     0.060 A 
BRANCH  47  48
ATOM     48  S   UNL A   1      34.897  33.546  32.823  1.00  0.00     0.124 S 
ATOM     49  O   UNL A   1      34.846  34.909  32.304  1.00  0.00    -0.237 OA
ATOM     50  O   UNL A   1      33.987  32.594  32.195  1.00  0.00    -0.237 OA
ATOM     51  O   UNL A   1      35.019  33.432  34.272  1.00  0.00    -0.744 OA
ENDBRANCH  47  48
ENDBRANCH  26  40
BRANCH  27  52
ATOM     52  C   UNL A   1      47.305  28.028  27.478  1.00  0.00     0.058 A 
ATOM     53  C   UNL A   1      48.410  27.519  28.170  1.00  0.00     0.135 A 
ATOM     54  C   UNL A   1      47.371  28.065  26.073  1.00  0.00     0.135 A 
ATOM     55  F   UNL A   1      48.390  27.460  29.509  1.00  0.00    -0.206 F 
ATOM     56  C   UNL A   1      49.561  27.114  27.500  1.00  0.00     0.059 A 
ATOM     57  C   UNL A   1      48.510  27.657  25.379  1.00  0.00     0.059 A 
ATOM     58  F   UNL A   1      46.329  28.528  25.365  1.00  0.00    -0.206 F 
ATOM     59  C   UNL A   1      49.609  27.203  26.105  1.00  0.00     0.060 A 
BRANCH  59  60
ATOM     60  S   UNL A   1      51.156  26.767  25.275  1.00  0.00     0.124 S 
ATOM     61  O   UNL A   1      52.082  27.729  25.861  1.00  0.00    -0.237 OA
ATOM     62  O   UNL A   1      51.339  25.381  25.687  1.00  0.00    -0.237 OA
ATOM     63  O   UNL A   1      50.855  26.975  23.859  1.00  0.00    -0.744 OA
ENDBRANCH  59  60
ENDBRANCH  27  52
BRANCH  39  64
ATOM     64  C   UNL A   1      45.830  34.120  30.506  1.00  0.00     0.058 A 
ATOM     65  C   UNL A   1      45.895  35.229  29.653  1.00  0.00     0.135 A 
ATOM     66  C   UNL A   1      46.526  34.172  31.725  1.00  0.00     0.135 A 
ATOM     67  F   UNL A   1      45.262  35.210  28.470  1.00  0.00    -0.206 F 
ATOM     68  C   UNL A   1      46.629  36.355  29.995  1.00  0.00     0.059 A 
ATOM     69  C   UNL A   1      47.237  35.301  32.102  1.00  0.00     0.059 A 
ATOM     70  F   UNL A   1      46.490  33.130  32.572  1.00  0.00    -0.206 F 
ATOM     71  C   UNL A   1      47.287  36.385  31.227  1.00  0.00     0.060 A 
BRANCH  71  72
ATOM     72  S   UNL A   1      48.170  37.887  31.689  1.00  0.00     0.124 S 
ATOM     73  O   UNL A   1      48.022  38.696  30.484  1.00  0.00    -0.237 OA
ATOM     74  O   UNL A   1      47.419  38.340  32.855  1.00  0.00    -0.237 OA
ATOM     75  O   UNL A   1      49.522  37.414  31.966  1.00  0.00    -0.744 OA
ENDBRANCH  71  72
ENDBRANCH  39  64
ENDBRANCH  13  14
ENDBRANCH   6   8
ENDBRANCH   5   6
ENDBRANCH   4   5
ENDBRANCH   3   4
ENDBRANCH   2   3
ENDBRANCH   1   2
BRANCH   1  76
ATOM     76  C   UNL A   1      33.413  22.454  25.553  1.00  0.00     0.188 C 
BRANCH  76  77
ATOM     77  O   UNL A   1      32.560  22.535  24.412  1.00  0.00    -0.376 OA
BRANCH  77  78
ATOM     78  C   UNL A   1      33.042  21.995  23.188  1.00  0.00     0.202 C 
BRANCH  78  79
ATOM     79  C   UNL A   1      33.287  22.943  22.000  1.00  0.00     0.261 C 
BRANCH  79  80
ATOM     80  O   UNL A   1      33.825  24.228  22.334  1.00  0.00    -0.459 OA
BRANCH  80  81
ATOM     81  C   UNL A   1      33.088  25.286  21.891  1.00  0.00     0.366 C 
ATOM     82  O   UNL A   1      33.283  25.861  20.823  1.00  0.00    -0.245 OA
BRANCH  81  83
ATOM     83  C   UNL A   1      31.977  25.706  22.853  1.00  0.00     0.313 C 
ATOM     84  C   UNL A   1      32.607  25.794  24.251  1.00  0.00     0.199 C 
ATOM     85  N   UNL A   1      30.771  24.822  22.827  1.00  0.00    -0.332 N 
ATOM     86  N   UNL A   1      31.616  26.271  25.204  1.00  0.00    -0.312 N 
ATOM     87  C   UNL A   1      29.781  25.330  23.809  1.00  0.00     0.283 C 
ATOM     88  H   UNL A   1      31.041  23.870  23.073  1.00  0.00     0.347 HD
ATOM     89  H   UNL A   1      30.362  24.823  21.892  1.00  0.00     0.347 HD
ATOM     90  C   UNL A   1      30.299  25.668  25.228  1.00  0.00     0.183 C 
BRANCH  86  91
ATOM     91  C   UNL A   1      31.899  27.344  25.959  1.00  0.00     0.324 A 
ATOM     92  N   UNL A   1      32.802  28.272  25.769  1.00  0.00    -0.171 NA
ATOM     93  O   UNL A   1      31.277  27.433  27.170  1.00  0.00    -0.315 OA
ATOM     94  C   UNL A   1      32.814  28.913  26.992  1.00  0.00     0.204 A 
ATOM     95  N   UNL A   1      31.895  28.461  27.858  1.00  0.00    -0.055 NA
BRANCH  94  96
ATOM     96  C   UNL A   1      33.879  29.827  27.379  1.00  0.00     0.023 A 
ATOM     97  C   UNL A   1      35.206  29.373  27.436  1.00  0.00     0.012 A 
ATOM     98  C   UNL A   1      33.616  31.184  27.605  1.00  0.00     0.012 A 
ATOM     99  C   UNL A   1      36.251  30.259  27.695  1.00  0.00     0.001 A 
ATOM    100  C   UNL A   1      34.664  32.070  27.874  1.00  0.00     0.001 A 
ATOM    101  C   UNL A   1      35.979  31.608  27.911  1.00  0.00     0.000 A 
ENDBRANCH  94  96
ENDBRANCH  86  91
ENDBRANCH  81  83
ENDBRANCH  80  81
ENDBRANCH  79  80
ENDBRANCH  78  79
ENDBRANCH  77  78
ENDBRANCH  76  77
ENDBRANCH   1  76
TORSDOF 22
ENDMDL
