MODEL 1
REMARK VINA RESULT:      -9.1      0.000      0.000
REMARK SMILES O=C(CSC(=S)N1CCCCC1)OCCOCCOCCOC(=O)c1ccc(-c2c3nc(c(-c4c(F)cc(S(=O)(=O)[O-])cc4F)c4ccc([nH]4)c(-c4c(F)cc(S(=O)(=O)[O-])cc4F)c4nc(c(-c5c(F)cc(S(=O)(=O)[O-])cc5F)c5ccc2[nH]5)C=C4)C=C3)cc1
REMARK SMILES IDX 17 1 16 2 15 3 14 4 13 5 2 6 1 7 3 8 4 9 5 10 6 11 7 12 8 13
REMARK SMILES IDX 12 14 9 15 11 16 10 17 18 18 19 19 20 20 21 21 22 22 23 23
REMARK SMILES IDX 24 24 25 25 26 26 90 27 27 28 89 29 28 30 29 31 30 32 83 33
REMARK SMILES IDX 31 34 88 35 82 36 84 37 32 38 87 39 81 40 80 41 33 43 67 44
REMARK SMILES IDX 46 45 66 46 47 47 50 48 65 49 85 50 48 51 49 52 64 54 86 55
REMARK SMILES IDX 51 56 34 57 35 58 44 59 36 60 37 61 43 62 45 63 38 64 39 65
REMARK SMILES IDX 40 66 41 67 42 68 68 69 69 70 78 71 70 72 71 73 77 74 79 75
REMARK SMILES IDX 72 76 73 77 74 78 75 79 76 80 52 81 53 82 62 83 54 84 55 85
REMARK SMILES IDX 61 86 63 87 56 88 57 89 58 90 59 91 60 92
REMARK H PARENT 84 42 50 53
REMARK Flexibility Score: inf
ROOT
ATOM      1  C   UNL A   1      35.407  23.159  26.205  1.00  0.00     0.188 C 
ENDROOT
BRANCH   1   2
ATOM      2  O   UNL A   1      35.080  21.777  26.209  1.00  0.00    -0.376 OA
BRANCH   2   3
ATOM      3  C   UNL A   1      33.829  21.433  26.791  1.00  0.00     0.202 C 
BRANCH   3   4
ATOM      4  C   UNL A   1      33.276  22.530  27.703  1.00  0.00     0.261 C 
BRANCH   4   5
ATOM      5  O   UNL A   1      31.893  22.912  27.522  1.00  0.00    -0.463 OA
BRANCH   5   6
ATOM      6  C   UNL A   1      31.141  22.953  26.403  1.00  0.00     0.316 C 
ATOM      7  O   UNL A   1      30.412  21.993  26.152  1.00  0.00    -0.251 OA
BRANCH   6   8
ATOM      8  C   UNL A   1      31.266  24.095  25.428  1.00  0.00     0.199 C 
BRANCH   8   9
ATOM      9  S   UNL A   1      30.217  25.512  25.798  1.00  0.00    -0.085 SA
BRANCH   9  10
ATOM     10  C   UNL A   1      30.914  26.783  24.786  1.00  0.00     0.136 C 
ATOM     11  S   UNL A   1      31.205  26.595  23.142  1.00  0.00    -0.053 S 
BRANCH  10  12
ATOM     12  N   UNL A   1      31.215  27.945  25.507  1.00  0.00    -0.358 N 
ATOM     13  C   UNL A   1      31.599  29.192  24.842  1.00  0.00     0.118 C 
ATOM     14  C   UNL A   1      31.687  27.874  26.896  1.00  0.00     0.118 C 
ATOM     15  C   UNL A   1      33.120  29.328  24.786  1.00  0.00     0.021 C 
ATOM     16  C   UNL A   1      33.217  27.891  26.888  1.00  0.00     0.021 C 
ATOM     17  C   UNL A   1      33.754  29.132  26.167  1.00  0.00     0.004 C 
ENDBRANCH  10  12
ENDBRANCH   9  10
ENDBRANCH   8   9
ENDBRANCH   6   8
ENDBRANCH   5   6
ENDBRANCH   4   5
ENDBRANCH   3   4
ENDBRANCH   2   3
ENDBRANCH   1   2
BRANCH   1  18
ATOM     18  C   UNL A   1      36.832  23.470  25.718  1.00  0.00     0.188 C 
BRANCH  18  19
ATOM     19  O   UNL A   1      37.926  22.991  26.486  1.00  0.00    -0.376 OA
BRANCH  19  20
ATOM     20  C   UNL A   1      39.020  22.399  25.786  1.00  0.00     0.202 C 
BRANCH  20  21
ATOM     21  C   UNL A   1      39.128  20.870  25.799  1.00  0.00     0.261 C 
BRANCH  21  22
ATOM     22  O   UNL A   1      40.002  20.348  26.826  1.00  0.00    -0.460 OA
BRANCH  22  23
ATOM     23  C   UNL A   1      41.217  19.949  26.373  1.00  0.00     0.338 C 
ATOM     24  O   UNL A   1      41.473  18.920  25.771  1.00  0.00    -0.246 OA
BRANCH  23  25
ATOM     25  C   UNL A   1      42.251  20.976  26.597  1.00  0.00     0.060 A 
ATOM     26  C   UNL A   1      42.478  21.403  27.911  1.00  0.00     0.016 A 
ATOM     27  C   UNL A   1      42.792  21.681  25.519  1.00  0.00     0.016 A 
ATOM     28  C   UNL A   1      43.183  22.585  28.149  1.00  0.00     0.010 A 
ATOM     29  C   UNL A   1      43.493  22.871  25.761  1.00  0.00     0.010 A 
ATOM     30  C   UNL A   1      43.638  23.359  27.072  1.00  0.00    -0.014 A 
BRANCH  30  31
ATOM     31  C   UNL A   1      44.052  24.767  27.314  1.00  0.00     0.031 A 
ATOM     32  C   UNL A   1      45.495  25.147  27.092  1.00  0.00     0.074 A 
ATOM     33  C   UNL A   1      43.163  25.709  27.679  1.00  0.00     0.049 A 
ATOM     34  N   UNL A   1      46.077  26.314  27.214  1.00  0.00    -0.248 NA
ATOM     35  C   UNL A   1      46.404  24.066  26.676  1.00  0.00     0.031 C 
ATOM     36  C   UNL A   1      41.736  25.487  27.898  1.00  0.00     0.029 A 
ATOM     37  N   UNL A   1      43.339  27.048  27.928  1.00  0.00    -0.354 N 
ATOM     38  C   UNL A   1      47.415  26.108  26.895  1.00  0.00     0.074 A 
ATOM     39  C   UNL A   1      47.565  24.699  26.601  1.00  0.00     0.031 C 
ATOM     40  C   UNL A   1      41.164  26.652  28.253  1.00  0.00     0.029 A 
ATOM     41  C   UNL A   1      42.187  27.697  28.301  1.00  0.00     0.049 A 
ATOM     42  H   UNL A   1      44.210  27.500  27.846  1.00  0.00     0.167 HD
ATOM     43  C   UNL A   1      48.426  27.008  26.840  1.00  0.00     0.037 A 
ATOM     44  C   UNL A   1      41.983  28.984  28.646  1.00  0.00     0.037 A 
ATOM     45  C   UNL A   1      48.284  28.411  27.122  1.00  0.00     0.049 A 
ATOM     46  C   UNL A   1      43.131  29.960  28.617  1.00  0.00     0.074 A 
ATOM     47  C   UNL A   1      49.249  29.403  27.069  1.00  0.00     0.029 A 
ATOM     48  N   UNL A   1      47.105  29.023  27.517  1.00  0.00    -0.354 N 
ATOM     49  N   UNL A   1      44.383  29.755  28.282  1.00  0.00    -0.248 NA
ATOM     50  C   UNL A   1      42.836  31.347  29.006  1.00  0.00     0.031 C 
ATOM     51  C   UNL A   1      48.660  30.610  27.466  1.00  0.00     0.029 A 
ATOM     52  C   UNL A   1      47.320  30.376  27.727  1.00  0.00     0.049 A 
ATOM     53  H   UNL A   1      46.241  28.564  27.629  1.00  0.00     0.167 HD
ATOM     54  C   UNL A   1      45.013  30.992  28.385  1.00  0.00     0.074 A 
ATOM     55  C   UNL A   1      44.005  31.940  28.813  1.00  0.00     0.031 C 
ATOM     56  C   UNL A   1      46.307  31.314  28.140  1.00  0.00     0.037 A 
BRANCH  43  57
ATOM     57  C   UNL A   1      49.790  26.489  26.477  1.00  0.00     0.058 A 
ATOM     58  C   UNL A   1      50.268  26.530  25.158  1.00  0.00     0.135 A 
ATOM     59  C   UNL A   1      50.635  25.961  27.466  1.00  0.00     0.135 A 
ATOM     60  F   UNL A   1      49.492  27.010  24.173  1.00  0.00    -0.206 F 
ATOM     61  C   UNL A   1      51.525  26.036  24.826  1.00  0.00     0.059 A 
ATOM     62  C   UNL A   1      51.905  25.483  27.161  1.00  0.00     0.059 A 
ATOM     63  F   UNL A   1      50.225  25.898  28.743  1.00  0.00    -0.206 F 
ATOM     64  C   UNL A   1      52.335  25.509  25.834  1.00  0.00     0.060 A 
BRANCH  64  65
ATOM     65  S   UNL A   1      53.961  24.862  25.392  1.00  0.00     0.124 S 
ATOM     66  O   UNL A   1      53.610  23.572  24.808  1.00  0.00    -0.237 OA
ATOM     67  O   UNL A   1      54.457  25.866  24.457  1.00  0.00    -0.237 OA
ATOM     68  O   UNL A   1      54.661  24.803  26.672  1.00  0.00    -0.744 OA
ENDBRANCH  64  65
ENDBRANCH  43  57
BRANCH  44  69
ATOM     69  C   UNL A   1      40.624  29.439  29.044  1.00  0.00     0.058 A 
ATOM     70  C   UNL A   1      40.308  29.685  30.388  1.00  0.00     0.135 A 
ATOM     71  C   UNL A   1      39.613  29.621  28.089  1.00  0.00     0.135 A 
ATOM     72  F   UNL A   1      41.240  29.510  31.338  1.00  0.00    -0.206 F 
ATOM     73  C   UNL A   1      39.032  30.081  30.776  1.00  0.00     0.059 A 
ATOM     74  C   UNL A   1      38.335  30.036  28.449  1.00  0.00     0.059 A 
ATOM     75  F   UNL A   1      39.869  29.406  26.789  1.00  0.00    -0.206 F 
ATOM     76  C   UNL A   1      38.052  30.254  29.797  1.00  0.00     0.060 A 
BRANCH  76  77
ATOM     77  S   UNL A   1      36.408  30.809  30.300  1.00  0.00     0.124 S 
ATOM     78  O   UNL A   1      36.086  29.856  31.356  1.00  0.00    -0.237 OA
ATOM     79  O   UNL A   1      36.662  32.180  30.731  1.00  0.00    -0.237 OA
ATOM     80  O   UNL A   1      35.625  30.682  29.073  1.00  0.00    -0.744 OA
ENDBRANCH  76  77
ENDBRANCH  44  69
BRANCH  56  81
ATOM     81  C   UNL A   1      46.703  32.758  28.281  1.00  0.00     0.058 A 
ATOM     82  C   UNL A   1      47.255  33.262  29.469  1.00  0.00     0.135 A 
ATOM     83  C   UNL A   1      46.563  33.641  27.198  1.00  0.00     0.135 A 
ATOM     84  F   UNL A   1      47.407  32.461  30.536  1.00  0.00    -0.206 F 
ATOM     85  C   UNL A   1      47.627  34.598  29.588  1.00  0.00     0.059 A 
ATOM     86  C   UNL A   1      46.950  34.975  27.287  1.00  0.00     0.059 A 
ATOM     87  F   UNL A   1      46.053  33.208  26.034  1.00  0.00    -0.206 F 
ATOM     88  C   UNL A   1      47.467  35.447  28.492  1.00  0.00     0.060 A 
BRANCH  88  89
ATOM     89  S   UNL A   1      47.970  37.176  28.648  1.00  0.00     0.124 S 
ATOM     90  O   UNL A   1      47.698  37.434  30.057  1.00  0.00    -0.237 OA
ATOM     91  O   UNL A   1      49.380  37.130  28.274  1.00  0.00    -0.237 OA
ATOM     92  O   UNL A   1      47.099  37.868  27.701  1.00  0.00    -0.744 OA
ENDBRANCH  88  89
ENDBRANCH  56  81
ENDBRANCH  30  31
ENDBRANCH  23  25
ENDBRANCH  22  23
ENDBRANCH  21  22
ENDBRANCH  20  21
ENDBRANCH  19  20
ENDBRANCH  18  19
ENDBRANCH   1  18
TORSDOF 23
ENDMDL
MODEL 2
REMARK VINA RESULT:      -9.0      6.598      9.137
REMARK SMILES O=C(CSC(=S)N1CCCCC1)OCCOCCOCCOC(=O)c1ccc(-c2c3nc(c(-c4c(F)cc(S(=O)(=O)[O-])cc4F)c4ccc([nH]4)c(-c4c(F)cc(S(=O)(=O)[O-])cc4F)c4nc(c(-c5c(F)cc(S(=O)(=O)[O-])cc5F)c5ccc2[nH]5)C=C4)C=C3)cc1
REMARK SMILES IDX 17 1 16 2 15 3 14 4 13 5 2 6 1 7 3 8 4 9 5 10 6 11 7 12 8 13
REMARK SMILES IDX 12 14 9 15 11 16 10 17 18 18 19 19 20 20 21 21 22 22 23 23
REMARK SMILES IDX 24 24 25 25 26 26 90 27 27 28 89 29 28 30 29 31 30 32 83 33
REMARK SMILES IDX 31 34 88 35 82 36 84 37 32 38 87 39 81 40 80 41 33 43 67 44
REMARK SMILES IDX 46 45 66 46 47 47 50 48 65 49 85 50 48 51 49 52 64 54 86 55
REMARK SMILES IDX 51 56 34 57 35 58 44 59 36 60 37 61 43 62 45 63 38 64 39 65
REMARK SMILES IDX 40 66 41 67 42 68 68 69 69 70 78 71 70 72 71 73 77 74 79 75
REMARK SMILES IDX 72 76 73 77 74 78 75 79 76 80 52 81 53 82 62 83 54 84 55 85
REMARK SMILES IDX 61 86 63 87 56 88 57 89 58 90 59 91 60 92
REMARK H PARENT 84 42 50 53
REMARK Flexibility Score: inf
ROOT
ATOM      1  C   UNL A   1      36.042  22.856  26.445  1.00  0.00     0.188 C 
ENDROOT
BRANCH   1   2
ATOM      2  O   UNL A   1      34.980  23.162  25.554  1.00  0.00    -0.376 OA
BRANCH   2   3
ATOM      3  C   UNL A   1      34.467  24.486  25.626  1.00  0.00     0.202 C 
BRANCH   3   4
ATOM      4  C   UNL A   1      33.580  24.846  24.434  1.00  0.00     0.261 C 
BRANCH   4   5
ATOM      5  O   UNL A   1      33.891  24.233  23.162  1.00  0.00    -0.463 OA
BRANCH   5   6
ATOM      6  C   UNL A   1      33.211  23.309  22.453  1.00  0.00     0.316 C 
ATOM      7  O   UNL A   1      33.386  23.260  21.234  1.00  0.00    -0.251 OA
BRANCH   6   8
ATOM      8  C   UNL A   1      32.184  22.427  23.114  1.00  0.00     0.199 C 
BRANCH   8   9
ATOM      9  S   UNL A   1      32.201  20.714  22.558  1.00  0.00    -0.085 SA
BRANCH   9  10
ATOM     10  C   UNL A   1      32.559  19.829  24.046  1.00  0.00     0.136 C 
ATOM     11  S   UNL A   1      33.178  20.561  25.426  1.00  0.00    -0.053 S 
BRANCH  10  12
ATOM     12  N   UNL A   1      32.292  18.458  23.939  1.00  0.00    -0.358 N 
ATOM     13  C   UNL A   1      32.132  17.605  25.119  1.00  0.00     0.118 C 
ATOM     14  C   UNL A   1      32.679  17.702  22.741  1.00  0.00     0.118 C 
ATOM     15  C   UNL A   1      33.445  16.903  25.460  1.00  0.00     0.021 C 
ATOM     16  C   UNL A   1      34.050  17.070  22.990  1.00  0.00     0.021 C 
ATOM     17  C   UNL A   1      34.033  16.185  24.242  1.00  0.00     0.004 C 
ENDBRANCH  10  12
ENDBRANCH   9  10
ENDBRANCH   8   9
ENDBRANCH   6   8
ENDBRANCH   5   6
ENDBRANCH   4   5
ENDBRANCH   3   4
ENDBRANCH   2   3
ENDBRANCH   1   2
BRANCH   1  18
ATOM     18  C   UNL A   1      37.268  22.216  25.771  1.00  0.00     0.188 C 
BRANCH  18  19
ATOM     19  O   UNL A   1      38.560  22.647  26.174  1.00  0.00    -0.376 OA
BRANCH  19  20
ATOM     20  C   UNL A   1      39.603  21.674  26.211  1.00  0.00     0.202 C 
BRANCH  20  21
ATOM     21  C   UNL A   1      40.614  21.758  27.360  1.00  0.00     0.261 C 
BRANCH  21  22
ATOM     22  O   UNL A   1      40.572  23.003  28.094  1.00  0.00    -0.460 OA
BRANCH  22  23
ATOM     23  C   UNL A   1      41.496  23.914  27.698  1.00  0.00     0.338 C 
ATOM     24  O   UNL A   1      42.462  23.715  26.980  1.00  0.00    -0.246 OA
BRANCH  23  25
ATOM     25  C   UNL A   1      41.157  25.275  28.155  1.00  0.00     0.060 A 
ATOM     26  C   UNL A   1      42.210  26.141  28.471  1.00  0.00     0.016 A 
ATOM     27  C   UNL A   1      39.844  25.595  28.508  1.00  0.00     0.016 A 
ATOM     28  C   UNL A   1      41.963  27.297  29.216  1.00  0.00     0.010 A 
ATOM     29  C   UNL A   1      39.600  26.752  29.261  1.00  0.00     0.010 A 
ATOM     30  C   UNL A   1      40.666  27.575  29.669  1.00  0.00    -0.014 A 
BRANCH  30  31
ATOM     31  C   UNL A   1      40.474  28.583  30.747  1.00  0.00     0.031 A 
ATOM     32  C   UNL A   1      41.349  28.505  31.975  1.00  0.00     0.074 A 
ATOM     33  C   UNL A   1      39.577  29.578  30.630  1.00  0.00     0.049 A 
ATOM     34  N   UNL A   1      41.379  29.287  33.025  1.00  0.00    -0.248 NA
ATOM     35  C   UNL A   1      42.320  27.400  32.023  1.00  0.00     0.031 C 
ATOM     36  C   UNL A   1      38.691  29.788  29.488  1.00  0.00     0.029 A 
ATOM     37  N   UNL A   1      39.268  30.602  31.491  1.00  0.00    -0.354 N 
ATOM     38  C   UNL A   1      42.364  28.767  33.858  1.00  0.00     0.074 A 
ATOM     39  C   UNL A   1      42.889  27.588  33.204  1.00  0.00     0.031 C 
ATOM     40  C   UNL A   1      37.933  30.875  29.720  1.00  0.00     0.029 A 
ATOM     41  C   UNL A   1      38.270  31.427  31.032  1.00  0.00     0.049 A 
ATOM     42  H   UNL A   1      39.720  30.732  32.355  1.00  0.00     0.167 HD
ATOM     43  C   UNL A   1      42.803  29.232  35.053  1.00  0.00     0.037 A 
ATOM     44  C   UNL A   1      37.691  32.500  31.607  1.00  0.00     0.037 A 
ATOM     45  C   UNL A   1      42.293  30.408  35.706  1.00  0.00     0.049 A 
ATOM     46  C   UNL A   1      38.167  32.976  32.956  1.00  0.00     0.074 A 
ATOM     47  C   UNL A   1      42.693  30.968  36.907  1.00  0.00     0.029 A 
ATOM     48  N   UNL A   1      41.268  31.203  35.217  1.00  0.00    -0.354 N 
ATOM     49  N   UNL A   1      39.121  32.492  33.715  1.00  0.00    -0.248 NA
ATOM     50  C   UNL A   1      37.490  34.153  33.523  1.00  0.00     0.031 C 
ATOM     51  C   UNL A   1      41.885  32.083  37.162  1.00  0.00     0.029 A 
ATOM     52  C   UNL A   1      41.010  32.239  36.100  1.00  0.00     0.049 A 
ATOM     53  H   UNL A   1      40.795  31.053  34.367  1.00  0.00     0.167 HD
ATOM     54  C   UNL A   1      39.183  33.325  34.828  1.00  0.00     0.074 A 
ATOM     55  C   UNL A   1      38.170  34.344  34.645  1.00  0.00     0.031 C 
ATOM     56  C   UNL A   1      40.008  33.256  35.902  1.00  0.00     0.037 A 
BRANCH  43  57
ATOM     57  C   UNL A   1      43.882  28.446  35.743  1.00  0.00     0.058 A 
ATOM     58  C   UNL A   1      43.581  27.422  36.654  1.00  0.00     0.135 A 
ATOM     59  C   UNL A   1      45.235  28.710  35.476  1.00  0.00     0.135 A 
ATOM     60  F   UNL A   1      42.303  27.142  36.957  1.00  0.00    -0.206 F 
ATOM     61  C   UNL A   1      44.584  26.707  37.301  1.00  0.00     0.059 A 
ATOM     62  C   UNL A   1      46.254  27.992  36.093  1.00  0.00     0.059 A 
ATOM     63  F   UNL A   1      45.577  29.680  34.612  1.00  0.00    -0.206 F 
ATOM     64  C   UNL A   1      45.919  27.003  37.017  1.00  0.00     0.060 A 
BRANCH  64  65
ATOM     65  S   UNL A   1      47.213  26.077  37.868  1.00  0.00     0.124 S 
ATOM     66  O   UNL A   1      48.415  26.609  37.233  1.00  0.00    -0.237 OA
ATOM     67  O   UNL A   1      47.012  26.460  39.262  1.00  0.00    -0.237 OA
ATOM     68  O   UNL A   1      46.898  24.687  37.553  1.00  0.00    -0.744 OA
ENDBRANCH  64  65
ENDBRANCH  43  57
BRANCH  44  69
ATOM     69  C   UNL A   1      36.594  33.217  30.905  1.00  0.00     0.058 A 
ATOM     70  C   UNL A   1      35.249  32.937  31.189  1.00  0.00     0.135 A 
ATOM     71  C   UNL A   1      36.869  34.184  29.927  1.00  0.00     0.135 A 
ATOM     72  F   UNL A   1      34.937  32.009  32.107  1.00  0.00    -0.206 F 
ATOM     73  C   UNL A   1      34.214  33.579  30.517  1.00  0.00     0.059 A 
ATOM     74  C   UNL A   1      35.852  34.854  29.256  1.00  0.00     0.059 A 
ATOM     75  F   UNL A   1      38.140  34.493  29.626  1.00  0.00    -0.206 F 
ATOM     76  C   UNL A   1      34.527  34.536  29.551  1.00  0.00     0.060 A 
BRANCH  76  77
ATOM     77  S   UNL A   1      33.179  35.398  28.711  1.00  0.00     0.124 S 
ATOM     78  O   UNL A   1      32.476  36.008  29.834  1.00  0.00    -0.237 OA
ATOM     79  O   UNL A   1      33.897  36.315  27.831  1.00  0.00    -0.237 OA
ATOM     80  O   UNL A   1      32.467  34.319  28.031  1.00  0.00    -0.744 OA
ENDBRANCH  76  77
ENDBRANCH  44  69
BRANCH  56  81
ATOM     81  C   UNL A   1      39.888  34.335  36.942  1.00  0.00     0.058 A 
ATOM     82  C   UNL A   1      40.656  35.508  36.885  1.00  0.00     0.135 A 
ATOM     83  C   UNL A   1      38.962  34.209  37.991  1.00  0.00     0.135 A 
ATOM     84  F   UNL A   1      41.558  35.678  35.906  1.00  0.00    -0.206 F 
ATOM     85  C   UNL A   1      40.531  36.506  37.848  1.00  0.00     0.059 A 
ATOM     86  C   UNL A   1      38.804  35.204  38.951  1.00  0.00     0.059 A 
ATOM     87  F   UNL A   1      38.193  33.112  38.085  1.00  0.00    -0.206 F 
ATOM     88  C   UNL A   1      39.604  36.342  38.879  1.00  0.00     0.060 A 
BRANCH  88  89
ATOM     89  S   UNL A   1      39.435  37.650  40.115  1.00  0.00     0.124 S 
ATOM     90  O   UNL A   1      38.248  38.352  39.638  1.00  0.00    -0.237 OA
ATOM     91  O   UNL A   1      39.269  36.896  41.353  1.00  0.00    -0.237 OA
ATOM     92  O   UNL A   1      40.690  38.387  40.002  1.00  0.00    -0.744 OA
ENDBRANCH  88  89
ENDBRANCH  56  81
ENDBRANCH  30  31
ENDBRANCH  23  25
ENDBRANCH  22  23
ENDBRANCH  21  22
ENDBRANCH  20  21
ENDBRANCH  19  20
ENDBRANCH  18  19
ENDBRANCH   1  18
TORSDOF 23
ENDMDL
MODEL 3
REMARK VINA RESULT:      -8.9      5.829      8.275
REMARK SMILES O=C(CSC(=S)N1CCCCC1)OCCOCCOCCOC(=O)c1ccc(-c2c3nc(c(-c4c(F)cc(S(=O)(=O)[O-])cc4F)c4ccc([nH]4)c(-c4c(F)cc(S(=O)(=O)[O-])cc4F)c4nc(c(-c5c(F)cc(S(=O)(=O)[O-])cc5F)c5ccc2[nH]5)C=C4)C=C3)cc1
REMARK SMILES IDX 17 1 16 2 15 3 14 4 13 5 2 6 1 7 3 8 4 9 5 10 6 11 7 12 8 13
REMARK SMILES IDX 12 14 9 15 11 16 10 17 18 18 19 19 20 20 21 21 22 22 23 23
REMARK SMILES IDX 24 24 25 25 26 26 90 27 27 28 89 29 28 30 29 31 30 32 83 33
REMARK SMILES IDX 31 34 88 35 82 36 84 37 32 38 87 39 81 40 80 41 33 43 67 44
REMARK SMILES IDX 46 45 66 46 47 47 50 48 65 49 85 50 48 51 49 52 64 54 86 55
REMARK SMILES IDX 51 56 34 57 35 58 44 59 36 60 37 61 43 62 45 63 38 64 39 65
REMARK SMILES IDX 40 66 41 67 42 68 68 69 69 70 78 71 70 72 71 73 77 74 79 75
REMARK SMILES IDX 72 76 73 77 74 78 75 79 76 80 52 81 53 82 62 83 54 84 55 85
REMARK SMILES IDX 61 86 63 87 56 88 57 89 58 90 59 91 60 92
REMARK H PARENT 84 42 50 53
REMARK Flexibility Score: inf
ROOT
ATOM      1  C   UNL A   1      41.200  19.241  26.166  1.00  0.00     0.188 C 
ENDROOT
BRANCH   1   2
ATOM      2  O   UNL A   1      40.086  20.036  25.786  1.00  0.00    -0.376 OA
BRANCH   2   3
ATOM      3  C   UNL A   1      39.917  21.256  26.496  1.00  0.00     0.202 C 
BRANCH   3   4
ATOM      4  C   UNL A   1      38.803  22.130  25.920  1.00  0.00     0.261 C 
BRANCH   4   5
ATOM      5  O   UNL A   1      37.801  21.482  25.102  1.00  0.00    -0.463 OA
BRANCH   5   6
ATOM      6  C   UNL A   1      36.710  21.993  24.497  1.00  0.00     0.316 C 
ATOM      7  O   UNL A   1      36.873  22.750  23.539  1.00  0.00    -0.251 OA
BRANCH   6   8
ATOM      8  C   UNL A   1      35.329  21.733  25.040  1.00  0.00     0.199 C 
BRANCH   8   9
ATOM      9  S   UNL A   1      34.802  22.881  26.324  1.00  0.00    -0.085 SA
BRANCH   9  10
ATOM     10  C   UNL A   1      33.222  23.417  25.738  1.00  0.00     0.136 C 
ATOM     11  S   UNL A   1      31.804  22.553  25.996  1.00  0.00    -0.053 S 
BRANCH  10  12
ATOM     12  N   UNL A   1      33.288  24.619  25.023  1.00  0.00    -0.358 N 
ATOM     13  C   UNL A   1      34.048  25.771  25.513  1.00  0.00     0.118 C 
ATOM     14  C   UNL A   1      32.230  24.997  24.078  1.00  0.00     0.118 C 
ATOM     15  C   UNL A   1      33.134  26.743  26.257  1.00  0.00     0.021 C 
ATOM     16  C   UNL A   1      31.221  25.883  24.811  1.00  0.00     0.021 C 
ATOM     17  C   UNL A   1      31.904  27.111  25.423  1.00  0.00     0.004 C 
ENDBRANCH  10  12
ENDBRANCH   9  10
ENDBRANCH   8   9
ENDBRANCH   6   8
ENDBRANCH   5   6
ENDBRANCH   4   5
ENDBRANCH   3   4
ENDBRANCH   2   3
ENDBRANCH   1   2
BRANCH   1  18
ATOM     18  C   UNL A   1      42.481  20.044  26.451  1.00  0.00     0.188 C 
BRANCH  18  19
ATOM     19  O   UNL A   1      43.211  20.562  25.349  1.00  0.00    -0.376 OA
BRANCH  19  20
ATOM     20  C   UNL A   1      43.911  21.791  25.535  1.00  0.00     0.202 C 
BRANCH  20  21
ATOM     21  C   UNL A   1      43.496  22.984  24.666  1.00  0.00     0.261 C 
BRANCH  21  22
ATOM     22  O   UNL A   1      42.639  23.935  25.338  1.00  0.00    -0.460 OA
BRANCH  22  23
ATOM     23  C   UNL A   1      43.204  25.152  25.534  1.00  0.00     0.338 C 
ATOM     24  O   UNL A   1      44.244  25.566  25.048  1.00  0.00    -0.246 OA
BRANCH  23  25
ATOM     25  C   UNL A   1      42.351  26.028  26.358  1.00  0.00     0.060 A 
ATOM     26  C   UNL A   1      42.634  27.399  26.368  1.00  0.00     0.016 A 
ATOM     27  C   UNL A   1      41.469  25.480  27.292  1.00  0.00     0.016 A 
ATOM     28  C   UNL A   1      42.097  28.216  27.365  1.00  0.00     0.010 A 
ATOM     29  C   UNL A   1      40.936  26.301  28.296  1.00  0.00     0.010 A 
ATOM     30  C   UNL A   1      41.297  27.660  28.372  1.00  0.00    -0.014 A 
BRANCH  30  31
ATOM     31  C   UNL A   1      41.037  28.443  29.610  1.00  0.00     0.031 A 
ATOM     32  C   UNL A   1      41.926  28.220  30.808  1.00  0.00     0.074 A 
ATOM     33  C   UNL A   1      40.064  29.371  29.665  1.00  0.00     0.049 A 
ATOM     34  N   UNL A   1      41.905  28.804  31.980  1.00  0.00    -0.248 NA
ATOM     35  C   UNL A   1      42.980  27.203  30.665  1.00  0.00     0.031 C 
ATOM     36  C   UNL A   1      39.154  29.709  28.573  1.00  0.00     0.029 A 
ATOM     37  N   UNL A   1      39.684  30.200  30.691  1.00  0.00    -0.354 N 
ATOM     38  C   UNL A   1      42.935  28.224  32.713  1.00  0.00     0.074 A 
ATOM     39  C   UNL A   1      43.544  27.223  31.864  1.00  0.00     0.031 C 
ATOM     40  C   UNL A   1      38.316  30.676  28.990  1.00  0.00     0.029 A 
ATOM     41  C   UNL A   1      38.621  31.012  30.381  1.00  0.00     0.049 A 
ATOM     42  H   UNL A   1      40.132  30.211  31.567  1.00  0.00     0.167 HD
ATOM     43  C   UNL A   1      43.347  28.504  33.973  1.00  0.00     0.037 A 
ATOM     44  C   UNL A   1      37.966  31.919  31.133  1.00  0.00     0.037 A 
ATOM     45  C   UNL A   1      42.754  29.503  34.821  1.00  0.00     0.049 A 
ATOM     46  C   UNL A   1      38.415  32.186  32.547  1.00  0.00     0.074 A 
ATOM     47  C   UNL A   1      43.120  29.873  36.104  1.00  0.00     0.029 A 
ATOM     48  N   UNL A   1      41.665  30.289  34.475  1.00  0.00    -0.354 N 
ATOM     49  N   UNL A   1      39.411  31.652  33.213  1.00  0.00    -0.248 NA
ATOM     50  C   UNL A   1      37.655  33.187  33.309  1.00  0.00     0.031 C 
ATOM     51  C   UNL A   1      42.229  30.858  36.548  1.00  0.00     0.029 A 
ATOM     52  C   UNL A   1      41.335  31.131  35.525  1.00  0.00     0.049 A 
ATOM     53  H   UNL A   1      41.197  30.256  33.609  1.00  0.00     0.167 HD
ATOM     54  C   UNL A   1      39.419  32.278  34.456  1.00  0.00     0.074 A 
ATOM     55  C   UNL A   1      38.328  33.230  34.450  1.00  0.00     0.031 C 
ATOM     56  C   UNL A   1      40.256  32.086  35.505  1.00  0.00     0.037 A 
BRANCH  43  57
ATOM     57  C   UNL A   1      44.490  27.696  34.519  1.00  0.00     0.058 A 
ATOM     58  C   UNL A   1      44.277  26.559  35.313  1.00  0.00     0.135 A 
ATOM     59  C   UNL A   1      45.816  28.054  34.229  1.00  0.00     0.135 A 
ATOM     60  F   UNL A   1      43.028  26.184  35.634  1.00  0.00    -0.206 F 
ATOM     61  C   UNL A   1      45.338  25.822  35.828  1.00  0.00     0.059 A 
ATOM     62  C   UNL A   1      46.894  27.319  34.713  1.00  0.00     0.059 A 
ATOM     63  F   UNL A   1      46.076  29.134  33.474  1.00  0.00    -0.206 F 
ATOM     64  C   UNL A   1      46.645  26.213  35.526  1.00  0.00     0.060 A 
BRANCH  64  65
ATOM     65  S   UNL A   1      48.016  25.257  36.206  1.00  0.00     0.124 S 
ATOM     66  O   UNL A   1      47.686  23.911  35.747  1.00  0.00    -0.237 OA
ATOM     67  O   UNL A   1      49.177  25.874  35.571  1.00  0.00    -0.237 OA
ATOM     68  O   UNL A   1      47.903  25.476  37.644  1.00  0.00    -0.744 OA
ENDBRANCH  64  65
ENDBRANCH  43  57
BRANCH  44  69
ATOM     69  C   UNL A   1      36.810  32.660  30.563  1.00  0.00     0.058 A 
ATOM     70  C   UNL A   1      37.002  33.731  29.679  1.00  0.00     0.135 A 
ATOM     71  C   UNL A   1      35.492  32.320  30.905  1.00  0.00     0.135 A 
ATOM     72  F   UNL A   1      38.245  34.101  29.335  1.00  0.00    -0.206 F 
ATOM     73  C   UNL A   1      35.929  34.452  29.163  1.00  0.00     0.059 A 
ATOM     74  C   UNL A   1      34.402  33.012  30.386  1.00  0.00     0.059 A 
ATOM     75  F   UNL A   1      35.256  31.297  31.741  1.00  0.00    -0.206 F 
ATOM     76  C   UNL A   1      34.632  34.084  29.525  1.00  0.00     0.060 A 
BRANCH  76  77
ATOM     77  S   UNL A   1      33.240  34.995  28.819  1.00  0.00     0.124 S 
ATOM     78  O   UNL A   1      32.473  35.329  30.014  1.00  0.00    -0.237 OA
ATOM     79  O   UNL A   1      33.904  36.110  28.153  1.00  0.00    -0.237 OA
ATOM     80  O   UNL A   1      32.623  34.019  27.925  1.00  0.00    -0.744 OA
ENDBRANCH  76  77
ENDBRANCH  44  69
BRANCH  56  81
ATOM     81  C   UNL A   1      40.062  32.952  36.718  1.00  0.00     0.058 A 
ATOM     82  C   UNL A   1      40.843  34.096  36.945  1.00  0.00     0.135 A 
ATOM     83  C   UNL A   1      39.053  32.652  37.649  1.00  0.00     0.135 A 
ATOM     84  F   UNL A   1      41.823  34.425  36.089  1.00  0.00    -0.206 F 
ATOM     85  C   UNL A   1      40.649  34.897  38.067  1.00  0.00     0.059 A 
ATOM     86  C   UNL A   1      38.827  33.452  38.765  1.00  0.00     0.059 A 
ATOM     87  F   UNL A   1      38.269  31.577  37.473  1.00  0.00    -0.206 F 
ATOM     88  C   UNL A   1      39.641  34.564  38.973  1.00  0.00     0.060 A 
BRANCH  88  89
ATOM     89  S   UNL A   1      39.384  35.619  40.417  1.00  0.00     0.124 S 
ATOM     90  O   UNL A   1      38.326  34.901  41.120  1.00  0.00    -0.237 OA
ATOM     91  O   UNL A   1      40.695  35.603  41.059  1.00  0.00    -0.237 OA
ATOM     92  O   UNL A   1      38.995  36.900  39.835  1.00  0.00    -0.744 OA
ENDBRANCH  88  89
ENDBRANCH  56  81
ENDBRANCH  30  31
ENDBRANCH  23  25
ENDBRANCH  22  23
ENDBRANCH  21  22
ENDBRANCH  20  21
ENDBRANCH  19  20
ENDBRANCH  18  19
ENDBRANCH   1  18
TORSDOF 23
ENDMDL
