MODEL 1
REMARK VINA RESULT:     -10.0      0.000      0.000
REMARK SMILES O=C(OCCOCCOCCOC(=O)[C@H]1CCCN(C(=O)CCOc2ccc(F)cc2)C1)c1ccc(-c2c3nc(c(-c4c(F)cc(S(=O)(=O)[O-])cc4F)c4ccc([nH]4)c(-c4c(F)cc(S(=O)(=O)[O-])cc4F)c4nc(c(-c5c(F)cc(S(=O)(=O)[O-])cc5F)c5ccc2[nH]5)C=C4)C=C3)cc1
REMARK SMILES IDX 8 1 7 2 6 3 5 4 4 5 3 6 2 7 1 8 33 9 34 10 98 11 35 12 97 13
REMARK SMILES IDX 36 14 37 15 38 16 91 17 39 18 96 19 90 20 92 21 40 22 95 23
REMARK SMILES IDX 89 24 88 25 41 27 75 28 54 29 74 30 55 31 58 32 73 33 93 34
REMARK SMILES IDX 56 35 57 36 72 38 94 39 59 40 42 41 43 42 52 43 44 44 45 45
REMARK SMILES IDX 51 46 53 47 46 48 47 49 48 50 49 51 50 52 76 53 77 54 86 55
REMARK SMILES IDX 78 56 79 57 85 58 87 59 80 60 81 61 82 62 83 63 84 64 60 65
REMARK SMILES IDX 61 66 70 67 62 68 63 69 69 70 71 71 64 72 65 73 66 74 67 75
REMARK SMILES IDX 68 76 9 77 10 78 11 79 12 80 13 81 14 82 15 83 16 84 32 85
REMARK SMILES IDX 17 86 19 87 18 88 20 89 21 90 22 91 23 92 24 93 25 94 26 95
REMARK SMILES IDX 31 96 27 97 30 98 28 99 29 100
REMARK H PARENT 92 26 58 37
REMARK Flexibility Score: inf
ROOT
ATOM      1  C   UNL A   1      30.022  29.442  22.349  1.00  0.00     0.188 C 
ENDROOT
BRANCH   1   2
ATOM      2  C   UNL A   1      29.837  30.060  23.717  1.00  0.00     0.188 C 
BRANCH   2   3
ATOM      3  O   UNL A   1      30.808  29.716  24.688  1.00  0.00    -0.376 OA
BRANCH   3   4
ATOM      4  C   UNL A   1      31.470  30.726  25.420  1.00  0.00     0.202 C 
BRANCH   4   5
ATOM      5  C   UNL A   1      31.750  30.480  26.913  1.00  0.00     0.261 C 
BRANCH   5   6
ATOM      6  O   UNL A   1      33.111  30.264  27.346  1.00  0.00    -0.460 OA
BRANCH   6   7
ATOM      7  C   UNL A   1      34.097  31.085  27.787  1.00  0.00     0.338 C 
ATOM      8  O   UNL A   1      33.857  32.291  27.812  1.00  0.00    -0.246 OA
BRANCH   7   9
ATOM      9  C   UNL A   1      35.488  30.641  28.131  1.00  0.00     0.060 A 
ATOM     10  C   UNL A   1      35.856  29.333  28.415  1.00  0.00     0.016 A 
ATOM     11  C   UNL A   1      36.510  31.607  28.137  1.00  0.00     0.016 A 
ATOM     12  C   UNL A   1      37.168  28.965  28.675  1.00  0.00     0.010 A 
ATOM     13  C   UNL A   1      37.835  31.262  28.448  1.00  0.00     0.010 A 
ATOM     14  C   UNL A   1      38.161  29.932  28.743  1.00  0.00    -0.014 A 
BRANCH  14  15
ATOM     15  C   UNL A   1      39.420  29.550  29.415  1.00  0.00     0.031 A 
ATOM     16  C   UNL A   1      39.752  30.267  30.689  1.00  0.00     0.074 A 
ATOM     17  C   UNL A   1      40.105  28.447  29.057  1.00  0.00     0.049 A 
ATOM     18  N   UNL A   1      40.779  30.114  31.476  1.00  0.00    -0.248 NA
ATOM     19  C   UNL A   1      38.762  31.248  31.175  1.00  0.00     0.031 C 
ATOM     20  C   UNL A   1      39.690  27.512  28.015  1.00  0.00     0.029 A 
ATOM     21  N   UNL A   1      41.254  27.890  29.556  1.00  0.00    -0.354 N 
ATOM     22  C   UNL A   1      40.551  30.962  32.550  1.00  0.00     0.074 A 
ATOM     23  C   UNL A   1      39.319  31.668  32.299  1.00  0.00     0.031 C 
ATOM     24  C   UNL A   1      40.578  26.507  27.946  1.00  0.00     0.029 A 
ATOM     25  C   UNL A   1      41.668  26.775  28.863  1.00  0.00     0.049 A 
ATOM     26  H   UNL A   1      41.737  28.252  30.333  1.00  0.00     0.167 HD
ATOM     27  C   UNL A   1      41.298  31.106  33.664  1.00  0.00     0.037 A 
ATOM     28  C   UNL A   1      42.810  26.068  28.932  1.00  0.00     0.037 A 
ATOM     29  C   UNL A   1      42.510  30.375  33.894  1.00  0.00     0.049 A 
ATOM     30  C   UNL A   1      43.758  26.420  30.039  1.00  0.00     0.074 A 
ATOM     31  C   UNL A   1      43.400  30.496  34.943  1.00  0.00     0.029 A 
ATOM     32  N   UNL A   1      42.998  29.377  33.059  1.00  0.00    -0.354 N 
ATOM     33  N   UNL A   1      43.591  27.299  30.999  1.00  0.00    -0.248 NA
ATOM     34  C   UNL A   1      45.018  25.674  30.109  1.00  0.00     0.031 C 
ATOM     35  C   UNL A   1      44.459  29.616  34.711  1.00  0.00     0.029 A 
ATOM     36  C   UNL A   1      44.196  28.895  33.553  1.00  0.00     0.049 A 
ATOM     37  H   UNL A   1      42.557  29.060  32.239  1.00  0.00     0.167 HD
ATOM     38  C   UNL A   1      44.698  27.176  31.820  1.00  0.00     0.074 A 
ATOM     39  C   UNL A   1      45.529  26.136  31.243  1.00  0.00     0.031 C 
ATOM     40  C   UNL A   1      44.992  27.852  32.957  1.00  0.00     0.037 A 
BRANCH  27  41
ATOM     41  C   UNL A   1      40.847  32.112  34.679  1.00  0.00     0.058 A 
ATOM     42  C   UNL A   1      41.269  33.446  34.580  1.00  0.00     0.135 A 
ATOM     43  C   UNL A   1      40.030  31.759  35.766  1.00  0.00     0.135 A 
ATOM     44  F   UNL A   1      42.022  33.842  33.541  1.00  0.00    -0.206 F 
ATOM     45  C   UNL A   1      40.932  34.387  35.544  1.00  0.00     0.059 A 
ATOM     46  C   UNL A   1      39.658  32.691  36.729  1.00  0.00     0.059 A 
ATOM     47  F   UNL A   1      39.559  30.506  35.879  1.00  0.00    -0.206 F 
ATOM     48  C   UNL A   1      40.134  33.997  36.621  1.00  0.00     0.060 A 
BRANCH  48  49
ATOM     49  S   UNL A   1      39.733  35.230  37.876  1.00  0.00     0.124 S 
ATOM     50  O   UNL A   1      39.598  36.440  37.073  1.00  0.00    -0.237 OA
ATOM     51  O   UNL A   1      38.495  34.698  38.439  1.00  0.00    -0.237 OA
ATOM     52  O   UNL A   1      40.886  35.193  38.769  1.00  0.00    -0.744 OA
ENDBRANCH  48  49
ENDBRANCH  27  41
BRANCH  28  53
ATOM     53  C   UNL A   1      43.122  25.000  27.940  1.00  0.00     0.058 A 
ATOM     54  C   UNL A   1      43.820  25.291  26.754  1.00  0.00     0.135 A 
ATOM     55  C   UNL A   1      42.759  23.663  28.160  1.00  0.00     0.135 A 
ATOM     56  F   UNL A   1      44.185  26.553  26.478  1.00  0.00    -0.206 F 
ATOM     57  C   UNL A   1      44.146  24.301  25.829  1.00  0.00     0.059 A 
ATOM     58  C   UNL A   1      43.093  22.651  27.261  1.00  0.00     0.059 A 
ATOM     59  F   UNL A   1      42.094  23.328  29.275  1.00  0.00    -0.206 F 
ATOM     60  C   UNL A   1      43.782  22.982  26.094  1.00  0.00     0.060 A 
BRANCH  60  61
ATOM     61  S   UNL A   1      44.238  21.709  24.896  1.00  0.00     0.124 S 
ATOM     62  O   UNL A   1      45.587  21.365  25.336  1.00  0.00    -0.237 OA
ATOM     63  O   UNL A   1      43.216  20.693  25.128  1.00  0.00    -0.237 OA
ATOM     64  O   UNL A   1      44.153  22.403  23.615  1.00  0.00    -0.744 OA
ENDBRANCH  60  61
ENDBRANCH  28  53
BRANCH  40  65
ATOM     65  C   UNL A   1      46.251  27.468  33.671  1.00  0.00     0.058 A 
ATOM     66  C   UNL A   1      47.467  28.085  33.336  1.00  0.00     0.135 A 
ATOM     67  C   UNL A   1      46.268  26.434  34.618  1.00  0.00     0.135 A 
ATOM     68  F   UNL A   1      47.500  29.075  32.430  1.00  0.00    -0.206 F 
ATOM     69  C   UNL A   1      48.664  27.667  33.897  1.00  0.00     0.059 A 
ATOM     70  C   UNL A   1      47.450  26.028  35.221  1.00  0.00     0.059 A 
ATOM     71  F   UNL A   1      45.126  25.826  34.977  1.00  0.00    -0.206 F 
ATOM     72  C   UNL A   1      48.645  26.637  34.838  1.00  0.00     0.060 A 
BRANCH  72  73
ATOM     73  S   UNL A   1      50.211  26.116  35.562  1.00  0.00     0.124 S 
ATOM     74  O   UNL A   1      50.972  27.359  35.555  1.00  0.00    -0.237 OA
ATOM     75  O   UNL A   1      49.795  25.631  36.874  1.00  0.00    -0.237 OA
ATOM     76  O   UNL A   1      50.683  25.086  34.640  1.00  0.00    -0.744 OA
ENDBRANCH  72  73
ENDBRANCH  40  65
ENDBRANCH  14  15
ENDBRANCH   7   9
ENDBRANCH   6   7
ENDBRANCH   5   6
ENDBRANCH   4   5
ENDBRANCH   3   4
ENDBRANCH   2   3
ENDBRANCH   1   2
BRANCH   1  77
ATOM     77  O   UNL A   1      31.059  28.481  22.351  1.00  0.00    -0.376 OA
BRANCH  77  78
ATOM     78  C   UNL A   1      30.676  27.157  22.723  1.00  0.00     0.202 C 
BRANCH  78  79
ATOM     79  C   UNL A   1      31.090  25.945  21.828  1.00  0.00     0.261 C 
BRANCH  79  80
ATOM     80  O   UNL A   1      32.410  25.301  21.858  1.00  0.00    -0.463 OA
BRANCH  80  81
ATOM     81  C   UNL A   1      33.470  25.972  22.373  1.00  0.00     0.310 C 
ATOM     82  O   UNL A   1      34.177  26.698  21.677  1.00  0.00    -0.252 OA
BRANCH  81  83
ATOM     83  C   UNL A   1      33.643  25.819  24.123  1.00  0.00     0.119 C 
ATOM     84  C   UNL A   1      33.022  27.189  25.756  1.00  0.00     0.019 C 
ATOM     85  C   UNL A   1      32.537  24.203  23.993  1.00  0.00     0.134 C 
ATOM     86  C   UNL A   1      31.312  26.652  26.588  1.00  0.00     0.022 C 
ATOM     87  N   UNL A   1      31.510  23.791  25.268  1.00  0.00    -0.342 N 
ATOM     88  C   UNL A   1      30.543  25.004  26.042  1.00  0.00     0.119 C 
BRANCH  87  89
ATOM     89  C   UNL A   1      32.125  22.717  25.998  1.00  0.00     0.226 C 
ATOM     90  O   UNL A   1      32.346  22.825  27.207  1.00  0.00    -0.275 OA
BRANCH  89  91
ATOM     91  C   UNL A   1      32.254  21.311  25.325  1.00  0.00     0.141 C 
BRANCH  91  92
ATOM     92  C   UNL A   1      33.608  20.509  25.583  1.00  0.00     0.239 C 
BRANCH  92  93
ATOM     93  O   UNL A   1      34.762  20.336  24.674  1.00  0.00    -0.493 OA
BRANCH  93  94
ATOM     94  C   UNL A   1      35.908  21.037  24.896  1.00  0.00     0.119 A 
ATOM     95  C   UNL A   1      35.681  22.543  25.479  1.00  0.00     0.049 A 
ATOM     96  C   UNL A   1      37.490  20.445  25.027  1.00  0.00     0.049 A 
ATOM     97  C   UNL A   1      37.057  23.739  26.151  1.00  0.00     0.043 A 
ATOM     98  C   UNL A   1      38.840  21.379  25.633  1.00  0.00     0.043 A 
ATOM     99  C   UNL A   1      38.679  23.007  26.237  1.00  0.00     0.123 A 
ATOM    100  F   UNL A   1      39.714  23.644  26.792  1.00  0.00    -0.207 F 
ENDBRANCH  93  94
ENDBRANCH  92  93
ENDBRANCH  91  92
ENDBRANCH  89  91
ENDBRANCH  87  89
ENDBRANCH  81  83
ENDBRANCH  80  81
ENDBRANCH  79  80
ENDBRANCH  78  79
ENDBRANCH  77  78
ENDBRANCH   1  77
TORSDOF 25
ENDMDL
MODEL 2
REMARK VINA RESULT:      -9.9      5.162      6.561
REMARK SMILES O=C(OCCOCCOCCOC(=O)[C@H]1CCCN(C(=O)CCOc2ccc(F)cc2)C1)c1ccc(-c2c3nc(c(-c4c(F)cc(S(=O)(=O)[O-])cc4F)c4ccc([nH]4)c(-c4c(F)cc(S(=O)(=O)[O-])cc4F)c4nc(c(-c5c(F)cc(S(=O)(=O)[O-])cc5F)c5ccc2[nH]5)C=C4)C=C3)cc1
REMARK SMILES IDX 8 1 7 2 6 3 5 4 4 5 3 6 2 7 1 8 33 9 34 10 98 11 35 12 97 13
REMARK SMILES IDX 36 14 37 15 38 16 91 17 39 18 96 19 90 20 92 21 40 22 95 23
REMARK SMILES IDX 89 24 88 25 41 27 75 28 54 29 74 30 55 31 58 32 73 33 93 34
REMARK SMILES IDX 56 35 57 36 72 38 94 39 59 40 42 41 43 42 52 43 44 44 45 45
REMARK SMILES IDX 51 46 53 47 46 48 47 49 48 50 49 51 50 52 76 53 77 54 86 55
REMARK SMILES IDX 78 56 79 57 85 58 87 59 80 60 81 61 82 62 83 63 84 64 60 65
REMARK SMILES IDX 61 66 70 67 62 68 63 69 69 70 71 71 64 72 65 73 66 74 67 75
REMARK SMILES IDX 68 76 9 77 10 78 11 79 12 80 13 81 14 82 15 83 16 84 32 85
REMARK SMILES IDX 17 86 19 87 18 88 20 89 21 90 22 91 23 92 24 93 25 94 26 95
REMARK SMILES IDX 31 96 27 97 30 98 28 99 29 100
REMARK H PARENT 92 26 58 37
REMARK Flexibility Score: inf
ROOT
ATOM      1  C   UNL A   1      33.739  26.436  25.601  1.00  0.00     0.188 C 
ENDROOT
BRANCH   1   2
ATOM      2  C   UNL A   1      33.480  27.662  26.448  1.00  0.00     0.188 C 
BRANCH   2   3
ATOM      3  O   UNL A   1      34.406  28.722  26.304  1.00  0.00    -0.376 OA
BRANCH   3   4
ATOM      4  C   UNL A   1      34.451  29.762  27.258  1.00  0.00     0.202 C 
BRANCH   4   5
ATOM      5  C   UNL A   1      35.828  30.251  27.741  1.00  0.00     0.261 C 
BRANCH   5   6
ATOM      6  O   UNL A   1      36.216  30.015  29.112  1.00  0.00    -0.460 OA
BRANCH   6   7
ATOM      7  C   UNL A   1      37.262  29.377  29.696  1.00  0.00     0.338 C 
ATOM      8  O   UNL A   1      37.041  28.782  30.750  1.00  0.00    -0.246 OA
BRANCH   7   9
ATOM      9  C   UNL A   1      38.680  29.447  29.216  1.00  0.00     0.060 A 
ATOM     10  C   UNL A   1      39.081  29.286  27.896  1.00  0.00     0.016 A 
ATOM     11  C   UNL A   1      39.687  29.731  30.157  1.00  0.00     0.016 A 
ATOM     12  C   UNL A   1      40.403  29.413  27.495  1.00  0.00     0.010 A 
ATOM     13  C   UNL A   1      41.036  29.811  29.777  1.00  0.00     0.010 A 
ATOM     14  C   UNL A   1      41.398  29.628  28.437  1.00  0.00    -0.014 A 
BRANCH  14  15
ATOM     15  C   UNL A   1      42.787  29.345  28.018  1.00  0.00     0.031 A 
ATOM     16  C   UNL A   1      43.793  30.436  28.228  1.00  0.00     0.074 A 
ATOM     17  C   UNL A   1      43.190  28.098  27.709  1.00  0.00     0.049 A 
ATOM     18  N   UNL A   1      45.068  30.441  27.962  1.00  0.00    -0.248 NA
ATOM     19  C   UNL A   1      43.309  31.668  28.881  1.00  0.00     0.031 C 
ATOM     20  C   UNL A   1      42.343  26.910  27.771  1.00  0.00     0.029 A 
ATOM     21  N   UNL A   1      44.415  27.605  27.337  1.00  0.00    -0.354 N 
ATOM     22  C   UNL A   1      45.538  31.661  28.427  1.00  0.00     0.074 A 
ATOM     23  C   UNL A   1      44.410  32.397  28.945  1.00  0.00     0.031 C 
ATOM     24  C   UNL A   1      43.071  25.831  27.437  1.00  0.00     0.029 A 
ATOM     25  C   UNL A   1      44.398  26.261  27.045  1.00  0.00     0.049 A 
ATOM     26  H   UNL A   1      45.226  28.159  27.283  1.00  0.00     0.167 HD
ATOM     27  C   UNL A   1      46.811  32.106  28.446  1.00  0.00     0.037 A 
ATOM     28  C   UNL A   1      45.334  25.467  26.492  1.00  0.00     0.037 A 
ATOM     29  C   UNL A   1      47.914  31.341  27.940  1.00  0.00     0.049 A 
ATOM     30  C   UNL A   1      46.692  26.068  26.282  1.00  0.00     0.074 A 
ATOM     31  C   UNL A   1      49.238  31.718  27.824  1.00  0.00     0.029 A 
ATOM     32  N   UNL A   1      47.820  30.037  27.470  1.00  0.00    -0.354 N 
ATOM     33  N   UNL A   1      47.110  27.263  26.626  1.00  0.00    -0.248 NA
ATOM     34  C   UNL A   1      47.712  25.222  25.655  1.00  0.00     0.031 C 
ATOM     35  C   UNL A   1      49.932  30.665  27.226  1.00  0.00     0.029 A 
ATOM     36  C   UNL A   1      49.057  29.605  27.033  1.00  0.00     0.049 A 
ATOM     37  H   UNL A   1      46.995  29.501  27.452  1.00  0.00     0.167 HD
ATOM     38  C   UNL A   1      48.458  27.295  26.309  1.00  0.00     0.074 A 
ATOM     39  C   UNL A   1      48.783  25.999  25.745  1.00  0.00     0.031 C 
ATOM     40  C   UNL A   1      49.347  28.303  26.484  1.00  0.00     0.037 A 
BRANCH  27  41
ATOM     41  C   UNL A   1      47.060  33.481  28.986  1.00  0.00     0.058 A 
ATOM     42  C   UNL A   1      47.284  33.665  30.359  1.00  0.00     0.135 A 
ATOM     43  C   UNL A   1      47.047  34.619  28.163  1.00  0.00     0.135 A 
ATOM     44  F   UNL A   1      47.340  32.607  31.183  1.00  0.00    -0.206 F 
ATOM     45  C   UNL A   1      47.443  34.932  30.904  1.00  0.00     0.059 A 
ATOM     46  C   UNL A   1      47.231  35.895  28.683  1.00  0.00     0.059 A 
ATOM     47  F   UNL A   1      46.887  34.490  26.835  1.00  0.00    -0.206 F 
ATOM     48  C   UNL A   1      47.405  36.043  30.059  1.00  0.00     0.060 A 
BRANCH  48  49
ATOM     49  S   UNL A   1      47.587  37.681  30.793  1.00  0.00     0.124 S 
ATOM     50  O   UNL A   1      46.785  38.502  29.893  1.00  0.00    -0.237 OA
ATOM     51  O   UNL A   1      47.036  37.477  32.130  1.00  0.00    -0.237 OA
ATOM     52  O   UNL A   1      49.026  37.917  30.745  1.00  0.00    -0.744 OA
ENDBRANCH  48  49
ENDBRANCH  27  41
BRANCH  28  53
ATOM     53  C   UNL A   1      45.023  24.066  26.090  1.00  0.00     0.058 A 
ATOM     54  C   UNL A   1      44.218  23.793  24.970  1.00  0.00     0.135 A 
ATOM     55  C   UNL A   1      45.541  22.968  26.793  1.00  0.00     0.135 A 
ATOM     56  F   UNL A   1      43.681  24.799  24.262  1.00  0.00    -0.206 F 
ATOM     57  C   UNL A   1      43.941  22.489  24.562  1.00  0.00     0.059 A 
ATOM     58  C   UNL A   1      45.297  21.655  26.392  1.00  0.00     0.059 A 
ATOM     59  F   UNL A   1      46.317  23.170  27.867  1.00  0.00    -0.206 F 
ATOM     60  C   UNL A   1      44.490  21.426  25.277  1.00  0.00     0.060 A 
BRANCH  60  61
ATOM     61  S   UNL A   1      44.141  19.744  24.717  1.00  0.00     0.124 S 
ATOM     62  O   UNL A   1      42.705  19.649  24.959  1.00  0.00    -0.237 OA
ATOM     63  O   UNL A   1      44.547  19.800  23.316  1.00  0.00    -0.237 OA
ATOM     64  O   UNL A   1      44.980  18.919  25.579  1.00  0.00    -0.744 OA
ENDBRANCH  60  61
ENDBRANCH  28  53
BRANCH  40  65
ATOM     65  C   UNL A   1      50.766  28.034  26.089  1.00  0.00     0.058 A 
ATOM     66  C   UNL A   1      51.121  27.981  24.733  1.00  0.00     0.135 A 
ATOM     67  C   UNL A   1      51.749  27.744  27.046  1.00  0.00     0.135 A 
ATOM     68  F   UNL A   1      50.212  28.245  23.781  1.00  0.00    -0.206 F 
ATOM     69  C   UNL A   1      52.401  27.619  24.337  1.00  0.00     0.059 A 
ATOM     70  C   UNL A   1      53.046  27.418  26.674  1.00  0.00     0.059 A 
ATOM     71  F   UNL A   1      51.455  27.796  28.356  1.00  0.00    -0.206 F 
ATOM     72  C   UNL A   1      53.355  27.339  25.316  1.00  0.00     0.060 A 
BRANCH  72  73
ATOM     73  S   UNL A   1      55.013  26.879  24.780  1.00  0.00     0.124 S 
ATOM     74  O   UNL A   1      55.768  26.984  26.023  1.00  0.00    -0.237 OA
ATOM     75  O   UNL A   1      54.806  25.526  24.273  1.00  0.00    -0.237 OA
ATOM     76  O   UNL A   1      55.331  27.880  23.766  1.00  0.00    -0.744 OA
ENDBRANCH  72  73
ENDBRANCH  40  65
ENDBRANCH  14  15
ENDBRANCH   7   9
ENDBRANCH   6   7
ENDBRANCH   5   6
ENDBRANCH   4   5
ENDBRANCH   3   4
ENDBRANCH   2   3
ENDBRANCH   1   2
BRANCH   1  77
ATOM     77  O   UNL A   1      32.743  26.272  24.611  1.00  0.00    -0.376 OA
BRANCH  77  78
ATOM     78  C   UNL A   1      31.425  26.668  24.988  1.00  0.00     0.202 C 
BRANCH  78  79
ATOM     79  C   UNL A   1      30.569  25.748  25.916  1.00  0.00     0.261 C 
BRANCH  79  80
ATOM     80  O   UNL A   1      31.122  24.720  26.808  1.00  0.00    -0.463 OA
BRANCH  80  81
ATOM     81  C   UNL A   1      30.624  23.459  26.766  1.00  0.00     0.310 C 
ATOM     82  O   UNL A   1      29.926  23.008  27.672  1.00  0.00    -0.252 OA
BRANCH  81  83
ATOM     83  C   UNL A   1      30.948  22.603  25.257  1.00  0.00     0.119 C 
ATOM     84  C   UNL A   1      30.997  23.342  23.164  1.00  0.00     0.019 C 
ATOM     85  C   UNL A   1      32.723  22.190  25.984  1.00  0.00     0.134 C 
ATOM     86  C   UNL A   1      32.834  23.702  22.530  1.00  0.00     0.022 C 
ATOM     87  N   UNL A   1      34.042  22.058  24.939  1.00  0.00    -0.342 N 
ATOM     88  C   UNL A   1      34.273  23.215  23.668  1.00  0.00     0.119 C 
BRANCH  87  89
ATOM     89  C   UNL A   1      34.329  20.660  24.767  1.00  0.00     0.226 C 
ATOM     90  O   UNL A   1      33.522  19.918  24.201  1.00  0.00    -0.275 OA
BRANCH  89  91
ATOM     91  C   UNL A   1      35.777  20.138  25.042  1.00  0.00     0.141 C 
BRANCH  91  92
ATOM     92  C   UNL A   1      36.981  21.013  24.466  1.00  0.00     0.239 C 
BRANCH  92  93
ATOM     93  O   UNL A   1      37.386  22.382  24.847  1.00  0.00    -0.493 OA
BRANCH  93  94
ATOM     94  C   UNL A   1      38.246  22.569  25.886  1.00  0.00     0.119 A 
ATOM     95  C   UNL A   1      39.296  21.346  26.127  1.00  0.00     0.049 A 
ATOM     96  C   UNL A   1      38.630  24.015  26.683  1.00  0.00     0.049 A 
ATOM     97  C   UNL A   1      40.821  21.354  27.332  1.00  0.00     0.043 A 
ATOM     98  C   UNL A   1      39.979  24.202  27.781  1.00  0.00     0.043 A 
ATOM     99  C   UNL A   1      41.121  22.927  28.114  1.00  0.00     0.123 A 
ATOM    100  F   UNL A   1      42.199  23.145  28.873  1.00  0.00    -0.207 F 
ENDBRANCH  93  94
ENDBRANCH  92  93
ENDBRANCH  91  92
ENDBRANCH  89  91
ENDBRANCH  87  89
ENDBRANCH  81  83
ENDBRANCH  80  81
ENDBRANCH  79  80
ENDBRANCH  78  79
ENDBRANCH  77  78
ENDBRANCH   1  77
TORSDOF 25
ENDMDL
MODEL 3
REMARK VINA RESULT:      -9.2      4.959      8.227
REMARK SMILES O=C(OCCOCCOCCOC(=O)[C@H]1CCCN(C(=O)CCOc2ccc(F)cc2)C1)c1ccc(-c2c3nc(c(-c4c(F)cc(S(=O)(=O)[O-])cc4F)c4ccc([nH]4)c(-c4c(F)cc(S(=O)(=O)[O-])cc4F)c4nc(c(-c5c(F)cc(S(=O)(=O)[O-])cc5F)c5ccc2[nH]5)C=C4)C=C3)cc1
REMARK SMILES IDX 8 1 7 2 6 3 5 4 4 5 3 6 2 7 1 8 33 9 34 10 98 11 35 12 97 13
REMARK SMILES IDX 36 14 37 15 38 16 91 17 39 18 96 19 90 20 92 21 40 22 95 23
REMARK SMILES IDX 89 24 88 25 41 27 75 28 54 29 74 30 55 31 58 32 73 33 93 34
REMARK SMILES IDX 56 35 57 36 72 38 94 39 59 40 42 41 43 42 52 43 44 44 45 45
REMARK SMILES IDX 51 46 53 47 46 48 47 49 48 50 49 51 50 52 76 53 77 54 86 55
REMARK SMILES IDX 78 56 79 57 85 58 87 59 80 60 81 61 82 62 83 63 84 64 60 65
REMARK SMILES IDX 61 66 70 67 62 68 63 69 69 70 71 71 64 72 65 73 66 74 67 75
REMARK SMILES IDX 68 76 9 77 10 78 11 79 12 80 13 81 14 82 15 83 16 84 32 85
REMARK SMILES IDX 17 86 19 87 18 88 20 89 21 90 22 91 23 92 24 93 25 94 26 95
REMARK SMILES IDX 31 96 27 97 30 98 28 99 29 100
REMARK H PARENT 92 26 58 37
REMARK Flexibility Score: inf
ROOT
ATOM      1  C   UNL A   1      33.057  27.504  26.144  1.00  0.00     0.188 C 
ENDROOT
BRANCH   1   2
ATOM      2  C   UNL A   1      32.693  28.885  26.640  1.00  0.00     0.188 C 
BRANCH   2   3
ATOM      3  O   UNL A   1      33.766  29.801  26.763  1.00  0.00    -0.376 OA
BRANCH   3   4
ATOM      4  C   UNL A   1      33.559  31.062  27.365  1.00  0.00     0.202 C 
BRANCH   4   5
ATOM      5  C   UNL A   1      34.671  31.632  28.263  1.00  0.00     0.261 C 
BRANCH   5   6
ATOM      6  O   UNL A   1      34.311  32.263  29.511  1.00  0.00    -0.460 OA
BRANCH   6   7
ATOM      7  C   UNL A   1      34.926  32.383  30.715  1.00  0.00     0.338 C 
ATOM      8  O   UNL A   1      34.225  32.688  31.678  1.00  0.00    -0.246 OA
BRANCH   7   9
ATOM      9  C   UNL A   1      36.407  32.289  30.930  1.00  0.00     0.060 A 
ATOM     10  C   UNL A   1      37.116  32.995  31.893  1.00  0.00     0.016 A 
ATOM     11  C   UNL A   1      37.140  31.399  30.124  1.00  0.00     0.016 A 
ATOM     12  C   UNL A   1      38.480  32.833  32.086  1.00  0.00     0.010 A 
ATOM     13  C   UNL A   1      38.529  31.260  30.271  1.00  0.00     0.010 A 
ATOM     14  C   UNL A   1      39.208  32.001  31.246  1.00  0.00    -0.014 A 
BRANCH  14  15
ATOM     15  C   UNL A   1      40.674  32.184  31.231  1.00  0.00     0.031 A 
ATOM     16  C   UNL A   1      41.503  31.047  31.748  1.00  0.00     0.074 A 
ATOM     17  C   UNL A   1      41.252  33.196  30.557  1.00  0.00     0.049 A 
ATOM     18  N   UNL A   1      42.799  30.946  31.833  1.00  0.00    -0.248 NA
ATOM     19  C   UNL A   1      40.776  29.835  32.173  1.00  0.00     0.031 C 
ATOM     20  C   UNL A   1      40.530  34.187  29.764  1.00  0.00     0.029 A 
ATOM     21  N   UNL A   1      42.569  33.533  30.378  1.00  0.00    -0.354 N 
ATOM     22  C   UNL A   1      43.040  29.663  32.302  1.00  0.00     0.074 A 
ATOM     23  C   UNL A   1      41.763  29.034  32.536  1.00  0.00     0.031 C 
ATOM     24  C   UNL A   1      41.412  35.025  29.195  1.00  0.00     0.029 A 
ATOM     25  C   UNL A   1      42.745  34.693  29.659  1.00  0.00     0.049 A 
ATOM     26  H   UNL A   1      43.316  32.997  30.729  1.00  0.00     0.167 HD
ATOM     27  C   UNL A   1      44.231  29.059  32.486  1.00  0.00     0.037 A 
ATOM     28  C   UNL A   1      43.848  35.428  29.427  1.00  0.00     0.037 A 
ATOM     29  C   UNL A   1      45.485  29.706  32.226  1.00  0.00     0.049 A 
ATOM     30  C   UNL A   1      45.155  34.845  29.876  1.00  0.00     0.074 A 
ATOM     31  C   UNL A   1      46.761  29.228  32.456  1.00  0.00     0.029 A 
ATOM     32  N   UNL A   1      45.618  30.972  31.670  1.00  0.00    -0.354 N 
ATOM     33  N   UNL A   1      45.374  33.671  30.419  1.00  0.00    -0.248 NA
ATOM     34  C   UNL A   1      46.361  35.649  29.653  1.00  0.00     0.031 C 
ATOM     35  C   UNL A   1      47.664  30.230  32.097  1.00  0.00     0.029 A 
ATOM     36  C   UNL A   1      46.956  31.306  31.578  1.00  0.00     0.049 A 
ATOM     37  H   UNL A   1      44.872  31.545  31.383  1.00  0.00     0.167 HD
ATOM     38  C   UNL A   1      46.749  33.569  30.553  1.00  0.00     0.074 A 
ATOM     39  C   UNL A   1      47.309  34.802  30.034  1.00  0.00     0.031 C 
ATOM     40  C   UNL A   1      47.479  32.540  31.047  1.00  0.00     0.037 A 
BRANCH  27  41
ATOM     41  C   UNL A   1      44.228  27.661  33.027  1.00  0.00     0.058 A 
ATOM     42  C   UNL A   1      44.195  27.446  34.413  1.00  0.00     0.135 A 
ATOM     43  C   UNL A   1      44.290  26.537  32.188  1.00  0.00     0.135 A 
ATOM     44  F   UNL A   1      44.101  28.486  35.257  1.00  0.00    -0.206 F 
ATOM     45  C   UNL A   1      44.266  26.168  34.950  1.00  0.00     0.059 A 
ATOM     46  C   UNL A   1      44.336  25.246  32.703  1.00  0.00     0.059 A 
ATOM     47  F   UNL A   1      44.273  26.688  30.853  1.00  0.00    -0.206 F 
ATOM     48  C   UNL A   1      44.347  25.074  34.087  1.00  0.00     0.060 A 
BRANCH  48  49
ATOM     49  S   UNL A   1      44.467  23.425  34.808  1.00  0.00     0.124 S 
ATOM     50  O   UNL A   1      43.064  23.036  34.899  1.00  0.00    -0.237 OA
ATOM     51  O   UNL A   1      45.261  22.714  33.811  1.00  0.00    -0.237 OA
ATOM     52  O   UNL A   1      45.138  23.659  36.083  1.00  0.00    -0.744 OA
ENDBRANCH  48  49
ENDBRANCH  27  41
BRANCH  28  53
ATOM     53  C   UNL A   1      43.766  36.765  28.774  1.00  0.00     0.058 A 
ATOM     54  C   UNL A   1      43.658  36.886  27.377  1.00  0.00     0.135 A 
ATOM     55  C   UNL A   1      43.765  37.950  29.523  1.00  0.00     0.135 A 
ATOM     56  F   UNL A   1      43.667  35.790  26.601  1.00  0.00    -0.206 F 
ATOM     57  C   UNL A   1      43.551  38.126  26.750  1.00  0.00     0.059 A 
ATOM     58  C   UNL A   1      43.636  39.202  28.922  1.00  0.00     0.059 A 
ATOM     59  F   UNL A   1      43.862  37.895  30.860  1.00  0.00    -0.206 F 
ATOM     60  C   UNL A   1      43.535  39.279  27.533  1.00  0.00     0.060 A 
BRANCH  60  61
ATOM     61  S   UNL A   1      43.368  40.876  26.704  1.00  0.00     0.124 S 
ATOM     62  O   UNL A   1      41.930  40.926  26.458  1.00  0.00    -0.237 OA
ATOM     63  O   UNL A   1      43.871  41.798  27.717  1.00  0.00    -0.237 OA
ATOM     64  O   UNL A   1      44.204  40.732  25.518  1.00  0.00    -0.744 OA
ENDBRANCH  60  61
ENDBRANCH  28  53
BRANCH  40  65
ATOM     65  C   UNL A   1      48.969  32.691  31.022  1.00  0.00     0.058 A 
ATOM     66  C   UNL A   1      49.703  32.239  29.914  1.00  0.00     0.135 A 
ATOM     67  C   UNL A   1      49.672  33.197  32.124  1.00  0.00     0.135 A 
ATOM     68  F   UNL A   1      49.073  31.741  28.839  1.00  0.00    -0.206 F 
ATOM     69  C   UNL A   1      51.090  32.259  29.913  1.00  0.00     0.059 A 
ATOM     70  C   UNL A   1      51.058  33.263  32.128  1.00  0.00     0.059 A 
ATOM     71  F   UNL A   1      49.008  33.652  33.199  1.00  0.00    -0.206 F 
ATOM     72  C   UNL A   1      51.758  32.772  31.025  1.00  0.00     0.060 A 
BRANCH  72  73
ATOM     73  S   UNL A   1      53.560  32.796  31.000  1.00  0.00     0.124 S 
ATOM     74  O   UNL A   1      53.837  32.867  29.571  1.00  0.00    -0.237 OA
ATOM     75  O   UNL A   1      53.860  34.001  31.768  1.00  0.00    -0.237 OA
ATOM     76  O   UNL A   1      53.924  31.540  31.649  1.00  0.00    -0.744 OA
ENDBRANCH  72  73
ENDBRANCH  40  65
ENDBRANCH  14  15
ENDBRANCH   7   9
ENDBRANCH   6   7
ENDBRANCH   5   6
ENDBRANCH   4   5
ENDBRANCH   3   4
ENDBRANCH   2   3
ENDBRANCH   1   2
BRANCH   1  77
ATOM     77  O   UNL A   1      32.280  27.136  25.022  1.00  0.00    -0.376 OA
BRANCH  77  78
ATOM     78  C   UNL A   1      30.867  27.123  25.225  1.00  0.00     0.202 C 
BRANCH  78  79
ATOM     79  C   UNL A   1      30.190  25.899  25.921  1.00  0.00     0.261 C 
BRANCH  79  80
ATOM     80  O   UNL A   1      30.883  24.963  26.817  1.00  0.00    -0.463 OA
BRANCH  80  81
ATOM     81  C   UNL A   1      30.645  23.633  26.710  1.00  0.00     0.310 C 
ATOM     82  O   UNL A   1      29.970  23.026  27.539  1.00  0.00    -0.252 OA
BRANCH  81  83
ATOM     83  C   UNL A   1      31.261  22.905  25.223  1.00  0.00     0.119 C 
ATOM     84  C   UNL A   1      31.388  23.725  23.165  1.00  0.00     0.019 C 
ATOM     85  C   UNL A   1      33.000  22.774  26.124  1.00  0.00     0.134 C 
ATOM     86  C   UNL A   1      33.188  24.418  22.733  1.00  0.00     0.022 C 
ATOM     87  N   UNL A   1      34.419  22.911  25.219  1.00  0.00    -0.342 N 
ATOM     88  C   UNL A   1      34.570  24.140  24.005  1.00  0.00     0.119 C 
BRANCH  87  89
ATOM     89  C   UNL A   1      34.960  21.590  25.048  1.00  0.00     0.226 C 
ATOM     90  O   UNL A   1      34.441  20.796  24.260  1.00  0.00    -0.275 OA
BRANCH  89  91
ATOM     91  C   UNL A   1      36.368  21.259  25.644  1.00  0.00     0.141 C 
BRANCH  91  92
ATOM     92  C   UNL A   1      37.531  22.317  25.380  1.00  0.00     0.239 C 
BRANCH  92  93
ATOM     93  O   UNL A   1      37.693  23.669  25.956  1.00  0.00    -0.493 OA
BRANCH  93  94
ATOM     94  C   UNL A   1      38.719  23.919  26.816  1.00  0.00     0.119 A 
ATOM     95  C   UNL A   1      39.794  22.702  26.963  1.00  0.00     0.049 A 
ATOM     96  C   UNL A   1      39.236  25.414  27.425  1.00  0.00     0.049 A 
ATOM     97  C   UNL A   1      41.504  22.778  27.884  1.00  0.00     0.043 A 
ATOM     98  C   UNL A   1      40.754  25.662  28.258  1.00  0.00     0.043 A 
ATOM     99  C   UNL A   1      41.935  24.399  28.484  1.00  0.00     0.123 A 
ATOM    100  F   UNL A   1      43.128  24.657  29.028  1.00  0.00    -0.207 F 
ENDBRANCH  93  94
ENDBRANCH  92  93
ENDBRANCH  91  92
ENDBRANCH  89  91
ENDBRANCH  87  89
ENDBRANCH  81  83
ENDBRANCH  80  81
ENDBRANCH  79  80
ENDBRANCH  78  79
ENDBRANCH  77  78
ENDBRANCH   1  77
TORSDOF 25
ENDMDL
