MODEL 1
REMARK VINA RESULT:      -9.9      0.000      0.000
REMARK SMILES Cc1ccc(S(=O)(=O)Nc2ccccc2/C=C/C(=O)OCCOCCOCCOC(=O)c2ccc(-c3c4nc(c(-c5c(F)cc(S(=O)(=O)[O-])cc5F)c5ccc([nH]5)c(-c5c(F)cc(S(=O)(=O)[O-])cc5F)c5nc(c(-c6c(F)cc(S(=O)(=O)[O-])cc6F)c6ccc3[nH]6)C=C5)C=C4)cc2)cc1
REMARK SMILES IDX 24 1 23 2 22 3 21 4 20 5 18 6 19 7 17 8 16 9 15 10 10 11
REMARK SMILES IDX 11 12 12 13 14 14 13 15 9 16 6 18 7 19 8 20 5 21 1 22 2 23
REMARK SMILES IDX 3 24 99 25 4 26 98 27 25 28 26 29 27 30 28 31 29 32 30 33
REMARK SMILES IDX 31 34 32 35 33 36 97 37 34 38 96 39 35 40 36 41 37 42 90 43
REMARK SMILES IDX 38 44 95 45 89 46 91 47 39 48 94 49 88 50 87 51 40 53 74 54
REMARK SMILES IDX 53 55 73 56 54 57 57 58 72 59 92 60 55 61 56 62 71 64 93 65
REMARK SMILES IDX 58 66 41 67 42 68 51 69 43 70 44 71 50 72 52 73 45 74 46 75
REMARK SMILES IDX 47 76 48 77 49 78 75 79 76 80 85 81 77 82 78 83 84 84 86 85
REMARK SMILES IDX 79 86 80 87 81 88 82 89 83 90 59 91 60 92 69 93 61 94 62 95
REMARK SMILES IDX 68 96 70 97 63 98 64 99 65 100 66 101 67 102
REMARK H PARENT 9 17 91 52 57 63
REMARK Flexibility Score: inf
ROOT
ATOM      1  C   UNL A   1      41.293  21.180  27.419  1.00  0.00     0.188 C 
ENDROOT
BRANCH   1   2
ATOM      2  O   UNL A   1      40.007  21.827  27.515  1.00  0.00    -0.376 OA
BRANCH   2   3
ATOM      3  C   UNL A   1      39.339  22.180  26.262  1.00  0.00     0.202 C 
BRANCH   3   4
ATOM      4  C   UNL A   1      38.448  23.517  26.315  1.00  0.00     0.261 C 
BRANCH   4   5
ATOM      5  O   UNL A   1      36.899  23.857  26.219  1.00  0.00    -0.460 OA
BRANCH   5   6
ATOM      6  C   UNL A   1      35.821  23.594  25.445  1.00  0.00     0.330 C 
ATOM      7  O   UNL A   1      35.627  22.668  24.683  1.00  0.00    -0.247 OA
BRANCH   6   8
ATOM      8  C   UNL A   1      34.600  24.336  25.370  1.00  0.00     0.094 C 
ATOM      9  C   UNL A   1      34.267  25.599  25.515  1.00  0.00     0.018 C 
BRANCH   9  10
ATOM     10  C   UNL A   1      32.876  25.918  25.171  1.00  0.00    -0.001 A 
ATOM     11  C   UNL A   1      32.283  27.215  25.142  1.00  0.00     0.056 A 
ATOM     12  C   UNL A   1      30.961  27.344  24.712  1.00  0.00     0.027 A 
ATOM     13  C   UNL A   1      30.236  26.227  24.302  1.00  0.00     0.002 A 
ATOM     14  C   UNL A   1      32.110  24.803  24.816  1.00  0.00     0.010 A 
ATOM     15  C   UNL A   1      30.805  24.959  24.368  1.00  0.00     0.001 A 
BRANCH  11  16
ATOM     16  N   UNL A   1      32.972  28.441  25.447  1.00  0.00    -0.279 N 
ATOM     17  H   UNL A   1      33.640  28.792  24.816  1.00  0.00     0.180 HD
BRANCH  16  18
ATOM     18  S   UNL A   1      32.643  29.288  26.882  1.00  0.00     0.261 S 
ATOM     19  O   UNL A   1      32.358  28.281  27.871  1.00  0.00    -0.201 OA
ATOM     20  O   UNL A   1      31.686  30.355  26.612  1.00  0.00    -0.201 OA
BRANCH  18  21
ATOM     21  C   UNL A   1      34.194  30.058  27.284  1.00  0.00     0.087 A 
ATOM     22  C   UNL A   1      37.372  31.482  29.735  1.00  0.00     0.044 C 
ATOM     23  C   UNL A   1      36.382  31.039  28.701  1.00  0.00    -0.051 A 
ATOM     24  C   UNL A   1      35.347  31.897  28.315  1.00  0.00     0.005 A 
ATOM     25  C   UNL A   1      36.401  29.737  28.200  1.00  0.00     0.005 A 
ATOM     26  C   UNL A   1      34.235  31.405  27.626  1.00  0.00     0.022 A 
ATOM     27  C   UNL A   1      35.332  29.269  27.438  1.00  0.00     0.022 A 
ENDBRANCH  18  21
ENDBRANCH  16  18
ENDBRANCH  11  16
ENDBRANCH   9  10
ENDBRANCH   6   8
ENDBRANCH   5   6
ENDBRANCH   4   5
ENDBRANCH   3   4
ENDBRANCH   2   3
ENDBRANCH   1   2
BRANCH   1  28
ATOM     28  C   UNL A   1      41.542  20.458  26.024  1.00  0.00     0.188 C 
BRANCH  28  29
ATOM     29  O   UNL A   1      42.853  20.716  25.427  1.00  0.00    -0.376 OA
BRANCH  29  30
ATOM     30  C   UNL A   1      43.826  21.766  25.817  1.00  0.00     0.202 C 
BRANCH  30  31
ATOM     31  C   UNL A   1      43.543  23.584  26.070  1.00  0.00     0.261 C 
BRANCH  31  32
ATOM     32  O   UNL A   1      44.416  25.027  26.677  1.00  0.00    -0.460 OA
BRANCH  32  33
ATOM     33  C   UNL A   1      45.347  25.970  27.535  1.00  0.00     0.338 C 
ATOM     34  O   UNL A   1      46.317  26.414  26.903  1.00  0.00    -0.246 OA
BRANCH  33  35
ATOM     35  C   UNL A   1      45.408  26.223  29.333  1.00  0.00     0.060 A 
ATOM     36  C   UNL A   1      44.879  25.366  30.323  1.00  0.00     0.016 A 
ATOM     37  C   UNL A   1      45.591  27.436  29.969  1.00  0.00     0.016 A 
ATOM     38  C   UNL A   1      44.078  25.874  31.520  1.00  0.00     0.010 A 
ATOM     39  C   UNL A   1      44.629  27.950  30.923  1.00  0.00     0.010 A 
ATOM     40  C   UNL A   1      43.785  27.235  31.755  1.00  0.00    -0.014 A 
BRANCH  40  41
ATOM     41  C   UNL A   1      42.713  27.972  32.759  1.00  0.00     0.031 A 
ATOM     42  C   UNL A   1      41.784  29.247  32.570  1.00  0.00     0.074 A 
ATOM     43  C   UNL A   1      42.435  27.429  33.964  1.00  0.00     0.049 A 
ATOM     44  N   UNL A   1      42.004  30.473  32.966  1.00  0.00    -0.248 NA
ATOM     45  C   UNL A   1      40.459  29.219  31.840  1.00  0.00     0.031 C 
ATOM     46  C   UNL A   1      41.859  28.042  35.159  1.00  0.00     0.029 A 
ATOM     47  N   UNL A   1      42.960  26.282  34.480  1.00  0.00    -0.354 N 
ATOM     48  C   UNL A   1      40.842  31.202  32.631  1.00  0.00     0.074 A 
ATOM     49  C   UNL A   1      40.272  30.500  31.555  1.00  0.00     0.031 C 
ATOM     50  C   UNL A   1      42.592  27.593  36.209  1.00  0.00     0.029 A 
ATOM     51  C   UNL A   1      43.579  26.659  35.683  1.00  0.00     0.049 A 
ATOM     52  H   UNL A   1      42.915  25.379  34.090  1.00  0.00     0.167 HD
ATOM     53  C   UNL A   1      40.115  31.980  33.502  1.00  0.00     0.037 A 
ATOM     54  C   UNL A   1      44.940  26.704  35.579  1.00  0.00     0.037 A 
ATOM     55  C   UNL A   1      40.782  31.945  34.799  1.00  0.00     0.049 A 
ATOM     56  C   UNL A   1      45.339  28.233  35.469  1.00  0.00     0.074 A 
ATOM     57  C   UNL A   1      40.613  31.294  36.007  1.00  0.00     0.029 A 
ATOM     58  N   UNL A   1      42.104  32.317  34.784  1.00  0.00    -0.354 N 
ATOM     59  N   UNL A   1      44.489  29.219  35.702  1.00  0.00    -0.248 NA
ATOM     60  C   UNL A   1      46.652  28.797  35.121  1.00  0.00     0.031 C 
ATOM     61  C   UNL A   1      41.937  31.082  36.563  1.00  0.00     0.029 A 
ATOM     62  C   UNL A   1      42.877  31.625  35.698  1.00  0.00     0.049 A 
ATOM     63  H   UNL A   1      42.466  33.007  34.182  1.00  0.00     0.167 HD
ATOM     64  C   UNL A   1      45.035  30.457  35.445  1.00  0.00     0.074 A 
ATOM     65  C   UNL A   1      46.421  30.133  35.138  1.00  0.00     0.031 C 
ATOM     66  C   UNL A   1      44.336  31.647  35.467  1.00  0.00     0.037 A 
BRANCH  53  67
ATOM     67  C   UNL A   1      38.688  32.523  33.215  1.00  0.00     0.058 A 
ATOM     68  C   UNL A   1      38.509  33.734  32.517  1.00  0.00     0.135 A 
ATOM     69  C   UNL A   1      37.453  31.900  33.560  1.00  0.00     0.135 A 
ATOM     70  F   UNL A   1      39.562  34.405  32.030  1.00  0.00    -0.206 F 
ATOM     71  C   UNL A   1      37.247  34.308  32.259  1.00  0.00     0.059 A 
ATOM     72  C   UNL A   1      36.187  32.486  33.382  1.00  0.00     0.059 A 
ATOM     73  F   UNL A   1      37.388  30.641  34.010  1.00  0.00    -0.206 F 
ATOM     74  C   UNL A   1      36.089  33.691  32.717  1.00  0.00     0.060 A 
BRANCH  74  75
ATOM     75  S   UNL A   1      34.474  34.437  32.387  1.00  0.00     0.124 S 
ATOM     76  O   UNL A   1      34.483  35.602  33.265  1.00  0.00    -0.237 OA
ATOM     77  O   UNL A   1      34.554  34.719  30.958  1.00  0.00    -0.237 OA
ATOM     78  O   UNL A   1      33.526  33.390  32.760  1.00  0.00    -0.744 OA
ENDBRANCH  74  75
ENDBRANCH  53  67
BRANCH  54  79
ATOM     79  C   UNL A   1      45.318  25.398  34.801  1.00  0.00     0.058 A 
ATOM     80  C   UNL A   1      46.411  25.411  33.905  1.00  0.00     0.135 A 
ATOM     81  C   UNL A   1      45.074  24.102  35.093  1.00  0.00     0.135 A 
ATOM     82  F   UNL A   1      46.600  26.481  33.114  1.00  0.00    -0.206 F 
ATOM     83  C   UNL A   1      47.519  24.470  33.966  1.00  0.00     0.059 A 
ATOM     84  C   UNL A   1      46.117  23.098  34.921  1.00  0.00     0.059 A 
ATOM     85  F   UNL A   1      43.874  23.715  35.556  1.00  0.00    -0.206 F 
ATOM     86  C   UNL A   1      47.527  23.329  34.750  1.00  0.00     0.060 A 
BRANCH  86  87
ATOM     87  S   UNL A   1      49.314  22.054  35.301  1.00  0.00     0.124 S 
ATOM     88  O   UNL A   1      49.095  21.177  36.429  1.00  0.00    -0.237 OA
ATOM     89  O   UNL A   1      49.580  21.308  34.085  1.00  0.00    -0.237 OA
ATOM     90  O   UNL A   1      50.465  22.845  35.724  1.00  0.00    -0.744 OA
ENDBRANCH  86  87
ENDBRANCH  54  79
BRANCH  66  91
ATOM     91  C   UNL A   1      44.967  33.032  35.252  1.00  0.00     0.058 A 
ATOM     92  C   UNL A   1      45.327  33.469  33.973  1.00  0.00     0.135 A 
ATOM     93  C   UNL A   1      45.480  33.822  36.318  1.00  0.00     0.135 A 
ATOM     94  F   UNL A   1      44.883  32.818  32.887  1.00  0.00    -0.206 F 
ATOM     95  C   UNL A   1      46.172  34.572  33.771  1.00  0.00     0.059 A 
ATOM     96  C   UNL A   1      46.404  34.849  36.151  1.00  0.00     0.059 A 
ATOM     97  F   UNL A   1      45.083  33.634  37.586  1.00  0.00    -0.206 F 
ATOM     98  C   UNL A   1      46.733  35.233  34.867  1.00  0.00     0.060 A 
BRANCH  98  99
ATOM     99  S   UNL A   1      47.873  36.609  34.620  1.00  0.00     0.124 S 
ATOM    100  O   UNL A   1      47.483  37.116  33.308  1.00  0.00    -0.237 OA
ATOM    101  O   UNL A   1      47.540  37.465  35.754  1.00  0.00    -0.237 OA
ATOM    102  O   UNL A   1      49.189  35.978  34.674  1.00  0.00    -0.744 OA
ENDBRANCH  98  99
ENDBRANCH  66  91
ENDBRANCH  40  41
ENDBRANCH  33  35
ENDBRANCH  32  33
ENDBRANCH  31  32
ENDBRANCH  30  31
ENDBRANCH  29  30
ENDBRANCH  28  29
ENDBRANCH   1  28
TORSDOF 24
ENDMDL
MODEL 2
REMARK VINA RESULT:      -9.5      7.627     13.607
REMARK SMILES Cc1ccc(S(=O)(=O)Nc2ccccc2/C=C/C(=O)OCCOCCOCCOC(=O)c2ccc(-c3c4nc(c(-c5c(F)cc(S(=O)(=O)[O-])cc5F)c5ccc([nH]5)c(-c5c(F)cc(S(=O)(=O)[O-])cc5F)c5nc(c(-c6c(F)cc(S(=O)(=O)[O-])cc6F)c6ccc3[nH]6)C=C5)C=C4)cc2)cc1
REMARK SMILES IDX 24 1 23 2 22 3 21 4 20 5 18 6 19 7 17 8 16 9 15 10 10 11
REMARK SMILES IDX 11 12 12 13 14 14 13 15 9 16 6 18 7 19 8 20 5 21 1 22 2 23
REMARK SMILES IDX 3 24 99 25 4 26 98 27 25 28 26 29 27 30 28 31 29 32 30 33
REMARK SMILES IDX 31 34 32 35 33 36 97 37 34 38 96 39 35 40 36 41 37 42 90 43
REMARK SMILES IDX 38 44 95 45 89 46 91 47 39 48 94 49 88 50 87 51 40 53 74 54
REMARK SMILES IDX 53 55 73 56 54 57 57 58 72 59 92 60 55 61 56 62 71 64 93 65
REMARK SMILES IDX 58 66 41 67 42 68 51 69 43 70 44 71 50 72 52 73 45 74 46 75
REMARK SMILES IDX 47 76 48 77 49 78 75 79 76 80 85 81 77 82 78 83 84 84 86 85
REMARK SMILES IDX 79 86 80 87 81 88 82 89 83 90 59 91 60 92 69 93 61 94 62 95
REMARK SMILES IDX 68 96 70 97 63 98 64 99 65 100 66 101 67 102
REMARK H PARENT 9 17 91 52 57 63
REMARK Flexibility Score: inf
ROOT
ATOM      1  C   UNL A   1      50.259  37.271  26.352  1.00  0.00     0.188 C 
ENDROOT
BRANCH   1   2
ATOM      2  O   UNL A   1      48.973  37.916  26.472  1.00  0.00    -0.376 OA
BRANCH   2   3
ATOM      3  C   UNL A   1      47.814  37.203  25.936  1.00  0.00     0.202 C 
BRANCH   3   4
ATOM      4  C   UNL A   1      46.408  37.568  26.628  1.00  0.00     0.261 C 
BRANCH   4   5
ATOM      5  O   UNL A   1      45.153  38.466  26.248  1.00  0.00    -0.460 OA
BRANCH   5   6
ATOM      6  C   UNL A   1      44.531  39.603  26.634  1.00  0.00     0.330 C 
ATOM      7  O   UNL A   1      43.831  39.807  27.606  1.00  0.00    -0.247 OA
BRANCH   6   8
ATOM      8  C   UNL A   1      44.585  40.885  26.000  1.00  0.00     0.094 C 
ATOM      9  C   UNL A   1      43.724  41.645  25.363  1.00  0.00     0.018 C 
BRANCH   9  10
ATOM     10  C   UNL A   1      44.212  42.988  25.024  1.00  0.00    -0.001 A 
ATOM     11  C   UNL A   1      43.754  43.815  23.956  1.00  0.00     0.056 A 
ATOM     12  C   UNL A   1      44.278  45.103  23.828  1.00  0.00     0.027 A 
ATOM     13  C   UNL A   1      45.220  45.581  24.736  1.00  0.00     0.002 A 
ATOM     14  C   UNL A   1      45.205  43.464  25.887  1.00  0.00     0.010 A 
ATOM     15  C   UNL A   1      45.692  44.757  25.755  1.00  0.00     0.001 A 
BRANCH  11  16
ATOM     16  N   UNL A   1      42.716  43.459  23.027  1.00  0.00    -0.279 N 
ATOM     17  H   UNL A   1      41.787  43.730  23.209  1.00  0.00     0.180 HD
BRANCH  16  18
ATOM     18  S   UNL A   1      43.074  42.578  21.620  1.00  0.00     0.261 S 
ATOM     19  O   UNL A   1      42.106  41.512  21.572  1.00  0.00    -0.201 OA
ATOM     20  O   UNL A   1      44.502  42.285  21.575  1.00  0.00    -0.201 OA
BRANCH  18  21
ATOM     21  C   UNL A   1      42.726  43.721  20.304  1.00  0.00     0.087 A 
ATOM     22  C   UNL A   1      42.058  45.063  16.318  1.00  0.00     0.044 C 
ATOM     23  C   UNL A   1      42.240  44.797  17.782  1.00  0.00    -0.051 A 
ATOM     24  C   UNL A   1      43.515  44.878  18.351  1.00  0.00     0.005 A 
ATOM     25  C   UNL A   1      41.177  44.352  18.567  1.00  0.00     0.005 A 
ATOM     26  C   UNL A   1      43.770  44.318  19.606  1.00  0.00     0.022 A 
ATOM     27  C   UNL A   1      41.416  43.872  19.854  1.00  0.00     0.022 A 
ENDBRANCH  18  21
ENDBRANCH  16  18
ENDBRANCH  11  16
ENDBRANCH   9  10
ENDBRANCH   6   8
ENDBRANCH   5   6
ENDBRANCH   4   5
ENDBRANCH   3   4
ENDBRANCH   2   3
ENDBRANCH   1   2
BRANCH   1  28
ATOM     28  C   UNL A   1      50.197  35.690  26.512  1.00  0.00     0.188 C 
BRANCH  28  29
ATOM     29  O   UNL A   1      50.478  35.201  27.862  1.00  0.00    -0.376 OA
BRANCH  29  30
ATOM     30  C   UNL A   1      49.850  35.651  29.129  1.00  0.00     0.202 C 
BRANCH  30  31
ATOM     31  C   UNL A   1      48.048  35.849  29.532  1.00  0.00     0.261 C 
BRANCH  31  32
ATOM     32  O   UNL A   1      46.968  36.959  30.434  1.00  0.00    -0.460 OA
BRANCH  32  33
ATOM     33  C   UNL A   1      45.978  37.544  31.516  1.00  0.00     0.338 C 
ATOM     34  O   UNL A   1      46.179  38.740  31.775  1.00  0.00    -0.246 OA
BRANCH  33  35
ATOM     35  C   UNL A   1      44.852  36.681  32.651  1.00  0.00     0.060 A 
ATOM     36  C   UNL A   1      45.220  35.838  33.723  1.00  0.00     0.016 A 
ATOM     37  C   UNL A   1      43.527  36.383  32.398  1.00  0.00     0.016 A 
ATOM     38  C   UNL A   1      44.539  34.498  33.997  1.00  0.00     0.010 A 
ATOM     39  C   UNL A   1      43.028  35.023  32.444  1.00  0.00     0.010 A 
ATOM     40  C   UNL A   1      43.490  33.970  33.214  1.00  0.00    -0.014 A 
BRANCH  40  41
ATOM     41  C   UNL A   1      42.838  32.464  33.120  1.00  0.00     0.031 A 
ATOM     42  C   UNL A   1      42.560  31.501  31.887  1.00  0.00     0.074 A 
ATOM     43  C   UNL A   1      42.517  31.797  34.250  1.00  0.00     0.049 A 
ATOM     44  N   UNL A   1      41.439  31.321  31.240  1.00  0.00    -0.248 NA
ATOM     45  C   UNL A   1      43.622  30.639  31.240  1.00  0.00     0.031 C 
ATOM     46  C   UNL A   1      41.605  30.673  34.449  1.00  0.00     0.029 A 
ATOM     47  N   UNL A   1      42.676  32.240  35.529  1.00  0.00    -0.354 N 
ATOM     48  C   UNL A   1      41.699  30.306  30.294  1.00  0.00     0.074 A 
ATOM     49  C   UNL A   1      43.082  30.376  30.058  1.00  0.00     0.031 C 
ATOM     50  C   UNL A   1      40.891  30.954  35.567  1.00  0.00     0.029 A 
ATOM     51  C   UNL A   1      41.393  32.213  36.100  1.00  0.00     0.049 A 
ATOM     52  H   UNL A   1      43.515  32.519  35.963  1.00  0.00     0.167 HD
ATOM     53  C   UNL A   1      40.959  29.156  30.138  1.00  0.00     0.037 A 
ATOM     54  C   UNL A   1      40.846  33.460  36.213  1.00  0.00     0.037 A 
ATOM     55  C   UNL A   1      39.852  29.203  31.088  1.00  0.00     0.049 A 
ATOM     56  C   UNL A   1      39.786  33.602  35.044  1.00  0.00     0.074 A 
ATOM     57  C   UNL A   1      39.550  28.650  32.319  1.00  0.00     0.029 A 
ATOM     58  N   UNL A   1      39.059  30.321  31.003  1.00  0.00    -0.354 N 
ATOM     59  N   UNL A   1      39.382  32.579  34.309  1.00  0.00    -0.248 NA
ATOM     60  C   UNL A   1      39.092  34.820  34.602  1.00  0.00     0.031 C 
ATOM     61  C   UNL A   1      38.753  29.627  33.038  1.00  0.00     0.029 A 
ATOM     62  C   UNL A   1      38.568  30.737  32.227  1.00  0.00     0.049 A 
ATOM     63  H   UNL A   1      38.861  30.782  30.156  1.00  0.00     0.167 HD
ATOM     64  C   UNL A   1      38.536  32.962  33.292  1.00  0.00     0.074 A 
ATOM     65  C   UNL A   1      38.342  34.381  33.561  1.00  0.00     0.031 C 
ATOM     66  C   UNL A   1      38.075  32.129  32.293  1.00  0.00     0.037 A 
BRANCH  53  67
ATOM     67  C   UNL A   1      41.419  27.918  29.322  1.00  0.00     0.058 A 
ATOM     68  C   UNL A   1      40.820  27.613  28.082  1.00  0.00     0.135 A 
ATOM     69  C   UNL A   1      42.457  27.004  29.669  1.00  0.00     0.135 A 
ATOM     70  F   UNL A   1      39.892  28.424  27.555  1.00  0.00    -0.206 F 
ATOM     71  C   UNL A   1      41.156  26.484  27.308  1.00  0.00     0.059 A 
ATOM     72  C   UNL A   1      42.760  25.831  28.954  1.00  0.00     0.059 A 
ATOM     73  F   UNL A   1      43.308  27.239  30.675  1.00  0.00    -0.206 F 
ATOM     74  C   UNL A   1      42.110  25.580  27.763  1.00  0.00     0.060 A 
BRANCH  74  75
ATOM     75  S   UNL A   1      42.531  24.131  26.767  1.00  0.00     0.124 S 
ATOM     76  O   UNL A   1      41.669  23.099  27.336  1.00  0.00    -0.237 OA
ATOM     77  O   UNL A   1      42.187  24.574  25.420  1.00  0.00    -0.237 OA
ATOM     78  O   UNL A   1      43.960  23.945  27.012  1.00  0.00    -0.744 OA
ENDBRANCH  74  75
ENDBRANCH  53  67
BRANCH  54  79
ATOM     79  C   UNL A   1      42.008  34.350  36.773  1.00  0.00     0.058 A 
ATOM     80  C   UNL A   1      42.059  35.722  36.439  1.00  0.00     0.135 A 
ATOM     81  C   UNL A   1      42.787  34.188  37.865  1.00  0.00     0.135 A 
ATOM     82  F   UNL A   1      41.758  36.105  35.186  1.00  0.00    -0.206 F 
ATOM     83  C   UNL A   1      42.144  36.792  37.421  1.00  0.00     0.059 A 
ATOM     84  C   UNL A   1      43.084  35.322  38.732  1.00  0.00     0.059 A 
ATOM     85  F   UNL A   1      43.292  32.984  38.178  1.00  0.00    -0.206 F 
ATOM     86  C   UNL A   1      42.409  36.593  38.765  1.00  0.00     0.060 A 
BRANCH  86  87
ATOM     87  S   UNL A   1      42.111  38.067  40.457  1.00  0.00     0.124 S 
ATOM     88  O   UNL A   1      41.370  39.253  40.091  1.00  0.00    -0.237 OA
ATOM     89  O   UNL A   1      41.411  37.286  41.461  1.00  0.00    -0.237 OA
ATOM     90  O   UNL A   1      43.367  38.611  40.961  1.00  0.00    -0.744 OA
ENDBRANCH  86  87
ENDBRANCH  54  79
BRANCH  66  91
ATOM     91  C   UNL A   1      37.074  32.546  31.204  1.00  0.00     0.058 A 
ATOM     92  C   UNL A   1      37.492  33.264  30.078  1.00  0.00     0.135 A 
ATOM     93  C   UNL A   1      35.664  32.493  31.388  1.00  0.00     0.135 A 
ATOM     94  F   UNL A   1      38.796  33.363  29.785  1.00  0.00    -0.206 F 
ATOM     95  C   UNL A   1      36.583  33.919  29.233  1.00  0.00     0.059 A 
ATOM     96  C   UNL A   1      34.753  33.222  30.632  1.00  0.00     0.059 A 
ATOM     97  F   UNL A   1      35.107  31.702  32.318  1.00  0.00    -0.206 F 
ATOM     98  C   UNL A   1      35.219  33.922  29.538  1.00  0.00     0.060 A 
BRANCH  98  99
ATOM     99  S   UNL A   1      34.050  34.818  28.497  1.00  0.00     0.124 S 
ATOM    100  O   UNL A   1      34.414  34.378  27.154  1.00  0.00    -0.237 OA
ATOM    101  O   UNL A   1      32.775  34.319  29.002  1.00  0.00    -0.237 OA
ATOM    102  O   UNL A   1      34.336  36.220  28.788  1.00  0.00    -0.744 OA
ENDBRANCH  98  99
ENDBRANCH  66  91
ENDBRANCH  40  41
ENDBRANCH  33  35
ENDBRANCH  32  33
ENDBRANCH  31  32
ENDBRANCH  30  31
ENDBRANCH  29  30
ENDBRANCH  28  29
ENDBRANCH   1  28
TORSDOF 24
ENDMDL
MODEL 3
REMARK VINA RESULT:      -9.4      6.219     10.658
REMARK SMILES Cc1ccc(S(=O)(=O)Nc2ccccc2/C=C/C(=O)OCCOCCOCCOC(=O)c2ccc(-c3c4nc(c(-c5c(F)cc(S(=O)(=O)[O-])cc5F)c5ccc([nH]5)c(-c5c(F)cc(S(=O)(=O)[O-])cc5F)c5nc(c(-c6c(F)cc(S(=O)(=O)[O-])cc6F)c6ccc3[nH]6)C=C5)C=C4)cc2)cc1
REMARK SMILES IDX 24 1 23 2 22 3 21 4 20 5 18 6 19 7 17 8 16 9 15 10 10 11
REMARK SMILES IDX 11 12 12 13 14 14 13 15 9 16 6 18 7 19 8 20 5 21 1 22 2 23
REMARK SMILES IDX 3 24 99 25 4 26 98 27 25 28 26 29 27 30 28 31 29 32 30 33
REMARK SMILES IDX 31 34 32 35 33 36 97 37 34 38 96 39 35 40 36 41 37 42 90 43
REMARK SMILES IDX 38 44 95 45 89 46 91 47 39 48 94 49 88 50 87 51 40 53 74 54
REMARK SMILES IDX 53 55 73 56 54 57 57 58 72 59 92 60 55 61 56 62 71 64 93 65
REMARK SMILES IDX 58 66 41 67 42 68 51 69 43 70 44 71 50 72 52 73 45 74 46 75
REMARK SMILES IDX 47 76 48 77 49 78 75 79 76 80 85 81 77 82 78 83 84 84 86 85
REMARK SMILES IDX 79 86 80 87 81 88 82 89 83 90 59 91 60 92 69 93 61 94 62 95
REMARK SMILES IDX 68 96 70 97 63 98 64 99 65 100 66 101 67 102
REMARK H PARENT 9 17 91 52 57 63
REMARK Flexibility Score: inf
ROOT
ATOM      1  C   UNL A   1      38.926  29.948  33.539  1.00  0.00     0.188 C 
ENDROOT
BRANCH   1   2
ATOM      2  O   UNL A   1      37.685  29.602  32.890  1.00  0.00    -0.376 OA
BRANCH   2   3
ATOM      3  C   UNL A   1      37.754  29.180  31.491  1.00  0.00     0.202 C 
BRANCH   3   4
ATOM      4  C   UNL A   1      36.553  29.704  30.559  1.00  0.00     0.261 C 
BRANCH   4   5
ATOM      5  O   UNL A   1      36.039  29.399  29.087  1.00  0.00    -0.460 OA
BRANCH   5   6
ATOM      6  C   UNL A   1      35.493  30.030  28.022  1.00  0.00     0.330 C 
ATOM      7  O   UNL A   1      35.674  31.164  27.623  1.00  0.00    -0.247 OA
BRANCH   6   8
ATOM      8  C   UNL A   1      34.584  29.489  27.060  1.00  0.00     0.094 C 
ATOM      9  C   UNL A   1      34.025  28.317  26.863  1.00  0.00     0.018 C 
BRANCH   9  10
ATOM     10  C   UNL A   1      33.004  28.284  25.810  1.00  0.00    -0.001 A 
ATOM     11  C   UNL A   1      32.692  27.182  24.960  1.00  0.00     0.056 A 
ATOM     12  C   UNL A   1      31.631  27.300  24.061  1.00  0.00     0.027 A 
ATOM     13  C   UNL A   1      30.875  28.469  24.004  1.00  0.00     0.002 A 
ATOM     14  C   UNL A   1      32.274  29.472  25.691  1.00  0.00     0.010 A 
ATOM     15  C   UNL A   1      31.205  29.557  24.808  1.00  0.00     0.001 A 
BRANCH  11  16
ATOM     16  N   UNL A   1      33.341  25.899  25.007  1.00  0.00    -0.279 N 
ATOM     17  H   UNL A   1      34.078  25.704  24.384  1.00  0.00     0.180 HD
BRANCH  16  18
ATOM     18  S   UNL A   1      32.850  24.718  26.125  1.00  0.00     0.261 S 
ATOM     19  O   UNL A   1      31.777  25.317  26.876  1.00  0.00    -0.201 OA
ATOM     20  O   UNL A   1      34.018  24.172  26.806  1.00  0.00    -0.201 OA
BRANCH  18  21
ATOM     21  C   UNL A   1      32.179  23.424  25.107  1.00  0.00     0.087 A 
ATOM     22  C   UNL A   1      32.171  20.154  22.378  1.00  0.00     0.044 C 
ATOM     23  C   UNL A   1      31.956  21.269  23.357  1.00  0.00    -0.051 A 
ATOM     24  C   UNL A   1      31.777  22.576  22.894  1.00  0.00     0.005 A 
ATOM     25  C   UNL A   1      32.050  21.046  24.731  1.00  0.00     0.005 A 
ATOM     26  C   UNL A   1      31.912  23.663  23.764  1.00  0.00     0.022 A 
ATOM     27  C   UNL A   1      32.098  22.127  25.609  1.00  0.00     0.022 A 
ENDBRANCH  18  21
ENDBRANCH  16  18
ENDBRANCH  11  16
ENDBRANCH   9  10
ENDBRANCH   6   8
ENDBRANCH   5   6
ENDBRANCH   4   5
ENDBRANCH   3   4
ENDBRANCH   2   3
ENDBRANCH   1   2
BRANCH   1  28
ATOM     28  C   UNL A   1      38.922  31.400  34.190  1.00  0.00     0.188 C 
BRANCH  28  29
ATOM     29  O   UNL A   1      37.693  31.745  34.905  1.00  0.00    -0.376 OA
BRANCH  29  30
ATOM     30  C   UNL A   1      36.963  33.036  34.864  1.00  0.00     0.202 C 
BRANCH  30  31
ATOM     31  C   UNL A   1      36.905  34.302  33.506  1.00  0.00     0.261 C 
BRANCH  31  32
ATOM     32  O   UNL A   1      37.362  34.472  31.781  1.00  0.00    -0.460 OA
BRANCH  32  33
ATOM     33  C   UNL A   1      38.123  34.323  30.407  1.00  0.00     0.338 C 
ATOM     34  O   UNL A   1      37.366  34.165  29.437  1.00  0.00    -0.246 OA
BRANCH  33  35
ATOM     35  C   UNL A   1      39.883  34.016  30.078  1.00  0.00     0.060 A 
ATOM     36  C   UNL A   1      40.807  33.397  30.948  1.00  0.00     0.016 A 
ATOM     37  C   UNL A   1      40.658  34.687  29.151  1.00  0.00     0.016 A 
ATOM     38  C   UNL A   1      42.215  33.939  31.188  1.00  0.00     0.010 A 
ATOM     39  C   UNL A   1      41.867  35.389  29.531  1.00  0.00     0.010 A 
ATOM     40  C   UNL A   1      42.729  35.102  30.575  1.00  0.00    -0.014 A 
BRANCH  40  41
ATOM     41  C   UNL A   1      44.047  36.028  30.904  1.00  0.00     0.031 A 
ATOM     42  C   UNL A   1      44.204  37.576  31.226  1.00  0.00     0.074 A 
ATOM     43  C   UNL A   1      45.262  35.451  31.025  1.00  0.00     0.049 A 
ATOM     44  N   UNL A   1      44.537  38.541  30.409  1.00  0.00    -0.248 NA
ATOM     45  C   UNL A   1      43.946  38.180  32.589  1.00  0.00     0.031 C 
ATOM     46  C   UNL A   1      46.595  36.042  30.922  1.00  0.00     0.029 A 
ATOM     47  N   UNL A   1      45.548  34.125  30.904  1.00  0.00    -0.354 N 
ATOM     48  C   UNL A   1      44.619  39.706  31.202  1.00  0.00     0.074 A 
ATOM     49  C   UNL A   1      43.771  39.461  32.296  1.00  0.00     0.031 C 
ATOM     50  C   UNL A   1      47.336  35.183  30.178  1.00  0.00     0.029 A 
ATOM     51  C   UNL A   1      46.494  34.036  29.869  1.00  0.00     0.049 A 
ATOM     52  H   UNL A   1      45.173  33.383  31.432  1.00  0.00     0.167 HD
ATOM     53  C   UNL A   1      45.700  40.557  31.255  1.00  0.00     0.037 A 
ATOM     54  C   UNL A   1      45.952  33.565  28.706  1.00  0.00     0.037 A 
ATOM     55  C   UNL A   1      46.707  40.061  30.322  1.00  0.00     0.049 A 
ATOM     56  C   UNL A   1      45.756  34.817  27.754  1.00  0.00     0.074 A 
ATOM     57  C   UNL A   1      47.886  39.344  30.395  1.00  0.00     0.029 A 
ATOM     58  N   UNL A   1      46.270  39.888  29.032  1.00  0.00    -0.354 N 
ATOM     59  N   UNL A   1      46.279  36.005  28.008  1.00  0.00    -0.248 NA
ATOM     60  C   UNL A   1      45.014  34.875  26.486  1.00  0.00     0.031 C 
ATOM     61  C   UNL A   1      47.974  38.549  29.182  1.00  0.00     0.029 A 
ATOM     62  C   UNL A   1      46.864  38.816  28.393  1.00  0.00     0.049 A 
ATOM     63  H   UNL A   1      45.600  40.470  28.604  1.00  0.00     0.167 HD
ATOM     64  C   UNL A   1      45.890  36.958  27.093  1.00  0.00     0.074 A 
ATOM     65  C   UNL A   1      45.139  36.175  26.122  1.00  0.00     0.031 C 
ATOM     66  C   UNL A   1      46.170  38.306  27.192  1.00  0.00     0.037 A 
BRANCH  53  67
ATOM     67  C   UNL A   1      45.908  41.648  32.340  1.00  0.00     0.058 A 
ATOM     68  C   UNL A   1      45.185  42.858  32.288  1.00  0.00     0.135 A 
ATOM     69  C   UNL A   1      46.768  41.570  33.475  1.00  0.00     0.135 A 
ATOM     70  F   UNL A   1      44.258  43.060  31.342  1.00  0.00    -0.206 F 
ATOM     71  C   UNL A   1      45.354  43.909  33.213  1.00  0.00     0.059 A 
ATOM     72  C   UNL A   1      47.010  42.630  34.366  1.00  0.00     0.059 A 
ATOM     73  F   UNL A   1      47.360  40.429  33.845  1.00  0.00    -0.206 F 
ATOM     74  C   UNL A   1      46.288  43.800  34.237  1.00  0.00     0.060 A 
BRANCH  74  75
ATOM     75  S   UNL A   1      46.502  45.155  35.415  1.00  0.00     0.124 S 
ATOM     76  O   UNL A   1      47.939  45.403  35.348  1.00  0.00    -0.237 OA
ATOM     77  O   UNL A   1      45.652  46.194  34.844  1.00  0.00    -0.237 OA
ATOM     78  O   UNL A   1      46.032  44.592  36.679  1.00  0.00    -0.744 OA
ENDBRANCH  74  75
ENDBRANCH  53  67
BRANCH  54  79
ATOM     79  C   UNL A   1      45.060  32.356  29.149  1.00  0.00     0.058 A 
ATOM     80  C   UNL A   1      43.848  32.097  28.469  1.00  0.00     0.135 A 
ATOM     81  C   UNL A   1      45.385  31.221  29.806  1.00  0.00     0.135 A 
ATOM     82  F   UNL A   1      43.067  33.127  28.103  1.00  0.00    -0.206 F 
ATOM     83  C   UNL A   1      43.508  30.809  27.883  1.00  0.00     0.059 A 
ATOM     84  C   UNL A   1      44.847  29.938  29.370  1.00  0.00     0.059 A 
ATOM     85  F   UNL A   1      46.216  31.250  30.860  1.00  0.00    -0.206 F 
ATOM     86  C   UNL A   1      44.215  29.641  28.112  1.00  0.00     0.060 A 
BRANCH  86  87
ATOM     87  S   UNL A   1      44.100  27.713  26.932  1.00  0.00     0.124 S 
ATOM     88  O   UNL A   1      43.619  27.870  25.578  1.00  0.00    -0.237 OA
ATOM     89  O   UNL A   1      45.465  27.220  26.963  1.00  0.00    -0.237 OA
ATOM     90  O   UNL A   1      43.158  26.756  27.503  1.00  0.00    -0.744 OA
ENDBRANCH  86  87
ENDBRANCH  54  79
BRANCH  66  91
ATOM     91  C   UNL A   1      45.796  39.353  26.130  1.00  0.00     0.058 A 
ATOM     92  C   UNL A   1      46.742  39.815  25.209  1.00  0.00     0.135 A 
ATOM     93  C   UNL A   1      44.594  40.114  26.184  1.00  0.00     0.135 A 
ATOM     94  F   UNL A   1      47.904  39.164  25.051  1.00  0.00    -0.206 F 
ATOM     95  C   UNL A   1      46.532  40.971  24.441  1.00  0.00     0.059 A 
ATOM     96  C   UNL A   1      44.408  41.320  25.516  1.00  0.00     0.059 A 
ATOM     97  F   UNL A   1      43.530  39.697  26.887  1.00  0.00    -0.206 F 
ATOM     98  C   UNL A   1      45.378  41.735  24.627  1.00  0.00     0.060 A 
BRANCH  98  99
ATOM     99  S   UNL A   1      45.128  43.259  23.695  1.00  0.00     0.124 S 
ATOM    100  O   UNL A   1      44.627  42.772  22.413  1.00  0.00    -0.237 OA
ATOM    101  O   UNL A   1      44.155  43.952  24.532  1.00  0.00    -0.237 OA
ATOM    102  O   UNL A   1      46.459  43.857  23.652  1.00  0.00    -0.744 OA
ENDBRANCH  98  99
ENDBRANCH  66  91
ENDBRANCH  40  41
ENDBRANCH  33  35
ENDBRANCH  32  33
ENDBRANCH  31  32
ENDBRANCH  30  31
ENDBRANCH  29  30
ENDBRANCH  28  29
ENDBRANCH   1  28
TORSDOF 24
ENDMDL
