MODEL 1
REMARK VINA RESULT:     -11.3      0.000      0.000
REMARK SMILES C[C@@H](C(=O)OCCOCCOCCOC(=O)c1ccc(-c2c3nc(c(-c4c(F)cc(S(=O)(=O)[O-])cc4F)c4ccc([nH]4)c(-c4c(F)cc(S(=O)(=O)[O-])cc4F)c4nc(c(-c5c(F)cc(S(=O)(=O)[O-])cc5F)c5ccc2[nH]5)C=C4)C=C3)cc1)c1ccc2c3cc(Cl)ccc3n(C(=O)c3cocn3)c2c1
REMARK SMILES IDX 9 1 8 2 7 3 6 4 5 5 3 6 4 7 2 8 1 9 83 10 84 11 103 12 85 13
REMARK SMILES IDX 102 14 86 15 94 16 87 17 93 18 88 19 92 20 89 21 91 22 90 23
REMARK SMILES IDX 95 24 96 25 97 26 98 27 101 28 99 29 100 30 10 31 11 32
REMARK SMILES IDX 12 33 13 34 14 35 15 36 16 37 17 38 18 39 82 40 19 41 81 42
REMARK SMILES IDX 20 43 21 44 22 45 75 46 23 47 80 48 74 49 76 50 24 51 79 52
REMARK SMILES IDX 73 53 72 54 25 56 59 57 38 58 58 59 39 60 42 61 57 62 77 63
REMARK SMILES IDX 40 64 41 65 56 67 78 68 43 69 26 70 27 71 36 72 28 73 29 74
REMARK SMILES IDX 35 75 37 76 30 77 31 78 32 79 33 80 34 81 60 82 61 83 70 84
REMARK SMILES IDX 62 85 63 86 69 87 71 88 64 89 65 90 66 91 67 92 68 93 44 94
REMARK SMILES IDX 45 95 54 96 46 97 47 98 53 99 55 100 48 101 49 102 50 103
REMARK SMILES IDX 51 104 52 105
REMARK H PARENT 76 55 42 66
REMARK Flexibility Score: inf
ROOT
ATOM      1  C   UNL A   1      36.208  21.619  24.686  1.00  0.00     0.188 C 
ENDROOT
BRANCH   1   2
ATOM      2  O   UNL A   1      35.282  20.758  25.338  1.00  0.00    -0.376 OA
BRANCH   2   3
ATOM      3  C   UNL A   1      33.970  20.794  24.802  1.00  0.00     0.202 C 
BRANCH   3   4
ATOM      4  C   UNL A   1      32.869  21.090  25.829  1.00  0.00     0.261 C 
BRANCH   4   5
ATOM      5  O   UNL A   1      31.548  21.277  25.280  1.00  0.00    -0.463 OA
BRANCH   5   6
ATOM      6  C   UNL A   1      30.883  22.417  25.596  1.00  0.00     0.313 C 
ATOM      7  O   UNL A   1      30.306  22.588  26.666  1.00  0.00    -0.252 OA
BRANCH   6   8
ATOM      8  C   UNL A   1      30.915  23.489  24.481  1.00  0.00     0.126 C 
ATOM      9  C   UNL A   1      31.587  23.119  23.159  1.00  0.00     0.025 C 
BRANCH   8  10
ATOM     10  C   UNL A   1      31.443  24.814  24.998  1.00  0.00    -0.032 A 
ATOM     11  C   UNL A   1      32.522  24.890  25.879  1.00  0.00     0.005 A 
ATOM     12  C   UNL A   1      30.852  25.990  24.543  1.00  0.00     0.032 A 
ATOM     13  C   UNL A   1      33.103  26.124  26.203  1.00  0.00     0.011 A 
ATOM     14  C   UNL A   1      31.455  27.211  24.840  1.00  0.00     0.058 A 
ATOM     15  C   UNL A   1      32.583  27.300  25.634  1.00  0.00     0.008 A 
ATOM     16  N   UNL A   1      31.155  28.490  24.352  1.00  0.00    -0.274 N 
ATOM     17  C   UNL A   1      32.869  28.678  25.784  1.00  0.00     0.009 A 
ATOM     18  C   UNL A   1      31.715  29.344  25.328  1.00  0.00     0.057 A 
ATOM     19  C   UNL A   1      33.869  29.368  26.503  1.00  0.00     0.031 A 
ATOM     20  C   UNL A   1      31.377  30.511  26.022  1.00  0.00     0.029 A 
ATOM     21  C   UNL A   1      33.599  30.645  26.980  1.00  0.00     0.041 A 
ATOM     22  C   UNL A   1      32.332  31.172  26.821  1.00  0.00     0.023 A 
ATOM     23  Cl  UNL A   1      34.779  31.470  27.920  1.00  0.00    -0.084 Cl
BRANCH  16  24
ATOM     24  C   UNL A   1      30.552  28.614  23.036  1.00  0.00     0.284 C 
ATOM     25  O   UNL A   1      31.167  28.029  22.140  1.00  0.00    -0.266 OA
BRANCH  24  26
ATOM     26  C   UNL A   1      29.338  29.259  22.572  1.00  0.00     0.167 A 
ATOM     27  C   UNL A   1      28.177  29.501  23.281  1.00  0.00     0.231 A 
ATOM     28  N   UNL A   1      29.298  30.026  21.405  1.00  0.00    -0.211 NA
ATOM     29  O   UNL A   1      27.366  30.304  22.527  1.00  0.00    -0.451 OA
ATOM     30  C   UNL A   1      28.104  30.582  21.422  1.00  0.00     0.308 A 
ENDBRANCH  24  26
ENDBRANCH  16  24
ENDBRANCH   8  10
ENDBRANCH   6   8
ENDBRANCH   5   6
ENDBRANCH   4   5
ENDBRANCH   3   4
ENDBRANCH   2   3
ENDBRANCH   1   2
BRANCH   1  31
ATOM     31  C   UNL A   1      37.665  21.228  24.971  1.00  0.00     0.188 C 
BRANCH  31  32
ATOM     32  O   UNL A   1      38.372  21.814  26.057  1.00  0.00    -0.376 OA
BRANCH  32  33
ATOM     33  C   UNL A   1      39.774  21.631  26.118  1.00  0.00     0.202 C 
BRANCH  33  34
ATOM     34  C   UNL A   1      40.636  22.851  26.464  1.00  0.00     0.261 C 
BRANCH  34  35
ATOM     35  O   UNL A   1      39.979  24.133  26.438  1.00  0.00    -0.460 OA
BRANCH  35  36
ATOM     36  C   UNL A   1      40.790  25.202  26.232  1.00  0.00     0.338 C 
ATOM     37  O   UNL A   1      41.559  25.362  25.291  1.00  0.00    -0.246 OA
BRANCH  36  38
ATOM     38  C   UNL A   1      40.577  26.235  27.275  1.00  0.00     0.060 A 
ATOM     39  C   UNL A   1      41.290  27.438  27.207  1.00  0.00     0.016 A 
ATOM     40  C   UNL A   1      39.776  25.975  28.388  1.00  0.00     0.016 A 
ATOM     41  C   UNL A   1      41.204  28.374  28.253  1.00  0.00     0.010 A 
ATOM     42  C   UNL A   1      39.695  26.915  29.436  1.00  0.00     0.010 A 
ATOM     43  C   UNL A   1      40.408  28.127  29.390  1.00  0.00    -0.014 A 
BRANCH  43  44
ATOM     44  C   UNL A   1      40.450  29.028  30.601  1.00  0.00     0.031 A 
ATOM     45  C   UNL A   1      39.372  30.031  30.756  1.00  0.00     0.074 A 
ATOM     46  C   UNL A   1      41.389  28.978  31.573  1.00  0.00     0.049 A 
ATOM     47  N   UNL A   1      39.194  30.867  31.737  1.00  0.00    -0.248 NA
ATOM     48  C   UNL A   1      38.397  30.127  29.664  1.00  0.00     0.031 C 
ATOM     49  C   UNL A   1      42.436  28.002  31.536  1.00  0.00     0.029 A 
ATOM     50  N   UNL A   1      41.606  29.587  32.788  1.00  0.00    -0.354 N 
ATOM     51  C   UNL A   1      38.121  31.643  31.357  1.00  0.00     0.074 A 
ATOM     52  C   UNL A   1      37.678  31.164  30.063  1.00  0.00     0.031 C 
ATOM     53  C   UNL A   1      43.131  27.959  32.676  1.00  0.00     0.029 A 
ATOM     54  C   UNL A   1      42.608  28.988  33.546  1.00  0.00     0.049 A 
ATOM     55  H   UNL A   1      41.100  30.376  33.092  1.00  0.00     0.167 HD
ATOM     56  C   UNL A   1      37.586  32.685  32.028  1.00  0.00     0.037 A 
ATOM     57  C   UNL A   1      43.030  29.178  34.815  1.00  0.00     0.037 A 
ATOM     58  C   UNL A   1      38.057  33.151  33.304  1.00  0.00     0.049 A 
ATOM     59  C   UNL A   1      42.356  30.275  35.573  1.00  0.00     0.074 A 
ATOM     60  C   UNL A   1      37.613  34.237  34.033  1.00  0.00     0.029 A 
ATOM     61  N   UNL A   1      39.078  32.564  34.045  1.00  0.00    -0.354 N 
ATOM     62  N   UNL A   1      41.342  31.011  35.183  1.00  0.00    -0.248 NA
ATOM     63  C   UNL A   1      42.875  30.602  36.904  1.00  0.00     0.031 C 
ATOM     64  C   UNL A   1      38.388  34.330  35.195  1.00  0.00     0.029 A 
ATOM     65  C   UNL A   1      39.285  33.274  35.216  1.00  0.00     0.049 A 
ATOM     66  H   UNL A   1      39.579  31.760  33.775  1.00  0.00     0.167 HD
ATOM     67  C   UNL A   1      41.120  31.913  36.207  1.00  0.00     0.074 A 
ATOM     68  C   UNL A   1      42.060  31.586  37.263  1.00  0.00     0.031 C 
ATOM     69  C   UNL A   1      40.240  32.941  36.246  1.00  0.00     0.037 A 
BRANCH  56  70
ATOM     70  C   UNL A   1      36.498  33.419  31.316  1.00  0.00     0.058 A 
ATOM     71  C   UNL A   1      35.147  33.245  31.649  1.00  0.00     0.135 A 
ATOM     72  C   UNL A   1      36.815  34.248  30.229  1.00  0.00     0.135 A 
ATOM     73  F   UNL A   1      34.796  32.415  32.644  1.00  0.00    -0.206 F 
ATOM     74  C   UNL A   1      34.140  33.849  30.908  1.00  0.00     0.059 A 
ATOM     75  C   UNL A   1      35.826  34.888  29.495  1.00  0.00     0.059 A 
ATOM     76  F   UNL A   1      38.093  34.416  29.856  1.00  0.00    -0.206 F 
ATOM     77  C   UNL A   1      34.492  34.668  29.833  1.00  0.00     0.060 A 
BRANCH  77  78
ATOM     78  S   UNL A   1      33.175  35.448  28.880  1.00  0.00     0.124 S 
ATOM     79  O   UNL A   1      33.939  36.295  27.970  1.00  0.00    -0.237 OA
ATOM     80  O   UNL A   1      32.511  34.299  28.273  1.00  0.00    -0.237 OA
ATOM     81  O   UNL A   1      32.397  36.154  29.893  1.00  0.00    -0.744 OA
ENDBRANCH  77  78
ENDBRANCH  56  70
BRANCH  57  82
ATOM     82  C   UNL A   1      44.096  28.323  35.437  1.00  0.00     0.058 A 
ATOM     83  C   UNL A   1      43.780  27.144  36.135  1.00  0.00     0.135 A 
ATOM     84  C   UNL A   1      45.460  28.648  35.334  1.00  0.00     0.135 A 
ATOM     85  F   UNL A   1      42.497  26.782  36.288  1.00  0.00    -0.206 F 
ATOM     86  C   UNL A   1      44.762  26.327  36.701  1.00  0.00     0.059 A 
ATOM     87  C   UNL A   1      46.462  27.835  35.864  1.00  0.00     0.059 A 
ATOM     88  F   UNL A   1      45.841  29.753  34.674  1.00  0.00    -0.206 F 
ATOM     89  C   UNL A   1      46.104  26.679  36.555  1.00  0.00     0.060 A 
BRANCH  89  90
ATOM     90  S   UNL A   1      47.381  25.591  37.234  1.00  0.00     0.124 S 
ATOM     91  O   UNL A   1      47.482  24.571  36.197  1.00  0.00    -0.237 OA
ATOM     92  O   UNL A   1      48.521  26.492  37.359  1.00  0.00    -0.237 OA
ATOM     93  O   UNL A   1      46.802  25.149  38.500  1.00  0.00    -0.744 OA
ENDBRANCH  89  90
ENDBRANCH  57  82
BRANCH  69  94
ATOM     94  C   UNL A   1      40.284  33.801  37.470  1.00  0.00     0.058 A 
ATOM     95  C   UNL A   1      41.167  34.887  37.565  1.00  0.00     0.135 A 
ATOM     96  C   UNL A   1      39.419  33.551  38.545  1.00  0.00     0.135 A 
ATOM     97  F   UNL A   1      42.022  35.155  36.565  1.00  0.00    -0.206 F 
ATOM     98  C   UNL A   1      41.210  35.684  38.701  1.00  0.00     0.059 A 
ATOM     99  C   UNL A   1      39.426  34.351  39.680  1.00  0.00     0.059 A 
ATOM    100  F   UNL A   1      38.555  32.525  38.494  1.00  0.00    -0.206 F 
ATOM    101  C   UNL A   1      40.335  35.409  39.753  1.00  0.00     0.060 A 
BRANCH 101 102
ATOM    102  S   UNL A   1      40.382  36.467  41.212  1.00  0.00     0.124 S 
ATOM    103  O   UNL A   1      40.973  35.572  42.202  1.00  0.00    -0.237 OA
ATOM    104  O   UNL A   1      41.227  37.571  40.768  1.00  0.00    -0.237 OA
ATOM    105  O   UNL A   1      38.980  36.807  41.429  1.00  0.00    -0.744 OA
ENDBRANCH 101 102
ENDBRANCH  69  94
ENDBRANCH  43  44
ENDBRANCH  36  38
ENDBRANCH  35  36
ENDBRANCH  34  35
ENDBRANCH  33  34
ENDBRANCH  32  33
ENDBRANCH  31  32
ENDBRANCH   1  31
TORSDOF 23
ENDMDL
MODEL 2
REMARK VINA RESULT:     -11.1      0.750      7.813
REMARK SMILES C[C@@H](C(=O)OCCOCCOCCOC(=O)c1ccc(-c2c3nc(c(-c4c(F)cc(S(=O)(=O)[O-])cc4F)c4ccc([nH]4)c(-c4c(F)cc(S(=O)(=O)[O-])cc4F)c4nc(c(-c5c(F)cc(S(=O)(=O)[O-])cc5F)c5ccc2[nH]5)C=C4)C=C3)cc1)c1ccc2c3cc(Cl)ccc3n(C(=O)c3cocn3)c2c1
REMARK SMILES IDX 9 1 8 2 7 3 6 4 5 5 3 6 4 7 2 8 1 9 83 10 84 11 103 12 85 13
REMARK SMILES IDX 102 14 86 15 94 16 87 17 93 18 88 19 92 20 89 21 91 22 90 23
REMARK SMILES IDX 95 24 96 25 97 26 98 27 101 28 99 29 100 30 10 31 11 32
REMARK SMILES IDX 12 33 13 34 14 35 15 36 16 37 17 38 18 39 82 40 19 41 81 42
REMARK SMILES IDX 20 43 21 44 22 45 75 46 23 47 80 48 74 49 76 50 24 51 79 52
REMARK SMILES IDX 73 53 72 54 25 56 59 57 38 58 58 59 39 60 42 61 57 62 77 63
REMARK SMILES IDX 40 64 41 65 56 67 78 68 43 69 26 70 27 71 36 72 28 73 29 74
REMARK SMILES IDX 35 75 37 76 30 77 31 78 32 79 33 80 34 81 60 82 61 83 70 84
REMARK SMILES IDX 62 85 63 86 69 87 71 88 64 89 65 90 66 91 67 92 68 93 44 94
REMARK SMILES IDX 45 95 54 96 46 97 47 98 53 99 55 100 48 101 49 102 50 103
REMARK SMILES IDX 51 104 52 105
REMARK H PARENT 76 55 42 66
REMARK Flexibility Score: inf
ROOT
ATOM      1  C   UNL A   1      36.423  21.710  25.069  1.00  0.00     0.188 C 
ENDROOT
BRANCH   1   2
ATOM      2  O   UNL A   1      35.457  20.787  25.559  1.00  0.00    -0.376 OA
BRANCH   2   3
ATOM      3  C   UNL A   1      34.193  20.868  24.921  1.00  0.00     0.202 C 
BRANCH   3   4
ATOM      4  C   UNL A   1      33.010  21.084  25.875  1.00  0.00     0.261 C 
BRANCH   4   5
ATOM      5  O   UNL A   1      31.717  21.170  25.242  1.00  0.00    -0.463 OA
BRANCH   5   6
ATOM      6  C   UNL A   1      30.963  22.273  25.483  1.00  0.00     0.313 C 
ATOM      7  O   UNL A   1      30.242  22.397  26.468  1.00  0.00    -0.252 OA
BRANCH   6   8
ATOM      8  C   UNL A   1      31.094  23.369  24.398  1.00  0.00     0.126 C 
ATOM      9  C   UNL A   1      31.775  22.988  23.083  1.00  0.00     0.025 C 
BRANCH   8  10
ATOM     10  C   UNL A   1      31.692  24.642  24.963  1.00  0.00    -0.032 A 
ATOM     11  C   UNL A   1      32.830  24.634  25.770  1.00  0.00     0.005 A 
ATOM     12  C   UNL A   1      31.104  25.860  24.629  1.00  0.00     0.032 A 
ATOM     13  C   UNL A   1      33.466  25.830  26.132  1.00  0.00     0.011 A 
ATOM     14  C   UNL A   1      31.759  27.044  24.962  1.00  0.00     0.058 A 
ATOM     15  C   UNL A   1      32.941  27.053  25.680  1.00  0.00     0.008 A 
ATOM     16  N   UNL A   1      31.462  28.359  24.581  1.00  0.00    -0.274 N 
ATOM     17  C   UNL A   1      33.274  28.411  25.900  1.00  0.00     0.009 A 
ATOM     18  C   UNL A   1      32.110  29.132  25.570  1.00  0.00     0.057 A 
ATOM     19  C   UNL A   1      34.340  29.028  26.591  1.00  0.00     0.031 A 
ATOM     20  C   UNL A   1      31.853  30.258  26.362  1.00  0.00     0.029 A 
ATOM     21  C   UNL A   1      34.137  30.275  27.169  1.00  0.00     0.041 A 
ATOM     22  C   UNL A   1      32.878  30.841  27.133  1.00  0.00     0.023 A 
ATOM     23  Cl  UNL A   1      35.402  31.008  28.076  1.00  0.00    -0.084 Cl
BRANCH  16  24
ATOM     24  C   UNL A   1      30.774  28.586  23.322  1.00  0.00     0.284 C 
ATOM     25  O   UNL A   1      31.442  28.305  22.323  1.00  0.00    -0.266 OA
BRANCH  24  26
ATOM     26  C   UNL A   1      29.434  29.041  23.007  1.00  0.00     0.167 A 
ATOM     27  C   UNL A   1      29.052  30.003  22.092  1.00  0.00     0.231 A 
ATOM     28  N   UNL A   1      28.294  28.319  23.372  1.00  0.00    -0.211 NA
ATOM     29  O   UNL A   1      27.690  29.975  21.971  1.00  0.00    -0.451 OA
ATOM     30  C   UNL A   1      27.306  28.940  22.761  1.00  0.00     0.308 A 
ENDBRANCH  24  26
ENDBRANCH  16  24
ENDBRANCH   8  10
ENDBRANCH   6   8
ENDBRANCH   5   6
ENDBRANCH   4   5
ENDBRANCH   3   4
ENDBRANCH   2   3
ENDBRANCH   1   2
BRANCH   1  31
ATOM     31  C   UNL A   1      37.859  21.201  25.254  1.00  0.00     0.188 C 
BRANCH  31  32
ATOM     32  O   UNL A   1      38.773  21.901  26.090  1.00  0.00    -0.376 OA
BRANCH  32  33
ATOM     33  C   UNL A   1      40.058  21.343  26.290  1.00  0.00     0.202 C 
BRANCH  33  34
ATOM     34  C   UNL A   1      41.219  22.310  26.555  1.00  0.00     0.261 C 
BRANCH  34  35
ATOM     35  O   UNL A   1      40.966  23.705  26.304  1.00  0.00    -0.460 OA
BRANCH  35  36
ATOM     36  C   UNL A   1      41.998  24.544  26.573  1.00  0.00     0.338 C 
ATOM     37  O   UNL A   1      43.119  24.503  26.077  1.00  0.00    -0.246 OA
BRANCH  36  38
ATOM     38  C   UNL A   1      41.581  25.610  27.516  1.00  0.00     0.060 A 
ATOM     39  C   UNL A   1      42.350  26.776  27.620  1.00  0.00     0.016 A 
ATOM     40  C   UNL A   1      40.510  25.415  28.390  1.00  0.00     0.016 A 
ATOM     41  C   UNL A   1      42.049  27.739  28.600  1.00  0.00     0.010 A 
ATOM     42  C   UNL A   1      40.214  26.381  29.372  1.00  0.00     0.010 A 
ATOM     43  C   UNL A   1      40.978  27.556  29.498  1.00  0.00    -0.014 A 
BRANCH  43  44
ATOM     44  C   UNL A   1      40.757  28.483  30.670  1.00  0.00     0.031 A 
ATOM     45  C   UNL A   1      41.759  28.471  31.760  1.00  0.00     0.074 A 
ATOM     46  C   UNL A   1      39.720  29.343  30.795  1.00  0.00     0.049 A 
ATOM     47  N   UNL A   1      41.785  29.214  32.828  1.00  0.00    -0.248 NA
ATOM     48  C   UNL A   1      42.842  27.487  31.652  1.00  0.00     0.031 C 
ATOM     49  C   UNL A   1      38.735  29.463  29.764  1.00  0.00     0.029 A 
ATOM     50  N   UNL A   1      39.341  30.332  31.674  1.00  0.00    -0.354 N 
ATOM     51  C   UNL A   1      42.853  28.748  33.564  1.00  0.00     0.074 A 
ATOM     52  C   UNL A   1      43.460  27.669  32.808  1.00  0.00     0.031 C 
ATOM     53  C   UNL A   1      37.922  30.505  29.957  1.00  0.00     0.029 A 
ATOM     54  C   UNL A   1      38.293  31.123  31.210  1.00  0.00     0.049 A 
ATOM     55  H   UNL A   1      39.770  30.467  32.550  1.00  0.00     0.167 HD
ATOM     56  C   UNL A   1      43.258  29.171  34.779  1.00  0.00     0.037 A 
ATOM     57  C   UNL A   1      37.725  32.254  31.682  1.00  0.00     0.037 A 
ATOM     58  C   UNL A   1      42.626  30.233  35.516  1.00  0.00     0.049 A 
ATOM     59  C   UNL A   1      38.256  32.761  32.984  1.00  0.00     0.074 A 
ATOM     60  C   UNL A   1      42.932  30.693  36.782  1.00  0.00     0.029 A 
ATOM     61  N   UNL A   1      41.562  31.003  35.058  1.00  0.00    -0.354 N 
ATOM     62  N   UNL A   1      39.268  32.289  33.673  1.00  0.00    -0.248 NA
ATOM     63  C   UNL A   1      37.578  33.907  33.596  1.00  0.00     0.031 C 
ATOM     64  C   UNL A   1      42.031  31.714  37.106  1.00  0.00     0.029 A 
ATOM     65  C   UNL A   1      41.191  31.925  36.023  1.00  0.00     0.049 A 
ATOM     66  H   UNL A   1      41.134  30.905  34.176  1.00  0.00     0.167 HD
ATOM     67  C   UNL A   1      39.330  33.059  34.819  1.00  0.00     0.074 A 
ATOM     68  C   UNL A   1      38.297  34.072  34.699  1.00  0.00     0.031 C 
ATOM     69  C   UNL A   1      40.147  32.912  35.889  1.00  0.00     0.037 A 
BRANCH  56  70
ATOM     70  C   UNL A   1      44.379  28.398  35.392  1.00  0.00     0.058 A 
ATOM     71  C   UNL A   1      44.149  27.284  36.211  1.00  0.00     0.135 A 
ATOM     72  C   UNL A   1      45.701  28.834  35.216  1.00  0.00     0.135 A 
ATOM     73  F   UNL A   1      42.895  26.868  36.453  1.00  0.00    -0.206 F 
ATOM     74  C   UNL A   1      45.193  26.641  36.862  1.00  0.00     0.059 A 
ATOM     75  C   UNL A   1      46.764  28.186  35.831  1.00  0.00     0.059 A 
ATOM     76  F   UNL A   1      45.963  29.916  34.467  1.00  0.00    -0.206 F 
ATOM     77  C   UNL A   1      46.496  27.101  36.664  1.00  0.00     0.060 A 
BRANCH  77  78
ATOM     78  S   UNL A   1      47.844  26.257  37.514  1.00  0.00     0.124 S 
ATOM     79  O   UNL A   1      47.703  26.777  38.870  1.00  0.00    -0.237 OA
ATOM     80  O   UNL A   1      47.492  24.853  37.332  1.00  0.00    -0.237 OA
ATOM     81  O   UNL A   1      49.031  26.702  36.790  1.00  0.00    -0.744 OA
ENDBRANCH  77  78
ENDBRANCH  56  70
BRANCH  57  82
ATOM     82  C   UNL A   1      36.642  32.975  30.932  1.00  0.00     0.058 A 
ATOM     83  C   UNL A   1      35.284  32.805  31.257  1.00  0.00     0.135 A 
ATOM     84  C   UNL A   1      36.934  33.870  29.887  1.00  0.00     0.135 A 
ATOM     85  F   UNL A   1      34.932  31.953  32.231  1.00  0.00    -0.206 F 
ATOM     86  C   UNL A   1      34.268  33.485  30.583  1.00  0.00     0.059 A 
ATOM     87  C   UNL A   1      35.940  34.584  29.218  1.00  0.00     0.059 A 
ATOM     88  F   UNL A   1      38.208  34.091  29.527  1.00  0.00    -0.206 F 
ATOM     89  C   UNL A   1      34.607  34.379  29.566  1.00  0.00     0.060 A 
BRANCH  89  90
ATOM     90  S   UNL A   1      33.295  35.308  28.734  1.00  0.00     0.124 S 
ATOM     91  O   UNL A   1      32.606  34.253  27.999  1.00  0.00    -0.237 OA
ATOM     92  O   UNL A   1      32.566  35.887  29.856  1.00  0.00    -0.237 OA
ATOM     93  O   UNL A   1      34.034  36.267  27.917  1.00  0.00    -0.744 OA
ENDBRANCH  89  90
ENDBRANCH  57  82
BRANCH  69  94
ATOM     94  C   UNL A   1      39.925  33.862  37.024  1.00  0.00     0.058 A 
ATOM     95  C   UNL A   1      38.948  33.613  38.000  1.00  0.00     0.135 A 
ATOM     96  C   UNL A   1      40.712  35.014  37.150  1.00  0.00     0.135 A 
ATOM     97  F   UNL A   1      38.162  32.528  37.912  1.00  0.00    -0.206 F 
ATOM     98  C   UNL A   1      38.740  34.494  39.052  1.00  0.00     0.059 A 
ATOM     99  C   UNL A   1      40.541  35.895  38.209  1.00  0.00     0.059 A 
ATOM    100  F   UNL A   1      41.663  35.288  36.241  1.00  0.00    -0.206 F 
ATOM    101  C   UNL A   1      39.542  35.632  39.149  1.00  0.00     0.060 A 
BRANCH 101 102
ATOM    102  S   UNL A   1      39.280  36.755  40.535  1.00  0.00     0.124 S 
ATOM    103  O   UNL A   1      40.562  37.450  40.593  1.00  0.00    -0.237 OA
ATOM    104  O   UNL A   1      38.146  37.552  40.080  1.00  0.00    -0.237 OA
ATOM    105  O   UNL A   1      39.001  35.857  41.651  1.00  0.00    -0.744 OA
ENDBRANCH 101 102
ENDBRANCH  69  94
ENDBRANCH  43  44
ENDBRANCH  36  38
ENDBRANCH  35  36
ENDBRANCH  34  35
ENDBRANCH  33  34
ENDBRANCH  32  33
ENDBRANCH  31  32
ENDBRANCH   1  31
TORSDOF 23
ENDMDL
MODEL 3
REMARK VINA RESULT:     -10.5      3.440      8.796
REMARK SMILES C[C@@H](C(=O)OCCOCCOCCOC(=O)c1ccc(-c2c3nc(c(-c4c(F)cc(S(=O)(=O)[O-])cc4F)c4ccc([nH]4)c(-c4c(F)cc(S(=O)(=O)[O-])cc4F)c4nc(c(-c5c(F)cc(S(=O)(=O)[O-])cc5F)c5ccc2[nH]5)C=C4)C=C3)cc1)c1ccc2c3cc(Cl)ccc3n(C(=O)c3cocn3)c2c1
REMARK SMILES IDX 9 1 8 2 7 3 6 4 5 5 3 6 4 7 2 8 1 9 83 10 84 11 103 12 85 13
REMARK SMILES IDX 102 14 86 15 94 16 87 17 93 18 88 19 92 20 89 21 91 22 90 23
REMARK SMILES IDX 95 24 96 25 97 26 98 27 101 28 99 29 100 30 10 31 11 32
REMARK SMILES IDX 12 33 13 34 14 35 15 36 16 37 17 38 18 39 82 40 19 41 81 42
REMARK SMILES IDX 20 43 21 44 22 45 75 46 23 47 80 48 74 49 76 50 24 51 79 52
REMARK SMILES IDX 73 53 72 54 25 56 59 57 38 58 58 59 39 60 42 61 57 62 77 63
REMARK SMILES IDX 40 64 41 65 56 67 78 68 43 69 26 70 27 71 36 72 28 73 29 74
REMARK SMILES IDX 35 75 37 76 30 77 31 78 32 79 33 80 34 81 60 82 61 83 70 84
REMARK SMILES IDX 62 85 63 86 69 87 71 88 64 89 65 90 66 91 67 92 68 93 44 94
REMARK SMILES IDX 45 95 54 96 46 97 47 98 53 99 55 100 48 101 49 102 50 103
REMARK SMILES IDX 51 104 52 105
REMARK H PARENT 76 55 42 66
REMARK Flexibility Score: inf
ROOT
ATOM      1  C   UNL A   1      31.554  25.220  26.503  1.00  0.00     0.188 C 
ENDROOT
BRANCH   1   2
ATOM      2  O   UNL A   1      30.652  24.174  26.844  1.00  0.00    -0.376 OA
BRANCH   2   3
ATOM      3  C   UNL A   1      31.202  22.871  26.747  1.00  0.00     0.202 C 
BRANCH   3   4
ATOM      4  C   UNL A   1      31.183  22.275  25.332  1.00  0.00     0.261 C 
BRANCH   4   5
ATOM      5  O   UNL A   1      31.629  20.906  25.234  1.00  0.00    -0.463 OA
BRANCH   5   6
ATOM      6  C   UNL A   1      32.105  20.477  24.038  1.00  0.00     0.313 C 
ATOM      7  O   UNL A   1      31.950  21.093  22.988  1.00  0.00    -0.252 OA
BRANCH   6   8
ATOM      8  C   UNL A   1      32.863  19.130  24.114  1.00  0.00     0.126 C 
ATOM      9  C   UNL A   1      32.222  17.998  24.917  1.00  0.00     0.025 C 
BRANCH   8  10
ATOM     10  C   UNL A   1      34.308  19.328  24.528  1.00  0.00    -0.032 A 
ATOM     11  C   UNL A   1      35.162  18.253  24.782  1.00  0.00     0.005 A 
ATOM     12  C   UNL A   1      34.804  20.626  24.618  1.00  0.00     0.032 A 
ATOM     13  C   UNL A   1      36.533  18.455  24.989  1.00  0.00     0.011 A 
ATOM     14  C   UNL A   1      36.175  20.819  24.789  1.00  0.00     0.058 A 
ATOM     15  C   UNL A   1      37.051  19.761  24.947  1.00  0.00     0.008 A 
ATOM     16  N   UNL A   1      36.917  22.006  24.728  1.00  0.00    -0.274 N 
ATOM     17  C   UNL A   1      38.331  20.323  25.170  1.00  0.00     0.009 A 
ATOM     18  C   UNL A   1      38.092  21.684  25.443  1.00  0.00     0.057 A 
ATOM     19  C   UNL A   1      39.592  19.741  25.425  1.00  0.00     0.031 A 
ATOM     20  C   UNL A   1      38.933  22.264  26.400  1.00  0.00     0.029 A 
ATOM     21  C   UNL A   1      40.521  20.447  26.181  1.00  0.00     0.041 A 
ATOM     22  C   UNL A   1      40.159  21.657  26.740  1.00  0.00     0.023 A 
ATOM     23  Cl  UNL A   1      42.034  19.724  26.561  1.00  0.00    -0.084 Cl
BRANCH  16  24
ATOM     24  C   UNL A   1      36.427  23.098  23.905  1.00  0.00     0.284 C 
ATOM     25  O   UNL A   1      37.049  23.255  22.851  1.00  0.00    -0.266 OA
BRANCH  24  26
ATOM     26  C   UNL A   1      35.317  24.018  24.060  1.00  0.00     0.167 A 
ATOM     27  C   UNL A   1      35.087  24.912  25.088  1.00  0.00     0.231 A 
ATOM     28  N   UNL A   1      34.471  24.355  23.000  1.00  0.00    -0.211 NA
ATOM     29  O   UNL A   1      34.039  25.718  24.739  1.00  0.00    -0.451 OA
ATOM     30  C   UNL A   1      33.726  25.331  23.476  1.00  0.00     0.308 A 
ENDBRANCH  24  26
ENDBRANCH  16  24
ENDBRANCH   8  10
ENDBRANCH   6   8
ENDBRANCH   5   6
ENDBRANCH   4   5
ENDBRANCH   3   4
ENDBRANCH   2   3
ENDBRANCH   1   2
BRANCH   1  31
ATOM     31  C   UNL A   1      30.824  26.524  26.149  1.00  0.00     0.188 C 
BRANCH  31  32
ATOM     32  O   UNL A   1      31.547  27.739  25.999  1.00  0.00    -0.376 OA
BRANCH  32  33
ATOM     33  C   UNL A   1      31.804  28.511  27.157  1.00  0.00     0.202 C 
BRANCH  33  34
ATOM     34  C   UNL A   1      32.217  29.975  26.958  1.00  0.00     0.261 C 
BRANCH  34  35
ATOM     35  O   UNL A   1      33.622  30.228  26.771  1.00  0.00    -0.460 OA
BRANCH  35  36
ATOM     36  C   UNL A   1      34.153  31.192  27.566  1.00  0.00     0.338 C 
ATOM     37  O   UNL A   1      33.571  32.180  28.002  1.00  0.00    -0.246 OA
BRANCH  36  38
ATOM     38  C   UNL A   1      35.553  30.866  27.929  1.00  0.00     0.060 A 
ATOM     39  C   UNL A   1      35.918  29.530  28.135  1.00  0.00     0.016 A 
ATOM     40  C   UNL A   1      36.480  31.877  28.193  1.00  0.00     0.016 A 
ATOM     41  C   UNL A   1      37.203  29.208  28.608  1.00  0.00     0.010 A 
ATOM     42  C   UNL A   1      37.765  31.552  28.670  1.00  0.00     0.010 A 
ATOM     43  C   UNL A   1      38.149  30.216  28.889  1.00  0.00    -0.014 A 
BRANCH  43  44
ATOM     44  C   UNL A   1      39.460  29.906  29.573  1.00  0.00     0.031 A 
ATOM     45  C   UNL A   1      39.673  30.440  30.937  1.00  0.00     0.074 A 
ATOM     46  C   UNL A   1      40.453  29.156  29.042  1.00  0.00     0.049 A 
ATOM     47  N   UNL A   1      40.699  30.256  31.716  1.00  0.00    -0.248 NA
ATOM     48  C   UNL A   1      38.621  31.309  31.479  1.00  0.00     0.031 C 
ATOM     49  C   UNL A   1      40.311  28.552  27.753  1.00  0.00     0.029 A 
ATOM     50  N   UNL A   1      41.662  28.653  29.466  1.00  0.00    -0.354 N 
ATOM     51  C   UNL A   1      40.456  31.040  32.822  1.00  0.00     0.074 A 
ATOM     52  C   UNL A   1      39.174  31.686  32.620  1.00  0.00     0.031 C 
ATOM     53  C   UNL A   1      41.287  27.678  27.491  1.00  0.00     0.029 A 
ATOM     54  C   UNL A   1      42.205  27.701  28.607  1.00  0.00     0.049 A 
ATOM     55  H   UNL A   1      42.103  28.940  30.298  1.00  0.00     0.167 HD
ATOM     56  C   UNL A   1      41.260  31.220  33.890  1.00  0.00     0.037 A 
ATOM     57  C   UNL A   1      43.274  26.882  28.711  1.00  0.00     0.037 A 
ATOM     58  C   UNL A   1      42.536  30.579  34.058  1.00  0.00     0.049 A 
ATOM     59  C   UNL A   1      44.097  27.031  29.949  1.00  0.00     0.074 A 
ATOM     60  C   UNL A   1      43.448  30.747  35.083  1.00  0.00     0.029 A 
ATOM     61  N   UNL A   1      43.087  29.649  33.182  1.00  0.00    -0.354 N 
ATOM     62  N   UNL A   1      43.851  27.798  30.986  1.00  0.00    -0.248 NA
ATOM     63  C   UNL A   1      45.338  26.258  30.040  1.00  0.00     0.031 C 
ATOM     64  C   UNL A   1      44.564  29.948  34.809  1.00  0.00     0.029 A 
ATOM     65  C   UNL A   1      44.331  29.244  33.638  1.00  0.00     0.049 A 
ATOM     66  H   UNL A   1      42.654  29.326  32.358  1.00  0.00     0.167 HD
ATOM     67  C   UNL A   1      44.923  27.626  31.841  1.00  0.00     0.074 A 
ATOM     68  C   UNL A   1      45.787  26.630  31.232  1.00  0.00     0.031 C 
ATOM     69  C   UNL A   1      45.182  28.265  33.005  1.00  0.00     0.037 A 
BRANCH  56  70
ATOM     70  C   UNL A   1      40.789  32.226  34.890  1.00  0.00     0.058 A 
ATOM     71  C   UNL A   1      41.243  33.552  34.875  1.00  0.00     0.135 A 
ATOM     72  C   UNL A   1      39.930  31.826  35.925  1.00  0.00     0.135 A 
ATOM     73  F   UNL A   1      42.111  33.961  33.936  1.00  0.00    -0.206 F 
ATOM     74  C   UNL A   1      40.883  34.446  35.874  1.00  0.00     0.059 A 
ATOM     75  C   UNL A   1      39.531  32.713  36.916  1.00  0.00     0.059 A 
ATOM     76  F   UNL A   1      39.499  30.557  35.996  1.00  0.00    -0.206 F 
ATOM     77  C   UNL A   1      40.027  34.015  36.889  1.00  0.00     0.060 A 
BRANCH  77  78
ATOM     78  S   UNL A   1      39.565  35.187  38.179  1.00  0.00     0.124 S 
ATOM     79  O   UNL A   1      39.424  36.421  37.413  1.00  0.00    -0.237 OA
ATOM     80  O   UNL A   1      38.325  34.612  38.690  1.00  0.00    -0.237 OA
ATOM     81  O   UNL A   1      40.698  35.143  39.098  1.00  0.00    -0.744 OA
ENDBRANCH  77  78
ENDBRANCH  56  70
BRANCH  57  82
ATOM     82  C   UNL A   1      43.604  25.864  27.658  1.00  0.00     0.058 A 
ATOM     83  C   UNL A   1      44.310  26.212  26.493  1.00  0.00     0.135 A 
ATOM     84  C   UNL A   1      43.243  24.512  27.797  1.00  0.00     0.135 A 
ATOM     85  F   UNL A   1      44.670  27.488  26.286  1.00  0.00    -0.206 F 
ATOM     86  C   UNL A   1      44.642  25.272  25.515  1.00  0.00     0.059 A 
ATOM     87  C   UNL A   1      43.589  23.547  26.850  1.00  0.00     0.059 A 
ATOM     88  F   UNL A   1      42.577  24.101  28.887  1.00  0.00    -0.206 F 
ATOM     89  C   UNL A   1      44.281  23.938  25.705  1.00  0.00     0.060 A 
BRANCH  89  90
ATOM     90  S   UNL A   1      44.765  22.707  24.470  1.00  0.00     0.124 S 
ATOM     91  O   UNL A   1      43.557  22.611  23.658  1.00  0.00    -0.237 OA
ATOM     92  O   UNL A   1      45.914  23.342  23.834  1.00  0.00    -0.237 OA
ATOM     93  O   UNL A   1      45.078  21.531  25.277  1.00  0.00    -0.744 OA
ENDBRANCH  89  90
ENDBRANCH  57  82
BRANCH  69  94
ATOM     94  C   UNL A   1      46.475  27.918  33.676  1.00  0.00     0.058 A 
ATOM     95  C   UNL A   1      47.656  28.618  33.386  1.00  0.00     0.135 A 
ATOM     96  C   UNL A   1      46.525  26.894  34.632  1.00  0.00     0.135 A 
ATOM     97  F   UNL A   1      47.656  29.597  32.467  1.00  0.00    -0.206 F 
ATOM     98  C   UNL A   1      48.855  28.295  34.006  1.00  0.00     0.059 A 
ATOM     99  C   UNL A   1      47.708  26.573  35.285  1.00  0.00     0.059 A 
ATOM    100  F   UNL A   1      45.418  26.202  34.943  1.00  0.00    -0.206 F 
ATOM    101  C   UNL A   1      48.871  27.271  34.954  1.00  0.00     0.060 A 
BRANCH 101 102
ATOM    102  S   UNL A   1      50.430  26.880  35.772  1.00  0.00     0.124 S 
ATOM    103  O   UNL A   1      50.401  27.796  36.908  1.00  0.00    -0.237 OA
ATOM    104  O   UNL A   1      50.266  25.465  36.093  1.00  0.00    -0.237 OA
ATOM    105  O   UNL A   1      51.431  27.173  34.752  1.00  0.00    -0.744 OA
ENDBRANCH 101 102
ENDBRANCH  69  94
ENDBRANCH  43  44
ENDBRANCH  36  38
ENDBRANCH  35  36
ENDBRANCH  34  35
ENDBRANCH  33  34
ENDBRANCH  32  33
ENDBRANCH  31  32
ENDBRANCH   1  31
TORSDOF 23
ENDMDL
