MODEL 1
REMARK VINA RESULT:     -10.2      0.000      0.000
REMARK SMILES CC(C)[NH2+][C@]1(C(=O)OCCOCCOCCOC(=O)c2ccc(-c3c4nc(c(-c5c(F)cc(S(=O)(=O)[O-])cc5F)c5ccc([nH]5)c(-c5c(F)cc(S(=O)(=O)[O-])cc5F)c5nc(c(-c6c(F)cc(S(=O)(=O)[O-])cc6F)c6ccc3[nH]6)C=C5)C=C4)cc2)CC[C@H]([N@H+](C)C2CCCC2)C1
REMARK SMILES IDX 13 1 12 2 11 3 10 4 9 5 8 6 6 7 7 8 5 9 86 10 96 11 87 12
REMARK SMILES IDX 88 13 4 14 2 17 1 18 3 19 89 20 90 21 91 23 92 24 95 25
REMARK SMILES IDX 93 26 94 27 14 28 15 29 16 30 17 31 18 32 19 33 20 34 21 35
REMARK SMILES IDX 85 36 22 37 84 38 23 39 24 40 25 41 78 42 26 43 83 44 77 45
REMARK SMILES IDX 79 46 27 47 82 48 76 49 75 50 28 52 62 53 41 54 61 55 42 56
REMARK SMILES IDX 45 57 60 58 80 59 43 60 44 61 59 63 81 64 46 65 29 66 30 67
REMARK SMILES IDX 39 68 31 69 32 70 38 71 40 72 33 73 34 74 35 75 36 76 37 77
REMARK SMILES IDX 63 78 64 79 73 80 65 81 66 82 72 83 74 84 67 85 68 86 69 87
REMARK SMILES IDX 70 88 71 89 47 90 48 91 57 92 49 93 50 94 56 95 58 96 51 97
REMARK SMILES IDX 52 98 53 99 54 100 55 101
REMARK H PARENT 4 15 4 16 89 22 79 51 45 62
REMARK Flexibility Score: inf
ROOT
ATOM      1  C   UNL A   1      31.259  28.458  24.626  1.00  0.00     0.188 C 
ENDROOT
BRANCH   1   2
ATOM      2  C   UNL A   1      30.245  28.462  23.473  1.00  0.00     0.188 C 
BRANCH   2   3
ATOM      3  O   UNL A   1      30.275  27.433  22.485  1.00  0.00    -0.376 OA
BRANCH   3   4
ATOM      4  C   UNL A   1      31.395  26.573  22.392  1.00  0.00     0.202 C 
BRANCH   4   5
ATOM      5  C   UNL A   1      31.380  25.324  23.283  1.00  0.00     0.261 C 
BRANCH   5   6
ATOM      6  O   UNL A   1      31.866  24.113  22.673  1.00  0.00    -0.459 OA
BRANCH   6   7
ATOM      7  C   UNL A   1      33.179  23.873  22.932  1.00  0.00     0.368 C 
ATOM      8  O   UNL A   1      34.090  24.601  22.538  1.00  0.00    -0.245 OA
BRANCH   7   9
ATOM      9  C   UNL A   1      33.459  22.601  23.782  1.00  0.00     0.200 C 
ATOM     10  C   UNL A   1      32.762  22.452  25.144  1.00  0.00     0.087 C 
ATOM     11  C   UNL A   1      32.545  21.598  23.006  1.00  0.00     0.146 C 
ATOM     12  C   UNL A   1      32.490  20.930  25.296  1.00  0.00     0.072 C 
ATOM     13  C   UNL A   1      32.336  20.367  23.857  1.00  0.00     0.191 C 
BRANCH   9  14
ATOM     14  N   UNL A   1      34.948  22.398  23.780  1.00  0.00    -0.330 N 
ATOM     15  H   UNL A   1      35.121  21.574  23.205  1.00  0.00     0.347 HD
ATOM     16  H   UNL A   1      35.283  23.309  23.466  1.00  0.00     0.347 HD
BRANCH  14  17
ATOM     17  C   UNL A   1      35.719  22.201  25.017  1.00  0.00     0.176 C 
ATOM     18  C   UNL A   1      36.219  20.751  25.185  1.00  0.00     0.075 C 
ATOM     19  C   UNL A   1      36.951  23.108  25.115  1.00  0.00     0.075 C 
ENDBRANCH  14  17
ENDBRANCH   9  14
BRANCH  13  20
ATOM     20  N   UNL A   1      32.989  19.109  23.433  1.00  0.00    -0.332 N 
ATOM     21  C   UNL A   1      32.219  18.450  22.378  1.00  0.00     0.333 C 
ATOM     22  H   UNL A   1      33.876  19.458  23.072  1.00  0.00     0.348 HD
BRANCH  20  23
ATOM     23  C   UNL A   1      33.514  18.166  24.439  1.00  0.00     0.184 C 
ATOM     24  C   UNL A   1      32.493  17.150  24.996  1.00  0.00     0.065 C 
ATOM     25  C   UNL A   1      34.617  17.173  24.013  1.00  0.00     0.065 C 
ATOM     26  C   UNL A   1      33.330  16.147  25.789  1.00  0.00     0.006 C 
ATOM     27  C   UNL A   1      34.692  16.128  25.120  1.00  0.00     0.006 C 
ENDBRANCH  20  23
ENDBRANCH  13  20
ENDBRANCH   7   9
ENDBRANCH   6   7
ENDBRANCH   5   6
ENDBRANCH   4   5
ENDBRANCH   3   4
ENDBRANCH   2   3
ENDBRANCH   1   2
BRANCH   1  28
ATOM     28  O   UNL A   1      31.954  29.697  24.731  1.00  0.00    -0.376 OA
BRANCH  28  29
ATOM     29  C   UNL A   1      31.455  30.567  25.735  1.00  0.00     0.202 C 
BRANCH  29  30
ATOM     30  C   UNL A   1      32.214  30.401  27.055  1.00  0.00     0.261 C 
BRANCH  30  31
ATOM     31  O   UNL A   1      33.650  30.374  26.938  1.00  0.00    -0.460 OA
BRANCH  31  32
ATOM     32  C   UNL A   1      34.323  31.338  27.592  1.00  0.00     0.338 C 
ATOM     33  O   UNL A   1      33.870  32.418  27.967  1.00  0.00    -0.246 OA
BRANCH  32  34
ATOM     34  C   UNL A   1      35.674  30.853  27.933  1.00  0.00     0.060 A 
ATOM     35  C   UNL A   1      35.877  29.477  28.046  1.00  0.00     0.016 A 
ATOM     36  C   UNL A   1      36.714  31.735  28.223  1.00  0.00     0.016 A 
ATOM     37  C   UNL A   1      37.088  28.972  28.530  1.00  0.00     0.010 A 
ATOM     38  C   UNL A   1      37.933  31.230  28.696  1.00  0.00     0.010 A 
ATOM     39  C   UNL A   1      38.115  29.847  28.900  1.00  0.00    -0.014 A 
BRANCH  39  40
ATOM     40  C   UNL A   1      39.303  29.345  29.647  1.00  0.00     0.031 A 
ATOM     41  C   UNL A   1      39.675  30.006  30.951  1.00  0.00     0.074 A 
ATOM     42  C   UNL A   1      40.032  28.301  29.206  1.00  0.00     0.049 A 
ATOM     43  N   UNL A   1      40.728  29.828  31.707  1.00  0.00    -0.248 NA
ATOM     44  C   UNL A   1      38.726  31.004  31.471  1.00  0.00     0.031 C 
ATOM     45  C   UNL A   1      39.749  27.512  28.009  1.00  0.00     0.029 A 
ATOM     46  N   UNL A   1      41.175  27.733  29.719  1.00  0.00    -0.354 N 
ATOM     47  C   UNL A   1      40.586  30.710  32.772  1.00  0.00     0.074 A 
ATOM     48  C   UNL A   1      39.348  31.430  32.560  1.00  0.00     0.031 C 
ATOM     49  C   UNL A   1      40.698  26.568  27.873  1.00  0.00     0.029 A 
ATOM     50  C   UNL A   1      41.683  26.717  28.945  1.00  0.00     0.049 A 
ATOM     51  H   UNL A   1      41.589  28.025  30.564  1.00  0.00     0.167 HD
ATOM     52  C   UNL A   1      41.408  30.905  33.832  1.00  0.00     0.037 A 
ATOM     53  C   UNL A   1      42.829  26.014  29.062  1.00  0.00     0.037 A 
ATOM     54  C   UNL A   1      42.630  30.178  34.059  1.00  0.00     0.049 A 
ATOM     55  C   UNL A   1      43.771  26.303  30.204  1.00  0.00     0.074 A 
ATOM     56  C   UNL A   1      43.526  30.306  35.107  1.00  0.00     0.029 A 
ATOM     57  N   UNL A   1      43.127  29.186  33.227  1.00  0.00    -0.354 N 
ATOM     58  N   UNL A   1      43.639  27.159  31.189  1.00  0.00    -0.248 NA
ATOM     59  C   UNL A   1      45.026  25.534  30.245  1.00  0.00     0.031 C 
ATOM     60  C   UNL A   1      44.587  29.421  34.886  1.00  0.00     0.029 A 
ATOM     61  C   UNL A   1      44.328  28.709  33.727  1.00  0.00     0.049 A 
ATOM     62  H   UNL A   1      42.692  28.868  32.403  1.00  0.00     0.167 HD
ATOM     63  C   UNL A   1      44.777  27.011  31.980  1.00  0.00     0.074 A 
ATOM     64  C   UNL A   1      45.582  25.979  31.364  1.00  0.00     0.031 C 
ATOM     65  C   UNL A   1      45.119  27.671  33.115  1.00  0.00     0.037 A 
BRANCH  52  66
ATOM     66  C   UNL A   1      41.032  31.983  34.811  1.00  0.00     0.058 A 
ATOM     67  C   UNL A   1      41.471  33.308  34.664  1.00  0.00     0.135 A 
ATOM     68  C   UNL A   1      40.201  31.685  35.903  1.00  0.00     0.135 A 
ATOM     69  F   UNL A   1      42.283  33.643  33.649  1.00  0.00    -0.206 F 
ATOM     70  C   UNL A   1      41.125  34.293  35.584  1.00  0.00     0.059 A 
ATOM     71  C   UNL A   1      39.820  32.659  36.820  1.00  0.00     0.059 A 
ATOM     72  F   UNL A   1      39.753  30.433  36.090  1.00  0.00    -0.206 F 
ATOM     73  C   UNL A   1      40.302  33.958  36.661  1.00  0.00     0.060 A 
BRANCH  73  74
ATOM     74  S   UNL A   1      39.868  35.244  37.852  1.00  0.00     0.124 S 
ATOM     75  O   UNL A   1      38.537  34.814  38.270  1.00  0.00    -0.237 OA
ATOM     76  O   UNL A   1      40.920  35.110  38.855  1.00  0.00    -0.237 OA
ATOM     77  O   UNL A   1      39.912  36.469  37.062  1.00  0.00    -0.744 OA
ENDBRANCH  73  74
ENDBRANCH  52  66
BRANCH  53  78
ATOM     78  C   UNL A   1      43.178  24.980  28.048  1.00  0.00     0.058 A 
ATOM     79  C   UNL A   1      42.798  23.640  28.217  1.00  0.00     0.135 A 
ATOM     80  C   UNL A   1      43.920  25.307  26.902  1.00  0.00     0.135 A 
ATOM     81  F   UNL A   1      42.106  23.273  29.306  1.00  0.00    -0.206 F 
ATOM     82  C   UNL A   1      43.152  22.659  27.296  1.00  0.00     0.059 A 
ATOM     83  C   UNL A   1      44.263  24.349  25.953  1.00  0.00     0.059 A 
ATOM     84  F   UNL A   1      44.309  26.575  26.691  1.00  0.00    -0.206 F 
ATOM     85  C   UNL A   1      43.884  23.024  26.164  1.00  0.00     0.060 A 
BRANCH  85  86
ATOM     86  S   UNL A   1      44.304  21.752  24.954  1.00  0.00     0.124 S 
ATOM     87  O   UNL A   1      44.067  22.453  23.696  1.00  0.00    -0.237 OA
ATOM     88  O   UNL A   1      45.700  21.471  25.274  1.00  0.00    -0.237 OA
ATOM     89  O   UNL A   1      43.369  20.675  25.261  1.00  0.00    -0.744 OA
ENDBRANCH  85  86
ENDBRANCH  53  78
BRANCH  65  90
ATOM     90  C   UNL A   1      46.400  27.269  33.797  1.00  0.00     0.058 A 
ATOM     91  C   UNL A   1      47.617  27.915  33.528  1.00  0.00     0.135 A 
ATOM     92  C   UNL A   1      46.398  26.259  34.772  1.00  0.00     0.135 A 
ATOM     93  F   UNL A   1      47.676  28.886  32.602  1.00  0.00    -0.206 F 
ATOM     94  C   UNL A   1      48.791  27.558  34.185  1.00  0.00     0.059 A 
ATOM     95  C   UNL A   1      47.555  25.902  35.460  1.00  0.00     0.059 A 
ATOM     96  F   UNL A   1      45.260  25.617  35.078  1.00  0.00    -0.206 F 
ATOM     97  C   UNL A   1      48.750  26.550  35.150  1.00  0.00     0.060 A 
BRANCH  97  98
ATOM     98  S   UNL A   1      50.273  26.114  36.019  1.00  0.00     0.124 S 
ATOM     99  O   UNL A   1      50.141  26.889  37.248  1.00  0.00    -0.237 OA
ATOM    100  O   UNL A   1      50.147  24.667  36.165  1.00  0.00    -0.237 OA
ATOM    101  O   UNL A   1      51.323  26.557  35.107  1.00  0.00    -0.744 OA
ENDBRANCH  97  98
ENDBRANCH  65  90
ENDBRANCH  39  40
ENDBRANCH  32  34
ENDBRANCH  31  32
ENDBRANCH  30  31
ENDBRANCH  29  30
ENDBRANCH  28  29
ENDBRANCH   1  28
TORSDOF 24
ENDMDL
MODEL 2
REMARK VINA RESULT:     -10.1      4.694      6.292
REMARK SMILES CC(C)[NH2+][C@]1(C(=O)OCCOCCOCCOC(=O)c2ccc(-c3c4nc(c(-c5c(F)cc(S(=O)(=O)[O-])cc5F)c5ccc([nH]5)c(-c5c(F)cc(S(=O)(=O)[O-])cc5F)c5nc(c(-c6c(F)cc(S(=O)(=O)[O-])cc6F)c6ccc3[nH]6)C=C5)C=C4)cc2)CC[C@H]([N@H+](C)C2CCCC2)C1
REMARK SMILES IDX 13 1 12 2 11 3 10 4 9 5 8 6 6 7 7 8 5 9 86 10 96 11 87 12
REMARK SMILES IDX 88 13 4 14 2 17 1 18 3 19 89 20 90 21 91 23 92 24 95 25
REMARK SMILES IDX 93 26 94 27 14 28 15 29 16 30 17 31 18 32 19 33 20 34 21 35
REMARK SMILES IDX 85 36 22 37 84 38 23 39 24 40 25 41 78 42 26 43 83 44 77 45
REMARK SMILES IDX 79 46 27 47 82 48 76 49 75 50 28 52 62 53 41 54 61 55 42 56
REMARK SMILES IDX 45 57 60 58 80 59 43 60 44 61 59 63 81 64 46 65 29 66 30 67
REMARK SMILES IDX 39 68 31 69 32 70 38 71 40 72 33 73 34 74 35 75 36 76 37 77
REMARK SMILES IDX 63 78 64 79 73 80 65 81 66 82 72 83 74 84 67 85 68 86 69 87
REMARK SMILES IDX 70 88 71 89 47 90 48 91 57 92 49 93 50 94 56 95 58 96 51 97
REMARK SMILES IDX 52 98 53 99 54 100 55 101
REMARK H PARENT 4 15 4 16 89 22 79 51 45 62
REMARK Flexibility Score: inf
ROOT
ATOM      1  C   UNL A   1      34.306  30.942  27.660  1.00  0.00     0.188 C 
ENDROOT
BRANCH   1   2
ATOM      2  C   UNL A   1      33.141  30.192  26.998  1.00  0.00     0.188 C 
BRANCH   2   3
ATOM      3  O   UNL A   1      32.952  30.260  25.586  1.00  0.00    -0.376 OA
BRANCH   3   4
ATOM      4  C   UNL A   1      32.009  29.413  24.956  1.00  0.00     0.202 C 
BRANCH   4   5
ATOM      5  C   UNL A   1      32.565  28.177  24.237  1.00  0.00     0.261 C 
BRANCH   5   6
ATOM      6  O   UNL A   1      32.061  26.907  24.693  1.00  0.00    -0.459 OA
BRANCH   6   7
ATOM      7  C   UNL A   1      33.037  25.979  24.879  1.00  0.00     0.368 C 
ATOM      8  O   UNL A   1      34.117  26.230  25.412  1.00  0.00    -0.245 OA
BRANCH   7   9
ATOM      9  C   UNL A   1      32.688  24.550  24.373  1.00  0.00     0.200 C 
ATOM     10  C   UNL A   1      33.154  24.126  22.971  1.00  0.00     0.087 C 
ATOM     11  C   UNL A   1      33.772  23.752  25.167  1.00  0.00     0.146 C 
ATOM     12  C   UNL A   1      33.478  22.613  23.091  1.00  0.00     0.072 C 
ATOM     13  C   UNL A   1      33.902  22.371  24.565  1.00  0.00     0.191 C 
BRANCH   9  14
ATOM     14  N   UNL A   1      31.234  24.326  24.678  1.00  0.00    -0.330 N 
ATOM     15  H   UNL A   1      30.735  25.117  24.272  1.00  0.00     0.347 HD
ATOM     16  H   UNL A   1      31.082  23.391  24.302  1.00  0.00     0.347 HD
BRANCH  14  17
ATOM     17  C   UNL A   1      30.729  24.187  26.053  1.00  0.00     0.176 C 
ATOM     18  C   UNL A   1      29.516  25.098  26.339  1.00  0.00     0.075 C 
ATOM     19  C   UNL A   1      30.299  22.757  26.400  1.00  0.00     0.075 C 
ENDBRANCH  14  17
ENDBRANCH   9  14
BRANCH  13  20
ATOM     20  N   UNL A   1      33.399  21.222  25.349  1.00  0.00    -0.332 N 
ATOM     21  C   UNL A   1      33.845  21.301  26.740  1.00  0.00     0.333 C 
ATOM     22  H   UNL A   1      32.391  21.360  25.281  1.00  0.00     0.348 HD
BRANCH  20  23
ATOM     23  C   UNL A   1      33.473  19.855  24.796  1.00  0.00     0.184 C 
ATOM     24  C   UNL A   1      34.892  19.257  24.686  1.00  0.00     0.065 C 
ATOM     25  C   UNL A   1      32.800  18.707  25.579  1.00  0.00     0.065 C 
ATOM     26  C   UNL A   1      34.672  17.782  24.354  1.00  0.00     0.006 C 
ATOM     27  C   UNL A   1      33.337  17.415  24.975  1.00  0.00     0.006 C 
ENDBRANCH  20  23
ENDBRANCH  13  20
ENDBRANCH   7   9
ENDBRANCH   6   7
ENDBRANCH   5   6
ENDBRANCH   4   5
ENDBRANCH   3   4
ENDBRANCH   2   3
ENDBRANCH   1   2
BRANCH   1  28
ATOM     28  O   UNL A   1      33.947  32.270  28.026  1.00  0.00    -0.376 OA
BRANCH  28  29
ATOM     29  C   UNL A   1      35.027  33.190  28.031  1.00  0.00     0.202 C 
BRANCH  29  30
ATOM     30  C   UNL A   1      35.493  33.509  29.455  1.00  0.00     0.261 C 
BRANCH  30  31
ATOM     31  O   UNL A   1      36.737  32.896  29.845  1.00  0.00    -0.460 OA
BRANCH  31  32
ATOM     32  C   UNL A   1      36.652  31.693  30.441  1.00  0.00     0.338 C 
ATOM     33  O   UNL A   1      35.715  31.282  31.122  1.00  0.00    -0.246 OA
BRANCH  32  34
ATOM     34  C   UNL A   1      37.800  30.859  30.038  1.00  0.00     0.060 A 
ATOM     35  C   UNL A   1      38.640  30.358  31.034  1.00  0.00     0.016 A 
ATOM     36  C   UNL A   1      38.104  30.636  28.695  1.00  0.00     0.016 A 
ATOM     37  C   UNL A   1      39.832  29.707  30.702  1.00  0.00     0.010 A 
ATOM     38  C   UNL A   1      39.293  29.972  28.360  1.00  0.00     0.010 A 
ATOM     39  C   UNL A   1      40.191  29.544  29.359  1.00  0.00    -0.014 A 
BRANCH  39  40
ATOM     40  C   UNL A   1      41.561  29.085  28.994  1.00  0.00     0.031 A 
ATOM     41  C   UNL A   1      42.694  30.080  29.024  1.00  0.00     0.074 A 
ATOM     42  C   UNL A   1      41.819  27.803  28.669  1.00  0.00     0.049 A 
ATOM     43  N   UNL A   1      43.934  29.945  28.630  1.00  0.00    -0.248 NA
ATOM     44  C   UNL A   1      42.381  31.408  29.576  1.00  0.00     0.031 C 
ATOM     45  C   UNL A   1      40.845  26.713  28.673  1.00  0.00     0.029 A 
ATOM     46  N   UNL A   1      42.989  27.205  28.259  1.00  0.00    -0.354 N 
ATOM     47  C   UNL A   1      44.541  31.176  28.855  1.00  0.00     0.074 A 
ATOM     48  C   UNL A   1      43.530  32.048  29.413  1.00  0.00     0.031 C 
ATOM     49  C   UNL A   1      41.455  25.581  28.276  1.00  0.00     0.029 A 
ATOM     50  C   UNL A   1      42.848  25.876  27.940  1.00  0.00     0.049 A 
ATOM     51  H   UNL A   1      43.847  27.685  28.202  1.00  0.00     0.167 HD
ATOM     52  C   UNL A   1      45.823  31.549  28.622  1.00  0.00     0.037 A 
ATOM     53  C   UNL A   1      43.728  25.004  27.402  1.00  0.00     0.037 A 
ATOM     54  C   UNL A   1      46.839  30.679  28.086  1.00  0.00     0.049 A 
ATOM     55  C   UNL A   1      45.127  25.462  27.073  1.00  0.00     0.074 A 
ATOM     56  C   UNL A   1      48.166  30.970  27.818  1.00  0.00     0.029 A 
ATOM     57  N   UNL A   1      46.643  29.351  27.739  1.00  0.00    -0.354 N 
ATOM     58  N   UNL A   1      45.681  26.636  27.265  1.00  0.00    -0.248 NA
ATOM     59  C   UNL A   1      46.021  24.476  26.444  1.00  0.00     0.031 C 
ATOM     60  C   UNL A   1      48.761  29.829  27.268  1.00  0.00     0.029 A 
ATOM     61  C   UNL A   1      47.818  28.815  27.239  1.00  0.00     0.049 A 
ATOM     62  H   UNL A   1      45.793  28.862  27.833  1.00  0.00     0.167 HD
ATOM     63  C   UNL A   1      46.992  26.520  26.808  1.00  0.00     0.074 A 
ATOM     64  C   UNL A   1      47.152  25.161  26.338  1.00  0.00     0.031 C 
ATOM     65  C   UNL A   1      47.974  27.456  26.784  1.00  0.00     0.037 A 
BRANCH  52  66
ATOM     66  C   UNL A   1      46.191  32.978  28.906  1.00  0.00     0.058 A 
ATOM     67  C   UNL A   1      46.034  33.992  27.948  1.00  0.00     0.135 A 
ATOM     68  C   UNL A   1      46.692  33.341  30.167  1.00  0.00     0.135 A 
ATOM     69  F   UNL A   1      45.578  33.698  26.720  1.00  0.00    -0.206 F 
ATOM     70  C   UNL A   1      46.389  35.310  28.220  1.00  0.00     0.059 A 
ATOM     71  C   UNL A   1      47.028  34.656  30.471  1.00  0.00     0.059 A 
ATOM     72  F   UNL A   1      46.861  32.410  31.120  1.00  0.00    -0.206 F 
ATOM     73  C   UNL A   1      46.889  35.632  29.484  1.00  0.00     0.060 A 
BRANCH  73  74
ATOM     74  S   UNL A   1      47.355  37.342  29.821  1.00  0.00     0.124 S 
ATOM     75  O   UNL A   1      48.696  37.396  29.246  1.00  0.00    -0.237 OA
ATOM     76  O   UNL A   1      46.330  38.094  29.105  1.00  0.00    -0.237 OA
ATOM     77  O   UNL A   1      47.293  37.433  31.276  1.00  0.00    -0.744 OA
ENDBRANCH  73  74
ENDBRANCH  52  66
BRANCH  53  78
ATOM     78  C   UNL A   1      43.309  23.607  27.105  1.00  0.00     0.058 A 
ATOM     79  C   UNL A   1      43.015  23.201  25.794  1.00  0.00     0.135 A 
ATOM     80  C   UNL A   1      43.170  22.656  28.128  1.00  0.00     0.135 A 
ATOM     81  F   UNL A   1      43.112  24.078  24.784  1.00  0.00    -0.206 F 
ATOM     82  C   UNL A   1      42.585  21.908  25.510  1.00  0.00     0.059 A 
ATOM     83  C   UNL A   1      42.769  21.350  27.866  1.00  0.00     0.059 A 
ATOM     84  F   UNL A   1      43.440  22.992  29.400  1.00  0.00    -0.206 F 
ATOM     85  C   UNL A   1      42.467  20.988  26.554  1.00  0.00     0.060 A 
BRANCH  85  86
ATOM     86  S   UNL A   1      41.947  19.301  26.170  1.00  0.00     0.124 S 
ATOM     87  O   UNL A   1      42.690  19.037  24.943  1.00  0.00    -0.237 OA
ATOM     88  O   UNL A   1      42.386  18.567  27.353  1.00  0.00    -0.237 OA
ATOM     89  O   UNL A   1      40.501  19.423  26.018  1.00  0.00    -0.744 OA
ENDBRANCH  85  86
ENDBRANCH  53  78
BRANCH  65  90
ATOM     90  C   UNL A   1      49.327  27.037  26.273  1.00  0.00     0.058 A 
ATOM     91  C   UNL A   1      50.303  26.491  27.121  1.00  0.00     0.135 A 
ATOM     92  C   UNL A   1      49.629  27.134  24.905  1.00  0.00     0.135 A 
ATOM     93  F   UNL A   1      50.067  26.378  28.438  1.00  0.00    -0.206 F 
ATOM     94  C   UNL A   1      51.540  26.078  26.635  1.00  0.00     0.059 A 
ATOM     95  C   UNL A   1      50.851  26.704  24.393  1.00  0.00     0.059 A 
ATOM     96  F   UNL A   1      48.728  27.637  24.047  1.00  0.00    -0.206 F 
ATOM     97  C   UNL A   1      51.805  26.189  25.269  1.00  0.00     0.060 A 
BRANCH  97  98
ATOM     98  S   UNL A   1      53.402  25.622  24.643  1.00  0.00     0.124 S 
ATOM     99  O   UNL A   1      54.327  26.466  25.391  1.00  0.00    -0.237 OA
ATOM    100  O   UNL A   1      53.398  24.208  25.007  1.00  0.00    -0.237 OA
ATOM    101  O   UNL A   1      53.321  25.893  23.211  1.00  0.00    -0.744 OA
ENDBRANCH  97  98
ENDBRANCH  65  90
ENDBRANCH  39  40
ENDBRANCH  32  34
ENDBRANCH  31  32
ENDBRANCH  30  31
ENDBRANCH  29  30
ENDBRANCH  28  29
ENDBRANCH   1  28
TORSDOF 24
ENDMDL
MODEL 3
REMARK VINA RESULT:     -10.0      3.560      9.195
REMARK SMILES CC(C)[NH2+][C@]1(C(=O)OCCOCCOCCOC(=O)c2ccc(-c3c4nc(c(-c5c(F)cc(S(=O)(=O)[O-])cc5F)c5ccc([nH]5)c(-c5c(F)cc(S(=O)(=O)[O-])cc5F)c5nc(c(-c6c(F)cc(S(=O)(=O)[O-])cc6F)c6ccc3[nH]6)C=C5)C=C4)cc2)CC[C@H]([N@H+](C)C2CCCC2)C1
REMARK SMILES IDX 13 1 12 2 11 3 10 4 9 5 8 6 6 7 7 8 5 9 86 10 96 11 87 12
REMARK SMILES IDX 88 13 4 14 2 17 1 18 3 19 89 20 90 21 91 23 92 24 95 25
REMARK SMILES IDX 93 26 94 27 14 28 15 29 16 30 17 31 18 32 19 33 20 34 21 35
REMARK SMILES IDX 85 36 22 37 84 38 23 39 24 40 25 41 78 42 26 43 83 44 77 45
REMARK SMILES IDX 79 46 27 47 82 48 76 49 75 50 28 52 62 53 41 54 61 55 42 56
REMARK SMILES IDX 45 57 60 58 80 59 43 60 44 61 59 63 81 64 46 65 29 66 30 67
REMARK SMILES IDX 39 68 31 69 32 70 38 71 40 72 33 73 34 74 35 75 36 76 37 77
REMARK SMILES IDX 63 78 64 79 73 80 65 81 66 82 72 83 74 84 67 85 68 86 69 87
REMARK SMILES IDX 70 88 71 89 47 90 48 91 57 92 49 93 50 94 56 95 58 96 51 97
REMARK SMILES IDX 52 98 53 99 54 100 55 101
REMARK H PARENT 4 15 4 16 89 22 79 51 45 62
REMARK Flexibility Score: inf
ROOT
ATOM      1  C   UNL A   1      37.924  23.330  25.445  1.00  0.00     0.188 C 
ENDROOT
BRANCH   1   2
ATOM      2  C   UNL A   1      36.777  23.620  26.423  1.00  0.00     0.188 C 
BRANCH   2   3
ATOM      3  O   UNL A   1      35.468  23.117  26.166  1.00  0.00    -0.376 OA
BRANCH   3   4
ATOM      4  C   UNL A   1      34.611  22.791  27.243  1.00  0.00     0.202 C 
BRANCH   4   5
ATOM      5  C   UNL A   1      33.107  22.988  27.012  1.00  0.00     0.261 C 
BRANCH   5   6
ATOM      6  O   UNL A   1      32.745  23.686  25.806  1.00  0.00    -0.459 OA
BRANCH   6   7
ATOM      7  C   UNL A   1      31.733  24.576  25.984  1.00  0.00     0.368 C 
ATOM      8  O   UNL A   1      30.903  24.483  26.887  1.00  0.00    -0.245 OA
BRANCH   7   9
ATOM      9  C   UNL A   1      31.700  25.746  24.960  1.00  0.00     0.200 C 
ATOM     10  C   UNL A   1      30.338  26.306  24.519  1.00  0.00     0.087 C 
ATOM     11  C   UNL A   1      32.064  26.915  25.932  1.00  0.00     0.146 C 
ATOM     12  C   UNL A   1      30.574  27.826  24.306  1.00  0.00     0.072 C 
ATOM     13  C   UNL A   1      31.727  28.229  25.265  1.00  0.00     0.191 C 
BRANCH   9  14
ATOM     14  N   UNL A   1      32.650  25.381  23.855  1.00  0.00    -0.330 N 
ATOM     15  H   UNL A   1      33.124  26.244  23.591  1.00  0.00     0.347 HD
ATOM     16  H   UNL A   1      33.185  24.624  24.280  1.00  0.00     0.347 HD
BRANCH  14  17
ATOM     17  C   UNL A   1      32.197  24.764  22.598  1.00  0.00     0.176 C 
ATOM     18  C   UNL A   1      32.420  25.674  21.372  1.00  0.00     0.075 C 
ATOM     19  C   UNL A   1      32.892  23.432  22.291  1.00  0.00     0.075 C 
ENDBRANCH  14  17
ENDBRANCH   9  14
BRANCH  13  20
ATOM     20  N   UNL A   1      32.845  29.094  24.829  1.00  0.00    -0.332 N 
ATOM     21  C   UNL A   1      33.675  28.415  23.834  1.00  0.00     0.333 C 
ATOM     22  H   UNL A   1      32.340  29.875  24.411  1.00  0.00     0.348 HD
BRANCH  20  23
ATOM     23  C   UNL A   1      33.635  29.846  25.824  1.00  0.00     0.184 C 
ATOM     24  C   UNL A   1      32.818  30.552  26.928  1.00  0.00     0.065 C 
ATOM     25  C   UNL A   1      34.616  29.067  26.727  1.00  0.00     0.065 C 
ATOM     26  C   UNL A   1      33.855  31.013  27.950  1.00  0.00     0.006 C 
ATOM     27  C   UNL A   1      34.999  30.021  27.852  1.00  0.00     0.006 C 
ENDBRANCH  20  23
ENDBRANCH  13  20
ENDBRANCH   7   9
ENDBRANCH   6   7
ENDBRANCH   5   6
ENDBRANCH   4   5
ENDBRANCH   3   4
ENDBRANCH   2   3
ENDBRANCH   1   2
BRANCH   1  28
ATOM     28  O   UNL A   1      38.705  22.210  25.853  1.00  0.00    -0.376 OA
BRANCH  28  29
ATOM     29  C   UNL A   1      39.667  22.498  26.855  1.00  0.00     0.202 C 
BRANCH  29  30
ATOM     30  C   UNL A   1      41.008  22.919  26.246  1.00  0.00     0.261 C 
BRANCH  30  31
ATOM     31  O   UNL A   1      41.694  23.976  26.946  1.00  0.00    -0.460 OA
BRANCH  31  32
ATOM     32  C   UNL A   1      41.644  25.198  26.385  1.00  0.00     0.338 C 
ATOM     33  O   UNL A   1      41.807  25.461  25.194  1.00  0.00    -0.246 OA
BRANCH  32  34
ATOM     34  C   UNL A   1      41.214  26.187  27.391  1.00  0.00     0.060 A 
ATOM     35  C   UNL A   1      41.940  27.374  27.508  1.00  0.00     0.016 A 
ATOM     36  C   UNL A   1      40.164  25.925  28.270  1.00  0.00     0.016 A 
ATOM     37  C   UNL A   1      41.682  28.268  28.552  1.00  0.00     0.010 A 
ATOM     38  C   UNL A   1      39.896  26.826  29.310  1.00  0.00     0.010 A 
ATOM     39  C   UNL A   1      40.683  27.982  29.489  1.00  0.00    -0.014 A 
BRANCH  39  40
ATOM     40  C   UNL A   1      40.567  28.787  30.739  1.00  0.00     0.031 A 
ATOM     41  C   UNL A   1      39.527  29.878  30.807  1.00  0.00     0.074 A 
ATOM     42  C   UNL A   1      41.341  28.546  31.815  1.00  0.00     0.049 A 
ATOM     43  N   UNL A   1      39.326  30.782  31.731  1.00  0.00    -0.248 NA
ATOM     44  C   UNL A   1      38.588  29.955  29.677  1.00  0.00     0.031 C 
ATOM     45  C   UNL A   1      42.332  27.477  31.927  1.00  0.00     0.029 A 
ATOM     46  N   UNL A   1      41.418  29.202  33.022  1.00  0.00    -0.354 N 
ATOM     47  C   UNL A   1      38.260  31.554  31.282  1.00  0.00     0.074 A 
ATOM     48  C   UNL A   1      37.864  31.018  29.997  1.00  0.00     0.031 C 
ATOM     49  C   UNL A   1      42.924  27.556  33.132  1.00  0.00     0.029 A 
ATOM     50  C   UNL A   1      42.392  28.710  33.857  1.00  0.00     0.049 A 
ATOM     51  H   UNL A   1      40.829  29.953  33.264  1.00  0.00     0.167 HD
ATOM     52  C   UNL A   1      37.664  32.613  31.881  1.00  0.00     0.037 A 
ATOM     53  C   UNL A   1      42.833  29.159  35.052  1.00  0.00     0.037 A 
ATOM     54  C   UNL A   1      38.041  33.139  33.168  1.00  0.00     0.049 A 
ATOM     55  C   UNL A   1      42.211  30.389  35.664  1.00  0.00     0.074 A 
ATOM     56  C   UNL A   1      37.491  34.208  33.855  1.00  0.00     0.029 A 
ATOM     57  N   UNL A   1      39.060  32.634  33.962  1.00  0.00    -0.354 N 
ATOM     58  N   UNL A   1      41.223  31.127  35.216  1.00  0.00    -0.248 NA
ATOM     59  C   UNL A   1      42.770  30.854  36.944  1.00  0.00     0.031 C 
ATOM     60  C   UNL A   1      38.207  34.377  35.046  1.00  0.00     0.029 A 
ATOM     61  C   UNL A   1      39.170  33.384  35.122  1.00  0.00     0.049 A 
ATOM     62  H   UNL A   1      39.623  31.860  33.734  1.00  0.00     0.167 HD
ATOM     63  C   UNL A   1      41.026  32.123  36.171  1.00  0.00     0.074 A 
ATOM     64  C   UNL A   1      41.990  31.889  37.224  1.00  0.00     0.031 C 
ATOM     65  C   UNL A   1      40.124  33.137  36.173  1.00  0.00     0.037 A 
BRANCH  52  66
ATOM     66  C   UNL A   1      36.562  33.305  31.128  1.00  0.00     0.058 A 
ATOM     67  C   UNL A   1      36.819  34.121  30.016  1.00  0.00     0.135 A 
ATOM     68  C   UNL A   1      35.224  33.131  31.516  1.00  0.00     0.135 A 
ATOM     69  F   UNL A   1      38.081  34.338  29.613  1.00  0.00    -0.206 F 
ATOM     70  C   UNL A   1      35.791  34.765  29.334  1.00  0.00     0.059 A 
ATOM     71  C   UNL A   1      34.177  33.743  30.834  1.00  0.00     0.059 A 
ATOM     72  F   UNL A   1      34.923  32.360  32.574  1.00  0.00    -0.206 F 
ATOM     73  C   UNL A   1      34.473  34.572  29.753  1.00  0.00     0.060 A 
BRANCH  73  74
ATOM     74  S   UNL A   1      33.149  35.421  28.866  1.00  0.00     0.124 S 
ATOM     75  O   UNL A   1      33.906  36.365  28.050  1.00  0.00    -0.237 OA
ATOM     76  O   UNL A   1      32.508  34.329  28.140  1.00  0.00    -0.237 OA
ATOM     77  O   UNL A   1      32.350  36.015  29.933  1.00  0.00    -0.744 OA
ENDBRANCH  73  74
ENDBRANCH  52  66
BRANCH  53  78
ATOM     78  C   UNL A   1      43.951  28.463  35.745  1.00  0.00     0.058 A 
ATOM     79  C   UNL A   1      43.705  27.447  36.682  1.00  0.00     0.135 A 
ATOM     80  C   UNL A   1      45.289  28.816  35.504  1.00  0.00     0.135 A 
ATOM     81  F   UNL A   1      42.443  27.088  36.963  1.00  0.00    -0.206 F 
ATOM     82  C   UNL A   1      44.741  26.817  37.364  1.00  0.00     0.059 A 
ATOM     83  C   UNL A   1      46.343  28.181  36.153  1.00  0.00     0.059 A 
ATOM     84  F   UNL A   1      45.580  29.781  34.617  1.00  0.00    -0.206 F 
ATOM     85  C   UNL A   1      46.058  27.190  37.091  1.00  0.00     0.060 A 
BRANCH  85  86
ATOM     86  S   UNL A   1      47.399  26.339  37.952  1.00  0.00     0.124 S 
ATOM     87  O   UNL A   1      48.553  27.144  37.568  1.00  0.00    -0.237 OA
ATOM     88  O   UNL A   1      46.984  26.443  39.347  1.00  0.00    -0.237 OA
ATOM     89  O   UNL A   1      47.354  24.992  37.392  1.00  0.00    -0.744 OA
ENDBRANCH  85  86
ENDBRANCH  53  78
BRANCH  65  90
ATOM     90  C   UNL A   1      40.102  34.049  37.371  1.00  0.00     0.058 A 
ATOM     91  C   UNL A   1      39.320  33.769  38.502  1.00  0.00     0.135 A 
ATOM     92  C   UNL A   1      40.917  35.192  37.407  1.00  0.00     0.135 A 
ATOM     93  F   UNL A   1      38.520  32.691  38.520  1.00  0.00    -0.206 F 
ATOM     94  C   UNL A   1      39.328  34.602  39.617  1.00  0.00     0.059 A 
ATOM     95  C   UNL A   1      40.961  36.026  38.521  1.00  0.00     0.059 A 
ATOM     96  F   UNL A   1      41.695  35.502  36.357  1.00  0.00    -0.206 F 
ATOM     97  C   UNL A   1      40.153  35.728  39.618  1.00  0.00     0.060 A 
BRANCH  97  98
ATOM     98  S   UNL A   1      40.180  36.787  41.081  1.00  0.00     0.124 S 
ATOM     99  O   UNL A   1      41.258  36.185  41.859  1.00  0.00    -0.237 OA
ATOM    100  O   UNL A   1      40.466  38.101  40.512  1.00  0.00    -0.237 OA
ATOM    101  O   UNL A   1      38.840  36.631  41.639  1.00  0.00    -0.744 OA
ENDBRANCH  97  98
ENDBRANCH  65  90
ENDBRANCH  39  40
ENDBRANCH  32  34
ENDBRANCH  31  32
ENDBRANCH  30  31
ENDBRANCH  29  30
ENDBRANCH  28  29
ENDBRANCH   1  28
TORSDOF 24
ENDMDL
