MODEL 1
REMARK VINA RESULT:     -10.7      0.000      0.000
REMARK SMILES CC1(C)[C@@H](C(=O)NCCc2ccc(S(N)(=O)=O)cc2)[C@@H]1C(=O)OCCOCCOCCOC(=O)c1ccc(-c2c3nc(c(-c4c(F)cc(S(=O)(=O)[O-])cc4F)c4ccc([nH]4)c(-c4c(F)cc(S(=O)(=O)[O-])cc4F)c4nc(c(-c5c(F)cc(S(=O)(=O)[O-])cc5F)c5ccc2[nH]5)C=C4)C=C3)cc1
REMARK SMILES IDX 26 1 25 2 24 3 23 4 21 5 22 6 20 7 1 8 2 9 3 10 4 11 5 12
REMARK SMILES IDX 6 13 7 14 8 16 9 17 10 18 11 19 19 20 12 21 18 22 13 23
REMARK SMILES IDX 14 24 16 25 17 26 15 27 27 30 28 31 29 32 30 33 31 34 32 35
REMARK SMILES IDX 33 36 34 37 35 38 36 39 100 40 37 41 99 42 38 43 39 44 40 45
REMARK SMILES IDX 93 46 41 47 98 48 92 49 94 50 42 51 97 52 91 53 90 54 43 56
REMARK SMILES IDX 77 57 56 58 76 59 57 60 60 61 75 62 95 63 58 64 59 65 74 67
REMARK SMILES IDX 96 68 61 69 44 70 45 71 54 72 46 73 47 74 53 75 55 76 48 77
REMARK SMILES IDX 49 78 50 79 51 80 52 81 78 82 79 83 88 84 80 85 81 86 87 87
REMARK SMILES IDX 89 88 82 89 83 90 84 91 85 92 86 93 62 94 63 95 72 96 64 97
REMARK SMILES IDX 65 98 71 99 73 100 66 101 67 102 68 103 69 104 70 105
REMARK H PARENT 7 15 15 28 15 29 94 55 60 66
REMARK Flexibility Score: inf
ROOT
ATOM      1  O   UNL A   1      36.650  22.040  25.730  1.00  0.00    -0.376 OA
ENDROOT
BRANCH   1   2
ATOM      2  C   UNL A   1      36.449  20.868  24.955  1.00  0.00     0.202 C 
BRANCH   2   3
ATOM      3  C   UNL A   1      35.162  20.025  25.046  1.00  0.00     0.261 C 
BRANCH   3   4
ATOM      4  O   UNL A   1      33.924  20.727  24.851  1.00  0.00    -0.463 OA
BRANCH   4   5
ATOM      5  C   UNL A   1      33.387  21.272  25.976  1.00  0.00     0.310 C 
ATOM      6  O   UNL A   1      33.762  21.055  27.117  1.00  0.00    -0.252 OA
BRANCH   5   7
ATOM      7  C   UNL A   1      32.366  22.307  25.655  1.00  0.00     0.118 C 
ATOM      8  C   UNL A   1      31.582  23.790  23.724  1.00  0.00     0.013 C 
ATOM      9  C   UNL A   1      32.672  23.454  24.721  1.00  0.00    -0.009 C 
ATOM     10  C   UNL A   1      34.059  23.625  24.157  1.00  0.00     0.013 C 
ATOM     11  C   UNL A   1      32.452  23.704  26.226  1.00  0.00     0.100 C 
BRANCH  11  12
ATOM     12  C   UNL A   1      31.302  24.580  26.582  1.00  0.00     0.224 C 
ATOM     13  O   UNL A   1      30.194  24.074  26.738  1.00  0.00    -0.275 OA
ATOM     14  N   UNL A   1      31.439  25.927  26.755  1.00  0.00    -0.355 N 
ATOM     15  H   UNL A   1      30.654  26.365  27.157  1.00  0.00     0.163 HD
BRANCH  14  16
ATOM     16  C   UNL A   1      32.534  26.826  26.453  1.00  0.00     0.120 C 
BRANCH  16  17
ATOM     17  C   UNL A   1      32.687  27.202  24.970  1.00  0.00     0.056 C 
BRANCH  17  18
ATOM     18  C   UNL A   1      31.543  27.927  24.286  1.00  0.00    -0.046 A 
ATOM     19  C   UNL A   1      30.703  27.231  23.395  1.00  0.00     0.005 A 
ATOM     20  C   UNL A   1      31.214  29.250  24.609  1.00  0.00     0.005 A 
ATOM     21  C   UNL A   1      29.572  27.844  22.842  1.00  0.00     0.022 A 
ATOM     22  C   UNL A   1      30.107  29.880  24.037  1.00  0.00     0.022 A 
ATOM     23  C   UNL A   1      29.284  29.171  23.163  1.00  0.00     0.082 A 
BRANCH  23  24
ATOM     24  S   UNL A   1      27.838  29.949  22.510  1.00  0.00     0.238 S 
ATOM     25  O   UNL A   1      27.508  31.085  23.347  1.00  0.00    -0.207 OA
ATOM     26  O   UNL A   1      27.949  30.053  21.078  1.00  0.00    -0.207 OA
BRANCH  24  27
ATOM     27  N   UNL A   1      26.643  28.804  22.784  1.00  0.00    -0.225 NA
ATOM     28  H   UNL A   1      25.749  29.156  22.439  1.00  0.00     0.137 HD
ATOM     29  H   UNL A   1      26.572  28.618  23.784  1.00  0.00     0.137 HD
ENDBRANCH  24  27
ENDBRANCH  23  24
ENDBRANCH  17  18
ENDBRANCH  16  17
ENDBRANCH  14  16
ENDBRANCH  11  12
ENDBRANCH   5   7
ENDBRANCH   4   5
ENDBRANCH   3   4
ENDBRANCH   2   3
ENDBRANCH   1   2
BRANCH   1  30
ATOM     30  C   UNL A   1      37.785  22.860  25.518  1.00  0.00     0.188 C 
BRANCH  30  31
ATOM     31  C   UNL A   1      39.009  22.713  26.437  1.00  0.00     0.188 C 
BRANCH  31  32
ATOM     32  O   UNL A   1      39.834  21.606  26.180  1.00  0.00    -0.376 OA
BRANCH  32  33
ATOM     33  C   UNL A   1      40.938  21.370  27.038  1.00  0.00     0.202 C 
BRANCH  33  34
ATOM     34  C   UNL A   1      42.338  22.004  26.861  1.00  0.00     0.261 C 
BRANCH  34  35
ATOM     35  O   UNL A   1      42.616  23.262  27.492  1.00  0.00    -0.460 OA
BRANCH  35  36
ATOM     36  C   UNL A   1      42.463  24.375  26.733  1.00  0.00     0.338 C 
ATOM     37  O   UNL A   1      42.497  24.432  25.515  1.00  0.00    -0.246 OA
BRANCH  36  38
ATOM     38  C   UNL A   1      42.000  25.480  27.606  1.00  0.00     0.060 A 
ATOM     39  C   UNL A   1      42.773  26.647  27.688  1.00  0.00     0.016 A 
ATOM     40  C   UNL A   1      40.826  25.362  28.351  1.00  0.00     0.016 A 
ATOM     41  C   UNL A   1      42.395  27.683  28.544  1.00  0.00     0.010 A 
ATOM     42  C   UNL A   1      40.461  26.393  29.226  1.00  0.00     0.010 A 
ATOM     43  C   UNL A   1      41.262  27.543  29.354  1.00  0.00    -0.014 A 
BRANCH  43  44
ATOM     44  C   UNL A   1      41.027  28.504  30.465  1.00  0.00     0.031 A 
ATOM     45  C   UNL A   1      41.894  28.407  31.694  1.00  0.00     0.074 A 
ATOM     46  C   UNL A   1      40.085  29.462  30.380  1.00  0.00     0.049 A 
ATOM     47  N   UNL A   1      41.852  29.106  32.799  1.00  0.00    -0.248 NA
ATOM     48  C   UNL A   1      42.948  27.380  31.672  1.00  0.00     0.031 C 
ATOM     49  C   UNL A   1      39.210  29.687  29.231  1.00  0.00     0.029 A 
ATOM     50  N   UNL A   1      39.706  30.423  31.286  1.00  0.00    -0.354 N 
ATOM     51  C   UNL A   1      42.864  28.598  33.606  1.00  0.00     0.074 A 
ATOM     52  C   UNL A   1      43.480  27.510  32.878  1.00  0.00     0.031 C 
ATOM     53  C   UNL A   1      38.385  30.713  29.507  1.00  0.00     0.029 A 
ATOM     54  C   UNL A   1      38.652  31.196  30.863  1.00  0.00     0.049 A 
ATOM     55  H   UNL A   1      40.148  30.545  32.157  1.00  0.00     0.167 HD
ATOM     56  C   UNL A   1      43.253  29.006  34.838  1.00  0.00     0.037 A 
ATOM     57  C   UNL A   1      37.966  32.167  31.502  1.00  0.00     0.037 A 
ATOM     58  C   UNL A   1      42.635  30.089  35.561  1.00  0.00     0.049 A 
ATOM     59  C   UNL A   1      38.372  32.561  32.901  1.00  0.00     0.074 A 
ATOM     60  C   UNL A   1      42.966  30.589  36.808  1.00  0.00     0.029 A 
ATOM     61  N   UNL A   1      41.555  30.832  35.107  1.00  0.00    -0.354 N 
ATOM     62  N   UNL A   1      39.345  32.087  33.644  1.00  0.00    -0.248 NA
ATOM     63  C   UNL A   1      37.592  33.626  33.546  1.00  0.00     0.031 C 
ATOM     64  C   UNL A   1      42.048  31.592  37.135  1.00  0.00     0.029 A 
ATOM     65  C   UNL A   1      41.190  31.768  36.061  1.00  0.00     0.049 A 
ATOM     66  H   UNL A   1      41.112  30.712  34.236  1.00  0.00     0.167 HD
ATOM     67  C   UNL A   1      39.317  32.824  34.826  1.00  0.00     0.074 A 
ATOM     68  C   UNL A   1      38.236  33.778  34.696  1.00  0.00     0.031 C 
ATOM     69  C   UNL A   1      40.118  32.723  35.917  1.00  0.00     0.037 A 
BRANCH  56  70
ATOM     70  C   UNL A   1      44.381  28.261  35.499  1.00  0.00     0.058 A 
ATOM     71  C   UNL A   1      45.713  28.701  35.418  1.00  0.00     0.135 A 
ATOM     72  C   UNL A   1      44.122  27.105  36.255  1.00  0.00     0.135 A 
ATOM     73  F   UNL A   1      46.023  29.788  34.694  1.00  0.00    -0.206 F 
ATOM     74  C   UNL A   1      46.747  28.009  36.040  1.00  0.00     0.059 A 
ATOM     75  C   UNL A   1      45.137  26.416  36.912  1.00  0.00     0.059 A 
ATOM     76  F   UNL A   1      42.869  26.636  36.365  1.00  0.00    -0.206 F 
ATOM     77  C   UNL A   1      46.450  26.868  36.786  1.00  0.00     0.060 A 
BRANCH  77  78
ATOM     78  S   UNL A   1      47.803  25.987  37.591  1.00  0.00     0.124 S 
ATOM     79  O   UNL A   1      48.351  27.025  38.459  1.00  0.00    -0.237 OA
ATOM     80  O   UNL A   1      47.107  24.898  38.268  1.00  0.00    -0.237 OA
ATOM     81  O   UNL A   1      48.660  25.587  36.478  1.00  0.00    -0.744 OA
ENDBRANCH  77  78
ENDBRANCH  56  70
BRANCH  57  82
ATOM     82  C   UNL A   1      36.816  32.834  30.831  1.00  0.00     0.058 A 
ATOM     83  C   UNL A   1      37.015  33.816  29.849  1.00  0.00     0.135 A 
ATOM     84  C   UNL A   1      35.491  32.509  31.167  1.00  0.00     0.135 A 
ATOM     85  F   UNL A   1      38.261  34.174  29.503  1.00  0.00    -0.206 F 
ATOM     86  C   UNL A   1      35.947  34.462  29.234  1.00  0.00     0.059 A 
ATOM     87  C   UNL A   1      34.406  33.118  30.544  1.00  0.00     0.059 A 
ATOM     88  F   UNL A   1      35.243  31.573  32.095  1.00  0.00    -0.206 F 
ATOM     89  C   UNL A   1      34.644  34.103  29.586  1.00  0.00     0.060 A 
BRANCH  89  90
ATOM     90  S   UNL A   1      33.266  34.914  28.747  1.00  0.00     0.124 S 
ATOM     91  O   UNL A   1      32.810  33.862  27.846  1.00  0.00    -0.237 OA
ATOM     92  O   UNL A   1      32.377  35.231  29.859  1.00  0.00    -0.237 OA
ATOM     93  O   UNL A   1      33.894  36.065  28.106  1.00  0.00    -0.744 OA
ENDBRANCH  89  90
ENDBRANCH  57  82
BRANCH  69  94
ATOM     94  C   UNL A   1      39.899  33.704  37.040  1.00  0.00     0.058 A 
ATOM     95  C   UNL A   1      39.005  33.448  38.093  1.00  0.00     0.135 A 
ATOM     96  C   UNL A   1      40.637  34.900  37.088  1.00  0.00     0.135 A 
ATOM     97  F   UNL A   1      38.272  32.325  38.100  1.00  0.00    -0.206 F 
ATOM     98  C   UNL A   1      38.827  34.358  39.133  1.00  0.00     0.059 A 
ATOM     99  C   UNL A   1      40.501  35.806  38.135  1.00  0.00     0.059 A 
ATOM    100  F   UNL A   1      41.517  35.190  36.116  1.00  0.00    -0.206 F 
ATOM    101  C   UNL A   1      39.582  35.532  39.146  1.00  0.00     0.060 A 
BRANCH 101 102
ATOM    102  S   UNL A   1      39.357  36.691  40.512  1.00  0.00     0.124 S 
ATOM    103  O   UNL A   1      40.717  36.807  41.027  1.00  0.00    -0.237 OA
ATOM    104  O   UNL A   1      38.832  37.873  39.835  1.00  0.00    -0.237 OA
ATOM    105  O   UNL A   1      38.411  36.006  41.388  1.00  0.00    -0.744 OA
ENDBRANCH 101 102
ENDBRANCH  69  94
ENDBRANCH  43  44
ENDBRANCH  36  38
ENDBRANCH  35  36
ENDBRANCH  34  35
ENDBRANCH  33  34
ENDBRANCH  32  33
ENDBRANCH  31  32
ENDBRANCH  30  31
ENDBRANCH   1  30
TORSDOF 26
ENDMDL
MODEL 2
REMARK VINA RESULT:     -10.5      6.134     12.061
REMARK SMILES CC1(C)[C@@H](C(=O)NCCc2ccc(S(N)(=O)=O)cc2)[C@@H]1C(=O)OCCOCCOCCOC(=O)c1ccc(-c2c3nc(c(-c4c(F)cc(S(=O)(=O)[O-])cc4F)c4ccc([nH]4)c(-c4c(F)cc(S(=O)(=O)[O-])cc4F)c4nc(c(-c5c(F)cc(S(=O)(=O)[O-])cc5F)c5ccc2[nH]5)C=C4)C=C3)cc1
REMARK SMILES IDX 26 1 25 2 24 3 23 4 21 5 22 6 20 7 1 8 2 9 3 10 4 11 5 12
REMARK SMILES IDX 6 13 7 14 8 16 9 17 10 18 11 19 19 20 12 21 18 22 13 23
REMARK SMILES IDX 14 24 16 25 17 26 15 27 27 30 28 31 29 32 30 33 31 34 32 35
REMARK SMILES IDX 33 36 34 37 35 38 36 39 100 40 37 41 99 42 38 43 39 44 40 45
REMARK SMILES IDX 93 46 41 47 98 48 92 49 94 50 42 51 97 52 91 53 90 54 43 56
REMARK SMILES IDX 77 57 56 58 76 59 57 60 60 61 75 62 95 63 58 64 59 65 74 67
REMARK SMILES IDX 96 68 61 69 44 70 45 71 54 72 46 73 47 74 53 75 55 76 48 77
REMARK SMILES IDX 49 78 50 79 51 80 52 81 78 82 79 83 88 84 80 85 81 86 87 87
REMARK SMILES IDX 89 88 82 89 83 90 84 91 85 92 86 93 62 94 63 95 72 96 64 97
REMARK SMILES IDX 65 98 71 99 73 100 66 101 67 102 68 103 69 104 70 105
REMARK H PARENT 7 15 15 28 15 29 94 55 60 66
REMARK Flexibility Score: inf
ROOT
ATOM      1  O   UNL A   1      32.991  32.087  27.331  1.00  0.00    -0.376 OA
ENDROOT
BRANCH   1   2
ATOM      2  C   UNL A   1      33.924  31.024  27.451  1.00  0.00     0.202 C 
BRANCH   2   3
ATOM      3  C   UNL A   1      33.535  29.550  27.229  1.00  0.00     0.261 C 
BRANCH   3   4
ATOM      4  O   UNL A   1      32.296  29.314  26.543  1.00  0.00    -0.463 OA
BRANCH   4   5
ATOM      5  C   UNL A   1      31.591  28.235  26.978  1.00  0.00     0.310 C 
ATOM      6  O   UNL A   1      31.335  27.979  28.144  1.00  0.00    -0.252 OA
BRANCH   5   7
ATOM      7  C   UNL A   1      31.017  27.456  25.847  1.00  0.00     0.118 C 
ATOM      8  C   UNL A   1      30.755  25.047  25.028  1.00  0.00     0.013 C 
ATOM      9  C   UNL A   1      31.686  26.202  25.333  1.00  0.00    -0.009 C 
ATOM     10  C   UNL A   1      33.008  25.758  25.905  1.00  0.00     0.013 C 
ATOM     11  C   UNL A   1      31.647  27.479  24.472  1.00  0.00     0.100 C 
BRANCH  11  12
ATOM     12  C   UNL A   1      30.927  27.371  23.174  1.00  0.00     0.224 C 
ATOM     13  O   UNL A   1      29.736  27.667  23.127  1.00  0.00    -0.275 OA
ATOM     14  N   UNL A   1      31.548  26.966  22.028  1.00  0.00    -0.355 N 
ATOM     15  H   UNL A   1      31.017  27.103  21.210  1.00  0.00     0.163 HD
BRANCH  14  16
ATOM     16  C   UNL A   1      32.849  26.371  21.802  1.00  0.00     0.120 C 
BRANCH  16  17
ATOM     17  C   UNL A   1      32.831  24.913  21.313  1.00  0.00     0.056 C 
BRANCH  17  18
ATOM     18  C   UNL A   1      33.299  23.826  22.262  1.00  0.00    -0.046 A 
ATOM     19  C   UNL A   1      34.576  23.907  22.849  1.00  0.00     0.005 A 
ATOM     20  C   UNL A   1      32.445  22.795  22.676  1.00  0.00     0.005 A 
ATOM     21  C   UNL A   1      34.986  22.982  23.816  1.00  0.00     0.022 A 
ATOM     22  C   UNL A   1      32.857  21.848  23.616  1.00  0.00     0.022 A 
ATOM     23  C   UNL A   1      34.124  21.950  24.190  1.00  0.00     0.082 A 
BRANCH  23  24
ATOM     24  S   UNL A   1      34.605  20.798  25.440  1.00  0.00     0.238 S 
ATOM     25  O   UNL A   1      35.033  19.572  24.797  1.00  0.00    -0.207 OA
ATOM     26  O   UNL A   1      35.406  21.468  26.433  1.00  0.00    -0.207 OA
BRANCH  24  27
ATOM     27  N   UNL A   1      33.153  20.446  26.201  1.00  0.00    -0.225 NA
ATOM     28  H   UNL A   1      32.379  20.801  25.640  1.00  0.00     0.137 HD
ATOM     29  H   UNL A   1      33.135  20.887  27.121  1.00  0.00     0.137 HD
ENDBRANCH  24  27
ENDBRANCH  23  24
ENDBRANCH  17  18
ENDBRANCH  16  17
ENDBRANCH  14  16
ENDBRANCH  11  12
ENDBRANCH   5   7
ENDBRANCH   4   5
ENDBRANCH   3   4
ENDBRANCH   2   3
ENDBRANCH   1   2
BRANCH   1  30
ATOM     30  C   UNL A   1      33.249  33.345  27.929  1.00  0.00     0.188 C 
BRANCH  30  31
ATOM     31  C   UNL A   1      34.702  33.813  28.114  1.00  0.00     0.188 C 
BRANCH  31  32
ATOM     32  O   UNL A   1      35.044  34.238  29.409  1.00  0.00    -0.376 OA
BRANCH  32  33
ATOM     33  C   UNL A   1      36.367  34.017  29.867  1.00  0.00     0.202 C 
BRANCH  33  34
ATOM     34  C   UNL A   1      36.759  33.803  31.348  1.00  0.00     0.261 C 
BRANCH  34  35
ATOM     35  O   UNL A   1      37.486  32.621  31.711  1.00  0.00    -0.460 OA
BRANCH  35  36
ATOM     36  C   UNL A   1      37.031  31.445  31.214  1.00  0.00     0.338 C 
ATOM     37  O   UNL A   1      35.864  31.121  31.074  1.00  0.00    -0.246 OA
BRANCH  36  38
ATOM     38  C   UNL A   1      38.177  30.703  30.634  1.00  0.00     0.060 A 
ATOM     39  C   UNL A   1      39.108  30.112  31.500  1.00  0.00     0.016 A 
ATOM     40  C   UNL A   1      38.343  30.607  29.252  1.00  0.00     0.016 A 
ATOM     41  C   UNL A   1      40.229  29.456  30.986  1.00  0.00     0.010 A 
ATOM     42  C   UNL A   1      39.480  29.968  28.740  1.00  0.00     0.010 A 
ATOM     43  C   UNL A   1      40.446  29.421  29.604  1.00  0.00    -0.014 A 
BRANCH  43  44
ATOM     44  C   UNL A   1      41.768  28.989  29.077  1.00  0.00     0.031 A 
ATOM     45  C   UNL A   1      42.876  30.006  28.993  1.00  0.00     0.074 A 
ATOM     46  C   UNL A   1      41.996  27.715  28.706  1.00  0.00     0.049 A 
ATOM     47  N   UNL A   1      44.095  29.876  28.536  1.00  0.00    -0.248 NA
ATOM     48  C   UNL A   1      42.563  31.357  29.491  1.00  0.00     0.031 C 
ATOM     49  C   UNL A   1      41.022  26.627  28.775  1.00  0.00     0.029 A 
ATOM     50  N   UNL A   1      43.123  27.125  28.188  1.00  0.00    -0.354 N 
ATOM     51  C   UNL A   1      44.690  31.124  28.681  1.00  0.00     0.074 A 
ATOM     52  C   UNL A   1      43.688  32.008  29.237  1.00  0.00     0.031 C 
ATOM     53  C   UNL A   1      41.591  25.503  28.304  1.00  0.00     0.029 A 
ATOM     54  C   UNL A   1      42.957  25.798  27.870  1.00  0.00     0.049 A 
ATOM     55  H   UNL A   1      43.971  27.608  28.056  1.00  0.00     0.167 HD
ATOM     56  C   UNL A   1      45.958  31.499  28.387  1.00  0.00     0.037 A 
ATOM     57  C   UNL A   1      43.801  24.928  27.278  1.00  0.00     0.037 A 
ATOM     58  C   UNL A   1      46.952  30.615  27.832  1.00  0.00     0.049 A 
ATOM     59  C   UNL A   1      45.188  25.384  26.896  1.00  0.00     0.074 A 
ATOM     60  C   UNL A   1      48.269  30.895  27.515  1.00  0.00     0.029 A 
ATOM     61  N   UNL A   1      46.736  29.285  27.503  1.00  0.00    -0.354 N 
ATOM     62  N   UNL A   1      45.745  26.562  27.059  1.00  0.00    -0.248 NA
ATOM     63  C   UNL A   1      46.064  24.391  26.258  1.00  0.00     0.031 C 
ATOM     64  C   UNL A   1      48.832  29.753  26.937  1.00  0.00     0.029 A 
ATOM     65  C   UNL A   1      47.888  28.738  26.961  1.00  0.00     0.049 A 
ATOM     66  H   UNL A   1      45.890  28.800  27.635  1.00  0.00     0.167 HD
ATOM     67  C   UNL A   1      47.047  26.438  26.579  1.00  0.00     0.074 A 
ATOM     68  C   UNL A   1      47.195  25.071  26.127  1.00  0.00     0.031 C 
ATOM     69  C   UNL A   1      48.031  27.371  26.524  1.00  0.00     0.037 A 
BRANCH  56  70
ATOM     70  C   UNL A   1      46.338  32.935  28.632  1.00  0.00     0.058 A 
ATOM     71  C   UNL A   1      46.913  33.356  29.843  1.00  0.00     0.135 A 
ATOM     72  C   UNL A   1      46.156  33.899  27.626  1.00  0.00     0.135 A 
ATOM     73  F   UNL A   1      47.093  32.484  30.846  1.00  0.00    -0.206 F 
ATOM     74  C   UNL A   1      47.268  34.685  30.055  1.00  0.00     0.059 A 
ATOM     75  C   UNL A   1      46.533  35.226  27.807  1.00  0.00     0.059 A 
ATOM     76  F   UNL A   1      45.608  33.553  26.451  1.00  0.00    -0.206 F 
ATOM     77  C   UNL A   1      47.076  35.613  29.030  1.00  0.00     0.060 A 
BRANCH  77  78
ATOM     78  S   UNL A   1      47.549  37.329  29.322  1.00  0.00     0.124 S 
ATOM     79  O   UNL A   1      49.000  37.217  29.434  1.00  0.00    -0.237 OA
ATOM     80  O   UNL A   1      47.057  37.997  28.121  1.00  0.00    -0.237 OA
ATOM     81  O   UNL A   1      46.851  37.671  30.558  1.00  0.00    -0.744 OA
ENDBRANCH  77  78
ENDBRANCH  56  70
BRANCH  57  82
ATOM     82  C   UNL A   1      43.359  23.533  26.998  1.00  0.00     0.058 A 
ATOM     83  C   UNL A   1      43.038  23.117  25.697  1.00  0.00     0.135 A 
ATOM     84  C   UNL A   1      43.238  22.589  28.031  1.00  0.00     0.135 A 
ATOM     85  F   UNL A   1      43.122  23.985  24.677  1.00  0.00    -0.206 F 
ATOM     86  C   UNL A   1      42.600  21.823  25.430  1.00  0.00     0.059 A 
ATOM     87  C   UNL A   1      42.832  21.281  27.785  1.00  0.00     0.059 A 
ATOM     88  F   UNL A   1      43.537  22.931  29.293  1.00  0.00    -0.206 F 
ATOM     89  C   UNL A   1      42.505  20.910  26.481  1.00  0.00     0.060 A 
BRANCH  89  90
ATOM     90  S   UNL A   1      41.982  19.221  26.115  1.00  0.00     0.124 S 
ATOM     91  O   UNL A   1      42.728  18.940  24.894  1.00  0.00    -0.237 OA
ATOM     92  O   UNL A   1      42.417  18.502  27.309  1.00  0.00    -0.237 OA
ATOM     93  O   UNL A   1      40.536  19.344  25.957  1.00  0.00    -0.744 OA
ENDBRANCH  89  90
ENDBRANCH  57  82
BRANCH  69  94
ATOM     94  C   UNL A   1      49.379  26.938  26.009  1.00  0.00     0.058 A 
ATOM     95  C   UNL A   1      49.758  27.111  24.667  1.00  0.00     0.135 A 
ATOM     96  C   UNL A   1      50.328  26.386  26.888  1.00  0.00     0.135 A 
ATOM     97  F   UNL A   1      48.893  27.631  23.783  1.00  0.00    -0.206 F 
ATOM     98  C   UNL A   1      51.014  26.721  24.210  1.00  0.00     0.059 A 
ATOM     99  C   UNL A   1      51.601  26.021  26.459  1.00  0.00     0.059 A 
ATOM    100  F   UNL A   1      50.026  26.211  28.184  1.00  0.00    -0.206 F 
ATOM    101  C   UNL A   1      51.929  26.180  25.115  1.00  0.00     0.060 A 
BRANCH 101 102
ATOM    102  S   UNL A   1      53.562  25.700  24.513  1.00  0.00     0.124 S 
ATOM    103  O   UNL A   1      53.489  26.096  23.110  1.00  0.00    -0.237 OA
ATOM    104  O   UNL A   1      54.451  26.500  25.352  1.00  0.00    -0.237 OA
ATOM    105  O   UNL A   1      53.608  24.262  24.757  1.00  0.00    -0.744 OA
ENDBRANCH 101 102
ENDBRANCH  69  94
ENDBRANCH  43  44
ENDBRANCH  36  38
ENDBRANCH  35  36
ENDBRANCH  34  35
ENDBRANCH  33  34
ENDBRANCH  32  33
ENDBRANCH  31  32
ENDBRANCH  30  31
ENDBRANCH   1  30
TORSDOF 26
ENDMDL
MODEL 3
REMARK VINA RESULT:     -10.1      6.307     11.969
REMARK SMILES CC1(C)[C@@H](C(=O)NCCc2ccc(S(N)(=O)=O)cc2)[C@@H]1C(=O)OCCOCCOCCOC(=O)c1ccc(-c2c3nc(c(-c4c(F)cc(S(=O)(=O)[O-])cc4F)c4ccc([nH]4)c(-c4c(F)cc(S(=O)(=O)[O-])cc4F)c4nc(c(-c5c(F)cc(S(=O)(=O)[O-])cc5F)c5ccc2[nH]5)C=C4)C=C3)cc1
REMARK SMILES IDX 26 1 25 2 24 3 23 4 21 5 22 6 20 7 1 8 2 9 3 10 4 11 5 12
REMARK SMILES IDX 6 13 7 14 8 16 9 17 10 18 11 19 19 20 12 21 18 22 13 23
REMARK SMILES IDX 14 24 16 25 17 26 15 27 27 30 28 31 29 32 30 33 31 34 32 35
REMARK SMILES IDX 33 36 34 37 35 38 36 39 100 40 37 41 99 42 38 43 39 44 40 45
REMARK SMILES IDX 93 46 41 47 98 48 92 49 94 50 42 51 97 52 91 53 90 54 43 56
REMARK SMILES IDX 77 57 56 58 76 59 57 60 60 61 75 62 95 63 58 64 59 65 74 67
REMARK SMILES IDX 96 68 61 69 44 70 45 71 54 72 46 73 47 74 53 75 55 76 48 77
REMARK SMILES IDX 49 78 50 79 51 80 52 81 78 82 79 83 88 84 80 85 81 86 87 87
REMARK SMILES IDX 89 88 82 89 83 90 84 91 85 92 86 93 62 94 63 95 72 96 64 97
REMARK SMILES IDX 65 98 71 99 73 100 66 101 67 102 68 103 69 104 70 105
REMARK H PARENT 7 15 15 28 15 29 94 55 60 66
REMARK Flexibility Score: inf
ROOT
ATOM      1  O   UNL A   1      33.945  32.747  27.290  1.00  0.00    -0.376 OA
ENDROOT
BRANCH   1   2
ATOM      2  C   UNL A   1      34.249  31.424  27.705  1.00  0.00     0.202 C 
BRANCH   2   3
ATOM      3  C   UNL A   1      33.362  30.217  27.344  1.00  0.00     0.261 C 
BRANCH   3   4
ATOM      4  O   UNL A   1      33.351  29.823  25.963  1.00  0.00    -0.463 OA
BRANCH   4   5
ATOM      5  C   UNL A   1      32.138  29.892  25.353  1.00  0.00     0.310 C 
ATOM      6  O   UNL A   1      31.297  30.756  25.541  1.00  0.00    -0.252 OA
BRANCH   5   7
ATOM      7  C   UNL A   1      31.995  28.860  24.289  1.00  0.00     0.118 C 
ATOM      8  C   UNL A   1      30.444  26.961  23.561  1.00  0.00     0.013 C 
ATOM      9  C   UNL A   1      31.425  27.493  24.587  1.00  0.00    -0.009 C 
ATOM     10  C   UNL A   1      31.065  27.112  25.999  1.00  0.00     0.013 C 
ATOM     11  C   UNL A   1      32.913  27.661  24.223  1.00  0.00     0.100 C 
BRANCH  11  12
ATOM     12  C   UNL A   1      33.366  26.968  22.986  1.00  0.00     0.224 C 
ATOM     13  O   UNL A   1      33.362  27.583  21.923  1.00  0.00    -0.275 OA
ATOM     14  N   UNL A   1      33.800  25.674  22.993  1.00  0.00    -0.355 N 
ATOM     15  H   UNL A   1      34.234  25.388  22.158  1.00  0.00     0.163 HD
BRANCH  14  16
ATOM     16  C   UNL A   1      33.734  24.647  24.013  1.00  0.00     0.120 C 
BRANCH  16  17
ATOM     17  C   UNL A   1      32.386  23.915  24.125  1.00  0.00     0.056 C 
BRANCH  17  18
ATOM     18  C   UNL A   1      32.388  22.399  24.168  1.00  0.00    -0.046 A 
ATOM     19  C   UNL A   1      32.303  21.661  22.971  1.00  0.00     0.005 A 
ATOM     20  C   UNL A   1      32.597  21.698  25.363  1.00  0.00     0.005 A 
ATOM     21  C   UNL A   1      32.420  20.266  22.973  1.00  0.00     0.022 A 
ATOM     22  C   UNL A   1      32.683  20.304  25.379  1.00  0.00     0.022 A 
ATOM     23  C   UNL A   1      32.604  19.593  24.182  1.00  0.00     0.082 A 
BRANCH  23  24
ATOM     24  S   UNL A   1      32.798  17.838  24.202  1.00  0.00     0.238 S 
ATOM     25  O   UNL A   1      31.961  17.293  25.252  1.00  0.00    -0.207 OA
ATOM     26  O   UNL A   1      32.769  17.332  22.853  1.00  0.00    -0.207 OA
BRANCH  24  27
ATOM     27  N   UNL A   1      34.382  17.644  24.718  1.00  0.00    -0.225 NA
ATOM     28  H   UNL A   1      34.402  17.033  25.535  1.00  0.00     0.137 HD
ATOM     29  H   UNL A   1      34.774  18.552  24.963  1.00  0.00     0.137 HD
ENDBRANCH  24  27
ENDBRANCH  23  24
ENDBRANCH  17  18
ENDBRANCH  16  17
ENDBRANCH  14  16
ENDBRANCH  11  12
ENDBRANCH   5   7
ENDBRANCH   4   5
ENDBRANCH   3   4
ENDBRANCH   2   3
ENDBRANCH   1   2
BRANCH   1  30
ATOM     30  C   UNL A   1      33.249  33.632  28.149  1.00  0.00     0.188 C 
BRANCH  30  31
ATOM     31  C   UNL A   1      34.035  34.476  29.166  1.00  0.00     0.188 C 
BRANCH  31  32
ATOM     32  O   UNL A   1      34.242  33.879  30.421  1.00  0.00    -0.376 OA
BRANCH  32  33
ATOM     33  C   UNL A   1      35.461  33.193  30.651  1.00  0.00     0.202 C 
BRANCH  33  34
ATOM     34  C   UNL A   1      36.293  33.295  31.951  1.00  0.00     0.261 C 
BRANCH  34  35
ATOM     35  O   UNL A   1      37.423  32.428  32.123  1.00  0.00    -0.460 OA
BRANCH  35  36
ATOM     36  C   UNL A   1      37.209  31.101  31.950  1.00  0.00     0.338 C 
ATOM     37  O   UNL A   1      36.169  30.501  32.164  1.00  0.00    -0.246 OA
BRANCH  36  38
ATOM     38  C   UNL A   1      38.367  30.528  31.222  1.00  0.00     0.060 A 
ATOM     39  C   UNL A   1      39.352  29.844  31.949  1.00  0.00     0.016 A 
ATOM     40  C   UNL A   1      38.491  30.678  29.840  1.00  0.00     0.016 A 
ATOM     41  C   UNL A   1      40.484  29.343  31.301  1.00  0.00     0.010 A 
ATOM     42  C   UNL A   1      39.637  30.194  29.196  1.00  0.00     0.010 A 
ATOM     43  C   UNL A   1      40.656  29.556  29.929  1.00  0.00    -0.014 A 
BRANCH  43  44
ATOM     44  C   UNL A   1      41.978  29.288  29.301  1.00  0.00     0.031 A 
ATOM     45  C   UNL A   1      42.241  27.914  28.743  1.00  0.00     0.074 A 
ATOM     46  C   UNL A   1      42.917  30.246  29.200  1.00  0.00     0.049 A 
ATOM     47  N   UNL A   1      43.324  27.434  28.186  1.00  0.00    -0.248 NA
ATOM     48  C   UNL A   1      41.133  26.948  28.828  1.00  0.00     0.031 C 
ATOM     49  C   UNL A   1      42.771  31.625  29.663  1.00  0.00     0.029 A 
ATOM     50  N   UNL A   1      44.186  30.199  28.677  1.00  0.00    -0.354 N 
ATOM     51  C   UNL A   1      43.031  26.114  27.864  1.00  0.00     0.074 A 
ATOM     52  C   UNL A   1      41.682  25.856  28.318  1.00  0.00     0.031 C 
ATOM     53  C   UNL A   1      43.914  32.290  29.416  1.00  0.00     0.029 A 
ATOM     54  C   UNL A   1      44.882  31.377  28.807  1.00  0.00     0.049 A 
ATOM     55  H   UNL A   1      44.564  29.396  28.251  1.00  0.00     0.167 HD
ATOM     56  C   UNL A   1      43.812  25.200  27.238  1.00  0.00     0.037 A 
ATOM     57  C   UNL A   1      46.159  31.679  28.491  1.00  0.00     0.037 A 
ATOM     58  C   UNL A   1      45.156  25.460  26.790  1.00  0.00     0.049 A 
ATOM     59  C   UNL A   1      47.033  30.627  27.857  1.00  0.00     0.074 A 
ATOM     60  C   UNL A   1      46.023  24.605  26.131  1.00  0.00     0.029 A 
ATOM     61  N   UNL A   1      45.832  26.659  26.961  1.00  0.00    -0.354 N 
ATOM     62  N   UNL A   1      46.737  29.388  27.537  1.00  0.00    -0.248 NA
ATOM     63  C   UNL A   1      48.413  31.014  27.530  1.00  0.00     0.031 C 
ATOM     64  C   UNL A   1      47.243  25.266  25.959  1.00  0.00     0.029 A 
ATOM     65  C   UNL A   1      47.114  26.558  26.445  1.00  0.00     0.049 A 
ATOM     66  H   UNL A   1      45.457  27.464  27.386  1.00  0.00     0.167 HD
ATOM     67  C   UNL A   1      47.881  28.863  26.939  1.00  0.00     0.074 A 
ATOM     68  C   UNL A   1      48.870  29.921  26.935  1.00  0.00     0.031 C 
ATOM     69  C   UNL A   1      48.090  27.621  26.434  1.00  0.00     0.037 A 
BRANCH  56  70
ATOM     70  C   UNL A   1      43.244  23.822  27.027  1.00  0.00     0.058 A 
ATOM     71  C   UNL A   1      42.760  23.400  25.777  1.00  0.00     0.135 A 
ATOM     72  C   UNL A   1      43.216  22.896  28.084  1.00  0.00     0.135 A 
ATOM     73  F   UNL A   1      42.744  24.247  24.737  1.00  0.00    -0.206 F 
ATOM     74  C   UNL A   1      42.244  22.121  25.591  1.00  0.00     0.059 A 
ATOM     75  C   UNL A   1      42.734  21.602  27.910  1.00  0.00     0.059 A 
ATOM     76  F   UNL A   1      43.662  23.245  29.300  1.00  0.00    -0.206 F 
ATOM     77  C   UNL A   1      42.238  21.228  26.663  1.00  0.00     0.060 A 
BRANCH  77  78
ATOM     78  S   UNL A   1      41.572  19.572  26.401  1.00  0.00     0.124 S 
ATOM     79  O   UNL A   1      41.835  18.943  27.692  1.00  0.00    -0.237 OA
ATOM     80  O   UNL A   1      40.169  19.843  26.104  1.00  0.00    -0.237 OA
ATOM     81  O   UNL A   1      42.360  19.059  25.284  1.00  0.00    -0.744 OA
ENDBRANCH  77  78
ENDBRANCH  56  70
BRANCH  57  82
ATOM     82  C   UNL A   1      46.696  33.039  28.777  1.00  0.00     0.058 A 
ATOM     83  C   UNL A   1      47.370  33.319  29.975  1.00  0.00     0.135 A 
ATOM     84  C   UNL A   1      46.537  34.090  27.860  1.00  0.00     0.135 A 
ATOM     85  F   UNL A   1      47.536  32.353  30.892  1.00  0.00    -0.206 F 
ATOM     86  C   UNL A   1      47.854  34.592  30.262  1.00  0.00     0.059 A 
ATOM     87  C   UNL A   1      47.039  35.364  28.109  1.00  0.00     0.059 A 
ATOM     88  F   UNL A   1      45.905  33.877  26.695  1.00  0.00    -0.206 F 
ATOM     89  C   UNL A   1      47.687  35.608  29.319  1.00  0.00     0.060 A 
BRANCH  89  90
ATOM     90  S   UNL A   1      48.361  37.244  29.681  1.00  0.00     0.124 S 
ATOM     91  O   UNL A   1      48.867  37.649  28.375  1.00  0.00    -0.237 OA
ATOM     92  O   UNL A   1      47.183  37.960  30.159  1.00  0.00    -0.237 OA
ATOM     93  O   UNL A   1      49.376  36.972  30.695  1.00  0.00    -0.744 OA
ENDBRANCH  89  90
ENDBRANCH  57  82
BRANCH  69  94
ATOM     94  C   UNL A   1      49.419  27.344  25.780  1.00  0.00     0.058 A 
ATOM     95  C   UNL A   1      50.557  26.988  26.521  1.00  0.00     0.135 A 
ATOM     96  C   UNL A   1      49.540  27.389  24.380  1.00  0.00     0.135 A 
ATOM     97  F   UNL A   1      50.502  26.932  27.860  1.00  0.00    -0.206 F 
ATOM     98  C   UNL A   1      51.774  26.719  25.900  1.00  0.00     0.059 A 
ATOM     99  C   UNL A   1      50.737  27.090  23.737  1.00  0.00     0.059 A 
ATOM    100  F   UNL A   1      48.481  27.709  23.620  1.00  0.00    -0.206 F 
ATOM    101  C   UNL A   1      51.853  26.770  24.507  1.00  0.00     0.060 A 
BRANCH 101 102
ATOM    102  S   UNL A   1      53.432  26.396  23.714  1.00  0.00     0.124 S 
ATOM    103  O   UNL A   1      53.037  26.268  22.316  1.00  0.00    -0.237 OA
ATOM    104  O   UNL A   1      54.231  27.573  24.042  1.00  0.00    -0.237 OA
ATOM    105  O   UNL A   1      53.855  25.159  24.364  1.00  0.00    -0.744 OA
ENDBRANCH 101 102
ENDBRANCH  69  94
ENDBRANCH  43  44
ENDBRANCH  36  38
ENDBRANCH  35  36
ENDBRANCH  34  35
ENDBRANCH  33  34
ENDBRANCH  32  33
ENDBRANCH  31  32
ENDBRANCH  30  31
ENDBRANCH   1  30
TORSDOF 26
ENDMDL
