MODEL 1
REMARK VINA RESULT:     -10.4      0.000      0.000
REMARK SMILES C[C@@H]1[C@@H](C(=O)OCCOCCOCCOC(=O)c2ccc(-c3c4nc(c(-c5c(F)cc(S(=O)(=O)[O-])cc5F)c5ccc([nH]5)c(-c5c(F)cc(S(=O)(=O)[O-])cc5F)c5nc(c(-c6c(F)cc(S(=O)(=O)[O-])cc6F)c6ccc3[nH]6)C=C5)C=C4)cc2)CCN1C(=O)c1cc(Cl)ccc1O
REMARK SMILES IDX 10 1 9 2 8 3 7 4 6 5 4 6 5 7 3 8 1 9 2 10 86 11 84 12 85 13
REMARK SMILES IDX 87 14 88 15 89 16 90 17 95 18 91 19 94 20 92 21 93 22 96 23
REMARK SMILES IDX 11 25 12 26 13 27 14 28 15 29 16 30 17 31 18 32 19 33 83 34
REMARK SMILES IDX 20 35 82 36 21 37 22 38 23 39 76 40 24 41 81 42 75 43 77 44
REMARK SMILES IDX 25 45 80 46 74 47 73 48 26 50 60 51 39 52 59 53 40 54 43 55
REMARK SMILES IDX 58 56 78 57 41 58 42 59 57 61 79 62 44 63 27 64 28 65 37 66
REMARK SMILES IDX 29 67 30 68 36 69 38 70 31 71 32 72 33 73 34 74 35 75 61 76
REMARK SMILES IDX 62 77 71 78 63 79 64 80 70 81 72 82 65 83 66 84 67 85 68 86
REMARK SMILES IDX 69 87 45 88 46 89 55 90 47 91 48 92 54 93 56 94 49 95 50 96
REMARK SMILES IDX 51 97 52 98 53 99
REMARK H PARENT 96 24 77 49 43 60
REMARK Flexibility Score: inf
ROOT
ATOM      1  C   UNL A   1      30.378  26.700  25.225  1.00  0.00     0.188 C 
ENDROOT
BRANCH   1   2
ATOM      2  O   UNL A   1      30.458  25.444  25.872  1.00  0.00    -0.376 OA
BRANCH   2   3
ATOM      3  C   UNL A   1      31.015  24.315  25.219  1.00  0.00     0.202 C 
BRANCH   3   4
ATOM      4  C   UNL A   1      32.126  24.410  24.162  1.00  0.00     0.261 C 
BRANCH   4   5
ATOM      5  O   UNL A   1      33.455  24.540  24.677  1.00  0.00    -0.463 OA
BRANCH   5   6
ATOM      6  C   UNL A   1      34.406  23.849  23.991  1.00  0.00     0.311 C 
ATOM      7  O   UNL A   1      34.587  23.922  22.784  1.00  0.00    -0.252 OA
BRANCH   6   8
ATOM      8  C   UNL A   1      35.261  23.032  24.941  1.00  0.00     0.123 C 
ATOM      9  C   UNL A   1      36.320  20.747  25.022  1.00  0.00     0.032 C 
ATOM     10  C   UNL A   1      35.060  21.536  24.652  1.00  0.00     0.096 C 
ATOM     11  N   UNL A   1      33.894  21.207  25.490  1.00  0.00    -0.335 N 
ATOM     12  C   UNL A   1      34.829  23.194  26.388  1.00  0.00     0.039 C 
ATOM     13  C   UNL A   1      33.656  22.239  26.493  1.00  0.00     0.121 C 
BRANCH  11  14
ATOM     14  C   UNL A   1      32.807  20.427  25.108  1.00  0.00     0.257 C 
ATOM     15  O   UNL A   1      31.645  20.753  25.336  1.00  0.00    -0.269 OA
BRANCH  14  16
ATOM     16  C   UNL A   1      33.049  19.125  24.468  1.00  0.00     0.083 A 
ATOM     17  C   UNL A   1      33.846  18.188  25.137  1.00  0.00     0.038 A 
ATOM     18  C   UNL A   1      32.612  18.874  23.164  1.00  0.00     0.128 A 
ATOM     19  C   UNL A   1      34.174  16.993  24.498  1.00  0.00     0.042 A 
ATOM     20  C   UNL A   1      32.932  17.671  22.539  1.00  0.00     0.048 A 
ATOM     21  Cl  UNL A   1      35.147  15.831  25.310  1.00  0.00    -0.084 Cl
ATOM     22  C   UNL A   1      33.722  16.731  23.204  1.00  0.00     0.024 A 
BRANCH  18  23
ATOM     23  O   UNL A   1      31.898  19.777  22.425  1.00  0.00    -0.507 OA
ATOM     24  H   UNL A   1      31.961  20.692  22.616  1.00  0.00     0.293 HD
ENDBRANCH  18  23
ENDBRANCH  14  16
ENDBRANCH  11  14
ENDBRANCH   6   8
ENDBRANCH   5   6
ENDBRANCH   4   5
ENDBRANCH   3   4
ENDBRANCH   2   3
ENDBRANCH   1   2
BRANCH   1  25
ATOM     25  C   UNL A   1      31.435  27.785  25.505  1.00  0.00     0.188 C 
BRANCH  25  26
ATOM     26  O   UNL A   1      31.181  29.088  25.046  1.00  0.00    -0.376 OA
BRANCH  26  27
ATOM     27  C   UNL A   1      31.809  30.187  25.688  1.00  0.00     0.202 C 
BRANCH  27  28
ATOM     28  C   UNL A   1      33.231  30.199  26.292  1.00  0.00     0.261 C 
BRANCH  28  29
ATOM     29  O   UNL A   1      33.399  30.602  27.656  1.00  0.00    -0.460 OA
BRANCH  29  30
ATOM     30  C   UNL A   1      34.310  31.584  27.870  1.00  0.00     0.338 C 
ATOM     31  O   UNL A   1      34.095  32.790  27.909  1.00  0.00    -0.246 OA
BRANCH  30  32
ATOM     32  C   UNL A   1      35.596  30.982  28.270  1.00  0.00     0.060 A 
ATOM     33  C   UNL A   1      35.600  29.693  28.826  1.00  0.00     0.016 A 
ATOM     34  C   UNL A   1      36.784  31.697  28.138  1.00  0.00     0.016 A 
ATOM     35  C   UNL A   1      36.795  29.119  29.261  1.00  0.00     0.010 A 
ATOM     36  C   UNL A   1      37.977  31.132  28.602  1.00  0.00     0.010 A 
ATOM     37  C   UNL A   1      37.986  29.852  29.187  1.00  0.00    -0.014 A 
BRANCH  37  38
ATOM     38  C   UNL A   1      39.205  29.369  29.883  1.00  0.00     0.031 A 
ATOM     39  C   UNL A   1      39.631  30.070  31.146  1.00  0.00     0.074 A 
ATOM     40  C   UNL A   1      39.926  28.338  29.405  1.00  0.00     0.049 A 
ATOM     41  N   UNL A   1      40.711  29.905  31.865  1.00  0.00    -0.248 NA
ATOM     42  C   UNL A   1      38.714  31.098  31.664  1.00  0.00     0.031 C 
ATOM     43  C   UNL A   1      39.592  27.547  28.222  1.00  0.00     0.029 A 
ATOM     44  N   UNL A   1      41.104  27.793  29.855  1.00  0.00    -0.354 N 
ATOM     45  C   UNL A   1      40.608  30.811  32.914  1.00  0.00     0.074 A 
ATOM     46  C   UNL A   1      39.376  31.545  32.720  1.00  0.00     0.031 C 
ATOM     47  C   UNL A   1      40.558  26.631  28.025  1.00  0.00     0.029 A 
ATOM     48  C   UNL A   1      41.594  26.796  29.045  1.00  0.00     0.049 A 
ATOM     49  H   UNL A   1      41.556  28.090  30.677  1.00  0.00     0.167 HD
ATOM     50  C   UNL A   1      41.458  31.011  33.949  1.00  0.00     0.037 A 
ATOM     51  C   UNL A   1      42.758  26.117  29.106  1.00  0.00     0.037 A 
ATOM     52  C   UNL A   1      42.688  30.285  34.131  1.00  0.00     0.049 A 
ATOM     53  C   UNL A   1      43.738  26.422  30.216  1.00  0.00     0.074 A 
ATOM     54  C   UNL A   1      43.621  30.414  35.146  1.00  0.00     0.029 A 
ATOM     55  N   UNL A   1      43.163  29.301  33.277  1.00  0.00    -0.354 N 
ATOM     56  N   UNL A   1      43.626  27.275  31.207  1.00  0.00    -0.248 NA
ATOM     57  C   UNL A   1      45.003  25.673  30.213  1.00  0.00     0.031 C 
ATOM     58  C   UNL A   1      44.682  29.544  34.879  1.00  0.00     0.029 A 
ATOM     59  C   UNL A   1      44.383  28.828  33.731  1.00  0.00     0.049 A 
ATOM     60  H   UNL A   1      42.700  28.984  32.468  1.00  0.00     0.167 HD
ATOM     61  C   UNL A   1      44.787  27.136  31.964  1.00  0.00     0.074 A 
ATOM     62  C   UNL A   1      45.584  26.112  31.321  1.00  0.00     0.031 C 
ATOM     63  C   UNL A   1      45.159  27.793  33.092  1.00  0.00     0.037 A 
BRANCH  50  64
ATOM     64  C   UNL A   1      41.099  32.072  34.953  1.00  0.00     0.058 A 
ATOM     65  C   UNL A   1      40.159  31.837  35.970  1.00  0.00     0.135 A 
ATOM     66  C   UNL A   1      41.731  33.326  34.924  1.00  0.00     0.135 A 
ATOM     67  F   UNL A   1      39.510  30.663  36.034  1.00  0.00    -0.206 F 
ATOM     68  C   UNL A   1      39.842  32.815  36.906  1.00  0.00     0.059 A 
ATOM     69  C   UNL A   1      41.451  34.309  35.867  1.00  0.00     0.059 A 
ATOM     70  F   UNL A   1      42.634  33.606  33.971  1.00  0.00    -0.206 F 
ATOM     71  C   UNL A   1      40.495  34.047  36.849  1.00  0.00     0.060 A 
BRANCH  71  72
ATOM     72  S   UNL A   1      40.078  35.300  38.079  1.00  0.00     0.124 S 
ATOM     73  O   UNL A   1      39.619  36.398  37.235  1.00  0.00    -0.237 OA
ATOM     74  O   UNL A   1      39.046  34.632  38.865  1.00  0.00    -0.237 OA
ATOM     75  O   UNL A   1      41.342  35.529  38.774  1.00  0.00    -0.744 OA
ENDBRANCH  71  72
ENDBRANCH  50  64
BRANCH  51  76
ATOM     76  C   UNL A   1      43.083  25.087  28.080  1.00  0.00     0.058 A 
ATOM     77  C   UNL A   1      42.786  23.733  28.297  1.00  0.00     0.135 A 
ATOM     78  C   UNL A   1      43.723  25.428  26.877  1.00  0.00     0.135 A 
ATOM     79  F   UNL A   1      42.180  23.354  29.432  1.00  0.00    -0.206 F 
ATOM     80  C   UNL A   1      43.137  22.751  27.376  1.00  0.00     0.059 A 
ATOM     81  C   UNL A   1      44.056  24.468  25.926  1.00  0.00     0.059 A 
ATOM     82  F   UNL A   1      44.023  26.710  26.615  1.00  0.00    -0.206 F 
ATOM     83  C   UNL A   1      43.775  23.129  26.194  1.00  0.00     0.060 A 
BRANCH  83  84
ATOM     84  S   UNL A   1      44.219  21.844  25.006  1.00  0.00     0.124 S 
ATOM     85  O   UNL A   1      43.260  20.796  25.338  1.00  0.00    -0.237 OA
ATOM     86  O   UNL A   1      44.005  22.521  23.731  1.00  0.00    -0.237 OA
ATOM     87  O   UNL A   1      45.611  21.549  25.332  1.00  0.00    -0.744 OA
ENDBRANCH  83  84
ENDBRANCH  51  76
BRANCH  63  88
ATOM     88  C   UNL A   1      46.458  27.393  33.743  1.00  0.00     0.058 A 
ATOM     89  C   UNL A   1      46.522  26.385  34.718  1.00  0.00     0.135 A 
ATOM     90  C   UNL A   1      47.665  27.987  33.336  1.00  0.00     0.135 A 
ATOM     91  F   UNL A   1      45.400  25.787  35.146  1.00  0.00    -0.206 F 
ATOM     92  C   UNL A   1      47.733  25.996  35.282  1.00  0.00     0.059 A 
ATOM     93  C   UNL A   1      48.890  27.591  33.865  1.00  0.00     0.059 A 
ATOM     94  F   UNL A   1      47.664  28.947  32.399  1.00  0.00    -0.206 F 
ATOM     95  C   UNL A   1      48.913  26.602  34.846  1.00  0.00     0.060 A 
BRANCH  95  96
ATOM     96  S   UNL A   1      50.481  26.059  35.559  1.00  0.00     0.124 S 
ATOM     97  O   UNL A   1      50.120  25.877  36.961  1.00  0.00    -0.237 OA
ATOM     98  O   UNL A   1      50.756  24.836  34.811  1.00  0.00    -0.237 OA
ATOM     99  O   UNL A   1      51.385  27.172  35.284  1.00  0.00    -0.744 OA
ENDBRANCH  95  96
ENDBRANCH  63  88
ENDBRANCH  37  38
ENDBRANCH  30  32
ENDBRANCH  29  30
ENDBRANCH  28  29
ENDBRANCH  27  28
ENDBRANCH  26  27
ENDBRANCH  25  26
ENDBRANCH   1  25
TORSDOF 23
ENDMDL
MODEL 2
REMARK VINA RESULT:     -10.1      5.069      9.354
REMARK SMILES C[C@@H]1[C@@H](C(=O)OCCOCCOCCOC(=O)c2ccc(-c3c4nc(c(-c5c(F)cc(S(=O)(=O)[O-])cc5F)c5ccc([nH]5)c(-c5c(F)cc(S(=O)(=O)[O-])cc5F)c5nc(c(-c6c(F)cc(S(=O)(=O)[O-])cc6F)c6ccc3[nH]6)C=C5)C=C4)cc2)CCN1C(=O)c1cc(Cl)ccc1O
REMARK SMILES IDX 10 1 9 2 8 3 7 4 6 5 4 6 5 7 3 8 1 9 2 10 86 11 84 12 85 13
REMARK SMILES IDX 87 14 88 15 89 16 90 17 95 18 91 19 94 20 92 21 93 22 96 23
REMARK SMILES IDX 11 25 12 26 13 27 14 28 15 29 16 30 17 31 18 32 19 33 83 34
REMARK SMILES IDX 20 35 82 36 21 37 22 38 23 39 76 40 24 41 81 42 75 43 77 44
REMARK SMILES IDX 25 45 80 46 74 47 73 48 26 50 60 51 39 52 59 53 40 54 43 55
REMARK SMILES IDX 58 56 78 57 41 58 42 59 57 61 79 62 44 63 27 64 28 65 37 66
REMARK SMILES IDX 29 67 30 68 36 69 38 70 31 71 32 72 33 73 34 74 35 75 61 76
REMARK SMILES IDX 62 77 71 78 63 79 64 80 70 81 72 82 65 83 66 84 67 85 68 86
REMARK SMILES IDX 69 87 45 88 46 89 55 90 47 91 48 92 54 93 56 94 49 95 50 96
REMARK SMILES IDX 51 97 52 98 53 99
REMARK H PARENT 96 24 77 49 43 60
REMARK Flexibility Score: inf
ROOT
ATOM      1  C   UNL A   1      34.334  30.984  27.617  1.00  0.00     0.188 C 
ENDROOT
BRANCH   1   2
ATOM      2  O   UNL A   1      32.934  30.969  27.409  1.00  0.00    -0.376 OA
BRANCH   2   3
ATOM      3  C   UNL A   1      32.291  29.855  26.812  1.00  0.00     0.202 C 
BRANCH   3   4
ATOM      4  C   UNL A   1      33.028  28.801  25.972  1.00  0.00     0.261 C 
BRANCH   4   5
ATOM      5  O   UNL A   1      33.332  27.577  26.649  1.00  0.00    -0.463 OA
BRANCH   5   6
ATOM      6  C   UNL A   1      33.219  26.456  25.886  1.00  0.00     0.311 C 
ATOM      7  O   UNL A   1      34.031  26.101  25.043  1.00  0.00    -0.252 OA
BRANCH   6   8
ATOM      8  C   UNL A   1      31.984  25.667  26.277  1.00  0.00     0.123 C 
ATOM      9  C   UNL A   1      31.396  23.313  26.956  1.00  0.00     0.032 C 
ATOM     10  C   UNL A   1      32.219  24.175  25.994  1.00  0.00     0.096 C 
ATOM     11  N   UNL A   1      31.798  24.050  24.588  1.00  0.00    -0.335 N 
ATOM     12  C   UNL A   1      30.779  26.023  25.424  1.00  0.00     0.039 C 
ATOM     13  C   UNL A   1      31.006  25.201  24.170  1.00  0.00     0.121 C 
BRANCH  11  14
ATOM     14  C   UNL A   1      32.466  23.342  23.594  1.00  0.00     0.257 C 
ATOM     15  O   UNL A   1      32.294  23.557  22.397  1.00  0.00    -0.269 OA
BRANCH  14  16
ATOM     16  C   UNL A   1      33.364  22.241  23.979  1.00  0.00     0.083 A 
ATOM     17  C   UNL A   1      32.805  20.986  24.249  1.00  0.00     0.038 A 
ATOM     18  C   UNL A   1      34.724  22.471  24.205  1.00  0.00     0.128 A 
ATOM     19  C   UNL A   1      33.627  19.963  24.719  1.00  0.00     0.042 A 
ATOM     20  C   UNL A   1      35.541  21.439  24.660  1.00  0.00     0.048 A 
ATOM     21  Cl  UNL A   1      32.957  18.415  25.050  1.00  0.00    -0.084 Cl
ATOM     22  C   UNL A   1      34.990  20.183  24.926  1.00  0.00     0.024 A 
BRANCH  18  23
ATOM     23  O   UNL A   1      35.318  23.692  24.037  1.00  0.00    -0.507 OA
ATOM     24  H   UNL A   1      34.837  24.475  24.220  1.00  0.00     0.293 HD
ENDBRANCH  18  23
ENDBRANCH  14  16
ENDBRANCH  11  14
ENDBRANCH   6   8
ENDBRANCH   5   6
ENDBRANCH   4   5
ENDBRANCH   3   4
ENDBRANCH   2   3
ENDBRANCH   1   2
BRANCH   1  25
ATOM     25  C   UNL A   1      35.029  32.262  28.122  1.00  0.00     0.188 C 
BRANCH  25  26
ATOM     26  O   UNL A   1      34.527  32.872  29.283  1.00  0.00    -0.376 OA
BRANCH  26  27
ATOM     27  C   UNL A   1      35.377  33.704  30.057  1.00  0.00     0.202 C 
BRANCH  27  28
ATOM     28  C   UNL A   1      36.032  33.334  31.407  1.00  0.00     0.261 C 
BRANCH  28  29
ATOM     29  O   UNL A   1      37.244  32.572  31.400  1.00  0.00    -0.460 OA
BRANCH  29  30
ATOM     30  C   UNL A   1      37.094  31.230  31.269  1.00  0.00     0.338 C 
ATOM     31  O   UNL A   1      36.065  30.586  31.441  1.00  0.00    -0.246 OA
BRANCH  30  32
ATOM     32  C   UNL A   1      38.313  30.657  30.668  1.00  0.00     0.060 A 
ATOM     33  C   UNL A   1      39.367  30.265  31.508  1.00  0.00     0.016 A 
ATOM     34  C   UNL A   1      38.434  30.544  29.284  1.00  0.00     0.016 A 
ATOM     35  C   UNL A   1      40.551  29.766  30.964  1.00  0.00     0.010 A 
ATOM     36  C   UNL A   1      39.633  30.072  28.740  1.00  0.00     0.010 A 
ATOM     37  C   UNL A   1      40.705  29.705  29.574  1.00  0.00    -0.014 A 
BRANCH  37  38
ATOM     38  C   UNL A   1      42.039  29.435  28.981  1.00  0.00     0.031 A 
ATOM     39  C   UNL A   1      42.342  28.037  28.510  1.00  0.00     0.074 A 
ATOM     40  C   UNL A   1      42.968  30.403  28.867  1.00  0.00     0.049 A 
ATOM     41  N   UNL A   1      43.463  27.534  28.063  1.00  0.00    -0.248 NA
ATOM     42  C   UNL A   1      41.226  27.077  28.552  1.00  0.00     0.031 C 
ATOM     43  C   UNL A   1      42.781  31.804  29.240  1.00  0.00     0.029 A 
ATOM     44  N   UNL A   1      44.265  30.342  28.419  1.00  0.00    -0.354 N 
ATOM     45  C   UNL A   1      43.192  26.200  27.779  1.00  0.00     0.074 A 
ATOM     46  C   UNL A   1      41.810  25.965  28.133  1.00  0.00     0.031 C 
ATOM     47  C   UNL A   1      43.932  32.468  29.027  1.00  0.00     0.029 A 
ATOM     48  C   UNL A   1      44.944  31.532  28.538  1.00  0.00     0.049 A 
ATOM     49  H   UNL A   1      44.670  29.525  28.050  1.00  0.00     0.167 HD
ATOM     50  C   UNL A   1      44.018  25.259  27.265  1.00  0.00     0.037 A 
ATOM     51  C   UNL A   1      46.242  31.821  28.307  1.00  0.00     0.037 A 
ATOM     52  C   UNL A   1      45.396  25.496  26.923  1.00  0.00     0.049 A 
ATOM     53  C   UNL A   1      47.170  30.731  27.822  1.00  0.00     0.074 A 
ATOM     54  C   UNL A   1      46.317  24.607  26.397  1.00  0.00     0.029 A 
ATOM     55  N   UNL A   1      46.056  26.706  27.081  1.00  0.00    -0.354 N 
ATOM     56  N   UNL A   1      46.900  29.475  27.550  1.00  0.00    -0.248 NA
ATOM     57  C   UNL A   1      48.579  31.097  27.617  1.00  0.00     0.031 C 
ATOM     58  C   UNL A   1      47.546  25.265  26.284  1.00  0.00     0.029 A 
ATOM     59  C   UNL A   1      47.376  26.581  26.682  1.00  0.00     0.049 A 
ATOM     60  H   UNL A   1      45.646  27.532  27.426  1.00  0.00     0.167 HD
ATOM     61  C   UNL A   1      48.096  28.915  27.104  1.00  0.00     0.074 A 
ATOM     62  C   UNL A   1      49.088  29.970  27.138  1.00  0.00     0.031 C 
ATOM     63  C   UNL A   1      48.350  27.645  26.701  1.00  0.00     0.037 A 
BRANCH  50  64
ATOM     64  C   UNL A   1      43.458  23.877  27.058  1.00  0.00     0.058 A 
ATOM     65  C   UNL A   1      43.267  22.991  28.129  1.00  0.00     0.135 A 
ATOM     66  C   UNL A   1      43.073  23.448  25.777  1.00  0.00     0.135 A 
ATOM     67  F   UNL A   1      43.637  23.341  29.372  1.00  0.00    -0.206 F 
ATOM     68  C   UNL A   1      42.736  21.721  27.935  1.00  0.00     0.059 A 
ATOM     69  C   UNL A   1      42.511  22.193  25.564  1.00  0.00     0.059 A 
ATOM     70  F   UNL A   1      43.238  24.254  24.716  1.00  0.00    -0.206 F 
ATOM     71  C   UNL A   1      42.357  21.331  26.650  1.00  0.00     0.060 A 
BRANCH  71  72
ATOM     72  S   UNL A   1      41.658  19.684  26.420  1.00  0.00     0.124 S 
ATOM     73  O   UNL A   1      42.043  19.026  27.665  1.00  0.00    -0.237 OA
ATOM     74  O   UNL A   1      40.235  19.969  26.269  1.00  0.00    -0.237 OA
ATOM     75  O   UNL A   1      42.328  19.193  25.219  1.00  0.00    -0.744 OA
ENDBRANCH  71  72
ENDBRANCH  50  64
BRANCH  51  76
ATOM     76  C   UNL A   1      46.759  33.197  28.542  1.00  0.00     0.058 A 
ATOM     77  C   UNL A   1      46.777  34.147  27.509  1.00  0.00     0.135 A 
ATOM     78  C   UNL A   1      47.273  33.584  29.790  1.00  0.00     0.135 A 
ATOM     79  F   UNL A   1      46.304  33.827  26.296  1.00  0.00    -0.206 F 
ATOM     80  C   UNL A   1      47.313  35.418  27.694  1.00  0.00     0.059 A 
ATOM     81  C   UNL A   1      47.785  34.859  30.010  1.00  0.00     0.059 A 
ATOM     82  F   UNL A   1      47.273  32.717  30.815  1.00  0.00    -0.206 F 
ATOM     83  C   UNL A   1      47.817  35.764  28.949  1.00  0.00     0.060 A 
BRANCH  83  84
ATOM     84  S   UNL A   1      48.502  37.419  29.176  1.00  0.00     0.124 S 
ATOM     85  O   UNL A   1      47.712  38.194  28.227  1.00  0.00    -0.237 OA
ATOM     86  O   UNL A   1      48.230  37.671  30.587  1.00  0.00    -0.237 OA
ATOM     87  O   UNL A   1      49.911  37.251  28.831  1.00  0.00    -0.744 OA
ENDBRANCH  83  84
ENDBRANCH  51  76
BRANCH  63  88
ATOM     88  C   UNL A   1      49.738  27.327  26.208  1.00  0.00     0.058 A 
ATOM     89  C   UNL A   1      50.780  26.987  27.085  1.00  0.00     0.135 A 
ATOM     90  C   UNL A   1      50.010  27.302  24.829  1.00  0.00     0.135 A 
ATOM     91  F   UNL A   1      50.578  26.998  28.411  1.00  0.00    -0.206 F 
ATOM     92  C   UNL A   1      52.047  26.656  26.614  1.00  0.00     0.059 A 
ATOM     93  C   UNL A   1      51.261  26.944  24.336  1.00  0.00     0.059 A 
ATOM     94  F   UNL A   1      49.048  27.606  23.945  1.00  0.00    -0.206 F 
ATOM     95  C   UNL A   1      52.278  26.633  25.237  1.00  0.00     0.060 A 
BRANCH  95  96
ATOM     96  S   UNL A   1      53.915  26.163  24.640  1.00  0.00     0.124 S 
ATOM     97  O   UNL A   1      53.781  24.715  24.518  1.00  0.00    -0.237 OA
ATOM     98  O   UNL A   1      54.011  26.899  23.383  1.00  0.00    -0.237 OA
ATOM     99  O   UNL A   1      54.810  26.622  25.697  1.00  0.00    -0.744 OA
ENDBRANCH  95  96
ENDBRANCH  63  88
ENDBRANCH  37  38
ENDBRANCH  30  32
ENDBRANCH  29  30
ENDBRANCH  28  29
ENDBRANCH  27  28
ENDBRANCH  26  27
ENDBRANCH  25  26
ENDBRANCH   1  25
TORSDOF 23
ENDMDL
MODEL 3
REMARK VINA RESULT:     -10.1      3.470      9.248
REMARK SMILES C[C@@H]1[C@@H](C(=O)OCCOCCOCCOC(=O)c2ccc(-c3c4nc(c(-c5c(F)cc(S(=O)(=O)[O-])cc5F)c5ccc([nH]5)c(-c5c(F)cc(S(=O)(=O)[O-])cc5F)c5nc(c(-c6c(F)cc(S(=O)(=O)[O-])cc6F)c6ccc3[nH]6)C=C5)C=C4)cc2)CCN1C(=O)c1cc(Cl)ccc1O
REMARK SMILES IDX 10 1 9 2 8 3 7 4 6 5 4 6 5 7 3 8 1 9 2 10 86 11 84 12 85 13
REMARK SMILES IDX 87 14 88 15 89 16 90 17 95 18 91 19 94 20 92 21 93 22 96 23
REMARK SMILES IDX 11 25 12 26 13 27 14 28 15 29 16 30 17 31 18 32 19 33 83 34
REMARK SMILES IDX 20 35 82 36 21 37 22 38 23 39 76 40 24 41 81 42 75 43 77 44
REMARK SMILES IDX 25 45 80 46 74 47 73 48 26 50 60 51 39 52 59 53 40 54 43 55
REMARK SMILES IDX 58 56 78 57 41 58 42 59 57 61 79 62 44 63 27 64 28 65 37 66
REMARK SMILES IDX 29 67 30 68 36 69 38 70 31 71 32 72 33 73 34 74 35 75 61 76
REMARK SMILES IDX 62 77 71 78 63 79 64 80 70 81 72 82 65 83 66 84 67 85 68 86
REMARK SMILES IDX 69 87 45 88 46 89 55 90 47 91 48 92 54 93 56 94 49 95 50 96
REMARK SMILES IDX 51 97 52 98 53 99
REMARK H PARENT 96 24 77 49 43 60
REMARK Flexibility Score: inf
ROOT
ATOM      1  C   UNL A   1      40.166  21.231  26.295  1.00  0.00     0.188 C 
ENDROOT
BRANCH   1   2
ATOM      2  O   UNL A   1      39.119  21.495  25.380  1.00  0.00    -0.376 OA
BRANCH   2   3
ATOM      3  C   UNL A   1      37.877  22.022  25.817  1.00  0.00     0.202 C 
BRANCH   3   4
ATOM      4  C   UNL A   1      37.545  23.522  25.817  1.00  0.00     0.261 C 
BRANCH   4   5
ATOM      5  O   UNL A   1      36.541  23.930  24.884  1.00  0.00    -0.463 OA
BRANCH   5   6
ATOM      6  C   UNL A   1      35.300  24.104  25.416  1.00  0.00     0.311 C 
ATOM      7  O   UNL A   1      34.684  25.160  25.419  1.00  0.00    -0.252 OA
BRANCH   6   8
ATOM      8  C   UNL A   1      34.755  22.789  25.940  1.00  0.00     0.123 C 
ATOM      9  C   UNL A   1      34.270  20.475  25.067  1.00  0.00     0.032 C 
ATOM     10  C   UNL A   1      34.172  21.976  24.774  1.00  0.00     0.096 C 
ATOM     11  N   UNL A   1      32.786  22.471  24.707  1.00  0.00    -0.335 N 
ATOM     12  C   UNL A   1      33.580  22.986  26.882  1.00  0.00     0.039 C 
ATOM     13  C   UNL A   1      32.419  23.180  25.927  1.00  0.00     0.121 C 
BRANCH  11  14
ATOM     14  C   UNL A   1      32.090  22.795  23.547  1.00  0.00     0.257 C 
ATOM     15  O   UNL A   1      31.762  21.955  22.713  1.00  0.00    -0.269 OA
BRANCH  14  16
ATOM     16  C   UNL A   1      31.789  24.207  23.263  1.00  0.00     0.083 A 
ATOM     17  C   UNL A   1      30.554  24.724  23.671  1.00  0.00     0.038 A 
ATOM     18  C   UNL A   1      32.654  24.983  22.484  1.00  0.00     0.128 A 
ATOM     19  C   UNL A   1      30.209  26.027  23.315  1.00  0.00     0.042 A 
ATOM     20  C   UNL A   1      32.308  26.288  22.145  1.00  0.00     0.048 A 
ATOM     21  Cl  UNL A   1      28.698  26.677  23.815  1.00  0.00    -0.084 Cl
ATOM     22  C   UNL A   1      31.079  26.810  22.555  1.00  0.00     0.024 A 
BRANCH  18  23
ATOM     23  O   UNL A   1      33.839  24.514  21.986  1.00  0.00    -0.507 OA
ATOM     24  H   UNL A   1      34.087  24.712  21.104  1.00  0.00     0.293 HD
ENDBRANCH  18  23
ENDBRANCH  14  16
ENDBRANCH  11  14
ENDBRANCH   6   8
ENDBRANCH   5   6
ENDBRANCH   4   5
ENDBRANCH   3   4
ENDBRANCH   2   3
ENDBRANCH   1   2
BRANCH   1  25
ATOM     25  C   UNL A   1      40.562  22.286  27.344  1.00  0.00     0.188 C 
BRANCH  25  26
ATOM     26  O   UNL A   1      41.922  22.617  27.467  1.00  0.00    -0.376 OA
BRANCH  26  27
ATOM     27  C   UNL A   1      42.760  22.554  26.323  1.00  0.00     0.202 C 
BRANCH  27  28
ATOM     28  C   UNL A   1      43.060  23.716  25.348  1.00  0.00     0.261 C 
BRANCH  28  29
ATOM     29  O   UNL A   1      43.242  25.033  25.880  1.00  0.00    -0.460 OA
BRANCH  29  30
ATOM     30  C   UNL A   1      42.122  25.796  25.953  1.00  0.00     0.338 C 
ATOM     31  O   UNL A   1      41.213  25.847  25.133  1.00  0.00    -0.246 OA
BRANCH  30  32
ATOM     32  C   UNL A   1      42.038  26.417  27.288  1.00  0.00     0.060 A 
ATOM     33  C   UNL A   1      41.036  25.992  28.175  1.00  0.00     0.016 A 
ATOM     34  C   UNL A   1      42.914  27.439  27.650  1.00  0.00     0.016 A 
ATOM     35  C   UNL A   1      40.902  26.597  29.426  1.00  0.00     0.010 A 
ATOM     36  C   UNL A   1      42.759  28.064  28.892  1.00  0.00     0.010 A 
ATOM     37  C   UNL A   1      41.738  27.664  29.775  1.00  0.00    -0.014 A 
BRANCH  37  38
ATOM     38  C   UNL A   1      41.439  28.486  30.974  1.00  0.00     0.031 A 
ATOM     39  C   UNL A   1      40.316  29.487  30.892  1.00  0.00     0.074 A 
ATOM     40  C   UNL A   1      42.149  28.358  32.110  1.00  0.00     0.049 A 
ATOM     41  N   UNL A   1      39.940  30.388  31.761  1.00  0.00    -0.248 NA
ATOM     42  C   UNL A   1      39.512  29.467  29.659  1.00  0.00     0.031 C 
ATOM     43  C   UNL A   1      43.225  27.394  32.333  1.00  0.00     0.029 A 
ATOM     44  N   UNL A   1      42.077  29.062  33.288  1.00  0.00    -0.354 N 
ATOM     45  C   UNL A   1      38.864  31.048  31.180  1.00  0.00     0.074 A 
ATOM     46  C   UNL A   1      38.666  30.464  29.871  1.00  0.00     0.031 C 
ATOM     47  C   UNL A   1      43.730  27.583  33.565  1.00  0.00     0.029 A 
ATOM     48  C   UNL A   1      43.038  28.703  34.203  1.00  0.00     0.049 A 
ATOM     49  H   UNL A   1      41.402  29.757  33.460  1.00  0.00     0.167 HD
ATOM     50  C   UNL A   1      38.103  32.045  31.691  1.00  0.00     0.037 A 
ATOM     51  C   UNL A   1      43.341  29.238  35.404  1.00  0.00     0.037 A 
ATOM     52  C   UNL A   1      38.310  32.630  32.991  1.00  0.00     0.049 A 
ATOM     53  C   UNL A   1      42.540  30.414  35.916  1.00  0.00     0.074 A 
ATOM     54  C   UNL A   1      37.595  33.646  33.600  1.00  0.00     0.029 A 
ATOM     55  N   UNL A   1      39.309  32.257  33.878  1.00  0.00    -0.354 N 
ATOM     56  N   UNL A   1      41.519  31.023  35.360  1.00  0.00    -0.248 NA
ATOM     57  C   UNL A   1      42.935  30.975  37.216  1.00  0.00     0.031 C 
ATOM     58  C   UNL A   1      38.192  33.923  34.834  1.00  0.00     0.029 A 
ATOM     59  C   UNL A   1      39.241  33.037  35.021  1.00  0.00     0.049 A 
ATOM     60  H   UNL A   1      39.968  31.543  33.720  1.00  0.00     0.167 HD
ATOM     61  C   UNL A   1      41.128  32.012  36.261  1.00  0.00     0.074 A 
ATOM     62  C   UNL A   1      42.017  31.913  37.400  1.00  0.00     0.031 C 
ATOM     63  C   UNL A   1      40.121  32.917  36.157  1.00  0.00     0.037 A 
BRANCH  50  64
ATOM     64  C   UNL A   1      36.989  32.583  30.835  1.00  0.00     0.058 A 
ATOM     65  C   UNL A   1      37.218  33.561  29.855  1.00  0.00     0.135 A 
ATOM     66  C   UNL A   1      35.682  32.086  30.971  1.00  0.00     0.135 A 
ATOM     67  F   UNL A   1      38.444  34.086  29.695  1.00  0.00    -0.206 F 
ATOM     68  C   UNL A   1      36.188  34.043  29.055  1.00  0.00     0.059 A 
ATOM     69  C   UNL A   1      34.642  32.533  30.162  1.00  0.00     0.059 A 
ATOM     70  F   UNL A   1      35.406  31.153  31.896  1.00  0.00    -0.206 F 
ATOM     71  C   UNL A   1      34.903  33.521  29.214  1.00  0.00     0.060 A 
BRANCH  71  72
ATOM     72  S   UNL A   1      33.581  34.152  28.159  1.00  0.00     0.124 S 
ATOM     73  O   UNL A   1      34.328  34.981  27.219  1.00  0.00    -0.237 OA
ATOM     74  O   UNL A   1      33.012  32.927  27.609  1.00  0.00    -0.237 OA
ATOM     75  O   UNL A   1      32.720  34.878  29.088  1.00  0.00    -0.744 OA
ENDBRANCH  71  72
ENDBRANCH  50  64
BRANCH  51  76
ATOM     76  C   UNL A   1      44.464  28.687  36.211  1.00  0.00     0.058 A 
ATOM     77  C   UNL A   1      45.751  29.240  36.129  1.00  0.00     0.135 A 
ATOM     78  C   UNL A   1      44.285  27.578  37.056  1.00  0.00     0.135 A 
ATOM     79  F   UNL A   1      45.977  30.295  35.333  1.00  0.00    -0.206 F 
ATOM     80  C   UNL A   1      46.825  28.699  36.829  1.00  0.00     0.059 A 
ATOM     81  C   UNL A   1      45.336  27.039  37.791  1.00  0.00     0.059 A 
ATOM     82  F   UNL A   1      43.073  27.016  37.177  1.00  0.00    -0.206 F 
ATOM     83  C   UNL A   1      46.608  27.596  37.656  1.00  0.00     0.060 A 
BRANCH  83  84
ATOM     84  S   UNL A   1      48.010  26.909  38.563  1.00  0.00     0.124 S 
ATOM     85  O   UNL A   1      49.112  27.185  37.648  1.00  0.00    -0.237 OA
ATOM     86  O   UNL A   1      47.991  27.694  39.793  1.00  0.00    -0.237 OA
ATOM     87  O   UNL A   1      47.657  25.501  38.715  1.00  0.00    -0.744 OA
ENDBRANCH  83  84
ENDBRANCH  51  76
BRANCH  63  88
ATOM     88  C   UNL A   1      39.883  33.840  37.324  1.00  0.00     0.058 A 
ATOM     89  C   UNL A   1      40.472  35.113  37.398  1.00  0.00     0.135 A 
ATOM     90  C   UNL A   1      38.999  33.469  38.351  1.00  0.00     0.135 A 
ATOM     91  F   UNL A   1      41.327  35.518  36.446  1.00  0.00    -0.206 F 
ATOM     92  C   UNL A   1      40.212  35.973  38.460  1.00  0.00     0.059 A 
ATOM     93  C   UNL A   1      38.701  34.326  39.407  1.00  0.00     0.059 A 
ATOM     94  F   UNL A   1      38.398  32.270  38.325  1.00  0.00    -0.206 F 
ATOM     95  C   UNL A   1      39.322  35.573  39.458  1.00  0.00     0.060 A 
BRANCH  95  96
ATOM     96  S   UNL A   1      38.963  36.715  40.810  1.00  0.00     0.124 S 
ATOM     97  O   UNL A   1      38.062  35.920  41.637  1.00  0.00    -0.237 OA
ATOM     98  O   UNL A   1      40.289  36.961  41.370  1.00  0.00    -0.237 OA
ATOM     99  O   UNL A   1      38.352  37.858  40.138  1.00  0.00    -0.744 OA
ENDBRANCH  95  96
ENDBRANCH  63  88
ENDBRANCH  37  38
ENDBRANCH  30  32
ENDBRANCH  29  30
ENDBRANCH  28  29
ENDBRANCH  27  28
ENDBRANCH  26  27
ENDBRANCH  25  26
ENDBRANCH   1  25
TORSDOF 23
ENDMDL
