MODEL 1
REMARK VINA RESULT:     -10.3      0.000      0.000
REMARK SMILES Cc1cc(NC(=O)CC2(CC(=O)OCCOCCOCCOC(=O)c3ccc(-c4c5nc(c(-c6c(F)cc(S(=O)(=O)[O-])cc6F)c6ccc([nH]6)c(-c6c(F)cc(S(=O)(=O)[O-])cc6F)c6nc(c(-c7c(F)cc(S(=O)(=O)[O-])cc7F)c7ccc4[nH]7)C=C6)C=C5)cc3)CCCC2)ccn1
REMARK SMILES IDX 17 1 16 2 15 3 14 4 13 5 11 6 12 7 10 8 9 9 91 10 94 11
REMARK SMILES IDX 92 12 93 13 8 14 6 15 5 16 7 18 4 19 1 20 2 21 3 22 97 23
REMARK SMILES IDX 96 24 95 25 18 26 19 27 20 28 21 29 22 30 23 31 24 32 25 33
REMARK SMILES IDX 26 34 90 35 27 36 89 37 28 38 29 39 30 40 83 41 31 42 88 43
REMARK SMILES IDX 82 44 84 45 32 46 87 47 81 48 80 49 33 51 67 52 46 53 66 54
REMARK SMILES IDX 47 55 50 56 65 57 85 58 48 59 49 60 64 62 86 63 51 64 34 65
REMARK SMILES IDX 35 66 44 67 36 68 37 69 43 70 45 71 38 72 39 73 40 74 41 75
REMARK SMILES IDX 42 76 68 77 69 78 78 79 70 80 71 81 77 82 79 83 72 84 73 85
REMARK SMILES IDX 74 86 75 87 76 88 52 89 53 90 62 91 54 92 55 93 61 94 63 95
REMARK SMILES IDX 56 96 57 97 58 98 59 99 60 100
REMARK H PARENT 5 17 84 50 50 61
REMARK Flexibility Score: inf
ROOT
ATOM      1  C   UNL A   1      34.149  32.885  28.604  1.00  0.00     0.188 C 
ENDROOT
BRANCH   1   2
ATOM      2  O   UNL A   1      34.319  31.528  28.236  1.00  0.00    -0.376 OA
BRANCH   2   3
ATOM      3  C   UNL A   1      33.458  31.000  27.243  1.00  0.00     0.202 C 
BRANCH   3   4
ATOM      4  C   UNL A   1      33.309  29.476  27.157  1.00  0.00     0.261 C 
BRANCH   4   5
ATOM      5  O   UNL A   1      32.268  28.977  26.282  1.00  0.00    -0.463 OA
BRANCH   5   6
ATOM      6  C   UNL A   1      31.552  27.936  26.776  1.00  0.00     0.306 C 
ATOM      7  O   UNL A   1      31.394  27.730  27.976  1.00  0.00    -0.252 OA
BRANCH   6   8
ATOM      8  C   UNL A   1      31.035  26.924  25.760  1.00  0.00     0.130 C 
BRANCH   8   9
ATOM      9  C   UNL A   1      31.736  25.606  25.304  1.00  0.00    -0.011 C 
ATOM     10  C   UNL A   1      33.024  26.035  24.556  1.00  0.00     0.008 C 
ATOM     11  C   UNL A   1      30.997  24.862  24.172  1.00  0.00     0.008 C 
ATOM     12  C   UNL A   1      32.592  26.384  23.134  1.00  0.00     0.001 C 
ATOM     13  C   UNL A   1      31.295  25.623  22.888  1.00  0.00     0.001 C 
BRANCH   9  14
ATOM     14  C   UNL A   1      32.008  24.646  26.491  1.00  0.00     0.108 C 
BRANCH  14  15
ATOM     15  C   UNL A   1      31.107  23.449  26.727  1.00  0.00     0.224 C 
ATOM     16  N   UNL A   1      31.344  22.197  26.246  1.00  0.00    -0.326 N 
ATOM     17  H   UNL A   1      30.567  21.597  26.318  1.00  0.00     0.169 HD
ATOM     18  O   UNL A   1      30.078  23.604  27.394  1.00  0.00    -0.275 OA
BRANCH  16  19
ATOM     19  C   UNL A   1      32.470  21.585  25.667  1.00  0.00     0.044 A 
ATOM     20  C   UNL A   1      32.904  18.424  23.645  1.00  0.00     0.067 C 
ATOM     21  C   UNL A   1      33.215  19.681  24.400  1.00  0.00     0.039 A 
ATOM     22  C   UNL A   1      32.188  20.531  24.793  1.00  0.00     0.049 A 
ATOM     23  N   UNL A   1      34.499  19.873  24.778  1.00  0.00    -0.261 NA
ATOM     24  C   UNL A   1      34.762  20.964  25.527  1.00  0.00     0.113 A 
ATOM     25  C   UNL A   1      33.795  21.849  25.979  1.00  0.00     0.046 A 
ENDBRANCH  16  19
ENDBRANCH  14  15
ENDBRANCH   9  14
ENDBRANCH   8   9
ENDBRANCH   6   8
ENDBRANCH   5   6
ENDBRANCH   4   5
ENDBRANCH   3   4
ENDBRANCH   2   3
ENDBRANCH   1   2
BRANCH   1  26
ATOM     26  C   UNL A   1      34.826  33.404  29.881  1.00  0.00     0.188 C 
BRANCH  26  27
ATOM     27  O   UNL A   1      34.148  33.102  31.090  1.00  0.00    -0.376 OA
BRANCH  27  28
ATOM     28  C   UNL A   1      35.031  32.724  32.145  1.00  0.00     0.202 C 
BRANCH  28  29
ATOM     29  C   UNL A   1      36.377  32.298  31.545  1.00  0.00     0.261 C 
BRANCH  29  30
ATOM     30  O   UNL A   1      36.873  31.026  32.024  1.00  0.00    -0.460 OA
BRANCH  30  31
ATOM     31  C   UNL A   1      36.997  30.030  31.115  1.00  0.00     0.338 C 
ATOM     32  O   UNL A   1      36.076  29.394  30.619  1.00  0.00    -0.246 OA
BRANCH  31  33
ATOM     33  C   UNL A   1      38.392  29.999  30.598  1.00  0.00     0.060 A 
ATOM     34  C   UNL A   1      38.586  30.100  29.213  1.00  0.00     0.016 A 
ATOM     35  C   UNL A   1      39.499  29.883  31.438  1.00  0.00     0.016 A 
ATOM     36  C   UNL A   1      39.873  30.056  28.661  1.00  0.00     0.010 A 
ATOM     37  C   UNL A   1      40.789  29.812  30.882  1.00  0.00     0.010 A 
ATOM     38  C   UNL A   1      40.987  29.867  29.487  1.00  0.00    -0.014 A 
BRANCH  38  39
ATOM     39  C   UNL A   1      42.319  29.536  28.897  1.00  0.00     0.031 A 
ATOM     40  C   UNL A   1      42.572  28.120  28.437  1.00  0.00     0.074 A 
ATOM     41  C   UNL A   1      43.291  30.456  28.726  1.00  0.00     0.049 A 
ATOM     42  N   UNL A   1      43.676  27.563  28.010  1.00  0.00    -0.248 NA
ATOM     43  C   UNL A   1      41.414  27.211  28.464  1.00  0.00     0.031 C 
ATOM     44  C   UNL A   1      43.177  31.881  29.030  1.00  0.00     0.029 A 
ATOM     45  N   UNL A   1      44.580  30.318  28.258  1.00  0.00    -0.354 N 
ATOM     46  C   UNL A   1      43.356  26.236  27.741  1.00  0.00     0.074 A 
ATOM     47  C   UNL A   1      41.956  26.069  28.070  1.00  0.00     0.031 C 
ATOM     48  C   UNL A   1      44.350  32.481  28.760  1.00  0.00     0.029 A 
ATOM     49  C   UNL A   1      45.317  31.480  28.307  1.00  0.00     0.049 A 
ATOM     50  H   UNL A   1      44.940  29.467  27.919  1.00  0.00     0.167 HD
ATOM     51  C   UNL A   1      44.148  25.247  27.263  1.00  0.00     0.037 A 
ATOM     52  C   UNL A   1      46.625  31.707  28.054  1.00  0.00     0.037 A 
ATOM     53  C   UNL A   1      45.537  25.409  26.916  1.00  0.00     0.049 A 
ATOM     54  C   UNL A   1      47.516  30.568  27.612  1.00  0.00     0.074 A 
ATOM     55  C   UNL A   1      46.414  24.458  26.423  1.00  0.00     0.029 A 
ATOM     56  N   UNL A   1      46.253  26.591  27.026  1.00  0.00    -0.354 N 
ATOM     57  N   UNL A   1      47.205  29.314  27.384  1.00  0.00    -0.248 NA
ATOM     58  C   UNL A   1      48.940  30.875  27.397  1.00  0.00     0.031 C 
ATOM     59  C   UNL A   1      47.674  25.049  26.289  1.00  0.00     0.029 A 
ATOM     60  C   UNL A   1      47.566  26.386  26.634  1.00  0.00     0.049 A 
ATOM     61  H   UNL A   1      45.884  27.449  27.336  1.00  0.00     0.167 HD
ATOM     62  C   UNL A   1      48.384  28.696  26.966  1.00  0.00     0.074 A 
ATOM     63  C   UNL A   1      49.412  29.714  26.965  1.00  0.00     0.031 C 
ATOM     64  C   UNL A   1      48.589  27.403  26.612  1.00  0.00     0.037 A 
BRANCH  51  65
ATOM     65  C   UNL A   1      43.544  23.875  27.123  1.00  0.00     0.058 A 
ATOM     66  C   UNL A   1      43.355  23.027  28.225  1.00  0.00     0.135 A 
ATOM     67  C   UNL A   1      43.108  23.422  25.867  1.00  0.00     0.135 A 
ATOM     68  F   UNL A   1      43.769  23.401  29.447  1.00  0.00    -0.206 F 
ATOM     69  C   UNL A   1      42.778  21.769  28.082  1.00  0.00     0.059 A 
ATOM     70  C   UNL A   1      42.501  22.181  25.705  1.00  0.00     0.059 A 
ATOM     71  F   UNL A   1      43.265  24.193  24.779  1.00  0.00    -0.206 F 
ATOM     72  C   UNL A   1      42.353  21.356  26.818  1.00  0.00     0.060 A 
BRANCH  72  73
ATOM     73  S   UNL A   1      41.604  19.721  26.651  1.00  0.00     0.124 S 
ATOM     74  O   UNL A   1      40.189  20.030  26.829  1.00  0.00    -0.237 OA
ATOM     75  O   UNL A   1      42.003  19.333  25.302  1.00  0.00    -0.237 OA
ATOM     76  O   UNL A   1      42.217  18.953  27.730  1.00  0.00    -0.744 OA
ENDBRANCH  72  73
ENDBRANCH  51  65
BRANCH  52  77
ATOM     77  C   UNL A   1      47.204  33.070  28.248  1.00  0.00     0.058 A 
ATOM     78  C   UNL A   1      47.246  34.004  27.202  1.00  0.00     0.135 A 
ATOM     79  C   UNL A   1      47.766  33.449  29.479  1.00  0.00     0.135 A 
ATOM     80  F   UNL A   1      46.748  33.685  25.998  1.00  0.00    -0.206 F 
ATOM     81  C   UNL A   1      47.836  35.255  27.360  1.00  0.00     0.059 A 
ATOM     82  C   UNL A   1      48.333  34.706  29.671  1.00  0.00     0.059 A 
ATOM     83  F   UNL A   1      47.759  32.595  30.513  1.00  0.00    -0.206 F 
ATOM     84  C   UNL A   1      48.375  35.598  28.601  1.00  0.00     0.060 A 
BRANCH  84  85
ATOM     85  S   UNL A   1      49.108  37.237  28.807  1.00  0.00     0.124 S 
ATOM     86  O   UNL A   1      48.208  37.843  29.781  1.00  0.00    -0.237 OA
ATOM     87  O   UNL A   1      50.447  36.914  29.291  1.00  0.00    -0.237 OA
ATOM     88  O   UNL A   1      49.053  37.802  27.462  1.00  0.00    -0.744 OA
ENDBRANCH  84  85
ENDBRANCH  52  77
BRANCH  64  89
ATOM     89  C   UNL A   1      49.963  27.007  26.133  1.00  0.00     0.058 A 
ATOM     90  C   UNL A   1      50.323  27.051  24.777  1.00  0.00     0.135 A 
ATOM     91  C   UNL A   1      50.958  26.644  27.058  1.00  0.00     0.135 A 
ATOM     92  F   UNL A   1      49.416  27.388  23.848  1.00  0.00    -0.206 F 
ATOM     93  C   UNL A   1      51.612  26.729  24.353  1.00  0.00     0.059 A 
ATOM     94  C   UNL A   1      52.259  26.348  26.661  1.00  0.00     0.059 A 
ATOM     95  F   UNL A   1      50.676  26.596  28.370  1.00  0.00    -0.206 F 
ATOM     96  C   UNL A   1      52.574  26.383  25.304  1.00  0.00     0.060 A 
BRANCH  96  97
ATOM     97  S   UNL A   1      54.250  26.008  24.745  1.00  0.00     0.124 S 
ATOM     98  O   UNL A   1      54.361  24.590  25.071  1.00  0.00    -0.237 OA
ATOM     99  O   UNL A   1      54.184  26.328  23.322  1.00  0.00    -0.237 OA
ATOM    100  O   UNL A   1      55.085  26.902  25.543  1.00  0.00    -0.744 OA
ENDBRANCH  96  97
ENDBRANCH  64  89
ENDBRANCH  38  39
ENDBRANCH  31  33
ENDBRANCH  30  31
ENDBRANCH  29  30
ENDBRANCH  28  29
ENDBRANCH  27  28
ENDBRANCH  26  27
ENDBRANCH   1  26
TORSDOF 24
ENDMDL
MODEL 2
REMARK VINA RESULT:     -10.3      6.109      8.695
REMARK SMILES Cc1cc(NC(=O)CC2(CC(=O)OCCOCCOCCOC(=O)c3ccc(-c4c5nc(c(-c6c(F)cc(S(=O)(=O)[O-])cc6F)c6ccc([nH]6)c(-c6c(F)cc(S(=O)(=O)[O-])cc6F)c6nc(c(-c7c(F)cc(S(=O)(=O)[O-])cc7F)c7ccc4[nH]7)C=C6)C=C5)cc3)CCCC2)ccn1
REMARK SMILES IDX 17 1 16 2 15 3 14 4 13 5 11 6 12 7 10 8 9 9 91 10 94 11
REMARK SMILES IDX 92 12 93 13 8 14 6 15 5 16 7 18 4 19 1 20 2 21 3 22 97 23
REMARK SMILES IDX 96 24 95 25 18 26 19 27 20 28 21 29 22 30 23 31 24 32 25 33
REMARK SMILES IDX 26 34 90 35 27 36 89 37 28 38 29 39 30 40 83 41 31 42 88 43
REMARK SMILES IDX 82 44 84 45 32 46 87 47 81 48 80 49 33 51 67 52 46 53 66 54
REMARK SMILES IDX 47 55 50 56 65 57 85 58 48 59 49 60 64 62 86 63 51 64 34 65
REMARK SMILES IDX 35 66 44 67 36 68 37 69 43 70 45 71 38 72 39 73 40 74 41 75
REMARK SMILES IDX 42 76 68 77 69 78 78 79 70 80 71 81 77 82 79 83 72 84 73 85
REMARK SMILES IDX 74 86 75 87 76 88 52 89 53 90 62 91 54 92 55 93 61 94 63 95
REMARK SMILES IDX 56 96 57 97 58 98 59 99 60 100
REMARK H PARENT 5 17 84 50 50 61
REMARK Flexibility Score: inf
ROOT
ATOM      1  C   UNL A   1      32.654  29.589  25.907  1.00  0.00     0.188 C 
ENDROOT
BRANCH   1   2
ATOM      2  O   UNL A   1      31.631  29.139  25.036  1.00  0.00    -0.376 OA
BRANCH   2   3
ATOM      3  C   UNL A   1      31.381  27.747  24.976  1.00  0.00     0.202 C 
BRANCH   3   4
ATOM      4  C   UNL A   1      32.329  26.811  25.737  1.00  0.00     0.261 C 
BRANCH   4   5
ATOM      5  O   UNL A   1      31.736  26.004  26.784  1.00  0.00    -0.463 OA
BRANCH   5   6
ATOM      6  C   UNL A   1      31.936  24.668  26.663  1.00  0.00     0.306 C 
ATOM      7  O   UNL A   1      31.273  23.826  27.263  1.00  0.00    -0.252 OA
BRANCH   6   8
ATOM      8  C   UNL A   1      33.131  24.233  25.823  1.00  0.00     0.130 C 
BRANCH   8   9
ATOM      9  C   UNL A   1      33.148  23.143  24.705  1.00  0.00    -0.011 C 
ATOM     10  C   UNL A   1      33.691  23.837  23.430  1.00  0.00     0.008 C 
ATOM     11  C   UNL A   1      31.745  22.727  24.213  1.00  0.00     0.008 C 
ATOM     12  C   UNL A   1      32.504  24.565  22.804  1.00  0.00     0.001 C 
ATOM     13  C   UNL A   1      31.257  23.845  23.302  1.00  0.00     0.001 C 
BRANCH   9  14
ATOM     14  C   UNL A   1      33.965  21.892  25.118  1.00  0.00     0.108 C 
BRANCH  14  15
ATOM     15  C   UNL A   1      33.581  21.102  26.354  1.00  0.00     0.224 C 
ATOM     16  N   UNL A   1      32.979  19.881  26.334  1.00  0.00    -0.326 N 
ATOM     17  H   UNL A   1      32.620  19.608  27.209  1.00  0.00     0.169 HD
ATOM     18  O   UNL A   1      33.816  21.590  27.466  1.00  0.00    -0.275 OA
BRANCH  16  19
ATOM     19  C   UNL A   1      32.765  18.929  25.321  1.00  0.00     0.044 A 
ATOM     20  C   UNL A   1      33.056  15.164  25.249  1.00  0.00     0.067 C 
ATOM     21  C   UNL A   1      32.845  16.581  24.808  1.00  0.00     0.039 A 
ATOM     22  C   UNL A   1      32.757  17.599  25.750  1.00  0.00     0.049 A 
ATOM     23  N   UNL A   1      32.872  16.825  23.478  1.00  0.00    -0.261 NA
ATOM     24  C   UNL A   1      32.764  18.112  23.087  1.00  0.00     0.113 A 
ATOM     25  C   UNL A   1      32.693  19.187  23.961  1.00  0.00     0.046 A 
ENDBRANCH  16  19
ENDBRANCH  14  15
ENDBRANCH   9  14
ENDBRANCH   8   9
ENDBRANCH   6   8
ENDBRANCH   5   6
ENDBRANCH   4   5
ENDBRANCH   3   4
ENDBRANCH   2   3
ENDBRANCH   1   2
BRANCH   1  26
ATOM     26  C   UNL A   1      32.378  30.783  26.831  1.00  0.00     0.188 C 
BRANCH  26  27
ATOM     27  O   UNL A   1      31.290  31.608  26.444  1.00  0.00    -0.376 OA
BRANCH  27  28
ATOM     28  C   UNL A   1      31.590  33.000  26.520  1.00  0.00     0.202 C 
BRANCH  28  29
ATOM     29  C   UNL A   1      32.697  33.219  27.560  1.00  0.00     0.261 C 
BRANCH  29  30
ATOM     30  O   UNL A   1      32.384  34.203  28.572  1.00  0.00    -0.460 OA
BRANCH  30  31
ATOM     31  C   UNL A   1      33.349  35.103  28.877  1.00  0.00     0.338 C 
ATOM     32  O   UNL A   1      33.215  36.320  28.897  1.00  0.00    -0.246 OA
BRANCH  31  33
ATOM     33  C   UNL A   1      34.526  34.395  29.451  1.00  0.00     0.060 A 
ATOM     34  C   UNL A   1      34.320  33.558  30.557  1.00  0.00     0.016 A 
ATOM     35  C   UNL A   1      35.810  34.530  28.924  1.00  0.00     0.016 A 
ATOM     36  C   UNL A   1      35.388  32.880  31.157  1.00  0.00     0.010 A 
ATOM     37  C   UNL A   1      36.887  33.870  29.543  1.00  0.00     0.010 A 
ATOM     38  C   UNL A   1      36.693  33.064  30.683  1.00  0.00    -0.014 A 
BRANCH  38  39
ATOM     39  C   UNL A   1      37.861  32.579  31.478  1.00  0.00     0.031 A 
ATOM     40  C   UNL A   1      38.656  31.408  30.950  1.00  0.00     0.074 A 
ATOM     41  C   UNL A   1      38.256  33.164  32.628  1.00  0.00     0.049 A 
ATOM     42  N   UNL A   1      39.626  30.733  31.511  1.00  0.00    -0.248 NA
ATOM     43  C   UNL A   1      38.303  30.940  29.600  1.00  0.00     0.031 C 
ATOM     44  C   UNL A   1      37.657  34.355  33.226  1.00  0.00     0.029 A 
ATOM     45  N   UNL A   1      39.260  32.820  33.507  1.00  0.00    -0.354 N 
ATOM     46  C   UNL A   1      39.983  29.747  30.598  1.00  0.00     0.074 A 
ATOM     47  C   UNL A   1      39.112  29.902  29.452  1.00  0.00     0.031 C 
ATOM     48  C   UNL A   1      38.291  34.630  34.380  1.00  0.00     0.029 A 
ATOM     49  C   UNL A   1      39.311  33.612  34.631  1.00  0.00     0.049 A 
ATOM     50  H   UNL A   1      39.884  32.076  33.345  1.00  0.00     0.167 HD
ATOM     51  C   UNL A   1      40.946  28.800  30.698  1.00  0.00     0.037 A 
ATOM     52  C   UNL A   1      40.063  33.511  35.749  1.00  0.00     0.037 A 
ATOM     53  C   UNL A   1      41.829  28.649  31.827  1.00  0.00     0.049 A 
ATOM     54  C   UNL A   1      41.068  32.389  35.884  1.00  0.00     0.074 A 
ATOM     55  C   UNL A   1      42.835  27.716  32.010  1.00  0.00     0.029 A 
ATOM     56  N   UNL A   1      41.814  29.445  32.962  1.00  0.00    -0.354 N 
ATOM     57  N   UNL A   1      41.379  31.449  35.022  1.00  0.00    -0.248 NA
ATOM     58  C   UNL A   1      41.821  32.310  37.145  1.00  0.00     0.031 C 
ATOM     59  C   UNL A   1      43.390  27.909  33.279  1.00  0.00     0.029 A 
ATOM     60  C   UNL A   1      42.776  29.007  33.859  1.00  0.00     0.049 A 
ATOM     61  H   UNL A   1      41.210  30.207  33.110  1.00  0.00     0.167 HD
ATOM     62  C   UNL A   1      42.387  30.695  35.623  1.00  0.00     0.074 A 
ATOM     63  C   UNL A   1      42.638  31.290  36.918  1.00  0.00     0.031 C 
ATOM     64  C   UNL A   1      43.043  29.610  35.141  1.00  0.00     0.037 A 
BRANCH  51  65
ATOM     65  C   UNL A   1      41.076  27.813  29.569  1.00  0.00     0.058 A 
ATOM     66  C   UNL A   1      42.159  27.839  28.677  1.00  0.00     0.135 A 
ATOM     67  C   UNL A   1      40.119  26.797  29.406  1.00  0.00     0.135 A 
ATOM     68  F   UNL A   1      43.094  28.797  28.774  1.00  0.00    -0.206 F 
ATOM     69  C   UNL A   1      42.275  26.908  27.648  1.00  0.00     0.059 A 
ATOM     70  C   UNL A   1      40.231  25.838  28.404  1.00  0.00     0.059 A 
ATOM     71  F   UNL A   1      39.062  26.726  30.231  1.00  0.00    -0.206 F 
ATOM     72  C   UNL A   1      41.306  25.911  27.522  1.00  0.00     0.060 A 
BRANCH  72  73
ATOM     73  S   UNL A   1      41.473  24.710  26.184  1.00  0.00     0.124 S 
ATOM     74  O   UNL A   1      40.168  24.060  26.211  1.00  0.00    -0.237 OA
ATOM     75  O   UNL A   1      41.730  25.566  25.029  1.00  0.00    -0.237 OA
ATOM     76  O   UNL A   1      42.596  23.880  26.608  1.00  0.00    -0.744 OA
ENDBRANCH  72  73
ENDBRANCH  51  65
BRANCH  52  77
ATOM     77  C   UNL A   1      39.877  34.478  36.872  1.00  0.00     0.058 A 
ATOM     78  C   UNL A   1      38.993  34.213  37.929  1.00  0.00     0.135 A 
ATOM     79  C   UNL A   1      40.553  35.710  36.886  1.00  0.00     0.135 A 
ATOM     80  F   UNL A   1      38.301  33.064  37.951  1.00  0.00    -0.206 F 
ATOM     81  C   UNL A   1      38.772  35.135  38.948  1.00  0.00     0.059 A 
ATOM     82  C   UNL A   1      40.373  36.635  37.910  1.00  0.00     0.059 A 
ATOM     83  F   UNL A   1      41.406  36.020  35.898  1.00  0.00    -0.206 F 
ATOM     84  C   UNL A   1      39.470  36.344  38.931  1.00  0.00     0.060 A 
BRANCH  84  85
ATOM     85  S   UNL A   1      39.203  37.520  40.277  1.00  0.00     0.124 S 
ATOM     86  O   UNL A   1      40.554  38.016  40.508  1.00  0.00    -0.237 OA
ATOM     87  O   UNL A   1      38.270  38.468  39.673  1.00  0.00    -0.237 OA
ATOM     88  O   UNL A   1      38.644  36.693  41.342  1.00  0.00    -0.744 OA
ENDBRANCH  84  85
ENDBRANCH  52  77
BRANCH  64  89
ATOM     89  C   UNL A   1      44.146  29.016  35.981  1.00  0.00     0.058 A 
ATOM     90  C   UNL A   1      45.452  29.529  35.972  1.00  0.00     0.135 A 
ATOM     91  C   UNL A   1      43.870  27.956  36.863  1.00  0.00     0.135 A 
ATOM     92  F   UNL A   1      45.775  30.539  35.149  1.00  0.00    -0.206 F 
ATOM     93  C   UNL A   1      46.449  29.001  36.790  1.00  0.00     0.059 A 
ATOM     94  C   UNL A   1      44.843  27.433  37.711  1.00  0.00     0.059 A 
ATOM     95  F   UNL A   1      42.636  27.432  36.926  1.00  0.00    -0.206 F 
ATOM     96  C   UNL A   1      46.134  27.956  37.659  1.00  0.00     0.060 A 
BRANCH  96  97
ATOM     97  S   UNL A   1      47.426  27.308  38.743  1.00  0.00     0.124 S 
ATOM     98  O   UNL A   1      46.650  26.857  39.893  1.00  0.00    -0.237 OA
ATOM     99  O   UNL A   1      48.019  26.253  37.925  1.00  0.00    -0.237 OA
ATOM    100  O   UNL A   1      48.285  28.465  38.980  1.00  0.00    -0.744 OA
ENDBRANCH  96  97
ENDBRANCH  64  89
ENDBRANCH  38  39
ENDBRANCH  31  33
ENDBRANCH  30  31
ENDBRANCH  29  30
ENDBRANCH  28  29
ENDBRANCH  27  28
ENDBRANCH  26  27
ENDBRANCH   1  26
TORSDOF 24
ENDMDL
MODEL 3
REMARK VINA RESULT:     -10.3      2.481      8.805
REMARK SMILES Cc1cc(NC(=O)CC2(CC(=O)OCCOCCOCCOC(=O)c3ccc(-c4c5nc(c(-c6c(F)cc(S(=O)(=O)[O-])cc6F)c6ccc([nH]6)c(-c6c(F)cc(S(=O)(=O)[O-])cc6F)c6nc(c(-c7c(F)cc(S(=O)(=O)[O-])cc7F)c7ccc4[nH]7)C=C6)C=C5)cc3)CCCC2)ccn1
REMARK SMILES IDX 17 1 16 2 15 3 14 4 13 5 11 6 12 7 10 8 9 9 91 10 94 11
REMARK SMILES IDX 92 12 93 13 8 14 6 15 5 16 7 18 4 19 1 20 2 21 3 22 97 23
REMARK SMILES IDX 96 24 95 25 18 26 19 27 20 28 21 29 22 30 23 31 24 32 25 33
REMARK SMILES IDX 26 34 90 35 27 36 89 37 28 38 29 39 30 40 83 41 31 42 88 43
REMARK SMILES IDX 82 44 84 45 32 46 87 47 81 48 80 49 33 51 67 52 46 53 66 54
REMARK SMILES IDX 47 55 50 56 65 57 85 58 48 59 49 60 64 62 86 63 51 64 34 65
REMARK SMILES IDX 35 66 44 67 36 68 37 69 43 70 45 71 38 72 39 73 40 74 41 75
REMARK SMILES IDX 42 76 68 77 69 78 78 79 70 80 71 81 77 82 79 83 72 84 73 85
REMARK SMILES IDX 74 86 75 87 76 88 52 89 53 90 62 91 54 92 55 93 61 94 63 95
REMARK SMILES IDX 56 96 57 97 58 98 59 99 60 100
REMARK H PARENT 5 17 84 50 50 61
REMARK Flexibility Score: inf
ROOT
ATOM      1  C   UNL A   1      35.049  20.886  24.829  1.00  0.00     0.188 C 
ENDROOT
BRANCH   1   2
ATOM      2  O   UNL A   1      34.092  21.608  24.074  1.00  0.00    -0.376 OA
BRANCH   2   3
ATOM      3  C   UNL A   1      32.762  21.122  24.056  1.00  0.00     0.202 C 
BRANCH   3   4
ATOM      4  C   UNL A   1      31.769  21.705  25.069  1.00  0.00     0.261 C 
BRANCH   4   5
ATOM      5  O   UNL A   1      32.318  22.123  26.343  1.00  0.00    -0.463 OA
BRANCH   5   6
ATOM      6  C   UNL A   1      32.122  23.429  26.653  1.00  0.00     0.306 C 
ATOM      7  O   UNL A   1      31.208  23.826  27.370  1.00  0.00    -0.252 OA
BRANCH   6   8
ATOM      8  C   UNL A   1      33.031  24.436  25.959  1.00  0.00     0.130 C 
BRANCH   8   9
ATOM      9  C   UNL A   1      32.593  25.665  25.103  1.00  0.00    -0.011 C 
ATOM     10  C   UNL A   1      33.738  26.703  25.214  1.00  0.00     0.008 C 
ATOM     11  C   UNL A   1      31.431  26.474  25.715  1.00  0.00     0.008 C 
ATOM     12  C   UNL A   1      33.512  27.446  26.528  1.00  0.00     0.001 C 
ATOM     13  C   UNL A   1      32.029  27.304  26.843  1.00  0.00     0.001 C 
BRANCH   9  14
ATOM     14  C   UNL A   1      32.262  25.272  23.640  1.00  0.00     0.108 C 
BRANCH  14  15
ATOM     15  C   UNL A   1      32.701  26.159  22.491  1.00  0.00     0.224 C 
ATOM     16  N   UNL A   1      32.144  27.365  22.191  1.00  0.00    -0.326 N 
ATOM     17  H   UNL A   1      32.406  27.707  21.306  1.00  0.00     0.169 HD
ATOM     18  O   UNL A   1      33.621  25.773  21.762  1.00  0.00    -0.275 OA
BRANCH  16  19
ATOM     19  C   UNL A   1      31.271  28.223  22.884  1.00  0.00     0.044 A 
ATOM     20  C   UNL A   1      27.587  28.969  22.508  1.00  0.00     0.067 C 
ATOM     21  C   UNL A   1      29.005  29.021  22.992  1.00  0.00     0.039 A 
ATOM     22  C   UNL A   1      29.915  28.050  22.593  1.00  0.00     0.049 A 
ATOM     23  N   UNL A   1      29.371  30.104  23.715  1.00  0.00    -0.261 NA
ATOM     24  C   UNL A   1      30.667  30.188  24.080  1.00  0.00     0.113 A 
ATOM     25  C   UNL A   1      31.642  29.275  23.707  1.00  0.00     0.046 A 
ENDBRANCH  16  19
ENDBRANCH  14  15
ENDBRANCH   9  14
ENDBRANCH   8   9
ENDBRANCH   6   8
ENDBRANCH   5   6
ENDBRANCH   4   5
ENDBRANCH   3   4
ENDBRANCH   2   3
ENDBRANCH   1   2
BRANCH   1  26
ATOM     26  C   UNL A   1      35.818  21.607  25.945  1.00  0.00     0.188 C 
BRANCH  26  27
ATOM     27  O   UNL A   1      37.064  22.165  25.559  1.00  0.00    -0.376 OA
BRANCH  27  28
ATOM     28  C   UNL A   1      38.045  21.177  25.247  1.00  0.00     0.202 C 
BRANCH  28  29
ATOM     29  C   UNL A   1      39.314  21.454  26.065  1.00  0.00     0.261 C 
BRANCH  29  30
ATOM     30  O   UNL A   1      39.910  20.281  26.665  1.00  0.00    -0.460 OA
BRANCH  30  31
ATOM     31  C   UNL A   1      41.179  19.979  26.302  1.00  0.00     0.338 C 
ATOM     32  O   UNL A   1      41.532  18.978  25.691  1.00  0.00    -0.246 OA
BRANCH  31  33
ATOM     33  C   UNL A   1      42.051  21.168  26.509  1.00  0.00     0.060 A 
ATOM     34  C   UNL A   1      42.355  21.544  27.825  1.00  0.00     0.016 A 
ATOM     35  C   UNL A   1      42.577  21.904  25.448  1.00  0.00     0.016 A 
ATOM     36  C   UNL A   1      43.153  22.664  28.088  1.00  0.00     0.010 A 
ATOM     37  C   UNL A   1      43.356  23.044  25.712  1.00  0.00     0.010 A 
ATOM     38  C   UNL A   1      43.627  23.454  27.034  1.00  0.00    -0.014 A 
BRANCH  38  39
ATOM     39  C   UNL A   1      44.231  24.794  27.304  1.00  0.00     0.031 A 
ATOM     40  C   UNL A   1      43.332  25.903  27.797  1.00  0.00     0.074 A 
ATOM     41  C   UNL A   1      45.548  25.044  27.160  1.00  0.00     0.049 A 
ATOM     42  N   UNL A   1      43.593  27.172  27.983  1.00  0.00    -0.248 NA
ATOM     43  C   UNL A   1      41.949  25.521  28.126  1.00  0.00     0.031 C 
ATOM     44  C   UNL A   1      46.564  24.063  26.782  1.00  0.00     0.029 A 
ATOM     45  N   UNL A   1      46.257  26.216  27.307  1.00  0.00    -0.354 N 
ATOM     46  C   UNL A   1      42.405  27.745  28.425  1.00  0.00     0.074 A 
ATOM     47  C   UNL A   1      41.417  26.687  28.462  1.00  0.00     0.031 C 
ATOM     48  C   UNL A   1      47.759  24.677  26.710  1.00  0.00     0.029 A 
ATOM     49  C   UNL A   1      47.592  26.104  26.989  1.00  0.00     0.049 A 
ATOM     50  H   UNL A   1      45.847  27.057  27.614  1.00  0.00     0.167 HD
ATOM     51  C   UNL A   1      42.154  29.030  28.770  1.00  0.00     0.037 A 
ATOM     52  C   UNL A   1      48.560  27.042  26.896  1.00  0.00     0.037 A 
ATOM     53  C   UNL A   1      43.135  30.086  28.753  1.00  0.00     0.049 A 
ATOM     54  C   UNL A   1      48.238  28.489  27.194  1.00  0.00     0.074 A 
ATOM     55  C   UNL A   1      42.966  31.419  29.089  1.00  0.00     0.029 A 
ATOM     56  N   UNL A   1      44.462  29.936  28.380  1.00  0.00    -0.354 N 
ATOM     57  N   UNL A   1      47.105  29.021  27.588  1.00  0.00    -0.248 NA
ATOM     58  C   UNL A   1      49.326  29.466  27.029  1.00  0.00     0.031 C 
ATOM     59  C   UNL A   1      44.174  32.086  28.864  1.00  0.00     0.029 A 
ATOM     60  C   UNL A   1      45.115  31.156  28.453  1.00  0.00     0.049 A 
ATOM     61  H   UNL A   1      44.878  29.088  28.103  1.00  0.00     0.167 HD
ATOM     62  C   UNL A   1      47.356  30.383  27.752  1.00  0.00     0.074 A 
ATOM     63  C   UNL A   1      48.749  30.594  27.422  1.00  0.00     0.031 C 
ATOM     64  C   UNL A   1      46.508  31.366  28.145  1.00  0.00     0.037 A 
BRANCH  51  65
ATOM     65  C   UNL A   1      40.745  29.387  29.161  1.00  0.00     0.058 A 
ATOM     66  C   UNL A   1      40.368  29.577  30.499  1.00  0.00     0.135 A 
ATOM     67  C   UNL A   1      39.767  29.584  28.172  1.00  0.00     0.135 A 
ATOM     68  F   UNL A   1      41.256  29.385  31.488  1.00  0.00    -0.206 F 
ATOM     69  C   UNL A   1      39.065  29.925  30.844  1.00  0.00     0.059 A 
ATOM     70  C   UNL A   1      38.467  29.962  28.491  1.00  0.00     0.059 A 
ATOM     71  F   UNL A   1      40.074  29.415  26.876  1.00  0.00    -0.206 F 
ATOM     72  C   UNL A   1      38.123  30.116  29.832  1.00  0.00     0.060 A 
BRANCH  72  73
ATOM     73  S   UNL A   1      36.438  30.570  30.297  1.00  0.00     0.124 S 
ATOM     74  O   UNL A   1      36.308  29.918  31.595  1.00  0.00    -0.237 OA
ATOM     75  O   UNL A   1      36.506  32.028  30.325  1.00  0.00    -0.237 OA
ATOM     76  O   UNL A   1      35.624  30.003  29.227  1.00  0.00    -0.744 OA
ENDBRANCH  72  73
ENDBRANCH  51  65
BRANCH  52  77
ATOM     77  C   UNL A   1      49.937  26.663  26.460  1.00  0.00     0.058 A 
ATOM     78  C   UNL A   1      50.926  26.304  27.388  1.00  0.00     0.135 A 
ATOM     79  C   UNL A   1      50.301  26.694  25.103  1.00  0.00     0.135 A 
ATOM     80  F   UNL A   1      50.640  26.284  28.699  1.00  0.00    -0.206 F 
ATOM     81  C   UNL A   1      52.227  26.005  26.993  1.00  0.00     0.059 A 
ATOM     82  C   UNL A   1      51.587  26.369  24.681  1.00  0.00     0.059 A 
ATOM     83  F   UNL A   1      49.398  27.036  24.172  1.00  0.00    -0.206 F 
ATOM     84  C   UNL A   1      52.548  26.038  25.635  1.00  0.00     0.060 A 
BRANCH  84  85
ATOM     85  S   UNL A   1      54.230  25.615  25.129  1.00  0.00     0.124 S 
ATOM     86  O   UNL A   1      55.018  26.187  26.215  1.00  0.00    -0.237 OA
ATOM     87  O   UNL A   1      54.177  24.157  25.080  1.00  0.00    -0.237 OA
ATOM     88  O   UNL A   1      54.369  26.276  23.835  1.00  0.00    -0.744 OA
ENDBRANCH  84  85
ENDBRANCH  52  77
BRANCH  64  89
ATOM     89  C   UNL A   1      47.060  32.761  28.303  1.00  0.00     0.058 A 
ATOM     90  C   UNL A   1      47.726  33.173  29.467  1.00  0.00     0.135 A 
ATOM     91  C   UNL A   1      46.980  33.677  27.240  1.00  0.00     0.135 A 
ATOM     92  F   UNL A   1      47.831  32.343  30.515  1.00  0.00    -0.206 F 
ATOM     93  C   UNL A   1      48.274  34.449  29.580  1.00  0.00     0.059 A 
ATOM     94  C   UNL A   1      47.548  34.947  27.319  1.00  0.00     0.059 A 
ATOM     95  F   UNL A   1      46.367  33.334  26.096  1.00  0.00    -0.206 F 
ATOM     96  C   UNL A   1      48.183  35.328  28.499  1.00  0.00     0.060 A 
BRANCH  96  97
ATOM     97  S   UNL A   1      48.934  36.964  28.645  1.00  0.00     0.124 S 
ATOM     98  O   UNL A   1      49.322  36.989  30.051  1.00  0.00    -0.237 OA
ATOM     99  O   UNL A   1      50.032  36.891  27.685  1.00  0.00    -0.237 OA
ATOM    100  O   UNL A   1      47.849  37.871  28.277  1.00  0.00    -0.744 OA
ENDBRANCH  96  97
ENDBRANCH  64  89
ENDBRANCH  38  39
ENDBRANCH  31  33
ENDBRANCH  30  31
ENDBRANCH  29  30
ENDBRANCH  28  29
ENDBRANCH  27  28
ENDBRANCH  26  27
ENDBRANCH   1  26
TORSDOF 24
ENDMDL
