MODEL 1
REMARK VINA RESULT:     -10.6      0.000      0.000
REMARK SMILES C[C@@](Nc1ccccc1F)(C(=O)OCCOCCOCCOC(=O)c1ccc(-c2c3nc(c(-c4c(F)cc(S(=O)(=O)[O-])cc4F)c4ccc([nH]4)c(-c4c(F)cc(S(=O)(=O)[O-])cc4F)c4nc(c(-c5c(F)cc(S(=O)(=O)[O-])cc5F)c5ccc2[nH]5)C=C4)C=C3)cc1)c1cc(F)cc(F)c1
REMARK SMILES IDX 18 1 17 2 16 3 15 4 14 5 13 6 11 7 12 8 2 9 1 10 3 11 4 13
REMARK SMILES IDX 5 14 9 15 6 16 8 17 10 18 7 19 91 20 92 21 98 22 93 23 96 24
REMARK SMILES IDX 94 25 95 26 97 27 19 28 20 29 21 30 22 31 23 32 24 33 25 34
REMARK SMILES IDX 26 35 90 36 27 37 89 38 28 39 29 40 30 41 83 42 31 43 88 44
REMARK SMILES IDX 82 45 84 46 32 47 87 48 81 49 80 50 33 52 67 53 46 54 66 55
REMARK SMILES IDX 47 56 50 57 65 58 85 59 48 60 49 61 64 63 86 64 51 65 34 66
REMARK SMILES IDX 35 67 44 68 36 69 37 70 43 71 45 72 38 73 39 74 40 75 41 76
REMARK SMILES IDX 42 77 68 78 69 79 78 80 70 81 71 82 77 83 79 84 72 85 73 86
REMARK SMILES IDX 74 87 75 88 76 89 52 90 53 91 62 92 54 93 55 94 61 95 63 96
REMARK SMILES IDX 56 97 57 98 58 99 59 100 60 101
REMARK H PARENT 3 12 84 51 50 62
REMARK Flexibility Score: inf
ROOT
ATOM      1  C   UNL A   1      41.139  20.995  26.328  1.00  0.00     0.188 C 
ENDROOT
BRANCH   1   2
ATOM      2  C   UNL A   1      40.462  21.917  27.351  1.00  0.00     0.188 C 
BRANCH   2   3
ATOM      3  O   UNL A   1      39.493  22.741  26.745  1.00  0.00    -0.376 OA
BRANCH   3   4
ATOM      4  C   UNL A   1      38.488  22.120  25.971  1.00  0.00     0.202 C 
BRANCH   4   5
ATOM      5  C   UNL A   1      37.286  22.894  25.388  1.00  0.00     0.261 C 
BRANCH   5   6
ATOM      6  O   UNL A   1      36.026  22.240  25.168  1.00  0.00    -0.461 OA
BRANCH   6   7
ATOM      7  C   UNL A   1      34.924  22.878  25.660  1.00  0.00     0.336 C 
ATOM      8  O   UNL A   1      34.778  23.064  26.864  1.00  0.00    -0.249 OA
BRANCH   7   9
ATOM      9  C   UNL A   1      33.872  23.285  24.519  1.00  0.00     0.159 C 
ATOM     10  C   UNL A   1      34.422  23.035  23.084  1.00  0.00     0.053 C 
BRANCH   9  11
ATOM     11  N   UNL A   1      32.623  22.457  24.593  1.00  0.00    -0.364 N 
ATOM     12  H   UNL A   1      31.749  22.881  24.753  1.00  0.00     0.162 HD
BRANCH  11  13
ATOM     13  C   UNL A   1      32.724  21.075  24.430  1.00  0.00     0.071 A 
ATOM     14  C   UNL A   1      33.088  20.259  25.505  1.00  0.00     0.029 A 
ATOM     15  C   UNL A   1      32.311  20.450  23.242  1.00  0.00     0.146 A 
ATOM     16  C   UNL A   1      32.983  18.866  25.407  1.00  0.00     0.002 A 
ATOM     17  C   UNL A   1      32.176  19.070  23.145  1.00  0.00     0.041 A 
ATOM     18  F   UNL A   1      31.999  21.191  22.169  1.00  0.00    -0.205 F 
ATOM     19  C   UNL A   1      32.504  18.275  24.237  1.00  0.00     0.003 A 
ENDBRANCH  11  13
ENDBRANCH   9  11
BRANCH   9  20
ATOM     20  C   UNL A   1      33.456  24.761  24.746  1.00  0.00    -0.006 A 
ATOM     21  C   UNL A   1      34.093  25.864  24.150  1.00  0.00     0.046 A 
ATOM     22  C   UNL A   1      32.414  25.050  25.654  1.00  0.00     0.046 A 
ATOM     23  C   UNL A   1      33.723  27.172  24.489  1.00  0.00     0.126 A 
ATOM     24  C   UNL A   1      32.078  26.359  25.992  1.00  0.00     0.126 A 
ATOM     25  F   UNL A   1      34.373  28.196  23.916  1.00  0.00    -0.207 F 
ATOM     26  C   UNL A   1      32.732  27.433  25.420  1.00  0.00     0.078 A 
ATOM     27  F   UNL A   1      31.117  26.576  26.898  1.00  0.00    -0.207 F 
ENDBRANCH   9  20
ENDBRANCH   7   9
ENDBRANCH   6   7
ENDBRANCH   5   6
ENDBRANCH   4   5
ENDBRANCH   3   4
ENDBRANCH   2   3
ENDBRANCH   1   2
BRANCH   1  28
ATOM     28  O   UNL A   1      42.246  21.460  25.572  1.00  0.00    -0.376 OA
BRANCH  28  29
ATOM     29  C   UNL A   1      43.003  22.540  26.103  1.00  0.00     0.202 C 
BRANCH  29  30
ATOM     30  C   UNL A   1      43.011  23.919  25.406  1.00  0.00     0.261 C 
BRANCH  30  31
ATOM     31  O   UNL A   1      43.495  25.043  26.167  1.00  0.00    -0.460 OA
BRANCH  31  32
ATOM     32  C   UNL A   1      42.901  26.243  25.930  1.00  0.00     0.338 C 
ATOM     33  O   UNL A   1      42.510  26.662  24.848  1.00  0.00    -0.246 OA
BRANCH  32  34
ATOM     34  C   UNL A   1      42.579  26.903  27.220  1.00  0.00     0.060 A 
ATOM     35  C   UNL A   1      41.612  26.327  28.059  1.00  0.00     0.016 A 
ATOM     36  C   UNL A   1      43.213  28.084  27.605  1.00  0.00     0.016 A 
ATOM     37  C   UNL A   1      41.306  26.902  29.294  1.00  0.00     0.010 A 
ATOM     38  C   UNL A   1      42.870  28.685  28.825  1.00  0.00     0.010 A 
ATOM     39  C   UNL A   1      41.918  28.097  29.680  1.00  0.00    -0.014 A 
BRANCH  39  40
ATOM     40  C   UNL A   1      41.475  28.797  30.914  1.00  0.00     0.031 A 
ATOM     41  C   UNL A   1      40.284  29.710  30.840  1.00  0.00     0.074 A 
ATOM     42  C   UNL A   1      42.113  28.621  32.087  1.00  0.00     0.049 A 
ATOM     43  N   UNL A   1      39.834  30.555  31.729  1.00  0.00    -0.248 NA
ATOM     44  C   UNL A   1      39.488  29.658  29.601  1.00  0.00     0.031 C 
ATOM     45  C   UNL A   1      43.212  27.684  32.321  1.00  0.00     0.029 A 
ATOM     46  N   UNL A   1      41.939  29.242  33.302  1.00  0.00    -0.354 N 
ATOM     47  C   UNL A   1      38.721  31.154  31.151  1.00  0.00     0.074 A 
ATOM     48  C   UNL A   1      38.557  30.573  29.838  1.00  0.00     0.031 C 
ATOM     49  C   UNL A   1      43.638  27.820  33.590  1.00  0.00     0.029 A 
ATOM     50  C   UNL A   1      42.886  28.894  34.239  1.00  0.00     0.049 A 
ATOM     51  H   UNL A   1      41.207  29.874  33.485  1.00  0.00     0.167 HD
ATOM     52  C   UNL A   1      37.917  32.108  31.674  1.00  0.00     0.037 A 
ATOM     53  C   UNL A   1      43.155  29.420  35.454  1.00  0.00     0.037 A 
ATOM     54  C   UNL A   1      38.077  32.668  32.990  1.00  0.00     0.049 A 
ATOM     55  C   UNL A   1      42.315  30.567  35.968  1.00  0.00     0.074 A 
ATOM     56  C   UNL A   1      37.299  33.634  33.606  1.00  0.00     0.029 A 
ATOM     57  N   UNL A   1      39.075  32.324  33.887  1.00  0.00    -0.354 N 
ATOM     58  N   UNL A   1      41.273  31.139  35.411  1.00  0.00    -0.248 NA
ATOM     59  C   UNL A   1      42.692  31.154  37.264  1.00  0.00     0.031 C 
ATOM     60  C   UNL A   1      37.865  33.921  34.849  1.00  0.00     0.029 A 
ATOM     61  C   UNL A   1      38.957  33.087  35.035  1.00  0.00     0.049 A 
ATOM     62  H   UNL A   1      39.765  31.640  33.731  1.00  0.00     0.167 HD
ATOM     63  C   UNL A   1      40.863  32.133  36.296  1.00  0.00     0.074 A 
ATOM     64  C   UNL A   1      41.756  32.080  37.431  1.00  0.00     0.031 C 
ATOM     65  C   UNL A   1      39.839  33.013  36.173  1.00  0.00     0.037 A 
BRANCH  52  66
ATOM     66  C   UNL A   1      36.801  32.652  30.829  1.00  0.00     0.058 A 
ATOM     67  C   UNL A   1      37.027  33.761  29.999  1.00  0.00     0.135 A 
ATOM     68  C   UNL A   1      35.486  32.176  30.948  1.00  0.00     0.135 A 
ATOM     69  F   UNL A   1      38.269  34.247  29.844  1.00  0.00    -0.206 F 
ATOM     70  C   UNL A   1      35.983  34.411  29.353  1.00  0.00     0.059 A 
ATOM     71  C   UNL A   1      34.428  32.797  30.290  1.00  0.00     0.059 A 
ATOM     72  F   UNL A   1      35.222  31.103  31.710  1.00  0.00    -0.206 F 
ATOM     73  C   UNL A   1      34.683  33.929  29.515  1.00  0.00     0.060 A 
BRANCH  73  74
ATOM     74  S   UNL A   1      33.335  34.812  28.702  1.00  0.00     0.124 S 
ATOM     75  O   UNL A   1      32.764  33.775  27.851  1.00  0.00    -0.237 OA
ATOM     76  O   UNL A   1      32.517  35.228  29.837  1.00  0.00    -0.237 OA
ATOM     77  O   UNL A   1      34.016  35.897  28.001  1.00  0.00    -0.744 OA
ENDBRANCH  73  74
ENDBRANCH  52  66
BRANCH  53  78
ATOM     78  C   UNL A   1      44.320  28.927  36.244  1.00  0.00     0.058 A 
ATOM     79  C   UNL A   1      44.196  27.824  37.107  1.00  0.00     0.135 A 
ATOM     80  C   UNL A   1      45.588  29.519  36.132  1.00  0.00     0.135 A 
ATOM     81  F   UNL A   1      43.011  27.209  37.248  1.00  0.00    -0.206 F 
ATOM     82  C   UNL A   1      45.274  27.342  37.840  1.00  0.00     0.059 A 
ATOM     83  C   UNL A   1      46.691  29.035  36.832  1.00  0.00     0.059 A 
ATOM     84  F   UNL A   1      45.769  30.558  35.301  1.00  0.00    -0.206 F 
ATOM     85  C   UNL A   1      46.520  27.951  37.693  1.00  0.00     0.060 A 
BRANCH  85  86
ATOM     86  S   UNL A   1      47.916  27.278  38.624  1.00  0.00     0.124 S 
ATOM     87  O   UNL A   1      49.052  27.831  37.894  1.00  0.00    -0.237 OA
ATOM     88  O   UNL A   1      47.689  27.832  39.955  1.00  0.00    -0.237 OA
ATOM     89  O   UNL A   1      47.735  25.835  38.510  1.00  0.00    -0.744 OA
ENDBRANCH  85  86
ENDBRANCH  53  78
BRANCH  65  90
ATOM     90  C   UNL A   1      39.588  33.990  37.291  1.00  0.00     0.058 A 
ATOM     91  C   UNL A   1      40.219  35.246  37.291  1.00  0.00     0.135 A 
ATOM     92  C   UNL A   1      38.852  33.628  38.429  1.00  0.00     0.135 A 
ATOM     93  F   UNL A   1      40.942  35.640  36.231  1.00  0.00    -0.206 F 
ATOM     94  C   UNL A   1      40.164  36.089  38.397  1.00  0.00     0.059 A 
ATOM     95  C   UNL A   1      38.760  34.468  39.537  1.00  0.00     0.059 A 
ATOM     96  F   UNL A   1      38.222  32.443  38.476  1.00  0.00    -0.206 F 
ATOM     97  C   UNL A   1      39.441  35.684  39.520  1.00  0.00     0.060 A 
BRANCH  97  98
ATOM     98  S   UNL A   1      39.422  36.770  40.963  1.00  0.00     0.124 S 
ATOM     99  O   UNL A   1      40.839  36.837  41.309  1.00  0.00    -0.237 OA
ATOM    100  O   UNL A   1      38.844  37.994  40.418  1.00  0.00    -0.237 OA
ATOM    101  O   UNL A   1      38.579  36.055  41.916  1.00  0.00    -0.744 OA
ENDBRANCH  97  98
ENDBRANCH  65  90
ENDBRANCH  39  40
ENDBRANCH  32  34
ENDBRANCH  31  32
ENDBRANCH  30  31
ENDBRANCH  29  30
ENDBRANCH  28  29
ENDBRANCH   1  28
TORSDOF 23
ENDMDL
MODEL 2
REMARK VINA RESULT:     -10.3      1.548      8.591
REMARK SMILES C[C@@](Nc1ccccc1F)(C(=O)OCCOCCOCCOC(=O)c1ccc(-c2c3nc(c(-c4c(F)cc(S(=O)(=O)[O-])cc4F)c4ccc([nH]4)c(-c4c(F)cc(S(=O)(=O)[O-])cc4F)c4nc(c(-c5c(F)cc(S(=O)(=O)[O-])cc5F)c5ccc2[nH]5)C=C4)C=C3)cc1)c1cc(F)cc(F)c1
REMARK SMILES IDX 18 1 17 2 16 3 15 4 14 5 13 6 11 7 12 8 2 9 1 10 3 11 4 13
REMARK SMILES IDX 5 14 9 15 6 16 8 17 10 18 7 19 91 20 92 21 98 22 93 23 96 24
REMARK SMILES IDX 94 25 95 26 97 27 19 28 20 29 21 30 22 31 23 32 24 33 25 34
REMARK SMILES IDX 26 35 90 36 27 37 89 38 28 39 29 40 30 41 83 42 31 43 88 44
REMARK SMILES IDX 82 45 84 46 32 47 87 48 81 49 80 50 33 52 67 53 46 54 66 55
REMARK SMILES IDX 47 56 50 57 65 58 85 59 48 60 49 61 64 63 86 64 51 65 34 66
REMARK SMILES IDX 35 67 44 68 36 69 37 70 43 71 45 72 38 73 39 74 40 75 41 76
REMARK SMILES IDX 42 77 68 78 69 79 78 80 70 81 71 82 77 83 79 84 72 85 73 86
REMARK SMILES IDX 74 87 75 88 76 89 52 90 53 91 62 92 54 93 55 94 61 95 63 96
REMARK SMILES IDX 56 97 57 98 58 99 59 100 60 101
REMARK H PARENT 3 12 84 51 50 62
REMARK Flexibility Score: inf
ROOT
ATOM      1  C   UNL A   1      35.890  21.612  25.648  1.00  0.00     0.188 C 
ENDROOT
BRANCH   1   2
ATOM      2  C   UNL A   1      35.699  20.240  24.989  1.00  0.00     0.188 C 
BRANCH   2   3
ATOM      3  O   UNL A   1      34.334  19.929  24.827  1.00  0.00    -0.376 OA
BRANCH   3   4
ATOM      4  C   UNL A   1      33.483  20.935  24.319  1.00  0.00     0.202 C 
BRANCH   4   5
ATOM      5  C   UNL A   1      32.246  21.448  25.089  1.00  0.00     0.261 C 
BRANCH   5   6
ATOM      6  O   UNL A   1      31.806  22.809  24.953  1.00  0.00    -0.461 OA
BRANCH   6   7
ATOM      7  C   UNL A   1      32.583  23.754  25.557  1.00  0.00     0.336 C 
ATOM      8  O   UNL A   1      33.086  23.559  26.659  1.00  0.00    -0.249 OA
BRANCH   7   9
ATOM      9  C   UNL A   1      32.701  25.108  24.705  1.00  0.00     0.159 C 
ATOM     10  C   UNL A   1      33.911  25.093  23.726  1.00  0.00     0.053 C 
BRANCH   9  11
ATOM     11  N   UNL A   1      31.506  25.318  23.823  1.00  0.00    -0.364 N 
ATOM     12  H   UNL A   1      31.009  24.550  23.460  1.00  0.00     0.162 HD
BRANCH  11  13
ATOM     13  C   UNL A   1      31.111  26.624  23.527  1.00  0.00     0.071 A 
ATOM     14  C   UNL A   1      31.975  27.489  22.851  1.00  0.00     0.029 A 
ATOM     15  C   UNL A   1      29.793  27.054  23.751  1.00  0.00     0.146 A 
ATOM     16  C   UNL A   1      31.512  28.719  22.365  1.00  0.00     0.002 A 
ATOM     17  C   UNL A   1      29.317  28.258  23.247  1.00  0.00     0.041 A 
ATOM     18  F   UNL A   1      28.943  26.277  24.437  1.00  0.00    -0.205 F 
ATOM     19  C   UNL A   1      30.179  29.091  22.542  1.00  0.00     0.003 A 
ENDBRANCH  11  13
ENDBRANCH   9  11
BRANCH   9  20
ATOM     20  C   UNL A   1      32.754  26.302  25.694  1.00  0.00    -0.006 A 
ATOM     21  C   UNL A   1      31.690  26.687  26.528  1.00  0.00     0.046 A 
ATOM     22  C   UNL A   1      33.910  27.111  25.733  1.00  0.00     0.046 A 
ATOM     23  C   UNL A   1      31.780  27.842  27.317  1.00  0.00     0.126 A 
ATOM     24  C   UNL A   1      33.970  28.267  26.509  1.00  0.00     0.126 A 
ATOM     25  F   UNL A   1      30.734  28.187  28.080  1.00  0.00    -0.207 F 
ATOM     26  C   UNL A   1      32.906  28.649  27.301  1.00  0.00     0.078 A 
ATOM     27  F   UNL A   1      35.072  29.026  26.469  1.00  0.00    -0.207 F 
ENDBRANCH   9  20
ENDBRANCH   7   9
ENDBRANCH   6   7
ENDBRANCH   5   6
ENDBRANCH   4   5
ENDBRANCH   3   4
ENDBRANCH   2   3
ENDBRANCH   1   2
BRANCH   1  28
ATOM     28  O   UNL A   1      37.132  22.291  25.534  1.00  0.00    -0.376 OA
BRANCH  28  29
ATOM     29  C   UNL A   1      38.319  21.512  25.600  1.00  0.00     0.202 C 
BRANCH  29  30
ATOM     30  C   UNL A   1      39.556  22.020  26.376  1.00  0.00     0.261 C 
BRANCH  30  31
ATOM     31  O   UNL A   1      39.767  23.444  26.426  1.00  0.00    -0.460 OA
BRANCH  31  32
ATOM     32  C   UNL A   1      41.028  23.865  26.707  1.00  0.00     0.338 C 
ATOM     33  O   UNL A   1      42.063  23.473  26.183  1.00  0.00    -0.246 OA
BRANCH  32  34
ATOM     34  C   UNL A   1      40.971  25.050  27.599  1.00  0.00     0.060 A 
ATOM     35  C   UNL A   1      42.137  25.804  27.810  1.00  0.00     0.016 A 
ATOM     36  C   UNL A   1      39.786  25.420  28.234  1.00  0.00     0.016 A 
ATOM     37  C   UNL A   1      42.114  26.943  28.616  1.00  0.00     0.010 A 
ATOM     38  C   UNL A   1      39.777  26.539  29.081  1.00  0.00     0.010 A 
ATOM     39  C   UNL A   1      40.938  27.310  29.275  1.00  0.00    -0.014 A 
BRANCH  39  40
ATOM     40  C   UNL A   1      40.952  28.421  30.261  1.00  0.00     0.031 A 
ATOM     41  C   UNL A   1      41.945  28.377  31.388  1.00  0.00     0.074 A 
ATOM     42  C   UNL A   1      40.102  29.461  30.157  1.00  0.00     0.049 A 
ATOM     43  N   UNL A   1      42.019  29.129  32.454  1.00  0.00    -0.248 NA
ATOM     44  C   UNL A   1      43.002  27.355  31.296  1.00  0.00     0.031 C 
ATOM     45  C   UNL A   1      39.164  29.681  29.056  1.00  0.00     0.029 A 
ATOM     46  N   UNL A   1      39.877  30.521  31.004  1.00  0.00    -0.354 N 
ATOM     47  C   UNL A   1      43.110  28.657  33.173  1.00  0.00     0.074 A 
ATOM     48  C   UNL A   1      43.675  27.559  32.421  1.00  0.00     0.031 C 
ATOM     49  C   UNL A   1      38.439  30.785  29.315  1.00  0.00     0.029 A 
ATOM     50  C   UNL A   1      38.816  31.314  30.625  1.00  0.00     0.049 A 
ATOM     51  H   UNL A   1      40.421  30.697  31.805  1.00  0.00     0.167 HD
ATOM     52  C   UNL A   1      43.588  29.101  34.358  1.00  0.00     0.037 A 
ATOM     53  C   UNL A   1      38.184  32.310  31.284  1.00  0.00     0.037 A 
ATOM     54  C   UNL A   1      43.031  30.207  35.091  1.00  0.00     0.049 A 
ATOM     55  C   UNL A   1      38.664  32.710  32.661  1.00  0.00     0.074 A 
ATOM     56  C   UNL A   1      43.460  30.733  36.299  1.00  0.00     0.029 A 
ATOM     57  N   UNL A   1      41.931  30.951  34.698  1.00  0.00    -0.354 N 
ATOM     58  N   UNL A   1      39.687  32.250  33.342  1.00  0.00    -0.248 NA
ATOM     59  C   UNL A   1      37.899  33.750  33.368  1.00  0.00     0.031 C 
ATOM     60  C   UNL A   1      42.580  31.751  36.666  1.00  0.00     0.029 A 
ATOM     61  C   UNL A   1      41.642  31.905  35.658  1.00  0.00     0.049 A 
ATOM     62  H   UNL A   1      41.429  30.820  33.861  1.00  0.00     0.167 HD
ATOM     63  C   UNL A   1      39.698  32.958  34.542  1.00  0.00     0.074 A 
ATOM     64  C   UNL A   1      38.590  33.885  34.493  1.00  0.00     0.031 C 
ATOM     65  C   UNL A   1      40.548  32.842  35.592  1.00  0.00     0.037 A 
BRANCH  52  66
ATOM     66  C   UNL A   1      44.754  28.386  34.979  1.00  0.00     0.058 A 
ATOM     67  C   UNL A   1      44.539  27.462  36.013  1.00  0.00     0.135 A 
ATOM     68  C   UNL A   1      46.079  28.718  34.658  1.00  0.00     0.135 A 
ATOM     69  F   UNL A   1      43.290  27.104  36.350  1.00  0.00    -0.206 F 
ATOM     70  C   UNL A   1      45.594  26.926  36.741  1.00  0.00     0.059 A 
ATOM     71  C   UNL A   1      47.153  28.174  35.358  1.00  0.00     0.059 A 
ATOM     72  F   UNL A   1      46.337  29.578  33.660  1.00  0.00    -0.206 F 
ATOM     73  C   UNL A   1      46.899  27.299  36.414  1.00  0.00     0.060 A 
BRANCH  73  74
ATOM     74  S   UNL A   1      48.253  26.626  37.399  1.00  0.00     0.124 S 
ATOM     75  O   UNL A   1      47.540  25.811  38.377  1.00  0.00    -0.237 OA
ATOM     76  O   UNL A   1      49.021  25.892  36.398  1.00  0.00    -0.237 OA
ATOM     77  O   UNL A   1      48.909  27.816  37.931  1.00  0.00    -0.744 OA
ENDBRANCH  73  74
ENDBRANCH  52  66
BRANCH  53  78
ATOM     78  C   UNL A   1      36.975  32.952  30.692  1.00  0.00     0.058 A 
ATOM     79  C   UNL A   1      35.683  32.554  31.072  1.00  0.00     0.135 A 
ATOM     80  C   UNL A   1      37.081  33.998  29.761  1.00  0.00     0.135 A 
ATOM     81  F   UNL A   1      35.518  31.566  31.966  1.00  0.00    -0.206 F 
ATOM     82  C   UNL A   1      34.545  33.150  30.541  1.00  0.00     0.059 A 
ATOM     83  C   UNL A   1      35.956  34.633  29.238  1.00  0.00     0.059 A 
ATOM     84  F   UNL A   1      38.292  34.437  29.383  1.00  0.00    -0.206 F 
ATOM     85  C   UNL A   1      34.691  34.194  29.627  1.00  0.00     0.060 A 
BRANCH  85  86
ATOM     86  S   UNL A   1      33.197  34.982  28.984  1.00  0.00     0.124 S 
ATOM     87  O   UNL A   1      33.750  36.143  28.294  1.00  0.00    -0.237 OA
ATOM     88  O   UNL A   1      32.647  33.938  28.126  1.00  0.00    -0.237 OA
ATOM     89  O   UNL A   1      32.424  35.274  30.187  1.00  0.00    -0.744 OA
ENDBRANCH  85  86
ENDBRANCH  53  78
BRANCH  65  90
ATOM     90  C   UNL A   1      40.355  33.745  36.781  1.00  0.00     0.058 A 
ATOM     91  C   UNL A   1      39.396  33.435  37.760  1.00  0.00     0.135 A 
ATOM     92  C   UNL A   1      41.005  34.985  36.871  1.00  0.00     0.135 A 
ATOM     93  F   UNL A   1      38.739  32.265  37.716  1.00  0.00    -0.206 F 
ATOM     94  C   UNL A   1      39.057  34.340  38.760  1.00  0.00     0.059 A 
ATOM     95  C   UNL A   1      40.702  35.896  37.881  1.00  0.00     0.059 A 
ATOM     96  F   UNL A   1      41.937  35.326  35.967  1.00  0.00    -0.206 F 
ATOM     97  C   UNL A   1      39.708  35.573  38.805  1.00  0.00     0.060 A 
BRANCH  97  98
ATOM     98  S   UNL A   1      39.221  36.754  40.082  1.00  0.00     0.124 S 
ATOM     99  O   UNL A   1      40.474  36.950  40.806  1.00  0.00    -0.237 OA
ATOM    100  O   UNL A   1      38.764  37.891  39.289  1.00  0.00    -0.237 OA
ATOM    101  O   UNL A   1      38.176  36.049  40.817  1.00  0.00    -0.744 OA
ENDBRANCH  97  98
ENDBRANCH  65  90
ENDBRANCH  39  40
ENDBRANCH  32  34
ENDBRANCH  31  32
ENDBRANCH  30  31
ENDBRANCH  29  30
ENDBRANCH  28  29
ENDBRANCH   1  28
TORSDOF 23
ENDMDL
MODEL 3
REMARK VINA RESULT:     -10.2      2.302      8.743
REMARK SMILES C[C@@](Nc1ccccc1F)(C(=O)OCCOCCOCCOC(=O)c1ccc(-c2c3nc(c(-c4c(F)cc(S(=O)(=O)[O-])cc4F)c4ccc([nH]4)c(-c4c(F)cc(S(=O)(=O)[O-])cc4F)c4nc(c(-c5c(F)cc(S(=O)(=O)[O-])cc5F)c5ccc2[nH]5)C=C4)C=C3)cc1)c1cc(F)cc(F)c1
REMARK SMILES IDX 18 1 17 2 16 3 15 4 14 5 13 6 11 7 12 8 2 9 1 10 3 11 4 13
REMARK SMILES IDX 5 14 9 15 6 16 8 17 10 18 7 19 91 20 92 21 98 22 93 23 96 24
REMARK SMILES IDX 94 25 95 26 97 27 19 28 20 29 21 30 22 31 23 32 24 33 25 34
REMARK SMILES IDX 26 35 90 36 27 37 89 38 28 39 29 40 30 41 83 42 31 43 88 44
REMARK SMILES IDX 82 45 84 46 32 47 87 48 81 49 80 50 33 52 67 53 46 54 66 55
REMARK SMILES IDX 47 56 50 57 65 58 85 59 48 60 49 61 64 63 86 64 51 65 34 66
REMARK SMILES IDX 35 67 44 68 36 69 37 70 43 71 45 72 38 73 39 74 40 75 41 76
REMARK SMILES IDX 42 77 68 78 69 79 78 80 70 81 71 82 77 83 79 84 72 85 73 86
REMARK SMILES IDX 74 87 75 88 76 89 52 90 53 91 62 92 54 93 55 94 61 95 63 96
REMARK SMILES IDX 56 97 57 98 58 99 59 100 60 101
REMARK H PARENT 3 12 84 51 50 62
REMARK Flexibility Score: inf
ROOT
ATOM      1  C   UNL A   1      32.584  30.052  26.292  1.00  0.00     0.188 C 
ENDROOT
BRANCH   1   2
ATOM      2  C   UNL A   1      31.853  28.750  26.648  1.00  0.00     0.188 C 
BRANCH   2   3
ATOM      3  O   UNL A   1      32.753  27.682  26.827  1.00  0.00    -0.376 OA
BRANCH   3   4
ATOM      4  C   UNL A   1      32.400  26.424  26.290  1.00  0.00     0.202 C 
BRANCH   4   5
ATOM      5  C   UNL A   1      33.450  25.375  25.861  1.00  0.00     0.261 C 
BRANCH   5   6
ATOM      6  O   UNL A   1      33.209  23.972  26.051  1.00  0.00    -0.461 OA
BRANCH   6   7
ATOM      7  C   UNL A   1      33.363  23.181  24.950  1.00  0.00     0.336 C 
ATOM      8  O   UNL A   1      34.452  23.066  24.393  1.00  0.00    -0.249 OA
BRANCH   7   9
ATOM      9  C   UNL A   1      31.994  22.499  24.469  1.00  0.00     0.159 C 
ATOM     10  C   UNL A   1      30.830  22.722  25.479  1.00  0.00     0.053 C 
BRANCH   9  11
ATOM     11  N   UNL A   1      31.497  23.092  23.184  1.00  0.00    -0.364 N 
ATOM     12  H   UNL A   1      30.983  22.547  22.545  1.00  0.00     0.162 HD
BRANCH  11  13
ATOM     13  C   UNL A   1      31.775  24.432  22.912  1.00  0.00     0.071 A 
ATOM     14  C   UNL A   1      32.908  24.784  22.173  1.00  0.00     0.029 A 
ATOM     15  C   UNL A   1      30.855  25.446  23.226  1.00  0.00     0.146 A 
ATOM     16  C   UNL A   1      33.079  26.097  21.716  1.00  0.00     0.002 A 
ATOM     17  C   UNL A   1      31.001  26.744  22.752  1.00  0.00     0.041 A 
ATOM     18  F   UNL A   1      29.779  25.164  23.973  1.00  0.00    -0.205 F 
ATOM     19  C   UNL A   1      32.114  27.069  21.984  1.00  0.00     0.003 A 
ENDBRANCH  11  13
ENDBRANCH   9  11
BRANCH   9  20
ATOM     20  C   UNL A   1      32.267  20.995  24.202  1.00  0.00    -0.006 A 
ATOM     21  C   UNL A   1      32.229  20.397  22.931  1.00  0.00     0.046 A 
ATOM     22  C   UNL A   1      32.508  20.137  25.297  1.00  0.00     0.046 A 
ATOM     23  C   UNL A   1      32.383  19.012  22.787  1.00  0.00     0.126 A 
ATOM     24  C   UNL A   1      32.637  18.759  25.132  1.00  0.00     0.126 A 
ATOM     25  F   UNL A   1      32.316  18.478  21.559  1.00  0.00    -0.207 F 
ATOM     26  C   UNL A   1      32.568  18.181  23.880  1.00  0.00     0.078 A 
ATOM     27  F   UNL A   1      32.812  17.984  26.209  1.00  0.00    -0.207 F 
ENDBRANCH   9  20
ENDBRANCH   7   9
ENDBRANCH   6   7
ENDBRANCH   5   6
ENDBRANCH   4   5
ENDBRANCH   3   4
ENDBRANCH   2   3
ENDBRANCH   1   2
BRANCH   1  28
ATOM     28  O   UNL A   1      33.805  30.382  26.936  1.00  0.00    -0.376 OA
BRANCH  28  29
ATOM     29  C   UNL A   1      33.819  31.528  27.778  1.00  0.00     0.202 C 
BRANCH  29  30
ATOM     30  C   UNL A   1      33.004  32.789  27.412  1.00  0.00     0.261 C 
BRANCH  30  31
ATOM     31  O   UNL A   1      32.548  33.620  28.497  1.00  0.00    -0.460 OA
BRANCH  31  32
ATOM     32  C   UNL A   1      33.322  34.693  28.812  1.00  0.00     0.338 C 
ATOM     33  O   UNL A   1      33.033  35.872  28.654  1.00  0.00    -0.246 OA
BRANCH  32  34
ATOM     34  C   UNL A   1      34.501  34.245  29.594  1.00  0.00     0.060 A 
ATOM     35  C   UNL A   1      35.788  34.461  29.074  1.00  0.00     0.016 A 
ATOM     36  C   UNL A   1      34.352  33.607  30.825  1.00  0.00     0.016 A 
ATOM     37  C   UNL A   1      36.921  34.083  29.796  1.00  0.00     0.010 A 
ATOM     38  C   UNL A   1      35.492  33.186  31.527  1.00  0.00     0.010 A 
ATOM     39  C   UNL A   1      36.783  33.424  31.020  1.00  0.00    -0.014 A 
BRANCH  39  40
ATOM     40  C   UNL A   1      37.979  32.874  31.710  1.00  0.00     0.031 A 
ATOM     41  C   UNL A   1      38.688  31.698  31.100  1.00  0.00     0.074 A 
ATOM     42  C   UNL A   1      38.437  33.413  32.856  1.00  0.00     0.049 A 
ATOM     43  N   UNL A   1      39.627  30.945  31.609  1.00  0.00    -0.248 NA
ATOM     44  C   UNL A   1      38.293  31.325  29.731  1.00  0.00     0.031 C 
ATOM     45  C   UNL A   1      37.909  34.618  33.495  1.00  0.00     0.029 A 
ATOM     46  N   UNL A   1      39.443  33.001  33.699  1.00  0.00    -0.354 N 
ATOM     47  C   UNL A   1      39.918  29.995  30.637  1.00  0.00     0.074 A 
ATOM     48  C   UNL A   1      39.062  30.268  29.504  1.00  0.00     0.031 C 
ATOM     49  C   UNL A   1      38.570  34.825  34.649  1.00  0.00     0.029 A 
ATOM     50  C   UNL A   1      39.524  33.736  34.861  1.00  0.00     0.049 A 
ATOM     51  H   UNL A   1      40.047  32.252  33.493  1.00  0.00     0.167 HD
ATOM     52  C   UNL A   1      40.815  28.984  30.694  1.00  0.00     0.037 A 
ATOM     53  C   UNL A   1      40.238  33.523  35.988  1.00  0.00     0.037 A 
ATOM     54  C   UNL A   1      41.676  28.731  31.820  1.00  0.00     0.049 A 
ATOM     55  C   UNL A   1      41.147  32.318  36.074  1.00  0.00     0.074 A 
ATOM     56  C   UNL A   1      42.625  27.732  31.959  1.00  0.00     0.029 A 
ATOM     57  N   UNL A   1      41.693  29.468  32.992  1.00  0.00    -0.354 N 
ATOM     58  N   UNL A   1      41.406  31.416  35.157  1.00  0.00    -0.248 NA
ATOM     59  C   UNL A   1      41.848  32.089  37.347  1.00  0.00     0.031 C 
ATOM     60  C   UNL A   1      43.169  27.825  33.240  1.00  0.00     0.029 A 
ATOM     61  C   UNL A   1      42.607  28.922  33.876  1.00  0.00     0.049 A 
ATOM     62  H   UNL A   1      41.138  30.260  33.171  1.00  0.00     0.167 HD
ATOM     63  C   UNL A   1      42.311  30.530  35.736  1.00  0.00     0.074 A 
ATOM     64  C   UNL A   1      42.567  31.007  37.076  1.00  0.00     0.031 C 
ATOM     65  C   UNL A   1      42.874  29.417  35.204  1.00  0.00     0.037 A 
BRANCH  52  66
ATOM     66  C   UNL A   1      40.909  28.038  29.533  1.00  0.00     0.058 A 
ATOM     67  C   UNL A   1      40.030  26.947  29.445  1.00  0.00     0.135 A 
ATOM     68  C   UNL A   1      41.949  28.122  28.595  1.00  0.00     0.135 A 
ATOM     69  F   UNL A   1      39.012  26.828  30.312  1.00  0.00    -0.206 F 
ATOM     70  C   UNL A   1      40.206  25.945  28.498  1.00  0.00     0.059 A 
ATOM     71  C   UNL A   1      42.130  27.142  27.622  1.00  0.00     0.059 A 
ATOM     72  F   UNL A   1      42.801  29.158  28.622  1.00  0.00    -0.206 F 
ATOM     73  C   UNL A   1      41.268  26.045  27.598  1.00  0.00     0.060 A 
BRANCH  73  74
ATOM     74  S   UNL A   1      41.505  24.713  26.404  1.00  0.00     0.124 S 
ATOM     75  O   UNL A   1      42.266  23.742  27.182  1.00  0.00    -0.237 OA
ATOM     76  O   UNL A   1      40.130  24.339  26.088  1.00  0.00    -0.237 OA
ATOM     77  O   UNL A   1      42.235  25.359  25.317  1.00  0.00    -0.744 OA
ENDBRANCH  73  74
ENDBRANCH  52  66
BRANCH  53  78
ATOM     78  C   UNL A   1      40.069  34.424  37.165  1.00  0.00     0.058 A 
ATOM     79  C   UNL A   1      40.889  35.551  37.338  1.00  0.00     0.135 A 
ATOM     80  C   UNL A   1      39.066  34.202  38.122  1.00  0.00     0.135 A 
ATOM     81  F   UNL A   1      41.859  35.822  36.450  1.00  0.00    -0.206 F 
ATOM     82  C   UNL A   1      40.737  36.410  38.421  1.00  0.00     0.059 A 
ATOM     83  C   UNL A   1      38.873  35.065  39.199  1.00  0.00     0.059 A 
ATOM     84  F   UNL A   1      38.236  33.155  37.990  1.00  0.00    -0.206 F 
ATOM     85  C   UNL A   1      39.722  36.161  39.345  1.00  0.00     0.060 A 
BRANCH  85  86
ATOM     86  S   UNL A   1      39.517  37.316  40.720  1.00  0.00     0.124 S 
ATOM     87  O   UNL A   1      38.484  38.208  40.204  1.00  0.00    -0.237 OA
ATOM     88  O   UNL A   1      39.104  36.429  41.803  1.00  0.00    -0.237 OA
ATOM     89  O   UNL A   1      40.844  37.906  40.868  1.00  0.00    -0.744 OA
ENDBRANCH  85  86
ENDBRANCH  53  78
BRANCH  65  90
ATOM     90  C   UNL A   1      43.847  28.629  36.039  1.00  0.00     0.058 A 
ATOM     91  C   UNL A   1      43.401  27.552  36.823  1.00  0.00     0.135 A 
ATOM     92  C   UNL A   1      45.183  29.032  36.182  1.00  0.00     0.135 A 
ATOM     93  F   UNL A   1      42.130  27.129  36.731  1.00  0.00    -0.206 F 
ATOM     94  C   UNL A   1      44.232  26.931  37.750  1.00  0.00     0.059 A 
ATOM     95  C   UNL A   1      46.042  28.407  37.085  1.00  0.00     0.059 A 
ATOM     96  F   UNL A   1      45.663  30.050  35.450  1.00  0.00    -0.206 F 
ATOM     97  C   UNL A   1      45.548  27.375  37.881  1.00  0.00     0.060 A 
BRANCH  97  98
ATOM     98  S   UNL A   1      46.598  26.590  39.124  1.00  0.00     0.124 S 
ATOM     99  O   UNL A   1      46.633  25.207  38.659  1.00  0.00    -0.237 OA
ATOM    100  O   UNL A   1      47.845  27.336  38.987  1.00  0.00    -0.237 OA
ATOM    101  O   UNL A   1      45.874  26.813  40.371  1.00  0.00    -0.744 OA
ENDBRANCH  97  98
ENDBRANCH  65  90
ENDBRANCH  39  40
ENDBRANCH  32  34
ENDBRANCH  31  32
ENDBRANCH  30  31
ENDBRANCH  29  30
ENDBRANCH  28  29
ENDBRANCH   1  28
TORSDOF 23
ENDMDL
