MODEL 1
REMARK VINA RESULT:     -11.6      0.000      0.000
REMARK SMILES C[C@H]1CC[C@H]([NH2+]Cc2c(C(=O)OCCOCCOCCOC(=O)c3ccc(-c4c5nc(c(-c6c(F)cc(S(=O)(=O)[O-])cc6F)c6ccc([nH]6)c(-c6c(F)cc(S(=O)(=O)[O-])cc6F)c6nc(c(-c7c(F)cc(S(=O)(=O)[O-])cc7F)c7ccc4[nH]7)C=C6)C=C5)cc3)n(Cc3ccccc3F)c3ccccc23)CC1
REMARK SMILES IDX 16 1 15 2 14 3 13 4 12 5 10 6 11 7 9 8 8 9 104 10 90 11
REMARK SMILES IDX 99 12 103 13 100 14 102 15 101 16 7 17 6 18 5 21 1 22 2 23
REMARK SMILES IDX 3 24 106 25 4 26 105 27 91 28 92 29 93 30 97 31 94 32 96 33
REMARK SMILES IDX 98 34 95 35 17 36 18 37 19 38 20 39 21 40 22 41 23 42 24 43
REMARK SMILES IDX 25 44 89 45 26 46 88 47 27 48 28 49 29 50 82 51 30 52 87 53
REMARK SMILES IDX 81 54 83 55 31 56 86 57 80 58 79 59 32 61 66 62 45 63 65 64
REMARK SMILES IDX 46 65 49 66 64 67 84 68 47 69 48 70 63 72 85 73 50 74 33 75
REMARK SMILES IDX 34 76 43 77 35 78 36 79 42 80 44 81 37 82 38 83 39 84 40 85
REMARK SMILES IDX 41 86 67 87 68 88 77 89 69 90 70 91 76 92 78 93 71 94 72 95
REMARK SMILES IDX 73 96 74 97 75 98 51 99 52 100 61 101 53 102 54 103 60 104
REMARK SMILES IDX 62 105 55 106 56 107 57 108 58 109 59 110
REMARK H PARENT 6 19 6 20 83 60 49 71
REMARK Flexibility Score: inf
ROOT
ATOM      1  C   UNL A   1      35.952  22.182  26.008  1.00  0.00     0.188 C 
ENDROOT
BRANCH   1   2
ATOM      2  O   UNL A   1      34.717  22.865  26.077  1.00  0.00    -0.376 OA
BRANCH   2   3
ATOM      3  C   UNL A   1      34.312  22.987  27.405  1.00  0.00     0.202 C 
BRANCH   3   4
ATOM      4  C   UNL A   1      32.906  22.457  27.571  1.00  0.00     0.261 C 
BRANCH   4   5
ATOM      5  O   UNL A   1      31.684  23.167  27.255  1.00  0.00    -0.459 OA
BRANCH   5   6
ATOM      6  C   UNL A   1      30.947  22.720  26.198  1.00  0.00     0.355 C 
ATOM      7  O   UNL A   1      30.229  21.746  26.282  1.00  0.00    -0.244 OA
BRANCH   6   8
ATOM      8  C   UNL A   1      31.113  23.532  25.004  1.00  0.00     0.137 A 
ATOM      9  C   UNL A   1      30.674  24.848  24.796  1.00  0.00     0.047 A 
ATOM     10  C   UNL A   1      31.114  25.205  23.457  1.00  0.00     0.009 A 
ATOM     11  N   UNL A   1      31.966  23.204  23.922  1.00  0.00    -0.330 N 
ATOM     12  C   UNL A   1      32.072  24.275  23.062  1.00  0.00     0.050 A 
ATOM     13  C   UNL A   1      30.919  26.330  22.622  1.00  0.00     0.011 A 
ATOM     14  C   UNL A   1      32.980  24.544  22.019  1.00  0.00     0.027 A 
ATOM     15  C   UNL A   1      31.739  26.531  21.499  1.00  0.00     0.001 A 
ATOM     16  C   UNL A   1      32.800  25.679  21.242  1.00  0.00     0.002 A 
BRANCH   9  17
ATOM     17  C   UNL A   1      30.016  25.880  25.724  1.00  0.00     0.300 C 
BRANCH  17  18
ATOM     18  N   UNL A   1      30.852  26.600  26.689  1.00  0.00    -0.340 N 
ATOM     19  H   UNL A   1      30.217  27.007  27.377  1.00  0.00     0.346 HD
ATOM     20  H   UNL A   1      31.504  25.882  27.004  1.00  0.00     0.346 HD
BRANCH  18  21
ATOM     21  C   UNL A   1      31.757  27.697  26.246  1.00  0.00     0.182 C 
ATOM     22  C   UNL A   1      35.506  29.886  27.512  1.00  0.00     0.007 C 
ATOM     23  C   UNL A   1      34.294  28.964  27.345  1.00  0.00    -0.014 C 
ATOM     24  C   UNL A   1      34.283  28.280  25.985  1.00  0.00     0.009 C 
ATOM     25  C   UNL A   1      32.975  29.719  27.512  1.00  0.00     0.009 C 
ATOM     26  C   UNL A   1      33.176  27.235  25.909  1.00  0.00     0.065 C 
ATOM     27  C   UNL A   1      31.694  28.896  27.251  1.00  0.00     0.065 C 
ENDBRANCH  18  21
ENDBRANCH  17  18
ENDBRANCH   9  17
BRANCH  11  28
ATOM     28  C   UNL A   1      32.895  22.070  23.879  1.00  0.00     0.161 C 
BRANCH  28  29
ATOM     29  C   UNL A   1      32.440  20.654  23.545  1.00  0.00     0.008 A 
ATOM     30  C   UNL A   1      32.164  20.286  22.207  1.00  0.00     0.008 A 
ATOM     31  C   UNL A   1      32.609  19.620  24.467  1.00  0.00     0.128 A 
ATOM     32  C   UNL A   1      32.088  18.944  21.812  1.00  0.00     0.001 A 
ATOM     33  C   UNL A   1      32.580  18.278  24.070  1.00  0.00     0.039 A 
ATOM     34  F   UNL A   1      32.980  19.904  25.722  1.00  0.00    -0.207 F 
ATOM     35  C   UNL A   1      32.329  17.938  22.740  1.00  0.00     0.003 A 
ENDBRANCH  28  29
ENDBRANCH  11  28
ENDBRANCH   6   8
ENDBRANCH   5   6
ENDBRANCH   4   5
ENDBRANCH   3   4
ENDBRANCH   2   3
ENDBRANCH   1   2
BRANCH   1  36
ATOM     36  C   UNL A   1      37.114  23.108  25.624  1.00  0.00     0.188 C 
BRANCH  36  37
ATOM     37  O   UNL A   1      38.354  22.465  25.358  1.00  0.00    -0.376 OA
BRANCH  37  38
ATOM     38  C   UNL A   1      39.065  22.031  26.511  1.00  0.00     0.202 C 
BRANCH  38  39
ATOM     39  C   UNL A   1      40.395  21.290  26.227  1.00  0.00     0.261 C 
BRANCH  39  40
ATOM     40  O   UNL A   1      41.305  22.025  25.346  1.00  0.00    -0.460 OA
BRANCH  40  41
ATOM     41  C   UNL A   1      42.595  22.228  25.742  1.00  0.00     0.338 C 
ATOM     42  O   UNL A   1      43.528  21.521  25.389  1.00  0.00    -0.246 OA
BRANCH  41  43
ATOM     43  C   UNL A   1      42.806  23.617  26.345  1.00  0.00     0.060 A 
ATOM     44  C   UNL A   1      43.887  24.105  27.106  1.00  0.00     0.016 A 
ATOM     45  C   UNL A   1      41.697  24.446  26.267  1.00  0.00     0.016 A 
ATOM     46  C   UNL A   1      43.792  25.333  27.876  1.00  0.00     0.010 A 
ATOM     47  C   UNL A   1      41.626  25.632  27.021  1.00  0.00     0.010 A 
ATOM     48  C   UNL A   1      42.619  26.101  27.902  1.00  0.00    -0.014 A 
BRANCH  48  49
ATOM     49  C   UNL A   1      42.379  27.462  28.568  1.00  0.00     0.031 A 
ATOM     50  C   UNL A   1      43.430  28.451  28.223  1.00  0.00     0.074 A 
ATOM     51  C   UNL A   1      41.350  28.041  29.282  1.00  0.00     0.049 A 
ATOM     52  N   UNL A   1      44.302  28.889  29.068  1.00  0.00    -0.248 NA
ATOM     53  C   UNL A   1      43.607  28.982  26.866  1.00  0.00     0.031 C 
ATOM     54  C   UNL A   1      40.134  27.418  29.775  1.00  0.00     0.029 A 
ATOM     55  N   UNL A   1      41.076  29.383  29.607  1.00  0.00    -0.354 N 
ATOM     56  C   UNL A   1      44.960  29.915  28.422  1.00  0.00     0.074 A 
ATOM     57  C   UNL A   1      44.643  29.804  27.028  1.00  0.00     0.031 C 
ATOM     58  C   UNL A   1      39.152  28.327  29.989  1.00  0.00     0.029 A 
ATOM     59  C   UNL A   1      39.726  29.657  29.958  1.00  0.00     0.049 A 
ATOM     60  H   UNL A   1      41.769  30.081  29.594  1.00  0.00     0.167 HD
ATOM     61  C   UNL A   1      45.499  30.944  29.121  1.00  0.00     0.037 A 
ATOM     62  C   UNL A   1      39.101  30.787  30.429  1.00  0.00     0.037 A 
ATOM     63  C   UNL A   1      45.483  30.695  30.539  1.00  0.00     0.049 A 
ATOM     64  C   UNL A   1      40.126  31.473  31.231  1.00  0.00     0.074 A 
ATOM     65  C   UNL A   1      46.031  29.732  31.356  1.00  0.00     0.029 A 
ATOM     66  N   UNL A   1      44.465  31.289  31.242  1.00  0.00    -0.354 N 
ATOM     67  N   UNL A   1      40.500  31.054  32.406  1.00  0.00    -0.248 NA
ATOM     68  C   UNL A   1      40.893  32.581  30.684  1.00  0.00     0.031 C 
ATOM     69  C   UNL A   1      45.123  29.574  32.439  1.00  0.00     0.029 A 
ATOM     70  C   UNL A   1      44.085  30.494  32.300  1.00  0.00     0.049 A 
ATOM     71  H   UNL A   1      44.064  32.161  31.021  1.00  0.00     0.167 HD
ATOM     72  C   UNL A   1      41.813  31.437  32.464  1.00  0.00     0.074 A 
ATOM     73  C   UNL A   1      41.903  32.573  31.556  1.00  0.00     0.031 C 
ATOM     74  C   UNL A   1      42.756  30.551  32.897  1.00  0.00     0.037 A 
BRANCH  61  75
ATOM     75  C   UNL A   1      45.709  32.304  28.541  1.00  0.00     0.058 A 
ATOM     76  C   UNL A   1      47.007  32.833  28.483  1.00  0.00     0.135 A 
ATOM     77  C   UNL A   1      44.651  33.189  28.232  1.00  0.00     0.135 A 
ATOM     78  F   UNL A   1      48.065  32.072  28.801  1.00  0.00    -0.206 F 
ATOM     79  C   UNL A   1      47.244  34.162  28.143  1.00  0.00     0.059 A 
ATOM     80  C   UNL A   1      44.867  34.503  27.837  1.00  0.00     0.059 A 
ATOM     81  F   UNL A   1      43.368  32.827  28.381  1.00  0.00    -0.206 F 
ATOM     82  C   UNL A   1      46.167  34.987  27.824  1.00  0.00     0.060 A 
BRANCH  82  83
ATOM     83  S   UNL A   1      46.478  36.719  27.441  1.00  0.00     0.124 S 
ATOM     84  O   UNL A   1      45.504  37.383  28.299  1.00  0.00    -0.237 OA
ATOM     85  O   UNL A   1      47.878  36.868  27.825  1.00  0.00    -0.237 OA
ATOM     86  O   UNL A   1      46.217  36.795  26.006  1.00  0.00    -0.744 OA
ENDBRANCH  82  83
ENDBRANCH  61  75
BRANCH  62  87
ATOM     87  C   UNL A   1      37.685  31.316  30.531  1.00  0.00     0.058 A 
ATOM     88  C   UNL A   1      36.823  30.945  31.594  1.00  0.00     0.135 A 
ATOM     89  C   UNL A   1      37.248  32.422  29.799  1.00  0.00     0.135 A 
ATOM     90  F   UNL A   1      37.063  29.844  32.320  1.00  0.00    -0.206 F 
ATOM     91  C   UNL A   1      35.729  31.722  32.007  1.00  0.00     0.059 A 
ATOM     92  C   UNL A   1      36.170  33.230  30.200  1.00  0.00     0.059 A 
ATOM     93  F   UNL A   1      37.896  32.762  28.685  1.00  0.00    -0.206 F 
ATOM     94  C   UNL A   1      35.450  32.907  31.344  1.00  0.00     0.060 A 
BRANCH  94  95
ATOM     95  S   UNL A   1      34.304  34.107  32.075  1.00  0.00     0.124 S 
ATOM     96  O   UNL A   1      33.528  34.541  30.919  1.00  0.00    -0.237 OA
ATOM     97  O   UNL A   1      33.578  33.307  33.058  1.00  0.00    -0.237 OA
ATOM     98  O   UNL A   1      35.200  35.110  32.646  1.00  0.00    -0.744 OA
ENDBRANCH  94  95
ENDBRANCH  62  87
BRANCH  74  99
ATOM     99  C   UNL A   1      42.345  29.445  33.866  1.00  0.00     0.058 A 
ATOM    100  C   UNL A   1      42.036  28.107  33.542  1.00  0.00     0.135 A 
ATOM    101  C   UNL A   1      42.358  29.747  35.241  1.00  0.00     0.135 A 
ATOM    102  F   UNL A   1      42.035  27.659  32.282  1.00  0.00    -0.206 F 
ATOM    103  C   UNL A   1      41.763  27.143  34.517  1.00  0.00     0.059 A 
ATOM    104  C   UNL A   1      42.163  28.784  36.231  1.00  0.00     0.059 A 
ATOM    105  F   UNL A   1      42.617  31.000  35.652  1.00  0.00    -0.206 F 
ATOM    106  C   UNL A   1      41.877  27.476  35.859  1.00  0.00     0.060 A 
BRANCH 106 107
ATOM    107  S   UNL A   1      41.660  26.201  37.116  1.00  0.00     0.124 S 
ATOM    108  O   UNL A   1      40.361  26.527  37.698  1.00  0.00    -0.237 OA
ATOM    109  O   UNL A   1      41.704  24.980  36.315  1.00  0.00    -0.237 OA
ATOM    110  O   UNL A   1      42.803  26.407  38.002  1.00  0.00    -0.744 OA
ENDBRANCH 106 107
ENDBRANCH  74  99
ENDBRANCH  48  49
ENDBRANCH  41  43
ENDBRANCH  40  41
ENDBRANCH  39  40
ENDBRANCH  38  39
ENDBRANCH  37  38
ENDBRANCH  36  37
ENDBRANCH   1  36
TORSDOF 25
ENDMDL
MODEL 2
REMARK VINA RESULT:     -11.5      1.365      2.226
REMARK SMILES C[C@H]1CC[C@H]([NH2+]Cc2c(C(=O)OCCOCCOCCOC(=O)c3ccc(-c4c5nc(c(-c6c(F)cc(S(=O)(=O)[O-])cc6F)c6ccc([nH]6)c(-c6c(F)cc(S(=O)(=O)[O-])cc6F)c6nc(c(-c7c(F)cc(S(=O)(=O)[O-])cc7F)c7ccc4[nH]7)C=C6)C=C5)cc3)n(Cc3ccccc3F)c3ccccc23)CC1
REMARK SMILES IDX 16 1 15 2 14 3 13 4 12 5 10 6 11 7 9 8 8 9 104 10 90 11
REMARK SMILES IDX 99 12 103 13 100 14 102 15 101 16 7 17 6 18 5 21 1 22 2 23
REMARK SMILES IDX 3 24 106 25 4 26 105 27 91 28 92 29 93 30 97 31 94 32 96 33
REMARK SMILES IDX 98 34 95 35 17 36 18 37 19 38 20 39 21 40 22 41 23 42 24 43
REMARK SMILES IDX 25 44 89 45 26 46 88 47 27 48 28 49 29 50 82 51 30 52 87 53
REMARK SMILES IDX 81 54 83 55 31 56 86 57 80 58 79 59 32 61 66 62 45 63 65 64
REMARK SMILES IDX 46 65 49 66 64 67 84 68 47 69 48 70 63 72 85 73 50 74 33 75
REMARK SMILES IDX 34 76 43 77 35 78 36 79 42 80 44 81 37 82 38 83 39 84 40 85
REMARK SMILES IDX 41 86 67 87 68 88 77 89 69 90 70 91 76 92 78 93 71 94 72 95
REMARK SMILES IDX 73 96 74 97 75 98 51 99 52 100 61 101 53 102 54 103 60 104
REMARK SMILES IDX 62 105 55 106 56 107 57 108 58 109 59 110
REMARK H PARENT 6 19 6 20 83 60 49 71
REMARK Flexibility Score: inf
ROOT
ATOM      1  C   UNL A   1      38.883  22.219  25.914  1.00  0.00     0.188 C 
ENDROOT
BRANCH   1   2
ATOM      2  O   UNL A   1      37.837  21.913  25.014  1.00  0.00    -0.376 OA
BRANCH   2   3
ATOM      3  C   UNL A   1      36.921  22.963  24.972  1.00  0.00     0.202 C 
BRANCH   3   4
ATOM      4  C   UNL A   1      36.258  23.021  23.615  1.00  0.00     0.261 C 
BRANCH   4   5
ATOM      5  O   UNL A   1      35.396  24.080  23.132  1.00  0.00    -0.459 OA
BRANCH   5   6
ATOM      6  C   UNL A   1      34.148  23.735  22.705  1.00  0.00     0.355 C 
ATOM      7  O   UNL A   1      33.963  23.182  21.641  1.00  0.00    -0.244 OA
BRANCH   6   8
ATOM      8  C   UNL A   1      33.104  24.088  23.652  1.00  0.00     0.137 A 
ATOM      9  C   UNL A   1      32.096  25.051  23.496  1.00  0.00     0.047 A 
ATOM     10  C   UNL A   1      31.300  24.991  24.711  1.00  0.00     0.009 A 
ATOM     11  N   UNL A   1      32.784  23.339  24.811  1.00  0.00    -0.330 N 
ATOM     12  C   UNL A   1      31.613  23.803  25.366  1.00  0.00     0.050 A 
ATOM     13  C   UNL A   1      30.216  25.746  25.218  1.00  0.00     0.011 A 
ATOM     14  C   UNL A   1      30.757  23.244  26.334  1.00  0.00     0.027 A 
ATOM     15  C   UNL A   1      29.439  25.249  26.277  1.00  0.00     0.001 A 
ATOM     16  C   UNL A   1      29.669  23.980  26.784  1.00  0.00     0.002 A 
BRANCH   9  17
ATOM     17  C   UNL A   1      31.681  25.934  22.309  1.00  0.00     0.300 C 
BRANCH  17  18
ATOM     18  N   UNL A   1      32.530  27.070  21.939  1.00  0.00    -0.340 N 
ATOM     19  H   UNL A   1      33.443  26.683  21.697  1.00  0.00     0.346 HD
ATOM     20  H   UNL A   1      31.991  27.525  21.203  1.00  0.00     0.346 HD
BRANCH  18  21
ATOM     21  C   UNL A   1      32.781  28.181  22.900  1.00  0.00     0.182 C 
ATOM     22  C   UNL A   1      32.150  29.280  27.240  1.00  0.00     0.007 C 
ATOM     23  C   UNL A   1      32.235  28.625  25.859  1.00  0.00    -0.014 C 
ATOM     24  C   UNL A   1      33.657  28.635  25.312  1.00  0.00     0.009 C 
ATOM     25  C   UNL A   1      31.326  29.315  24.842  1.00  0.00     0.009 C 
ATOM     26  C   UNL A   1      33.752  27.821  24.027  1.00  0.00     0.065 C 
ATOM     27  C   UNL A   1      31.427  28.794  23.391  1.00  0.00     0.065 C 
ENDBRANCH  18  21
ENDBRANCH  17  18
ENDBRANCH   9  17
BRANCH  11  28
ATOM     28  C   UNL A   1      33.366  22.043  25.179  1.00  0.00     0.161 C 
BRANCH  28  29
ATOM     29  C   UNL A   1      32.770  20.719  24.714  1.00  0.00     0.008 A 
ATOM     30  C   UNL A   1      32.421  20.528  23.356  1.00  0.00     0.008 A 
ATOM     31  C   UNL A   1      32.869  19.579  25.512  1.00  0.00     0.128 A 
ATOM     32  C   UNL A   1      32.208  19.250  22.822  1.00  0.00     0.001 A 
ATOM     33  C   UNL A   1      32.703  18.297  24.974  1.00  0.00     0.039 A 
ATOM     34  F   UNL A   1      33.303  19.688  26.773  1.00  0.00    -0.207 F 
ATOM     35  C   UNL A   1      32.381  18.131  23.626  1.00  0.00     0.003 A 
ENDBRANCH  28  29
ENDBRANCH  11  28
ENDBRANCH   6   8
ENDBRANCH   5   6
ENDBRANCH   4   5
ENDBRANCH   3   4
ENDBRANCH   2   3
ENDBRANCH   1   2
BRANCH   1  36
ATOM     36  C   UNL A   1      39.640  20.968  26.381  1.00  0.00     0.188 C 
BRANCH  36  37
ATOM     37  O   UNL A   1      40.714  20.550  25.548  1.00  0.00    -0.376 OA
BRANCH  37  38
ATOM     38  C   UNL A   1      41.864  20.083  26.242  1.00  0.00     0.202 C 
BRANCH  38  39
ATOM     39  C   UNL A   1      42.569  21.133  27.136  1.00  0.00     0.261 C 
BRANCH  39  40
ATOM     40  O   UNL A   1      43.650  21.854  26.461  1.00  0.00    -0.460 OA
BRANCH  40  41
ATOM     41  C   UNL A   1      43.344  22.919  25.664  1.00  0.00     0.338 C 
ATOM     42  O   UNL A   1      43.309  22.860  24.443  1.00  0.00    -0.246 OA
BRANCH  41  43
ATOM     43  C   UNL A   1      42.693  24.061  26.445  1.00  0.00     0.060 A 
ATOM     44  C   UNL A   1      41.416  24.636  26.287  1.00  0.00     0.016 A 
ATOM     45  C   UNL A   1      43.553  24.722  27.309  1.00  0.00     0.016 A 
ATOM     46  C   UNL A   1      41.071  25.915  26.882  1.00  0.00     0.010 A 
ATOM     47  C   UNL A   1      43.198  25.960  27.875  1.00  0.00     0.010 A 
ATOM     48  C   UNL A   1      41.991  26.648  27.646  1.00  0.00    -0.014 A 
BRANCH  48  49
ATOM     49  C   UNL A   1      41.767  27.949  28.427  1.00  0.00     0.031 A 
ATOM     50  C   UNL A   1      42.764  28.993  28.082  1.00  0.00     0.074 A 
ATOM     51  C   UNL A   1      40.778  28.444  29.254  1.00  0.00     0.049 A 
ATOM     52  N   UNL A   1      43.684  29.395  28.893  1.00  0.00    -0.248 NA
ATOM     53  C   UNL A   1      42.827  29.626  26.759  1.00  0.00     0.031 C 
ATOM     54  C   UNL A   1      39.619  27.749  29.785  1.00  0.00     0.029 A 
ATOM     55  N   UNL A   1      40.495  29.749  29.697  1.00  0.00    -0.354 N 
ATOM     56  C   UNL A   1      44.267  30.484  28.280  1.00  0.00     0.074 A 
ATOM     57  C   UNL A   1      43.851  30.464  26.907  1.00  0.00     0.031 C 
ATOM     58  C   UNL A   1      38.632  28.610  30.135  1.00  0.00     0.029 A 
ATOM     59  C   UNL A   1      39.168  29.956  30.162  1.00  0.00     0.049 A 
ATOM     60  H   UNL A   1      41.167  30.468  29.685  1.00  0.00     0.167 HD
ATOM     61  C   UNL A   1      44.829  31.476  29.012  1.00  0.00     0.037 A 
ATOM     62  C   UNL A   1      38.551  31.029  30.760  1.00  0.00     0.037 A 
ATOM     63  C   UNL A   1      44.924  31.125  30.405  1.00  0.00     0.049 A 
ATOM     64  C   UNL A   1      39.614  31.686  31.535  1.00  0.00     0.074 A 
ATOM     65  C   UNL A   1      45.555  30.123  31.108  1.00  0.00     0.029 A 
ATOM     66  N   UNL A   1      43.946  31.636  31.221  1.00  0.00    -0.354 N 
ATOM     67  N   UNL A   1      40.084  31.196  32.646  1.00  0.00    -0.248 NA
ATOM     68  C   UNL A   1      40.311  32.854  31.018  1.00  0.00     0.031 C 
ATOM     69  C   UNL A   1      44.734  29.859  32.238  1.00  0.00     0.029 A 
ATOM     70  C   UNL A   1      43.665  30.754  32.242  1.00  0.00     0.049 A 
ATOM     71  H   UNL A   1      43.508  32.508  31.095  1.00  0.00     0.167 HD
ATOM     72  C   UNL A   1      41.388  31.613  32.638  1.00  0.00     0.074 A 
ATOM     73  C   UNL A   1      41.382  32.814  31.813  1.00  0.00     0.031 C 
ATOM     74  C   UNL A   1      42.382  30.728  32.935  1.00  0.00     0.037 A 
BRANCH  61  75
ATOM     75  C   UNL A   1      44.962  32.881  28.521  1.00  0.00     0.058 A 
ATOM     76  C   UNL A   1      46.239  33.406  28.278  1.00  0.00     0.135 A 
ATOM     77  C   UNL A   1      43.884  33.795  28.482  1.00  0.00     0.135 A 
ATOM     78  F   UNL A   1      47.321  32.614  28.338  1.00  0.00    -0.206 F 
ATOM     79  C   UNL A   1      46.440  34.758  28.015  1.00  0.00     0.059 A 
ATOM     80  C   UNL A   1      44.054  35.136  28.168  1.00  0.00     0.059 A 
ATOM     81  F   UNL A   1      42.641  33.428  28.825  1.00  0.00    -0.206 F 
ATOM     82  C   UNL A   1      45.340  35.614  27.965  1.00  0.00     0.060 A 
BRANCH  82  83
ATOM     83  S   UNL A   1      45.615  37.370  27.680  1.00  0.00     0.124 S 
ATOM     84  O   UNL A   1      44.429  37.726  26.910  1.00  0.00    -0.237 OA
ATOM     85  O   UNL A   1      45.676  37.893  29.041  1.00  0.00    -0.237 OA
ATOM     86  O   UNL A   1      46.878  37.396  26.948  1.00  0.00    -0.744 OA
ENDBRANCH  82  83
ENDBRANCH  61  75
BRANCH  62  87
ATOM     87  C   UNL A   1      37.133  31.505  31.002  1.00  0.00     0.058 A 
ATOM     88  C   UNL A   1      36.559  31.516  32.298  1.00  0.00     0.135 A 
ATOM     89  C   UNL A   1      36.426  32.251  30.056  1.00  0.00     0.135 A 
ATOM     90  F   UNL A   1      37.073  30.766  33.283  1.00  0.00    -0.206 F 
ATOM     91  C   UNL A   1      35.489  32.348  32.661  1.00  0.00     0.059 A 
ATOM     92  C   UNL A   1      35.364  33.109  30.393  1.00  0.00     0.059 A 
ATOM     93  F   UNL A   1      36.786  32.184  28.775  1.00  0.00    -0.206 F 
ATOM     94  C   UNL A   1      34.940  33.198  31.713  1.00  0.00     0.060 A 
BRANCH  94  95
ATOM     95  S   UNL A   1      33.832  34.539  32.230  1.00  0.00     0.124 S 
ATOM     96  O   UNL A   1      33.230  34.950  30.967  1.00  0.00    -0.237 OA
ATOM     97  O   UNL A   1      32.935  33.875  33.172  1.00  0.00    -0.237 OA
ATOM     98  O   UNL A   1      34.748  35.504  32.835  1.00  0.00    -0.744 OA
ENDBRANCH  94  95
ENDBRANCH  62  87
BRANCH  74  99
ATOM     99  C   UNL A   1      42.072  29.542  33.847  1.00  0.00     0.058 A 
ATOM    100  C   UNL A   1      41.854  28.205  33.452  1.00  0.00     0.135 A 
ATOM    101  C   UNL A   1      42.091  29.768  35.236  1.00  0.00     0.135 A 
ATOM    102  F   UNL A   1      41.862  27.829  32.169  1.00  0.00    -0.206 F 
ATOM    103  C   UNL A   1      41.672  27.171  34.375  1.00  0.00     0.059 A 
ATOM    104  C   UNL A   1      41.985  28.739  36.173  1.00  0.00     0.059 A 
ATOM    105  F   UNL A   1      42.265  31.011  35.713  1.00  0.00    -0.206 F 
ATOM    106  C   UNL A   1      41.787  27.437  35.732  1.00  0.00     0.060 A 
BRANCH 106 107
ATOM    107  S   UNL A   1      41.689  26.082  36.917  1.00  0.00     0.124 S 
ATOM    108  O   UNL A   1      41.861  24.897  36.081  1.00  0.00    -0.237 OA
ATOM    109  O   UNL A   1      42.799  26.387  37.816  1.00  0.00    -0.237 OA
ATOM    110  O   UNL A   1      40.357  26.240  37.496  1.00  0.00    -0.744 OA
ENDBRANCH 106 107
ENDBRANCH  74  99
ENDBRANCH  48  49
ENDBRANCH  41  43
ENDBRANCH  40  41
ENDBRANCH  39  40
ENDBRANCH  38  39
ENDBRANCH  37  38
ENDBRANCH  36  37
ENDBRANCH   1  36
TORSDOF 25
ENDMDL
MODEL 3
REMARK VINA RESULT:     -11.3      1.645      4.282
REMARK SMILES C[C@H]1CC[C@H]([NH2+]Cc2c(C(=O)OCCOCCOCCOC(=O)c3ccc(-c4c5nc(c(-c6c(F)cc(S(=O)(=O)[O-])cc6F)c6ccc([nH]6)c(-c6c(F)cc(S(=O)(=O)[O-])cc6F)c6nc(c(-c7c(F)cc(S(=O)(=O)[O-])cc7F)c7ccc4[nH]7)C=C6)C=C5)cc3)n(Cc3ccccc3F)c3ccccc23)CC1
REMARK SMILES IDX 16 1 15 2 14 3 13 4 12 5 10 6 11 7 9 8 8 9 104 10 90 11
REMARK SMILES IDX 99 12 103 13 100 14 102 15 101 16 7 17 6 18 5 21 1 22 2 23
REMARK SMILES IDX 3 24 106 25 4 26 105 27 91 28 92 29 93 30 97 31 94 32 96 33
REMARK SMILES IDX 98 34 95 35 17 36 18 37 19 38 20 39 21 40 22 41 23 42 24 43
REMARK SMILES IDX 25 44 89 45 26 46 88 47 27 48 28 49 29 50 82 51 30 52 87 53
REMARK SMILES IDX 81 54 83 55 31 56 86 57 80 58 79 59 32 61 66 62 45 63 65 64
REMARK SMILES IDX 46 65 49 66 64 67 84 68 47 69 48 70 63 72 85 73 50 74 33 75
REMARK SMILES IDX 34 76 43 77 35 78 36 79 42 80 44 81 37 82 38 83 39 84 40 85
REMARK SMILES IDX 41 86 67 87 68 88 77 89 69 90 70 91 76 92 78 93 71 94 72 95
REMARK SMILES IDX 73 96 74 97 75 98 51 99 52 100 61 101 53 102 54 103 60 104
REMARK SMILES IDX 62 105 55 106 56 107 57 108 58 109 59 110
REMARK H PARENT 6 19 6 20 83 60 49 71
REMARK Flexibility Score: inf
ROOT
ATOM      1  C   UNL A   1      38.774  21.808  26.022  1.00  0.00     0.188 C 
ENDROOT
BRANCH   1   2
ATOM      2  O   UNL A   1      39.246  23.071  26.449  1.00  0.00    -0.376 OA
BRANCH   2   3
ATOM      3  C   UNL A   1      38.189  23.976  26.520  1.00  0.00     0.202 C 
BRANCH   3   4
ATOM      4  C   UNL A   1      37.177  23.681  25.438  1.00  0.00     0.261 C 
BRANCH   4   5
ATOM      5  O   UNL A   1      36.004  24.472  25.128  1.00  0.00    -0.459 OA
BRANCH   5   6
ATOM      6  C   UNL A   1      35.103  23.952  24.247  1.00  0.00     0.355 C 
ATOM      7  O   UNL A   1      35.434  23.557  23.148  1.00  0.00    -0.244 OA
BRANCH   6   8
ATOM      8  C   UNL A   1      33.748  23.919  24.770  1.00  0.00     0.137 A 
ATOM      9  C   UNL A   1      33.281  23.220  25.893  1.00  0.00     0.047 A 
ATOM     10  C   UNL A   1      31.867  23.544  26.000  1.00  0.00     0.009 A 
ATOM     11  N   UNL A   1      32.708  24.790  24.363  1.00  0.00    -0.330 N 
ATOM     12  C   UNL A   1      31.623  24.657  25.200  1.00  0.00     0.050 A 
ATOM     13  C   UNL A   1      30.816  23.104  26.839  1.00  0.00     0.011 A 
ATOM     14  C   UNL A   1      30.483  25.463  25.381  1.00  0.00     0.027 A 
ATOM     15  C   UNL A   1      29.620  23.836  26.921  1.00  0.00     0.001 A 
ATOM     16  C   UNL A   1      29.484  25.039  26.247  1.00  0.00     0.002 A 
BRANCH   9  17
ATOM     17  C   UNL A   1      33.997  22.396  26.973  1.00  0.00     0.300 C 
BRANCH  17  18
ATOM     18  N   UNL A   1      34.706  21.175  26.579  1.00  0.00    -0.340 N 
ATOM     19  H   UNL A   1      35.689  21.431  26.473  1.00  0.00     0.346 HD
ATOM     20  H   UNL A   1      34.459  20.520  27.320  1.00  0.00     0.346 HD
BRANCH  18  21
ATOM     21  C   UNL A   1      34.325  20.435  25.344  1.00  0.00     0.182 C 
ATOM     22  C   UNL A   1      33.406  16.251  23.896  1.00  0.00     0.007 C 
ATOM     23  C   UNL A   1      33.741  17.526  24.676  1.00  0.00    -0.014 C 
ATOM     24  C   UNL A   1      32.682  18.603  24.486  1.00  0.00     0.009 C 
ATOM     25  C   UNL A   1      35.094  18.107  24.265  1.00  0.00     0.009 C 
ATOM     26  C   UNL A   1      32.939  19.789  25.409  1.00  0.00     0.065 C 
ATOM     27  C   UNL A   1      35.470  19.457  24.918  1.00  0.00     0.065 C 
ENDBRANCH  18  21
ENDBRANCH  17  18
ENDBRANCH   9  17
BRANCH  11  28
ATOM     28  C   UNL A   1      32.854  25.926  23.445  1.00  0.00     0.161 C 
BRANCH  28  29
ATOM     29  C   UNL A   1      32.581  27.363  23.875  1.00  0.00     0.008 A 
ATOM     30  C   UNL A   1      31.488  28.078  23.331  1.00  0.00     0.008 A 
ATOM     31  C   UNL A   1      33.168  27.880  25.030  1.00  0.00     0.128 A 
ATOM     32  C   UNL A   1      30.994  29.242  23.935  1.00  0.00     0.001 A 
ATOM     33  C   UNL A   1      32.651  29.016  25.664  1.00  0.00     0.039 A 
ATOM     34  F   UNL A   1      34.132  27.188  25.651  1.00  0.00    -0.207 F 
ATOM     35  C   UNL A   1      31.558  29.693  25.122  1.00  0.00     0.003 A 
ENDBRANCH  28  29
ENDBRANCH  11  28
ENDBRANCH   6   8
ENDBRANCH   5   6
ENDBRANCH   4   5
ENDBRANCH   3   4
ENDBRANCH   2   3
ENDBRANCH   1   2
BRANCH   1  36
ATOM     36  C   UNL A   1      39.891  20.758  25.953  1.00  0.00     0.188 C 
BRANCH  36  37
ATOM     37  O   UNL A   1      40.384  20.299  27.205  1.00  0.00    -0.376 OA
BRANCH  37  38
ATOM     38  C   UNL A   1      41.750  20.603  27.460  1.00  0.00     0.202 C 
BRANCH  38  39
ATOM     39  C   UNL A   1      42.626  20.813  26.200  1.00  0.00     0.261 C 
BRANCH  39  40
ATOM     40  O   UNL A   1      43.561  21.935  26.310  1.00  0.00    -0.460 OA
BRANCH  40  41
ATOM     41  C   UNL A   1      43.441  22.987  25.449  1.00  0.00     0.338 C 
ATOM     42  O   UNL A   1      43.556  22.882  24.236  1.00  0.00    -0.246 OA
BRANCH  41  43
ATOM     43  C   UNL A   1      42.788  24.204  26.105  1.00  0.00     0.060 A 
ATOM     44  C   UNL A   1      41.833  25.097  25.577  1.00  0.00     0.016 A 
ATOM     45  C   UNL A   1      43.347  24.563  27.321  1.00  0.00     0.016 A 
ATOM     46  C   UNL A   1      41.556  26.380  26.199  1.00  0.00     0.010 A 
ATOM     47  C   UNL A   1      43.065  25.811  27.907  1.00  0.00     0.010 A 
ATOM     48  C   UNL A   1      42.224  26.799  27.359  1.00  0.00    -0.014 A 
BRANCH  48  49
ATOM     49  C   UNL A   1      41.985  28.060  28.199  1.00  0.00     0.031 A 
ATOM     50  C   UNL A   1      42.985  29.120  27.923  1.00  0.00     0.074 A 
ATOM     51  C   UNL A   1      40.982  28.512  29.034  1.00  0.00     0.049 A 
ATOM     52  N   UNL A   1      43.892  29.483  28.768  1.00  0.00    -0.248 NA
ATOM     53  C   UNL A   1      43.069  29.818  26.635  1.00  0.00     0.031 C 
ATOM     54  C   UNL A   1      39.815  27.791  29.511  1.00  0.00     0.029 A 
ATOM     55  N   UNL A   1      40.689  29.794  29.536  1.00  0.00    -0.354 N 
ATOM     56  C   UNL A   1      44.483  30.602  28.219  1.00  0.00     0.074 A 
ATOM     57  C   UNL A   1      44.088  30.650  26.840  1.00  0.00     0.031 C 
ATOM     58  C   UNL A   1      38.822  28.633  29.887  1.00  0.00     0.029 A 
ATOM     59  C   UNL A   1      39.355  29.976  29.990  1.00  0.00     0.049 A 
ATOM     60  H   UNL A   1      41.360  30.513  29.571  1.00  0.00     0.167 HD
ATOM     61  C   UNL A   1      45.031  31.557  29.009  1.00  0.00     0.037 A 
ATOM     62  C   UNL A   1      38.726  31.018  30.630  1.00  0.00     0.037 A 
ATOM     63  C   UNL A   1      45.104  31.137  30.384  1.00  0.00     0.049 A 
ATOM     64  C   UNL A   1      39.775  31.636  31.454  1.00  0.00     0.074 A 
ATOM     65  C   UNL A   1      45.725  30.102  31.046  1.00  0.00     0.029 A 
ATOM     66  N   UNL A   1      44.112  31.606  31.208  1.00  0.00    -0.354 N 
ATOM     67  N   UNL A   1      40.228  31.092  32.546  1.00  0.00    -0.248 NA
ATOM     68  C   UNL A   1      40.479  32.830  31.006  1.00  0.00     0.031 C 
ATOM     69  C   UNL A   1      44.886  29.782  32.149  1.00  0.00     0.029 A 
ATOM     70  C   UNL A   1      43.816  30.675  32.180  1.00  0.00     0.049 A 
ATOM     71  H   UNL A   1      43.674  32.483  31.119  1.00  0.00     0.167 HD
ATOM     72  C   UNL A   1      41.531  31.511  32.580  1.00  0.00     0.074 A 
ATOM     73  C   UNL A   1      41.537  32.751  31.816  1.00  0.00     0.031 C 
ATOM     74  C   UNL A   1      42.522  30.613  32.850  1.00  0.00     0.037 A 
BRANCH  61  75
ATOM     75  C   UNL A   1      45.169  32.984  28.590  1.00  0.00     0.058 A 
ATOM     76  C   UNL A   1      46.450  33.525  28.406  1.00  0.00     0.135 A 
ATOM     77  C   UNL A   1      44.088  33.895  28.567  1.00  0.00     0.135 A 
ATOM     78  F   UNL A   1      47.534  32.736  28.455  1.00  0.00    -0.206 F 
ATOM     79  C   UNL A   1      46.650  34.889  28.214  1.00  0.00     0.059 A 
ATOM     80  C   UNL A   1      44.259  35.251  28.323  1.00  0.00     0.059 A 
ATOM     81  F   UNL A   1      42.838  33.507  28.860  1.00  0.00    -0.206 F 
ATOM     82  C   UNL A   1      45.548  35.742  28.177  1.00  0.00     0.060 A 
BRANCH  82  83
ATOM     83  S   UNL A   1      45.821  37.512  27.985  1.00  0.00     0.124 S 
ATOM     84  O   UNL A   1      46.428  37.850  29.267  1.00  0.00    -0.237 OA
ATOM     85  O   UNL A   1      46.706  37.559  26.825  1.00  0.00    -0.237 OA
ATOM     86  O   UNL A   1      44.477  38.035  27.762  1.00  0.00    -0.744 OA
ENDBRANCH  82  83
ENDBRANCH  61  75
BRANCH  62  87
ATOM     87  C   UNL A   1      37.304  31.480  30.872  1.00  0.00     0.058 A 
ATOM     88  C   UNL A   1      36.663  31.302  32.124  1.00  0.00     0.135 A 
ATOM     89  C   UNL A   1      36.657  32.377  30.019  1.00  0.00     0.135 A 
ATOM     90  F   UNL A   1      37.115  30.399  33.004  1.00  0.00    -0.206 F 
ATOM     91  C   UNL A   1      35.586  32.091  32.558  1.00  0.00     0.059 A 
ATOM     92  C   UNL A   1      35.590  33.194  30.432  1.00  0.00     0.059 A 
ATOM     93  F   UNL A   1      37.082  32.501  28.762  1.00  0.00    -0.206 F 
ATOM     94  C   UNL A   1      35.098  33.088  31.727  1.00  0.00     0.060 A 
BRANCH  94  95
ATOM     95  S   UNL A   1      33.982  34.356  32.390  1.00  0.00     0.124 S 
ATOM     96  O   UNL A   1      33.322  34.849  31.187  1.00  0.00    -0.237 OA
ATOM     97  O   UNL A   1      33.137  33.597  33.309  1.00  0.00    -0.237 OA
ATOM     98  O   UNL A   1      34.899  35.293  33.036  1.00  0.00    -0.744 OA
ENDBRANCH  94  95
ENDBRANCH  62  87
BRANCH  74  99
ATOM     99  C   UNL A   1      42.199  29.383  33.696  1.00  0.00     0.058 A 
ATOM    100  C   UNL A   1      41.957  28.073  33.229  1.00  0.00     0.135 A 
ATOM    101  C   UNL A   1      42.232  29.530  35.095  1.00  0.00     0.135 A 
ATOM    102  F   UNL A   1      41.949  27.770  31.927  1.00  0.00    -0.206 F 
ATOM    103  C   UNL A   1      41.765  26.993  34.094  1.00  0.00     0.059 A 
ATOM    104  C   UNL A   1      42.116  28.453  35.974  1.00  0.00     0.059 A 
ATOM    105  F   UNL A   1      42.430  30.742  35.640  1.00  0.00    -0.206 F 
ATOM    106  C   UNL A   1      41.894  27.180  35.463  1.00  0.00     0.060 A 
BRANCH 106 107
ATOM    107  S   UNL A   1      41.782  25.763  36.572  1.00  0.00     0.124 S 
ATOM    108  O   UNL A   1      40.360  25.432  36.543  1.00  0.00    -0.237 OA
ATOM    109  O   UNL A   1      42.667  24.801  35.920  1.00  0.00    -0.237 OA
ATOM    110  O   UNL A   1      42.266  26.294  37.844  1.00  0.00    -0.744 OA
ENDBRANCH 106 107
ENDBRANCH  74  99
ENDBRANCH  48  49
ENDBRANCH  41  43
ENDBRANCH  40  41
ENDBRANCH  39  40
ENDBRANCH  38  39
ENDBRANCH  37  38
ENDBRANCH  36  37
ENDBRANCH   1  36
TORSDOF 25
ENDMDL
