MODEL 1
REMARK VINA RESULT:     -11.9      0.000      0.000
REMARK SMILES Cc1ccc(OCCC(=O)N2C[C@H](O)C[C@@H]2C(=O)OCCOCCOCCOC(=O)c2ccc(-c3c4nc(c(-c5c(F)cc(S(=O)(=O)[O-])cc5F)c5ccc([nH]5)c(-c5c(F)cc(S(=O)(=O)[O-])cc5F)c5nc(c(-c6c(F)cc(S(=O)(=O)[O-])cc6F)c6ccc3[nH]6)C=C5)C=C4)cc2)cc1
REMARK SMILES IDX 23 1 22 2 21 3 20 4 19 5 17 6 18 7 16 8 11 9 12 10 13 11
REMARK SMILES IDX 15 12 9 13 10 14 8 15 7 16 6 17 5 18 1 19 2 20 3 21 98 22
REMARK SMILES IDX 4 23 97 24 14 25 24 27 25 28 26 29 27 30 28 31 29 32 30 33
REMARK SMILES IDX 31 34 32 35 96 36 33 37 95 38 34 39 35 40 36 41 89 42 37 43
REMARK SMILES IDX 94 44 88 45 90 46 38 47 93 48 87 49 86 50 39 52 73 53 52 54
REMARK SMILES IDX 72 55 53 56 56 57 71 58 91 59 54 60 55 61 70 63 92 64 57 65
REMARK SMILES IDX 40 66 41 67 50 68 42 69 43 70 49 71 51 72 44 73 45 74 46 75
REMARK SMILES IDX 47 76 48 77 74 78 75 79 84 80 76 81 77 82 83 83 85 84 78 85
REMARK SMILES IDX 79 86 80 87 81 88 82 89 58 90 59 91 68 92 60 93 61 94 67 95
REMARK SMILES IDX 69 96 62 97 63 98 64 99 65 100 66 101
REMARK H PARENT 14 26 90 51 56 62
REMARK Flexibility Score: inf
ROOT
ATOM      1  C   UNL A   1      39.292  21.457  26.112  1.00  0.00     0.188 C 
ENDROOT
BRANCH   1   2
ATOM      2  O   UNL A   1      38.378  20.868  25.235  1.00  0.00    -0.376 OA
BRANCH   2   3
ATOM      3  C   UNL A   1      37.266  21.781  25.045  1.00  0.00     0.202 C 
BRANCH   3   4
ATOM      4  C   UNL A   1      35.813  21.015  24.769  1.00  0.00     0.261 C 
BRANCH   4   5
ATOM      5  O   UNL A   1      34.158  21.528  24.806  1.00  0.00    -0.462 OA
BRANCH   5   6
ATOM      6  C   UNL A   1      32.764  21.403  24.315  1.00  0.00     0.329 C 
ATOM      7  O   UNL A   1      32.175  20.513  23.676  1.00  0.00    -0.250 OA
BRANCH   6   8
ATOM      8  C   UNL A   1      31.808  22.480  24.611  1.00  0.00     0.197 C 
ATOM      9  N   UNL A   1      32.605  23.595  24.867  1.00  0.00    -0.326 N 
ATOM     10  C   UNL A   1      32.535  23.919  26.233  1.00  0.00     0.152 C 
ATOM     11  C   UNL A   1      31.596  23.000  26.951  1.00  0.00     0.136 C 
ATOM     12  C   UNL A   1      31.008  22.118  25.867  1.00  0.00     0.070 C 
BRANCH   9  13
ATOM     13  C   UNL A   1      33.033  24.413  23.863  1.00  0.00     0.226 C 
ATOM     14  O   UNL A   1      34.205  24.749  23.713  1.00  0.00    -0.275 OA
BRANCH  13  15
ATOM     15  C   UNL A   1      31.941  24.867  22.956  1.00  0.00     0.141 C 
BRANCH  15  16
ATOM     16  C   UNL A   1      31.352  26.193  23.446  1.00  0.00     0.239 C 
BRANCH  16  17
ATOM     17  O   UNL A   1      31.410  26.510  24.860  1.00  0.00    -0.493 OA
BRANCH  17  18
ATOM     18  C   UNL A   1      31.983  27.675  25.359  1.00  0.00     0.119 A 
ATOM     19  C   UNL A   1      35.007  29.612  27.807  1.00  0.00     0.044 C 
ATOM     20  C   UNL A   1      33.902  29.187  26.850  1.00  0.00    -0.051 A 
ATOM     21  C   UNL A   1      34.222  28.691  25.573  1.00  0.00     0.007 A 
ATOM     22  C   UNL A   1      32.573  29.050  27.290  1.00  0.00     0.007 A 
ATOM     23  C   UNL A   1      33.276  27.940  24.836  1.00  0.00     0.046 A 
ATOM     24  C   UNL A   1      31.610  28.321  26.544  1.00  0.00     0.046 A 
ENDBRANCH  17  18
ENDBRANCH  16  17
ENDBRANCH  15  16
ENDBRANCH  13  15
ENDBRANCH   9  13
BRANCH  11  25
ATOM     25  O   UNL A   1      32.220  22.493  28.089  1.00  0.00    -0.391 OA
ATOM     26  H   UNL A   1      31.832  22.902  28.880  1.00  0.00     0.211 HD
ENDBRANCH  11  25
ENDBRANCH   6   8
ENDBRANCH   5   6
ENDBRANCH   4   5
ENDBRANCH   3   4
ENDBRANCH   2   3
ENDBRANCH   1   2
BRANCH   1  27
ATOM     27  C   UNL A   1      40.558  20.828  26.712  1.00  0.00     0.188 C 
BRANCH  27  28
ATOM     28  O   UNL A   1      41.386  20.279  25.742  1.00  0.00    -0.376 OA
BRANCH  28  29
ATOM     29  C   UNL A   1      42.693  20.778  26.000  1.00  0.00     0.202 C 
BRANCH  29  30
ATOM     30  C   UNL A   1      42.855  22.380  25.958  1.00  0.00     0.261 C 
BRANCH  30  31
ATOM     31  O   UNL A   1      42.909  23.236  27.285  1.00  0.00    -0.460 OA
BRANCH  31  32
ATOM     32  C   UNL A   1      42.456  24.227  28.133  1.00  0.00     0.338 C 
ATOM     33  O   UNL A   1      42.652  24.141  29.384  1.00  0.00    -0.246 OA
BRANCH  32  34
ATOM     34  C   UNL A   1      41.219  25.073  27.720  1.00  0.00     0.060 A 
ATOM     35  C   UNL A   1      41.231  26.311  27.128  1.00  0.00     0.016 A 
ATOM     36  C   UNL A   1      40.023  25.030  28.308  1.00  0.00     0.016 A 
ATOM     37  C   UNL A   1      40.913  27.489  27.865  1.00  0.00     0.010 A 
ATOM     38  C   UNL A   1      39.612  26.226  28.998  1.00  0.00     0.010 A 
ATOM     39  C   UNL A   1      40.393  27.412  29.118  1.00  0.00    -0.014 A 
BRANCH  39  40
ATOM     40  C   UNL A   1      40.537  28.808  30.165  1.00  0.00     0.031 A 
ATOM     41  C   UNL A   1      39.500  30.227  30.386  1.00  0.00     0.074 A 
ATOM     42  C   UNL A   1      41.616  28.592  30.962  1.00  0.00     0.049 A 
ATOM     43  N   UNL A   1      38.758  30.468  31.462  1.00  0.00    -0.248 NA
ATOM     44  C   UNL A   1      38.981  31.187  29.302  1.00  0.00     0.031 C 
ATOM     45  C   UNL A   1      42.265  29.413  31.966  1.00  0.00     0.029 A 
ATOM     46  N   UNL A   1      42.600  27.635  30.671  1.00  0.00    -0.354 N 
ATOM     47  C   UNL A   1      37.668  31.364  31.105  1.00  0.00     0.074 A 
ATOM     48  C   UNL A   1      37.722  31.462  29.657  1.00  0.00     0.031 C 
ATOM     49  C   UNL A   1      43.599  29.241  31.793  1.00  0.00     0.029 A 
ATOM     50  C   UNL A   1      43.817  28.316  30.662  1.00  0.00     0.049 A 
ATOM     51  H   UNL A   1      42.459  26.675  30.506  1.00  0.00     0.167 HD
ATOM     52  C   UNL A   1      37.534  32.629  31.616  1.00  0.00     0.037 A 
ATOM     53  C   UNL A   1      44.258  28.683  29.411  1.00  0.00     0.037 A 
ATOM     54  C   UNL A   1      38.880  33.125  31.885  1.00  0.00     0.049 A 
ATOM     55  C   UNL A   1      43.827  30.208  29.179  1.00  0.00     0.074 A 
ATOM     56  C   UNL A   1      39.743  32.822  32.917  1.00  0.00     0.029 A 
ATOM     57  N   UNL A   1      39.713  33.414  30.801  1.00  0.00    -0.354 N 
ATOM     58  N   UNL A   1      42.790  30.867  29.692  1.00  0.00    -0.248 NA
ATOM     59  C   UNL A   1      44.699  31.112  28.446  1.00  0.00     0.031 C 
ATOM     60  C   UNL A   1      41.062  32.701  32.358  1.00  0.00     0.029 A 
ATOM     61  C   UNL A   1      41.048  33.045  31.014  1.00  0.00     0.049 A 
ATOM     62  H   UNL A   1      39.394  33.834  29.971  1.00  0.00     0.167 HD
ATOM     63  C   UNL A   1      42.876  32.237  29.445  1.00  0.00     0.074 A 
ATOM     64  C   UNL A   1      44.056  32.288  28.569  1.00  0.00     0.031 C 
ATOM     65  C   UNL A   1      42.083  33.269  29.965  1.00  0.00     0.037 A 
BRANCH  52  66
ATOM     66  C   UNL A   1      36.156  33.304  31.782  1.00  0.00     0.058 A 
ATOM     67  C   UNL A   1      35.639  34.036  30.698  1.00  0.00     0.135 A 
ATOM     68  C   UNL A   1      35.363  33.398  32.968  1.00  0.00     0.135 A 
ATOM     69  F   UNL A   1      36.271  34.019  29.517  1.00  0.00    -0.206 F 
ATOM     70  C   UNL A   1      34.506  34.864  30.789  1.00  0.00     0.059 A 
ATOM     71  C   UNL A   1      34.203  34.211  33.078  1.00  0.00     0.059 A 
ATOM     72  F   UNL A   1      35.697  32.722  34.082  1.00  0.00    -0.206 F 
ATOM     73  C   UNL A   1      33.809  34.977  31.987  1.00  0.00     0.060 A 
BRANCH  73  74
ATOM     74  S   UNL A   1      32.460  36.192  32.084  1.00  0.00     0.124 S 
ATOM     75  O   UNL A   1      31.337  35.361  32.512  1.00  0.00    -0.237 OA
ATOM     76  O   UNL A   1      32.957  37.138  33.077  1.00  0.00    -0.237 OA
ATOM     77  O   UNL A   1      32.359  36.714  30.723  1.00  0.00    -0.744 OA
ENDBRANCH  73  74
ENDBRANCH  52  66
BRANCH  53  78
ATOM     78  C   UNL A   1      44.434  27.506  28.331  1.00  0.00     0.058 A 
ATOM     79  C   UNL A   1      44.204  27.724  26.920  1.00  0.00     0.135 A 
ATOM     80  C   UNL A   1      45.039  26.252  28.580  1.00  0.00     0.135 A 
ATOM     81  F   UNL A   1      43.634  28.873  26.513  1.00  0.00    -0.206 F 
ATOM     82  C   UNL A   1      44.662  26.858  25.865  1.00  0.00     0.059 A 
ATOM     83  C   UNL A   1      45.508  25.374  27.543  1.00  0.00     0.059 A 
ATOM     84  F   UNL A   1      45.368  25.914  29.834  1.00  0.00    -0.206 F 
ATOM     85  C   UNL A   1      45.360  25.691  26.180  1.00  0.00     0.060 A 
BRANCH  85  86
ATOM     86  S   UNL A   1      46.514  24.855  24.937  1.00  0.00     0.124 S 
ATOM     87  O   UNL A   1      47.464  24.166  25.802  1.00  0.00    -0.237 OA
ATOM     88  O   UNL A   1      45.662  23.988  24.134  1.00  0.00    -0.237 OA
ATOM     89  O   UNL A   1      47.055  25.993  24.194  1.00  0.00    -0.744 OA
ENDBRANCH  85  86
ENDBRANCH  53  78
BRANCH  65  90
ATOM     90  C   UNL A   1      42.283  34.755  29.577  1.00  0.00     0.058 A 
ATOM     91  C   UNL A   1      43.273  35.566  30.151  1.00  0.00     0.135 A 
ATOM     92  C   UNL A   1      41.413  35.458  28.694  1.00  0.00     0.135 A 
ATOM     93  F   UNL A   1      43.991  35.142  31.201  1.00  0.00    -0.206 F 
ATOM     94  C   UNL A   1      43.519  36.875  29.728  1.00  0.00     0.059 A 
ATOM     95  C   UNL A   1      41.560  36.798  28.353  1.00  0.00     0.059 A 
ATOM     96  F   UNL A   1      40.363  34.893  28.088  1.00  0.00    -0.206 F 
ATOM     97  C   UNL A   1      42.655  37.484  28.825  1.00  0.00     0.060 A 
BRANCH  97  98
ATOM     98  S   UNL A   1      42.921  39.194  28.350  1.00  0.00     0.124 S 
ATOM     99  O   UNL A   1      43.811  39.665  29.407  1.00  0.00    -0.237 OA
ATOM    100  O   UNL A   1      43.526  39.039  27.031  1.00  0.00    -0.237 OA
ATOM    101  O   UNL A   1      41.579  39.768  28.362  1.00  0.00    -0.744 OA
ENDBRANCH  97  98
ENDBRANCH  65  90
ENDBRANCH  39  40
ENDBRANCH  32  34
ENDBRANCH  31  32
ENDBRANCH  30  31
ENDBRANCH  29  30
ENDBRANCH  28  29
ENDBRANCH  27  28
ENDBRANCH   1  27
TORSDOF 26
ENDMDL
MODEL 2
REMARK VINA RESULT:     -11.3      3.836     11.190
REMARK SMILES Cc1ccc(OCCC(=O)N2C[C@H](O)C[C@@H]2C(=O)OCCOCCOCCOC(=O)c2ccc(-c3c4nc(c(-c5c(F)cc(S(=O)(=O)[O-])cc5F)c5ccc([nH]5)c(-c5c(F)cc(S(=O)(=O)[O-])cc5F)c5nc(c(-c6c(F)cc(S(=O)(=O)[O-])cc6F)c6ccc3[nH]6)C=C5)C=C4)cc2)cc1
REMARK SMILES IDX 23 1 22 2 21 3 20 4 19 5 17 6 18 7 16 8 11 9 12 10 13 11
REMARK SMILES IDX 15 12 9 13 10 14 8 15 7 16 6 17 5 18 1 19 2 20 3 21 98 22
REMARK SMILES IDX 4 23 97 24 14 25 24 27 25 28 26 29 27 30 28 31 29 32 30 33
REMARK SMILES IDX 31 34 32 35 96 36 33 37 95 38 34 39 35 40 36 41 89 42 37 43
REMARK SMILES IDX 94 44 88 45 90 46 38 47 93 48 87 49 86 50 39 52 73 53 52 54
REMARK SMILES IDX 72 55 53 56 56 57 71 58 91 59 54 60 55 61 70 63 92 64 57 65
REMARK SMILES IDX 40 66 41 67 50 68 42 69 43 70 49 71 51 72 44 73 45 74 46 75
REMARK SMILES IDX 47 76 48 77 74 78 75 79 84 80 76 81 77 82 83 83 85 84 78 85
REMARK SMILES IDX 79 86 80 87 81 88 82 89 58 90 59 91 68 92 60 93 61 94 67 95
REMARK SMILES IDX 69 96 62 97 63 98 64 99 65 100 66 101
REMARK H PARENT 14 26 90 51 56 62
REMARK Flexibility Score: inf
ROOT
ATOM      1  C   UNL A   1      34.560  31.034  28.216  1.00  0.00     0.188 C 
ENDROOT
BRANCH   1   2
ATOM      2  O   UNL A   1      34.059  30.916  26.918  1.00  0.00    -0.376 OA
BRANCH   2   3
ATOM      3  C   UNL A   1      32.708  30.388  26.990  1.00  0.00     0.202 C 
BRANCH   3   4
ATOM      4  C   UNL A   1      32.643  28.777  27.405  1.00  0.00     0.261 C 
BRANCH   4   5
ATOM      5  O   UNL A   1      31.504  27.504  27.107  1.00  0.00    -0.462 OA
BRANCH   5   6
ATOM      6  C   UNL A   1      31.202  26.148  26.589  1.00  0.00     0.329 C 
ATOM      7  O   UNL A   1      30.143  25.599  26.240  1.00  0.00    -0.250 OA
BRANCH   6   8
ATOM      8  C   UNL A   1      32.310  25.201  26.392  1.00  0.00     0.197 C 
ATOM      9  N   UNL A   1      32.441  25.097  25.008  1.00  0.00    -0.326 N 
ATOM     10  C   UNL A   1      32.018  23.823  24.590  1.00  0.00     0.152 C 
ATOM     11  C   UNL A   1      31.618  22.983  25.764  1.00  0.00     0.136 C 
ATOM     12  C   UNL A   1      31.924  23.839  26.978  1.00  0.00     0.070 C 
BRANCH   9  13
ATOM     13  C   UNL A   1      33.215  25.965  24.295  1.00  0.00     0.226 C 
ATOM     14  O   UNL A   1      33.564  27.065  24.715  1.00  0.00    -0.275 OA
BRANCH  13  15
ATOM     15  C   UNL A   1      33.603  25.454  22.950  1.00  0.00     0.141 C 
BRANCH  15  16
ATOM     16  C   UNL A   1      32.863  26.222  21.850  1.00  0.00     0.239 C 
BRANCH  16  17
ATOM     17  O   UNL A   1      31.422  26.359  21.933  1.00  0.00    -0.493 OA
BRANCH  17  18
ATOM     18  C   UNL A   1      30.792  27.405  22.598  1.00  0.00     0.119 A 
ATOM     19  C   UNL A   1      27.550  30.292  22.818  1.00  0.00     0.044 C 
ATOM     20  C   UNL A   1      28.735  29.354  23.002  1.00  0.00    -0.051 A 
ATOM     21  C   UNL A   1      28.526  28.012  23.366  1.00  0.00     0.007 A 
ATOM     22  C   UNL A   1      30.027  29.725  22.587  1.00  0.00     0.007 A 
ATOM     23  C   UNL A   1      29.540  27.046  23.164  1.00  0.00     0.046 A 
ATOM     24  C   UNL A   1      31.058  28.766  22.406  1.00  0.00     0.046 A 
ENDBRANCH  17  18
ENDBRANCH  16  17
ENDBRANCH  15  16
ENDBRANCH  13  15
ENDBRANCH   9  13
BRANCH  11  25
ATOM     25  O   UNL A   1      30.366  22.419  25.527  1.00  0.00    -0.391 OA
ATOM     26  H   UNL A   1      30.176  22.441  24.575  1.00  0.00     0.211 HD
ENDBRANCH  11  25
ENDBRANCH   6   8
ENDBRANCH   5   6
ENDBRANCH   4   5
ENDBRANCH   3   4
ENDBRANCH   2   3
ENDBRANCH   1   2
BRANCH   1  27
ATOM     27  C   UNL A   1      34.539  32.273  29.123  1.00  0.00     0.188 C 
BRANCH  27  28
ATOM     28  O   UNL A   1      35.813  32.767  29.373  1.00  0.00    -0.376 OA
BRANCH  28  29
ATOM     29  C   UNL A   1      35.948  32.834  30.787  1.00  0.00     0.202 C 
BRANCH  29  30
ATOM     30  C   UNL A   1      35.535  31.504  31.596  1.00  0.00     0.261 C 
BRANCH  30  31
ATOM     31  O   UNL A   1      36.293  30.136  31.370  1.00  0.00    -0.460 OA
BRANCH  31  32
ATOM     32  C   UNL A   1      37.115  29.284  30.662  1.00  0.00     0.338 C 
ATOM     33  O   UNL A   1      37.718  28.334  31.250  1.00  0.00    -0.246 OA
BRANCH  32  34
ATOM     34  C   UNL A   1      37.811  29.800  29.370  1.00  0.00     0.060 A 
ATOM     35  C   UNL A   1      38.223  29.044  28.301  1.00  0.00     0.016 A 
ATOM     36  C   UNL A   1      38.581  30.886  29.289  1.00  0.00     0.016 A 
ATOM     37  C   UNL A   1      39.602  28.754  28.087  1.00  0.00     0.010 A 
ATOM     38  C   UNL A   1      39.970  30.657  28.989  1.00  0.00     0.010 A 
ATOM     39  C   UNL A   1      40.570  29.377  28.809  1.00  0.00    -0.014 A 
BRANCH  39  40
ATOM     40  C   UNL A   1      42.145  28.621  28.913  1.00  0.00     0.031 A 
ATOM     41  C   UNL A   1      42.700  26.991  28.494  1.00  0.00     0.074 A 
ATOM     42  C   UNL A   1      43.021  29.585  29.301  1.00  0.00     0.049 A 
ATOM     43  N   UNL A   1      43.487  26.696  27.464  1.00  0.00    -0.248 NA
ATOM     44  C   UNL A   1      42.108  25.650  28.960  1.00  0.00     0.031 C 
ATOM     45  C   UNL A   1      44.435  29.546  29.619  1.00  0.00     0.029 A 
ATOM     46  N   UNL A   1      42.613  30.796  29.879  1.00  0.00    -0.354 N 
ATOM     47  C   UNL A   1      43.298  25.301  27.097  1.00  0.00     0.074 A 
ATOM     48  C   UNL A   1      42.162  24.857  27.884  1.00  0.00     0.031 C 
ATOM     49  C   UNL A   1      44.603  30.348  30.701  1.00  0.00     0.029 A 
ATOM     50  C   UNL A   1      43.289  30.897  31.095  1.00  0.00     0.049 A 
ATOM     51  H   UNL A   1      41.977  31.446  29.503  1.00  0.00     0.167 HD
ATOM     52  C   UNL A   1      44.285  24.355  27.195  1.00  0.00     0.037 A 
ATOM     53  C   UNL A   1      42.559  30.497  32.191  1.00  0.00     0.037 A 
ATOM     54  C   UNL A   1      45.142  24.748  28.311  1.00  0.00     0.049 A 
ATOM     55  C   UNL A   1      42.969  28.981  32.512  1.00  0.00     0.074 A 
ATOM     56  C   UNL A   1      46.106  25.731  28.380  1.00  0.00     0.029 A 
ATOM     57  N   UNL A   1      44.628  24.665  29.607  1.00  0.00    -0.354 N 
ATOM     58  N   UNL A   1      43.402  28.041  31.675  1.00  0.00    -0.248 NA
ATOM     59  C   UNL A   1      43.050  28.522  33.889  1.00  0.00     0.031 C 
ATOM     60  C   UNL A   1      45.975  26.378  29.657  1.00  0.00     0.029 A 
ATOM     61  C   UNL A   1      45.022  25.728  30.429  1.00  0.00     0.049 A 
ATOM     62  H   UNL A   1      44.048  23.931  29.913  1.00  0.00     0.167 HD
ATOM     63  C   UNL A   1      43.876  26.922  32.358  1.00  0.00     0.074 A 
ATOM     64  C   UNL A   1      43.523  27.270  33.742  1.00  0.00     0.031 C 
ATOM     65  C   UNL A   1      44.566  25.814  31.846  1.00  0.00     0.037 A 
BRANCH  52  66
ATOM     66  C   UNL A   1      44.339  23.125  26.264  1.00  0.00     0.058 A 
ATOM     67  C   UNL A   1      43.537  22.015  26.582  1.00  0.00     0.135 A 
ATOM     68  C   UNL A   1      45.215  22.902  25.156  1.00  0.00     0.135 A 
ATOM     69  F   UNL A   1      42.654  22.092  27.587  1.00  0.00    -0.206 F 
ATOM     70  C   UNL A   1      43.649  20.767  25.942  1.00  0.00     0.059 A 
ATOM     71  C   UNL A   1      45.329  21.658  24.481  1.00  0.00     0.059 A 
ATOM     72  F   UNL A   1      46.017  23.880  24.697  1.00  0.00    -0.206 F 
ATOM     73  C   UNL A   1      44.567  20.580  24.915  1.00  0.00     0.060 A 
BRANCH  73  74
ATOM     74  S   UNL A   1      44.780  18.902  24.249  1.00  0.00     0.124 S 
ATOM     75  O   UNL A   1      46.138  18.578  24.679  1.00  0.00    -0.237 OA
ATOM     76  O   UNL A   1      43.716  18.160  24.916  1.00  0.00    -0.237 OA
ATOM     77  O   UNL A   1      44.612  19.072  22.808  1.00  0.00    -0.744 OA
ENDBRANCH  73  74
ENDBRANCH  52  66
BRANCH  53  78
ATOM     78  C   UNL A   1      41.155  31.238  32.436  1.00  0.00     0.058 A 
ATOM     79  C   UNL A   1      39.992  30.531  32.921  1.00  0.00     0.135 A 
ATOM     80  C   UNL A   1      40.962  32.640  32.445  1.00  0.00     0.135 A 
ATOM     81  F   UNL A   1      40.012  29.186  32.978  1.00  0.00    -0.206 F 
ATOM     82  C   UNL A   1      38.825  31.151  33.493  1.00  0.00     0.059 A 
ATOM     83  C   UNL A   1      39.808  33.282  33.013  1.00  0.00     0.059 A 
ATOM     84  F   UNL A   1      41.964  33.448  32.073  1.00  0.00    -0.206 F 
ATOM     85  C   UNL A   1      38.752  32.543  33.578  1.00  0.00     0.060 A 
BRANCH  85  86
ATOM     86  S   UNL A   1      37.626  33.406  34.827  1.00  0.00     0.124 S 
ATOM     87  O   UNL A   1      36.342  32.752  34.599  1.00  0.00    -0.237 OA
ATOM     88  O   UNL A   1      38.226  33.157  36.132  1.00  0.00    -0.237 OA
ATOM     89  O   UNL A   1      37.699  34.805  34.408  1.00  0.00    -0.744 OA
ENDBRANCH  85  86
ENDBRANCH  53  78
BRANCH  65  90
ATOM     90  C   UNL A   1      45.013  24.624  32.730  1.00  0.00     0.058 A 
ATOM     91  C   UNL A   1      44.334  23.398  32.760  1.00  0.00     0.135 A 
ATOM     92  C   UNL A   1      46.080  24.707  33.673  1.00  0.00     0.135 A 
ATOM     93  F   UNL A   1      43.149  23.249  32.149  1.00  0.00    -0.206 F 
ATOM     94  C   UNL A   1      44.796  22.293  33.479  1.00  0.00     0.059 A 
ATOM     95  C   UNL A   1      46.480  23.659  34.494  1.00  0.00     0.059 A 
ATOM     96  F   UNL A   1      46.818  25.806  33.857  1.00  0.00    -0.206 F 
ATOM     97  C   UNL A   1      45.873  22.433  34.345  1.00  0.00     0.060 A 
BRANCH  97  98
ATOM     98  S   UNL A   1      46.411  21.036  35.335  1.00  0.00     0.124 S 
ATOM     99  O   UNL A   1      45.374  20.049  35.050  1.00  0.00    -0.237 OA
ATOM    100  O   UNL A   1      47.725  20.762  34.763  1.00  0.00    -0.237 OA
ATOM    101  O   UNL A   1      46.416  21.560  36.697  1.00  0.00    -0.744 OA
ENDBRANCH  97  98
ENDBRANCH  65  90
ENDBRANCH  39  40
ENDBRANCH  32  34
ENDBRANCH  31  32
ENDBRANCH  30  31
ENDBRANCH  29  30
ENDBRANCH  28  29
ENDBRANCH  27  28
ENDBRANCH   1  27
TORSDOF 26
ENDMDL
MODEL 3
REMARK VINA RESULT:     -11.3      3.834     11.454
REMARK SMILES Cc1ccc(OCCC(=O)N2C[C@H](O)C[C@@H]2C(=O)OCCOCCOCCOC(=O)c2ccc(-c3c4nc(c(-c5c(F)cc(S(=O)(=O)[O-])cc5F)c5ccc([nH]5)c(-c5c(F)cc(S(=O)(=O)[O-])cc5F)c5nc(c(-c6c(F)cc(S(=O)(=O)[O-])cc6F)c6ccc3[nH]6)C=C5)C=C4)cc2)cc1
REMARK SMILES IDX 23 1 22 2 21 3 20 4 19 5 17 6 18 7 16 8 11 9 12 10 13 11
REMARK SMILES IDX 15 12 9 13 10 14 8 15 7 16 6 17 5 18 1 19 2 20 3 21 98 22
REMARK SMILES IDX 4 23 97 24 14 25 24 27 25 28 26 29 27 30 28 31 29 32 30 33
REMARK SMILES IDX 31 34 32 35 96 36 33 37 95 38 34 39 35 40 36 41 89 42 37 43
REMARK SMILES IDX 94 44 88 45 90 46 38 47 93 48 87 49 86 50 39 52 73 53 52 54
REMARK SMILES IDX 72 55 53 56 56 57 71 58 91 59 54 60 55 61 70 63 92 64 57 65
REMARK SMILES IDX 40 66 41 67 50 68 42 69 43 70 49 71 51 72 44 73 45 74 46 75
REMARK SMILES IDX 47 76 48 77 74 78 75 79 84 80 76 81 77 82 83 83 85 84 78 85
REMARK SMILES IDX 79 86 80 87 81 88 82 89 58 90 59 91 68 92 60 93 61 94 67 95
REMARK SMILES IDX 69 96 62 97 63 98 64 99 65 100 66 101
REMARK H PARENT 14 26 90 51 56 62
REMARK Flexibility Score: inf
ROOT
ATOM      1  C   UNL A   1      34.803  31.538  28.418  1.00  0.00     0.188 C 
ENDROOT
BRANCH   1   2
ATOM      2  O   UNL A   1      34.021  31.553  27.260  1.00  0.00    -0.376 OA
BRANCH   2   3
ATOM      3  C   UNL A   1      33.111  30.423  27.303  1.00  0.00     0.202 C 
BRANCH   3   4
ATOM      4  C   UNL A   1      33.847  28.962  26.991  1.00  0.00     0.261 C 
BRANCH   4   5
ATOM      5  O   UNL A   1      34.009  27.976  25.574  1.00  0.00    -0.462 OA
BRANCH   5   6
ATOM      6  C   UNL A   1      33.395  27.127  24.524  1.00  0.00     0.329 C 
ATOM      7  O   UNL A   1      33.870  26.291  23.737  1.00  0.00    -0.250 OA
BRANCH   6   8
ATOM      8  C   UNL A   1      31.942  27.200  24.313  1.00  0.00     0.197 C 
ATOM      9  N   UNL A   1      31.471  25.940  24.679  1.00  0.00    -0.326 N 
ATOM     10  C   UNL A   1      31.038  25.249  23.533  1.00  0.00     0.152 C 
ATOM     11  C   UNL A   1      31.176  26.105  22.311  1.00  0.00     0.136 C 
ATOM     12  C   UNL A   1      31.657  27.448  22.828  1.00  0.00     0.070 C 
BRANCH   9  13
ATOM     13  C   UNL A   1      31.147  25.644  25.970  1.00  0.00     0.226 C 
ATOM     14  O   UNL A   1      31.244  26.446  26.896  1.00  0.00    -0.275 OA
BRANCH  13  15
ATOM     15  C   UNL A   1      30.661  24.248  26.160  1.00  0.00     0.141 C 
BRANCH  15  16
ATOM     16  C   UNL A   1      31.690  23.422  26.938  1.00  0.00     0.239 C 
BRANCH  16  17
ATOM     17  O   UNL A   1      33.066  23.400  26.482  1.00  0.00    -0.493 OA
BRANCH  17  18
ATOM     18  C   UNL A   1      33.556  22.463  25.579  1.00  0.00     0.119 A 
ATOM     19  C   UNL A   1      34.118  18.311  24.424  1.00  0.00     0.044 C 
ATOM     20  C   UNL A   1      34.001  19.822  24.571  1.00  0.00    -0.051 A 
ATOM     21  C   UNL A   1      32.762  20.458  24.379  1.00  0.00     0.007 A 
ATOM     22  C   UNL A   1      35.047  20.580  25.128  1.00  0.00     0.007 A 
ATOM     23  C   UNL A   1      32.538  21.763  24.880  1.00  0.00     0.046 A 
ATOM     24  C   UNL A   1      34.838  21.900  25.609  1.00  0.00     0.046 A 
ENDBRANCH  17  18
ENDBRANCH  16  17
ENDBRANCH  15  16
ENDBRANCH  13  15
ENDBRANCH   9  13
BRANCH  11  25
ATOM     25  O   UNL A   1      31.839  25.391  21.316  1.00  0.00    -0.391 OA
ATOM     26  H   UNL A   1      32.490  24.797  21.722  1.00  0.00     0.211 HD
ENDBRANCH  11  25
ENDBRANCH   6   8
ENDBRANCH   5   6
ENDBRANCH   4   5
ENDBRANCH   3   4
ENDBRANCH   2   3
ENDBRANCH   1   2
BRANCH   1  27
ATOM     27  C   UNL A   1      34.670  32.440  29.654  1.00  0.00     0.188 C 
BRANCH  27  28
ATOM     28  O   UNL A   1      35.851  33.108  29.950  1.00  0.00    -0.376 OA
BRANCH  28  29
ATOM     29  C   UNL A   1      36.099  32.892  31.334  1.00  0.00     0.202 C 
BRANCH  29  30
ATOM     30  C   UNL A   1      35.598  31.480  31.926  1.00  0.00     0.261 C 
BRANCH  30  31
ATOM     31  O   UNL A   1      36.349  30.133  31.583  1.00  0.00    -0.460 OA
BRANCH  31  32
ATOM     32  C   UNL A   1      37.214  29.359  30.838  1.00  0.00     0.338 C 
ATOM     33  O   UNL A   1      37.757  28.330  31.346  1.00  0.00    -0.246 OA
BRANCH  32  34
ATOM     34  C   UNL A   1      38.014  30.016  29.678  1.00  0.00     0.060 A 
ATOM     35  C   UNL A   1      38.472  29.397  28.542  1.00  0.00     0.016 A 
ATOM     36  C   UNL A   1      38.826  31.067  29.799  1.00  0.00     0.016 A 
ATOM     37  C   UNL A   1      39.851  29.078  28.376  1.00  0.00     0.010 A 
ATOM     38  C   UNL A   1      40.224  30.820  29.558  1.00  0.00     0.010 A 
ATOM     39  C   UNL A   1      40.789  29.551  29.238  1.00  0.00    -0.014 A 
BRANCH  39  40
ATOM     40  C   UNL A   1      42.325  28.718  29.334  1.00  0.00     0.031 A 
ATOM     41  C   UNL A   1      42.813  27.085  28.846  1.00  0.00     0.074 A 
ATOM     42  C   UNL A   1      43.236  29.621  29.783  1.00  0.00     0.049 A 
ATOM     43  N   UNL A   1      43.606  26.803  27.818  1.00  0.00    -0.248 NA
ATOM     44  C   UNL A   1      42.151  25.753  29.237  1.00  0.00     0.031 C 
ATOM     45  C   UNL A   1      44.640  29.501  30.124  1.00  0.00     0.029 A 
ATOM     46  N   UNL A   1      42.873  30.821  30.411  1.00  0.00    -0.354 N 
ATOM     47  C   UNL A   1      43.361  25.437  27.381  1.00  0.00     0.074 A 
ATOM     48  C   UNL A   1      42.190  25.010  28.126  1.00  0.00     0.031 C 
ATOM     49  C   UNL A   1      44.824  30.242  31.245  1.00  0.00     0.029 A 
ATOM     50  C   UNL A   1      43.529  30.832  31.642  1.00  0.00     0.049 A 
ATOM     51  H   UNL A   1      42.275  31.517  30.055  1.00  0.00     0.167 HD
ATOM     52  C   UNL A   1      44.301  24.442  27.452  1.00  0.00     0.037 A 
ATOM     53  C   UNL A   1      42.759  30.416  32.704  1.00  0.00     0.037 A 
ATOM     54  C   UNL A   1      45.152  24.742  28.599  1.00  0.00     0.049 A 
ATOM     55  C   UNL A   1      43.092  28.870  32.960  1.00  0.00     0.074 A 
ATOM     56  C   UNL A   1      46.159  25.675  28.733  1.00  0.00     0.029 A 
ATOM     57  N   UNL A   1      44.610  24.622  29.881  1.00  0.00    -0.354 N 
ATOM     58  N   UNL A   1      43.498  27.950  32.086  1.00  0.00    -0.248 NA
ATOM     59  C   UNL A   1      43.125  28.343  34.314  1.00  0.00     0.031 C 
ATOM     60  C   UNL A   1      46.032  26.266  30.037  1.00  0.00     0.029 A 
ATOM     61  C   UNL A   1      45.035  25.625  30.760  1.00  0.00     0.049 A 
ATOM     62  H   UNL A   1      43.990  23.902  30.141  1.00  0.00     0.167 HD
ATOM     63  C   UNL A   1      43.908  26.780  32.723  1.00  0.00     0.074 A 
ATOM     64  C   UNL A   1      43.543  27.078  34.116  1.00  0.00     0.031 C 
ATOM     65  C   UNL A   1      44.555  25.666  32.171  1.00  0.00     0.037 A 
BRANCH  52  66
ATOM     66  C   UNL A   1      44.317  23.257  26.463  1.00  0.00     0.058 A 
ATOM     67  C   UNL A   1      43.531  22.130  26.764  1.00  0.00     0.135 A 
ATOM     68  C   UNL A   1      45.145  23.088  25.309  1.00  0.00     0.135 A 
ATOM     69  F   UNL A   1      42.692  22.158  27.808  1.00  0.00    -0.206 F 
ATOM     70  C   UNL A   1      43.618  20.913  26.064  1.00  0.00     0.059 A 
ATOM     71  C   UNL A   1      45.232  21.876  24.574  1.00  0.00     0.059 A 
ATOM     72  F   UNL A   1      45.924  24.089  24.862  1.00  0.00    -0.206 F 
ATOM     73  C   UNL A   1      44.492  20.777  24.991  1.00  0.00     0.060 A 
BRANCH  73  74
ATOM     74  S   UNL A   1      44.678  19.132  24.240  1.00  0.00     0.124 S 
ATOM     75  O   UNL A   1      46.028  18.762  24.658  1.00  0.00    -0.237 OA
ATOM     76  O   UNL A   1      43.598  18.375  24.864  1.00  0.00    -0.237 OA
ATOM     77  O   UNL A   1      44.520  19.378  22.809  1.00  0.00    -0.744 OA
ENDBRANCH  73  74
ENDBRANCH  52  66
BRANCH  53  78
ATOM     78  C   UNL A   1      41.386  31.210  32.960  1.00  0.00     0.058 A 
ATOM     79  C   UNL A   1      40.138  30.521  33.200  1.00  0.00     0.135 A 
ATOM     80  C   UNL A   1      41.280  32.598  33.214  1.00  0.00     0.135 A 
ATOM     81  F   UNL A   1      40.070  29.191  33.006  1.00  0.00    -0.206 F 
ATOM     82  C   UNL A   1      38.960  31.119  33.773  1.00  0.00     0.059 A 
ATOM     83  C   UNL A   1      40.117  33.216  33.789  1.00  0.00     0.059 A 
ATOM     84  F   UNL A   1      42.363  33.377  33.090  1.00  0.00    -0.206 F 
ATOM     85  C   UNL A   1      38.966  32.474  34.110  1.00  0.00     0.060 A 
BRANCH  85  86
ATOM     86  S   UNL A   1      37.774  33.183  35.396  1.00  0.00     0.124 S 
ATOM     87  O   UNL A   1      37.464  32.019  36.216  1.00  0.00    -0.237 OA
ATOM     88  O   UNL A   1      38.513  34.241  36.073  1.00  0.00    -0.237 OA
ATOM     89  O   UNL A   1      36.674  33.678  34.569  1.00  0.00    -0.744 OA
ENDBRANCH  85  86
ENDBRANCH  53  78
BRANCH  65  90
ATOM     90  C   UNL A   1      44.930  24.416  33.005  1.00  0.00     0.058 A 
ATOM     91  C   UNL A   1      44.220  23.209  32.931  1.00  0.00     0.135 A 
ATOM     92  C   UNL A   1      45.951  24.416  34.000  1.00  0.00     0.135 A 
ATOM     93  F   UNL A   1      43.064  23.128  32.257  1.00  0.00    -0.206 F 
ATOM     94  C   UNL A   1      44.620  22.053  33.606  1.00  0.00     0.059 A 
ATOM     95  C   UNL A   1      46.285  23.313  34.778  1.00  0.00     0.059 A 
ATOM     96  F   UNL A   1      46.706  25.483  34.283  1.00  0.00    -0.206 F 
ATOM     97  C   UNL A   1      45.656  22.114  34.529  1.00  0.00     0.060 A 
BRANCH  97  98
ATOM     98  S   UNL A   1      46.111  20.649  35.460  1.00  0.00     0.124 S 
ATOM     99  O   UNL A   1      47.464  20.393  34.977  1.00  0.00    -0.237 OA
ATOM    100  O   UNL A   1      46.006  21.132  36.833  1.00  0.00    -0.237 OA
ATOM    101  O   UNL A   1      45.110  19.664  35.064  1.00  0.00    -0.744 OA
ENDBRANCH  97  98
ENDBRANCH  65  90
ENDBRANCH  39  40
ENDBRANCH  32  34
ENDBRANCH  31  32
ENDBRANCH  30  31
ENDBRANCH  29  30
ENDBRANCH  28  29
ENDBRANCH  27  28
ENDBRANCH   1  27
TORSDOF 26
ENDMDL
