MODEL 1
REMARK VINA RESULT:      -9.8      0.000      0.000
REMARK SMILES CCC[C@H](Cc1ccn(-c2ccccc2)n1)C(=O)OCCOCCOCCOC(=O)c1ccc(-c2c3nc(c(-c4c(F)cc(S(=O)(=O)[O-])cc4F)c4ccc([nH]4)c(-c4c(F)cc(S(=O)(=O)[O-])cc4F)c4nc(c(-c5c(F)cc(S(=O)(=O)[O-])cc5F)c5ccc2[nH]5)C=C4)C=C3)cc1
REMARK SMILES IDX 23 1 22 2 21 3 20 4 19 5 17 6 18 7 4 8 3 9 2 10 1 11 5 12
REMARK SMILES IDX 6 13 7 14 16 15 8 16 9 17 10 18 11 19 15 20 12 21 14 22
REMARK SMILES IDX 13 23 24 24 25 25 26 26 27 27 28 28 29 29 30 30 31 31 32 32
REMARK SMILES IDX 96 33 33 34 95 35 34 36 35 37 36 38 89 39 37 40 94 41 88 42
REMARK SMILES IDX 90 43 38 44 93 45 87 46 86 47 39 49 73 50 52 51 72 52 53 53
REMARK SMILES IDX 56 54 71 55 91 56 54 57 55 58 70 60 92 61 57 62 40 63 41 64
REMARK SMILES IDX 50 65 42 66 43 67 49 68 51 69 44 70 45 71 46 72 47 73 48 74
REMARK SMILES IDX 74 75 75 76 84 77 76 78 77 79 83 80 85 81 78 82 79 83 80 84
REMARK SMILES IDX 81 85 82 86 58 87 59 88 68 89 60 90 61 91 67 92 69 93 62 94
REMARK SMILES IDX 63 95 64 96 65 97 66 98
REMARK H PARENT 90 48 56 59
REMARK Flexibility Score: inf
ROOT
ATOM      1  C   UNL A   1      38.334  21.151  25.407  1.00  0.00     0.188 C 
ENDROOT
BRANCH   1   2
ATOM      2  O   UNL A   1      36.929  21.096  25.203  1.00  0.00    -0.376 OA
BRANCH   2   3
ATOM      3  C   UNL A   1      36.432  19.794  24.875  1.00  0.00     0.202 C 
BRANCH   3   4
ATOM      4  C   UNL A   1      34.904  19.593  24.863  1.00  0.00     0.261 C 
BRANCH   4   5
ATOM      5  O   UNL A   1      34.185  20.787  24.481  1.00  0.00    -0.463 OA
BRANCH   5   6
ATOM      6  C   UNL A   1      33.588  21.475  25.472  1.00  0.00     0.309 C 
ATOM      7  O   UNL A   1      33.788  21.241  26.662  1.00  0.00    -0.252 OA
BRANCH   6   8
ATOM      8  C   UNL A   1      32.729  22.669  25.026  1.00  0.00     0.105 C 
BRANCH   8   9
ATOM      9  C   UNL A   1      31.243  22.301  25.169  1.00  0.00     0.015 C 
BRANCH   9  10
ATOM     10  C   UNL A   1      30.599  22.889  26.444  1.00  0.00    -0.003 C 
ATOM     11  C   UNL A   1      30.293  24.381  26.346  1.00  0.00     0.004 C 
ENDBRANCH   9  10
ENDBRANCH   8   9
BRANCH   8  12
ATOM     12  C   UNL A   1      33.036  23.537  23.784  1.00  0.00     0.073 C 
BRANCH  12  13
ATOM     13  C   UNL A   1      32.535  24.935  23.575  1.00  0.00     0.064 A 
ATOM     14  C   UNL A   1      31.440  25.320  22.762  1.00  0.00     0.046 A 
ATOM     15  N   UNL A   1      32.895  25.941  24.381  1.00  0.00    -0.173 NA
ATOM     16  C   UNL A   1      31.051  26.551  23.240  1.00  0.00     0.115 A 
ATOM     17  N   UNL A   1      31.913  26.870  24.260  1.00  0.00    -0.241 N 
BRANCH  17  18
ATOM     18  C   UNL A   1      31.803  27.925  25.203  1.00  0.00     0.065 A 
ATOM     19  C   UNL A   1      32.161  27.720  26.542  1.00  0.00     0.028 A 
ATOM     20  C   UNL A   1      31.475  29.213  24.760  1.00  0.00     0.028 A 
ATOM     21  C   UNL A   1      32.260  28.818  27.404  1.00  0.00     0.002 A 
ATOM     22  C   UNL A   1      31.564  30.303  25.629  1.00  0.00     0.002 A 
ATOM     23  C   UNL A   1      31.973  30.106  26.946  1.00  0.00     0.000 A 
ENDBRANCH  17  18
ENDBRANCH  12  13
ENDBRANCH   8  12
ENDBRANCH   6   8
ENDBRANCH   5   6
ENDBRANCH   4   5
ENDBRANCH   3   4
ENDBRANCH   2   3
ENDBRANCH   1   2
BRANCH   1  24
ATOM     24  C   UNL A   1      38.837  22.344  26.173  1.00  0.00     0.188 C 
BRANCH  24  25
ATOM     25  O   UNL A   1      39.934  22.008  27.027  1.00  0.00    -0.376 OA
BRANCH  25  26
ATOM     26  C   UNL A   1      40.516  20.721  26.822  1.00  0.00     0.202 C 
BRANCH  26  27
ATOM     27  C   UNL A   1      42.046  20.771  26.847  1.00  0.00     0.261 C 
BRANCH  27  28
ATOM     28  O   UNL A   1      42.523  21.137  25.567  1.00  0.00    -0.460 OA
BRANCH  28  29
ATOM     29  C   UNL A   1      43.817  20.743  25.411  1.00  0.00     0.338 C 
ATOM     30  O   UNL A   1      44.283  19.667  25.699  1.00  0.00    -0.246 OA
BRANCH  29  31
ATOM     31  C   UNL A   1      44.561  21.914  24.885  1.00  0.00     0.060 A 
ATOM     32  C   UNL A   1      45.712  22.178  25.603  1.00  0.00     0.016 A 
ATOM     33  C   UNL A   1      43.819  22.919  24.231  1.00  0.00     0.016 A 
ATOM     34  C   UNL A   1      45.730  23.409  26.188  1.00  0.00     0.010 A 
ATOM     35  C   UNL A   1      43.858  24.156  24.777  1.00  0.00     0.010 A 
ATOM     36  C   UNL A   1      44.684  24.286  25.878  1.00  0.00    -0.014 A 
BRANCH  36  37
ATOM     37  C   UNL A   1      44.423  25.359  26.785  1.00  0.00     0.031 A 
ATOM     38  C   UNL A   1      45.476  26.364  26.668  1.00  0.00     0.074 A 
ATOM     39  C   UNL A   1      43.321  25.373  27.552  1.00  0.00     0.049 A 
ATOM     40  N   UNL A   1      46.535  26.445  27.400  1.00  0.00    -0.248 NA
ATOM     41  C   UNL A   1      45.556  27.097  25.394  1.00  0.00     0.031 C 
ATOM     42  C   UNL A   1      42.121  24.532  27.499  1.00  0.00     0.029 A 
ATOM     43  N   UNL A   1      43.021  26.276  28.515  1.00  0.00    -0.354 N 
ATOM     44  C   UNL A   1      47.277  27.450  26.809  1.00  0.00     0.074 A 
ATOM     45  C   UNL A   1      46.809  27.545  25.454  1.00  0.00     0.031 C 
ATOM     46  C   UNL A   1      41.134  25.132  28.207  1.00  0.00     0.029 A 
ATOM     47  C   UNL A   1      41.671  26.317  28.851  1.00  0.00     0.049 A 
ATOM     48  H   UNL A   1      43.697  26.852  28.940  1.00  0.00     0.167 HD
ATOM     49  C   UNL A   1      47.950  28.351  27.569  1.00  0.00     0.037 A 
ATOM     50  C   UNL A   1      41.110  27.387  29.472  1.00  0.00     0.037 A 
ATOM     51  C   UNL A   1      48.073  27.882  28.930  1.00  0.00     0.049 A 
ATOM     52  C   UNL A   1      42.253  28.122  30.122  1.00  0.00     0.074 A 
ATOM     53  C   UNL A   1      48.651  26.764  29.504  1.00  0.00     0.029 A 
ATOM     54  N   UNL A   1      47.163  28.353  29.852  1.00  0.00    -0.354 N 
ATOM     55  N   UNL A   1      42.990  27.606  31.079  1.00  0.00    -0.248 NA
ATOM     56  C   UNL A   1      42.912  29.162  29.335  1.00  0.00     0.031 C 
ATOM     57  C   UNL A   1      47.737  26.350  30.516  1.00  0.00     0.029 A 
ATOM     58  C   UNL A   1      46.695  27.277  30.569  1.00  0.00     0.049 A 
ATOM     59  H   UNL A   1      46.895  29.293  29.974  1.00  0.00     0.167 HD
ATOM     60  C   UNL A   1      44.301  27.957  30.764  1.00  0.00     0.074 A 
ATOM     61  C   UNL A   1      44.182  28.949  29.696  1.00  0.00     0.031 C 
ATOM     62  C   UNL A   1      45.374  27.209  31.168  1.00  0.00     0.037 A 
BRANCH  49  63
ATOM     63  C   UNL A   1      48.138  29.787  27.169  1.00  0.00     0.058 A 
ATOM     64  C   UNL A   1      49.436  30.324  27.175  1.00  0.00     0.135 A 
ATOM     65  C   UNL A   1      47.090  30.726  27.007  1.00  0.00     0.135 A 
ATOM     66  F   UNL A   1      50.504  29.525  27.327  1.00  0.00    -0.206 F 
ATOM     67  C   UNL A   1      49.672  31.696  27.095  1.00  0.00     0.059 A 
ATOM     68  C   UNL A   1      47.306  32.086  26.859  1.00  0.00     0.059 A 
ATOM     69  F   UNL A   1      45.795  30.403  27.081  1.00  0.00    -0.206 F 
ATOM     70  C   UNL A   1      48.597  32.568  26.950  1.00  0.00     0.060 A 
BRANCH  70  71
ATOM     71  S   UNL A   1      48.882  34.340  26.951  1.00  0.00     0.124 S 
ATOM     72  O   UNL A   1      50.313  34.403  27.221  1.00  0.00    -0.237 OA
ATOM     73  O   UNL A   1      48.464  34.712  25.603  1.00  0.00    -0.237 OA
ATOM     74  O   UNL A   1      48.015  34.820  28.024  1.00  0.00    -0.744 OA
ENDBRANCH  70  71
ENDBRANCH  49  63
BRANCH  50  75
ATOM     75  C   UNL A   1      39.806  28.023  29.125  1.00  0.00     0.058 A 
ATOM     76  C   UNL A   1      38.803  28.212  30.093  1.00  0.00     0.135 A 
ATOM     77  C   UNL A   1      39.606  28.691  27.897  1.00  0.00     0.135 A 
ATOM     78  F   UNL A   1      38.914  27.635  31.299  1.00  0.00    -0.206 F 
ATOM     79  C   UNL A   1      37.696  29.045  29.872  1.00  0.00     0.059 A 
ATOM     80  C   UNL A   1      38.508  29.513  27.651  1.00  0.00     0.059 A 
ATOM     81  F   UNL A   1      40.520  28.641  26.918  1.00  0.00    -0.206 F 
ATOM     82  C   UNL A   1      37.569  29.709  28.651  1.00  0.00     0.060 A 
BRANCH  82  83
ATOM     83  S   UNL A   1      36.244  30.918  28.413  1.00  0.00     0.124 S 
ATOM     84  O   UNL A   1      35.543  30.855  29.689  1.00  0.00    -0.237 OA
ATOM     85  O   UNL A   1      36.992  32.145  28.154  1.00  0.00    -0.237 OA
ATOM     86  O   UNL A   1      35.504  30.391  27.268  1.00  0.00    -0.744 OA
ENDBRANCH  82  83
ENDBRANCH  50  75
BRANCH  62  87
ATOM     87  C   UNL A   1      45.157  26.075  32.145  1.00  0.00     0.058 A 
ATOM     88  C   UNL A   1      44.811  24.764  31.771  1.00  0.00     0.135 A 
ATOM     89  C   UNL A   1      45.549  26.273  33.477  1.00  0.00     0.135 A 
ATOM     90  F   UNL A   1      44.520  24.469  30.496  1.00  0.00    -0.206 F 
ATOM     91  C   UNL A   1      44.838  23.703  32.682  1.00  0.00     0.059 A 
ATOM     92  C   UNL A   1      45.614  25.227  34.395  1.00  0.00     0.059 A 
ATOM     93  F   UNL A   1      45.953  27.488  33.884  1.00  0.00    -0.206 F 
ATOM     94  C   UNL A   1      45.253  23.944  33.991  1.00  0.00     0.060 A 
BRANCH  94  95
ATOM     95  S   UNL A   1      45.391  22.560  35.146  1.00  0.00     0.124 S 
ATOM     96  O   UNL A   1      44.472  21.585  34.569  1.00  0.00    -0.237 OA
ATOM     97  O   UNL A   1      46.809  22.220  35.068  1.00  0.00    -0.237 OA
ATOM     98  O   UNL A   1      44.968  23.135  36.422  1.00  0.00    -0.744 OA
ENDBRANCH  94  95
ENDBRANCH  62  87
ENDBRANCH  36  37
ENDBRANCH  29  31
ENDBRANCH  28  29
ENDBRANCH  27  28
ENDBRANCH  26  27
ENDBRANCH  25  26
ENDBRANCH  24  25
ENDBRANCH   1  24
TORSDOF 25
ENDMDL
MODEL 2
REMARK VINA RESULT:      -9.8      1.917      3.684
REMARK SMILES CCC[C@H](Cc1ccn(-c2ccccc2)n1)C(=O)OCCOCCOCCOC(=O)c1ccc(-c2c3nc(c(-c4c(F)cc(S(=O)(=O)[O-])cc4F)c4ccc([nH]4)c(-c4c(F)cc(S(=O)(=O)[O-])cc4F)c4nc(c(-c5c(F)cc(S(=O)(=O)[O-])cc5F)c5ccc2[nH]5)C=C4)C=C3)cc1
REMARK SMILES IDX 23 1 22 2 21 3 20 4 19 5 17 6 18 7 4 8 3 9 2 10 1 11 5 12
REMARK SMILES IDX 6 13 7 14 16 15 8 16 9 17 10 18 11 19 15 20 12 21 14 22
REMARK SMILES IDX 13 23 24 24 25 25 26 26 27 27 28 28 29 29 30 30 31 31 32 32
REMARK SMILES IDX 96 33 33 34 95 35 34 36 35 37 36 38 89 39 37 40 94 41 88 42
REMARK SMILES IDX 90 43 38 44 93 45 87 46 86 47 39 49 73 50 52 51 72 52 53 53
REMARK SMILES IDX 56 54 71 55 91 56 54 57 55 58 70 60 92 61 57 62 40 63 41 64
REMARK SMILES IDX 50 65 42 66 43 67 49 68 51 69 44 70 45 71 46 72 47 73 48 74
REMARK SMILES IDX 74 75 75 76 84 77 76 78 77 79 83 80 85 81 78 82 79 83 80 84
REMARK SMILES IDX 81 85 82 86 58 87 59 88 68 89 60 90 61 91 67 92 69 93 62 94
REMARK SMILES IDX 63 95 64 96 65 97 66 98
REMARK H PARENT 90 48 56 59
REMARK Flexibility Score: inf
ROOT
ATOM      1  C   UNL A   1      35.978  22.725  25.290  1.00  0.00     0.188 C 
ENDROOT
BRANCH   1   2
ATOM      2  O   UNL A   1      35.562  24.028  24.904  1.00  0.00    -0.376 OA
BRANCH   2   3
ATOM      3  C   UNL A   1      34.506  24.570  25.705  1.00  0.00     0.202 C 
BRANCH   3   4
ATOM      4  C   UNL A   1      34.038  26.005  25.396  1.00  0.00     0.261 C 
BRANCH   4   5
ATOM      5  O   UNL A   1      33.066  26.494  26.348  1.00  0.00    -0.463 OA
BRANCH   5   6
ATOM      6  C   UNL A   1      31.776  26.462  25.963  1.00  0.00     0.309 C 
ATOM      7  O   UNL A   1      30.841  26.468  26.761  1.00  0.00    -0.252 OA
BRANCH   6   8
ATOM      8  C   UNL A   1      31.534  26.546  24.448  1.00  0.00     0.105 C 
BRANCH   8   9
ATOM      9  C   UNL A   1      31.032  27.956  24.096  1.00  0.00     0.015 C 
BRANCH   9  10
ATOM     10  C   UNL A   1      29.923  27.947  23.021  1.00  0.00    -0.003 C 
ATOM     11  C   UNL A   1      29.151  29.259  22.922  1.00  0.00     0.004 C 
ENDBRANCH   9  10
ENDBRANCH   8   9
BRANCH   8  12
ATOM     12  C   UNL A   1      30.868  25.425  23.617  1.00  0.00     0.073 C 
BRANCH  12  13
ATOM     13  C   UNL A   1      31.596  24.259  23.017  1.00  0.00     0.064 A 
ATOM     14  C   UNL A   1      32.874  24.294  22.406  1.00  0.00     0.046 A 
ATOM     15  N   UNL A   1      31.232  22.995  23.268  1.00  0.00    -0.173 NA
ATOM     16  C   UNL A   1      33.334  22.997  22.457  1.00  0.00     0.115 A 
ATOM     17  N   UNL A   1      32.341  22.248  23.041  1.00  0.00    -0.241 N 
BRANCH  17  18
ATOM     18  C   UNL A   1      32.413  20.910  23.508  1.00  0.00     0.065 A 
ATOM     19  C   UNL A   1      32.160  19.841  22.639  1.00  0.00     0.028 A 
ATOM     20  C   UNL A   1      32.881  20.657  24.804  1.00  0.00     0.028 A 
ATOM     21  C   UNL A   1      32.451  18.535  23.050  1.00  0.00     0.002 A 
ATOM     22  C   UNL A   1      33.157  19.350  25.212  1.00  0.00     0.002 A 
ATOM     23  C   UNL A   1      32.958  18.292  24.329  1.00  0.00     0.000 A 
ENDBRANCH  17  18
ENDBRANCH  12  13
ENDBRANCH   8  12
ENDBRANCH   6   8
ENDBRANCH   5   6
ENDBRANCH   4   5
ENDBRANCH   3   4
ENDBRANCH   2   3
ENDBRANCH   1   2
BRANCH   1  24
ATOM     24  C   UNL A   1      37.435  22.416  25.081  1.00  0.00     0.188 C 
BRANCH  24  25
ATOM     25  O   UNL A   1      38.199  22.606  26.275  1.00  0.00    -0.376 OA
BRANCH  25  26
ATOM     26  C   UNL A   1      39.418  21.868  26.362  1.00  0.00     0.202 C 
BRANCH  26  27
ATOM     27  C   UNL A   1      40.647  22.780  26.313  1.00  0.00     0.261 C 
BRANCH  27  28
ATOM     28  O   UNL A   1      41.742  22.122  26.921  1.00  0.00    -0.460 OA
BRANCH  28  29
ATOM     29  C   UNL A   1      42.543  21.559  25.975  1.00  0.00     0.338 C 
ATOM     30  O   UNL A   1      42.421  20.461  25.487  1.00  0.00    -0.246 OA
BRANCH  29  31
ATOM     31  C   UNL A   1      43.638  22.525  25.710  1.00  0.00     0.060 A 
ATOM     32  C   UNL A   1      44.514  22.640  26.772  1.00  0.00     0.016 A 
ATOM     33  C   UNL A   1      43.370  23.585  24.819  1.00  0.00     0.016 A 
ATOM     34  C   UNL A   1      44.583  23.894  27.300  1.00  0.00     0.010 A 
ATOM     35  C   UNL A   1      43.473  24.838  25.318  1.00  0.00     0.010 A 
ATOM     36  C   UNL A   1      43.896  24.915  26.631  1.00  0.00    -0.014 A 
BRANCH  36  37
ATOM     37  C   UNL A   1      43.569  26.093  27.371  1.00  0.00     0.031 A 
ATOM     38  C   UNL A   1      44.571  27.126  27.111  1.00  0.00     0.074 A 
ATOM     39  C   UNL A   1      42.460  26.162  28.123  1.00  0.00     0.049 A 
ATOM     40  N   UNL A   1      45.616  27.368  27.827  1.00  0.00    -0.248 NA
ATOM     41  C   UNL A   1      44.627  27.667  25.743  1.00  0.00     0.031 C 
ATOM     42  C   UNL A   1      41.306  25.259  28.190  1.00  0.00     0.029 A 
ATOM     43  N   UNL A   1      42.103  27.178  28.942  1.00  0.00    -0.354 N 
ATOM     44  C   UNL A   1      46.311  28.314  27.097  1.00  0.00     0.074 A 
ATOM     45  C   UNL A   1      45.854  28.184  25.742  1.00  0.00     0.031 C 
ATOM     46  C   UNL A   1      40.281  25.903  28.799  1.00  0.00     0.029 A 
ATOM     47  C   UNL A   1      40.749  27.196  29.263  1.00  0.00     0.049 A 
ATOM     48  H   UNL A   1      42.744  27.845  29.280  1.00  0.00     0.167 HD
ATOM     49  C   UNL A   1      46.928  29.351  27.720  1.00  0.00     0.037 A 
ATOM     50  C   UNL A   1      40.126  28.315  29.719  1.00  0.00     0.037 A 
ATOM     51  C   UNL A   1      47.059  29.093  29.135  1.00  0.00     0.049 A 
ATOM     52  C   UNL A   1      41.222  29.196  30.258  1.00  0.00     0.074 A 
ATOM     53  C   UNL A   1      47.688  28.104  29.869  1.00  0.00     0.029 A 
ATOM     54  N   UNL A   1      46.115  29.645  29.974  1.00  0.00    -0.354 N 
ATOM     55  N   UNL A   1      41.974  28.865  31.283  1.00  0.00    -0.248 NA
ATOM     56  C   UNL A   1      41.835  30.144  29.329  1.00  0.00     0.031 C 
ATOM     57  C   UNL A   1      46.786  27.794  30.927  1.00  0.00     0.029 A 
ATOM     58  C   UNL A   1      45.696  28.663  30.840  1.00  0.00     0.049 A 
ATOM     59  H   UNL A   1      45.798  30.577  29.956  1.00  0.00     0.167 HD
ATOM     60  C   UNL A   1      43.269  29.236  30.925  1.00  0.00     0.074 A 
ATOM     61  C   UNL A   1      43.110  30.053  29.722  1.00  0.00     0.031 C 
ATOM     62  C   UNL A   1      44.374  28.613  31.438  1.00  0.00     0.037 A 
BRANCH  49  63
ATOM     63  C   UNL A   1      47.045  30.721  27.113  1.00  0.00     0.058 A 
ATOM     64  C   UNL A   1      48.313  31.323  27.050  1.00  0.00     0.135 A 
ATOM     65  C   UNL A   1      45.952  31.567  26.807  1.00  0.00     0.135 A 
ATOM     66  F   UNL A   1      49.420  30.615  27.326  1.00  0.00    -0.206 F 
ATOM     67  C   UNL A   1      48.477  32.679  26.770  1.00  0.00     0.059 A 
ATOM     68  C   UNL A   1      46.098  32.901  26.463  1.00  0.00     0.059 A 
ATOM     69  F   UNL A   1      44.675  31.188  26.919  1.00  0.00    -0.206 F 
ATOM     70  C   UNL A   1      47.360  33.460  26.490  1.00  0.00     0.060 A 
BRANCH  70  71
ATOM     71  S   UNL A   1      47.550  35.227  26.233  1.00  0.00     0.124 S 
ATOM     72  O   UNL A   1      48.602  35.260  25.223  1.00  0.00    -0.237 OA
ATOM     73  O   UNL A   1      46.215  35.609  25.785  1.00  0.00    -0.237 OA
ATOM     74  O   UNL A   1      47.927  35.721  27.554  1.00  0.00    -0.744 OA
ENDBRANCH  70  71
ENDBRANCH  49  63
BRANCH  50  75
ATOM     75  C   UNL A   1      38.795  28.823  29.278  1.00  0.00     0.058 A 
ATOM     76  C   UNL A   1      37.713  28.918  30.173  1.00  0.00     0.135 A 
ATOM     77  C   UNL A   1      38.618  29.466  28.033  1.00  0.00     0.135 A 
ATOM     78  F   UNL A   1      37.795  28.356  31.388  1.00  0.00    -0.206 F 
ATOM     79  C   UNL A   1      36.551  29.641  29.869  1.00  0.00     0.059 A 
ATOM     80  C   UNL A   1      37.467  30.180  27.705  1.00  0.00     0.059 A 
ATOM     81  F   UNL A   1      39.598  29.502  27.120  1.00  0.00    -0.206 F 
ATOM     82  C   UNL A   1      36.446  30.287  28.637  1.00  0.00     0.060 A 
BRANCH  82  83
ATOM     83  S   UNL A   1      35.032  31.365  28.298  1.00  0.00     0.124 S 
ATOM     84  O   UNL A   1      35.613  32.354  27.398  1.00  0.00    -0.237 OA
ATOM     85  O   UNL A   1      34.077  30.438  27.701  1.00  0.00    -0.237 OA
ATOM     86  O   UNL A   1      34.664  31.867  29.621  1.00  0.00    -0.744 OA
ENDBRANCH  82  83
ENDBRANCH  50  75
BRANCH  62  87
ATOM     87  C   UNL A   1      44.205  27.625  32.570  1.00  0.00     0.058 A 
ATOM     88  C   UNL A   1      43.971  27.988  33.909  1.00  0.00     0.135 A 
ATOM     89  C   UNL A   1      44.036  26.272  32.239  1.00  0.00     0.135 A 
ATOM     90  F   UNL A   1      44.014  29.272  34.288  1.00  0.00    -0.206 F 
ATOM     91  C   UNL A   1      43.602  27.047  34.877  1.00  0.00     0.059 A 
ATOM     92  C   UNL A   1      43.639  25.323  33.178  1.00  0.00     0.059 A 
ATOM     93  F   UNL A   1      44.182  25.869  30.966  1.00  0.00    -0.206 F 
ATOM     94  C   UNL A   1      43.428  25.716  34.498  1.00  0.00     0.060 A 
BRANCH  94  95
ATOM     95  S   UNL A   1      42.850  24.515  35.719  1.00  0.00     0.124 S 
ATOM     96  O   UNL A   1      41.402  24.673  35.642  1.00  0.00    -0.237 OA
ATOM     97  O   UNL A   1      43.380  23.256  35.203  1.00  0.00    -0.237 OA
ATOM     98  O   UNL A   1      43.461  24.973  36.965  1.00  0.00    -0.744 OA
ENDBRANCH  94  95
ENDBRANCH  62  87
ENDBRANCH  36  37
ENDBRANCH  29  31
ENDBRANCH  28  29
ENDBRANCH  27  28
ENDBRANCH  26  27
ENDBRANCH  25  26
ENDBRANCH  24  25
ENDBRANCH   1  24
TORSDOF 25
ENDMDL
MODEL 3
REMARK VINA RESULT:      -9.2      1.459      2.190
REMARK SMILES CCC[C@H](Cc1ccn(-c2ccccc2)n1)C(=O)OCCOCCOCCOC(=O)c1ccc(-c2c3nc(c(-c4c(F)cc(S(=O)(=O)[O-])cc4F)c4ccc([nH]4)c(-c4c(F)cc(S(=O)(=O)[O-])cc4F)c4nc(c(-c5c(F)cc(S(=O)(=O)[O-])cc5F)c5ccc2[nH]5)C=C4)C=C3)cc1
REMARK SMILES IDX 23 1 22 2 21 3 20 4 19 5 17 6 18 7 4 8 3 9 2 10 1 11 5 12
REMARK SMILES IDX 6 13 7 14 16 15 8 16 9 17 10 18 11 19 15 20 12 21 14 22
REMARK SMILES IDX 13 23 24 24 25 25 26 26 27 27 28 28 29 29 30 30 31 31 32 32
REMARK SMILES IDX 96 33 33 34 95 35 34 36 35 37 36 38 89 39 37 40 94 41 88 42
REMARK SMILES IDX 90 43 38 44 93 45 87 46 86 47 39 49 73 50 52 51 72 52 53 53
REMARK SMILES IDX 56 54 71 55 91 56 54 57 55 58 70 60 92 61 57 62 40 63 41 64
REMARK SMILES IDX 50 65 42 66 43 67 49 68 51 69 44 70 45 71 46 72 47 73 48 74
REMARK SMILES IDX 74 75 75 76 84 77 76 78 77 79 83 80 85 81 78 82 79 83 80 84
REMARK SMILES IDX 81 85 82 86 58 87 59 88 68 89 60 90 61 91 67 92 69 93 62 94
REMARK SMILES IDX 63 95 64 96 65 97 66 98
REMARK H PARENT 90 48 56 59
REMARK Flexibility Score: inf
ROOT
ATOM      1  C   UNL A   1      37.242  22.284  25.643  1.00  0.00     0.188 C 
ENDROOT
BRANCH   1   2
ATOM      2  O   UNL A   1      37.061  23.417  24.804  1.00  0.00    -0.376 OA
BRANCH   2   3
ATOM      3  C   UNL A   1      35.928  23.328  23.933  1.00  0.00     0.202 C 
BRANCH   3   4
ATOM      4  C   UNL A   1      34.870  22.251  24.241  1.00  0.00     0.261 C 
BRANCH   4   5
ATOM      5  O   UNL A   1      33.704  22.352  23.394  1.00  0.00    -0.463 OA
BRANCH   5   6
ATOM      6  C   UNL A   1      33.382  23.584  22.956  1.00  0.00     0.309 C 
ATOM      7  O   UNL A   1      33.927  24.113  21.990  1.00  0.00    -0.252 OA
BRANCH   6   8
ATOM      8  C   UNL A   1      32.191  24.249  23.664  1.00  0.00     0.105 C 
BRANCH   8   9
ATOM      9  C   UNL A   1      31.438  23.188  24.485  1.00  0.00     0.015 C 
BRANCH   9  10
ATOM     10  C   UNL A   1      30.894  23.739  25.822  1.00  0.00    -0.003 C 
ATOM     11  C   UNL A   1      31.695  23.294  27.042  1.00  0.00     0.004 C 
ENDBRANCH   9  10
ENDBRANCH   8   9
BRANCH   8  12
ATOM     12  C   UNL A   1      31.264  25.292  22.999  1.00  0.00     0.073 C 
BRANCH  12  13
ATOM     13  C   UNL A   1      31.385  26.777  23.174  1.00  0.00     0.064 A 
ATOM     14  C   UNL A   1      32.514  27.569  22.848  1.00  0.00     0.046 A 
ATOM     15  N   UNL A   1      30.314  27.552  23.383  1.00  0.00    -0.173 NA
ATOM     16  C   UNL A   1      32.027  28.849  22.705  1.00  0.00     0.115 A 
ATOM     17  N   UNL A   1      30.681  28.793  22.975  1.00  0.00    -0.241 N 
BRANCH  17  18
ATOM     18  C   UNL A   1      29.701  29.796  22.757  1.00  0.00     0.065 A 
ATOM     19  C   UNL A   1      29.294  30.629  23.807  1.00  0.00     0.028 A 
ATOM     20  C   UNL A   1      29.250  30.047  21.455  1.00  0.00     0.028 A 
ATOM     21  C   UNL A   1      28.502  31.750  23.530  1.00  0.00     0.002 A 
ATOM     22  C   UNL A   1      28.449  31.159  21.187  1.00  0.00     0.002 A 
ATOM     23  C   UNL A   1      28.090  32.019  22.222  1.00  0.00     0.000 A 
ENDBRANCH  17  18
ENDBRANCH  12  13
ENDBRANCH   8  12
ENDBRANCH   6   8
ENDBRANCH   5   6
ENDBRANCH   4   5
ENDBRANCH   3   4
ENDBRANCH   2   3
ENDBRANCH   1   2
BRANCH   1  24
ATOM     24  C   UNL A   1      38.641  21.733  25.702  1.00  0.00     0.188 C 
BRANCH  24  25
ATOM     25  O   UNL A   1      39.465  22.462  26.617  1.00  0.00    -0.376 OA
BRANCH  25  26
ATOM     26  C   UNL A   1      40.309  21.678  27.459  1.00  0.00     0.202 C 
BRANCH  26  27
ATOM     27  C   UNL A   1      41.292  20.824  26.654  1.00  0.00     0.261 C 
BRANCH  27  28
ATOM     28  O   UNL A   1      42.499  21.540  26.478  1.00  0.00    -0.460 OA
BRANCH  28  29
ATOM     29  C   UNL A   1      43.267  20.950  25.521  1.00  0.00     0.338 C 
ATOM     30  O   UNL A   1      43.219  19.796  25.168  1.00  0.00    -0.246 OA
BRANCH  29  31
ATOM     31  C   UNL A   1      44.223  21.980  25.043  1.00  0.00     0.060 A 
ATOM     32  C   UNL A   1      45.373  22.032  25.807  1.00  0.00     0.016 A 
ATOM     33  C   UNL A   1      43.691  23.105  24.380  1.00  0.00     0.016 A 
ATOM     34  C   UNL A   1      45.581  23.234  26.413  1.00  0.00     0.010 A 
ATOM     35  C   UNL A   1      43.923  24.310  24.948  1.00  0.00     0.010 A 
ATOM     36  C   UNL A   1      44.715  24.283  26.080  1.00  0.00    -0.014 A 
BRANCH  36  37
ATOM     37  C   UNL A   1      44.608  25.375  26.996  1.00  0.00     0.031 A 
ATOM     38  C   UNL A   1      45.769  26.251  26.850  1.00  0.00     0.074 A 
ATOM     39  C   UNL A   1      43.539  25.516  27.796  1.00  0.00     0.049 A 
ATOM     40  N   UNL A   1      46.851  26.203  27.549  1.00  0.00    -0.248 NA
ATOM     41  C   UNL A   1      45.897  26.975  25.574  1.00  0.00     0.031 C 
ATOM     42  C   UNL A   1      42.247  24.822  27.776  1.00  0.00     0.029 A 
ATOM     43  N   UNL A   1      43.376  26.443  28.767  1.00  0.00    -0.354 N 
ATOM     44  C   UNL A   1      47.688  27.116  26.938  1.00  0.00     0.074 A 
ATOM     45  C   UNL A   1      47.195  27.271  25.598  1.00  0.00     0.031 C 
ATOM     46  C   UNL A   1      41.359  25.530  28.514  1.00  0.00     0.029 A 
ATOM     47  C   UNL A   1      42.050  26.641  29.143  1.00  0.00     0.049 A 
ATOM     48  H   UNL A   1      44.127  26.934  29.173  1.00  0.00     0.167 HD
ATOM     49  C   UNL A   1      48.485  27.928  27.679  1.00  0.00     0.037 A 
ATOM     50  C   UNL A   1      41.637  27.767  29.782  1.00  0.00     0.037 A 
ATOM     51  C   UNL A   1      48.591  27.442  29.036  1.00  0.00     0.049 A 
ATOM     52  C   UNL A   1      42.877  28.359  30.398  1.00  0.00     0.074 A 
ATOM     53  C   UNL A   1      49.050  26.262  29.591  1.00  0.00     0.029 A 
ATOM     54  N   UNL A   1      47.770  28.013  29.984  1.00  0.00    -0.354 N 
ATOM     55  N   UNL A   1      43.576  27.756  31.333  1.00  0.00    -0.248 NA
ATOM     56  C   UNL A   1      43.631  29.318  29.594  1.00  0.00     0.031 C 
ATOM     57  C   UNL A   1      48.124  25.953  30.629  1.00  0.00     0.029 A 
ATOM     58  C   UNL A   1      47.200  26.997  30.714  1.00  0.00     0.049 A 
ATOM     59  H   UNL A   1      47.618  28.977  30.115  1.00  0.00     0.167 HD
ATOM     60  C   UNL A   1      44.910  27.952  30.980  1.00  0.00     0.074 A 
ATOM     61  C   UNL A   1      44.877  28.956  29.916  1.00  0.00     0.031 C 
ATOM     62  C   UNL A   1      45.898  27.082  31.351  1.00  0.00     0.037 A 
BRANCH  49  63
ATOM     63  C   UNL A   1      48.828  29.335  27.275  1.00  0.00     0.058 A 
ATOM     64  C   UNL A   1      50.183  29.688  27.152  1.00  0.00     0.135 A 
ATOM     65  C   UNL A   1      47.910  30.412  27.230  1.00  0.00     0.135 A 
ATOM     66  F   UNL A   1      51.139  28.747  27.185  1.00  0.00    -0.206 F 
ATOM     67  C   UNL A   1      50.597  31.016  27.060  1.00  0.00     0.059 A 
ATOM     68  C   UNL A   1      48.296  31.733  27.074  1.00  0.00     0.059 A 
ATOM     69  F   UNL A   1      46.597  30.267  27.435  1.00  0.00    -0.206 F 
ATOM     70  C   UNL A   1      49.644  32.031  27.035  1.00  0.00     0.060 A 
BRANCH  70  71
ATOM     71  S   UNL A   1      50.170  33.747  27.024  1.00  0.00     0.124 S 
ATOM     72  O   UNL A   1      49.084  34.388  27.756  1.00  0.00    -0.237 OA
ATOM     73  O   UNL A   1      51.454  33.671  27.713  1.00  0.00    -0.237 OA
ATOM     74  O   UNL A   1      50.247  34.066  25.601  1.00  0.00    -0.744 OA
ENDBRANCH  70  71
ENDBRANCH  49  63
BRANCH  50  75
ATOM     75  C   UNL A   1      40.408  28.553  29.474  1.00  0.00     0.058 A 
ATOM     76  C   UNL A   1      40.119  28.980  28.165  1.00  0.00     0.135 A 
ATOM     77  C   UNL A   1      39.358  28.690  30.409  1.00  0.00     0.135 A 
ATOM     78  F   UNL A   1      41.047  28.871  27.202  1.00  0.00    -0.206 F 
ATOM     79  C   UNL A   1      38.857  29.469  27.798  1.00  0.00     0.059 A 
ATOM     80  C   UNL A   1      38.100  29.185  30.069  1.00  0.00     0.059 A 
ATOM     81  F   UNL A   1      39.487  28.263  31.672  1.00  0.00    -0.206 F 
ATOM     82  C   UNL A   1      37.846  29.548  28.756  1.00  0.00     0.060 A 
BRANCH  82  83
ATOM     83  S   UNL A   1      36.167  30.011  28.262  1.00  0.00     0.124 S 
ATOM     84  O   UNL A   1      36.408  31.183  27.429  1.00  0.00    -0.237 OA
ATOM     85  O   UNL A   1      35.712  28.812  27.565  1.00  0.00    -0.237 OA
ATOM     86  O   UNL A   1      35.500  30.277  29.535  1.00  0.00    -0.744 OA
ENDBRANCH  82  83
ENDBRANCH  50  75
BRANCH  62  87
ATOM     87  C   UNL A   1      45.578  25.977  32.333  1.00  0.00     0.058 A 
ATOM     88  C   UNL A   1      45.056  24.721  31.969  1.00  0.00     0.135 A 
ATOM     89  C   UNL A   1      46.042  26.114  33.649  1.00  0.00     0.135 A 
ATOM     90  F   UNL A   1      44.682  24.475  30.706  1.00  0.00    -0.206 F 
ATOM     91  C   UNL A   1      44.985  23.659  32.875  1.00  0.00     0.059 A 
ATOM     92  C   UNL A   1      46.010  25.061  34.561  1.00  0.00     0.059 A 
ATOM     93  F   UNL A   1      46.610  27.266  34.044  1.00  0.00    -0.206 F 
ATOM     94  C   UNL A   1      45.475  23.836  34.169  1.00  0.00     0.060 A 
BRANCH  94  95
ATOM     95  S   UNL A   1      45.483  22.437  35.314  1.00  0.00     0.124 S 
ATOM     96  O   UNL A   1      46.899  22.092  35.368  1.00  0.00    -0.237 OA
ATOM     97  O   UNL A   1      44.924  23.019  36.532  1.00  0.00    -0.237 OA
ATOM     98  O   UNL A   1      44.626  21.452  34.657  1.00  0.00    -0.744 OA
ENDBRANCH  94  95
ENDBRANCH  62  87
ENDBRANCH  36  37
ENDBRANCH  29  31
ENDBRANCH  28  29
ENDBRANCH  27  28
ENDBRANCH  26  27
ENDBRANCH  25  26
ENDBRANCH  24  25
ENDBRANCH   1  24
TORSDOF 25
ENDMDL
