MODEL 1
REMARK VINA RESULT:     -11.1      0.000      0.000
REMARK SMILES O=C(OCCOCCOCCOC(=O)c1ccc(-c2c3nc(c(-c4c(F)cc(S(=O)(=O)[O-])cc4F)c4ccc([nH]4)c(-c4c(F)cc(S(=O)(=O)[O-])cc4F)c4nc(c(-c5c(F)cc(S(=O)(=O)[O-])cc5F)c5ccc2[nH]5)C=C4)C=C3)cc1)C1=NN(c2ccc(S(=O)(=O)[O-])cc2)C(=O)/C1=C/Nc1ccccc1
REMARK SMILES IDX 8 1 7 2 6 3 5 4 4 5 3 6 2 7 1 8 81 9 82 10 96 11 83 12 94 13
REMARK SMILES IDX 97 14 95 15 84 16 85 17 93 18 86 19 92 20 87 21 88 22 89 23
REMARK SMILES IDX 90 24 91 25 98 26 99 28 100 29 104 30 101 31 103 32 102 33
REMARK SMILES IDX 9 34 10 35 11 36 12 37 13 38 14 39 15 40 16 41 80 42 17 43
REMARK SMILES IDX 79 44 18 45 19 46 20 47 73 48 21 49 78 50 72 51 74 52 22 53
REMARK SMILES IDX 77 54 71 55 70 56 23 58 57 59 36 60 56 61 37 62 40 63 55 64
REMARK SMILES IDX 75 65 38 66 39 67 54 69 76 70 41 71 24 72 25 73 34 74 26 75
REMARK SMILES IDX 27 76 33 77 35 78 28 79 29 80 30 81 31 82 32 83 58 84 59 85
REMARK SMILES IDX 68 86 60 87 61 88 67 89 69 90 62 91 63 92 64 93 65 94 66 95
REMARK SMILES IDX 42 96 43 97 52 98 44 99 45 100 51 101 53 102 46 103 47 104
REMARK SMILES IDX 48 105 49 106 50 107
REMARK H PARENT 98 27 74 57 40 68
REMARK Flexibility Score: inf
ROOT
ATOM      1  C   UNL A   1      34.918  32.881  30.342  1.00  0.00     0.188 C 
ENDROOT
BRANCH   1   2
ATOM      2  C   UNL A   1      34.305  33.081  28.965  1.00  0.00     0.188 C 
BRANCH   2   3
ATOM      3  O   UNL A   1      33.928  31.814  28.449  1.00  0.00    -0.376 OA
BRANCH   3   4
ATOM      4  C   UNL A   1      33.298  31.801  27.189  1.00  0.00     0.202 C 
BRANCH   4   5
ATOM      5  C   UNL A   1      32.458  30.540  27.010  1.00  0.00     0.261 C 
BRANCH   5   6
ATOM      6  O   UNL A   1      32.570  29.922  25.709  1.00  0.00    -0.458 OA
BRANCH   6   7
ATOM      7  C   UNL A   1      31.436  29.636  25.017  1.00  0.00     0.359 C 
ATOM      8  O   UNL A   1      30.565  30.415  24.683  1.00  0.00    -0.244 OA
BRANCH   7   9
ATOM      9  C   UNL A   1      31.481  28.200  24.585  1.00  0.00     0.183 C 
ATOM     10  N   UNL A   1      32.554  27.490  24.866  1.00  0.00    -0.157 NA
ATOM     11  C   UNL A   1      30.334  27.418  24.030  1.00  0.00     0.093 C 
ATOM     12  N   UNL A   1      32.251  26.187  24.572  1.00  0.00    -0.196 N 
ATOM     13  C   UNL A   1      30.919  26.009  24.189  1.00  0.00     0.282 C 
ATOM     14  C   UNL A   1      29.078  27.512  23.506  1.00  0.00     0.099 C 
ATOM     15  O   UNL A   1      30.310  24.958  24.098  1.00  0.00    -0.267 OA
BRANCH  12  16
ATOM     16  C   UNL A   1      33.243  25.164  24.688  1.00  0.00     0.069 A 
ATOM     17  C   UNL A   1      33.364  24.355  25.833  1.00  0.00     0.030 A 
ATOM     18  C   UNL A   1      34.182  24.971  23.659  1.00  0.00     0.030 A 
ATOM     19  C   UNL A   1      34.386  23.383  25.936  1.00  0.00     0.021 A 
ATOM     20  C   UNL A   1      35.225  24.044  23.772  1.00  0.00     0.021 A 
ATOM     21  C   UNL A   1      35.325  23.248  24.909  1.00  0.00     0.054 A 
BRANCH  21  22
ATOM     22  S   UNL A   1      36.744  22.186  25.081  1.00  0.00     0.124 S 
ATOM     23  O   UNL A   1      37.151  21.725  23.781  1.00  0.00    -0.237 OA
ATOM     24  O   UNL A   1      37.661  22.843  25.993  1.00  0.00    -0.237 OA
ATOM     25  O   UNL A   1      36.180  20.863  25.819  1.00  0.00    -0.744 OA
ENDBRANCH  21  22
ENDBRANCH  12  16
BRANCH  14  26
ATOM     26  N   UNL A   1      28.036  28.337  23.027  1.00  0.00    -0.361 N 
ATOM     27  H   UNL A   1      27.189  27.851  22.902  1.00  0.00     0.166 HD
BRANCH  26  28
ATOM     28  C   UNL A   1      27.937  29.765  22.673  1.00  0.00     0.038 A 
ATOM     29  C   UNL A   1      28.225  30.151  21.363  1.00  0.00     0.026 A 
ATOM     30  C   UNL A   1      27.702  30.877  23.516  1.00  0.00     0.026 A 
ATOM     31  C   UNL A   1      28.413  31.512  20.992  1.00  0.00     0.002 A 
ATOM     32  C   UNL A   1      27.915  32.233  23.186  1.00  0.00     0.002 A 
ATOM     33  C   UNL A   1      28.306  32.552  21.911  1.00  0.00     0.000 A 
ENDBRANCH  26  28
ENDBRANCH  14  26
ENDBRANCH   7   9
ENDBRANCH   6   7
ENDBRANCH   5   6
ENDBRANCH   4   5
ENDBRANCH   3   4
ENDBRANCH   2   3
ENDBRANCH   1   2
BRANCH   1  34
ATOM     34  O   UNL A   1      34.486  33.876  31.266  1.00  0.00    -0.376 OA
BRANCH  34  35
ATOM     35  C   UNL A   1      34.930  33.967  32.619  1.00  0.00     0.202 C 
BRANCH  35  36
ATOM     36  C   UNL A   1      35.627  32.649  33.322  1.00  0.00     0.261 C 
BRANCH  36  37
ATOM     37  O   UNL A   1      36.771  31.788  32.665  1.00  0.00    -0.460 OA
BRANCH  37  38
ATOM     38  C   UNL A   1      37.454  30.603  32.398  1.00  0.00     0.338 C 
ATOM     39  O   UNL A   1      36.970  29.574  32.888  1.00  0.00    -0.246 OA
BRANCH  38  40
ATOM     40  C   UNL A   1      38.755  30.312  31.606  1.00  0.00     0.060 A 
ATOM     41  C   UNL A   1      40.027  30.018  32.157  1.00  0.00     0.016 A 
ATOM     42  C   UNL A   1      38.771  30.532  30.225  1.00  0.00     0.016 A 
ATOM     43  C   UNL A   1      41.154  29.639  31.365  1.00  0.00     0.010 A 
ATOM     44  C   UNL A   1      39.920  30.251  29.431  1.00  0.00     0.010 A 
ATOM     45  C   UNL A   1      41.109  29.726  29.975  1.00  0.00    -0.014 A 
BRANCH  45  46
ATOM     46  C   UNL A   1      42.268  29.406  29.061  1.00  0.00     0.031 A 
ATOM     47  C   UNL A   1      42.471  27.988  28.588  1.00  0.00     0.074 A 
ATOM     48  C   UNL A   1      43.173  30.323  28.642  1.00  0.00     0.049 A 
ATOM     49  N   UNL A   1      43.555  27.405  28.145  1.00  0.00    -0.248 NA
ATOM     50  C   UNL A   1      41.275  27.133  28.568  1.00  0.00     0.031 C 
ATOM     51  C   UNL A   1      43.015  31.771  28.714  1.00  0.00     0.029 A 
ATOM     52  N   UNL A   1      44.429  30.165  28.072  1.00  0.00    -0.354 N 
ATOM     53  C   UNL A   1      43.177  26.111  27.796  1.00  0.00     0.074 A 
ATOM     54  C   UNL A   1      41.763  25.997  28.085  1.00  0.00     0.031 C 
ATOM     55  C   UNL A   1      44.130  32.361  28.240  1.00  0.00     0.029 A 
ATOM     56  C   UNL A   1      45.149  31.344  27.969  1.00  0.00     0.049 A 
ATOM     57  H   UNL A   1      44.775  29.295  27.769  1.00  0.00     0.167 HD
ATOM     58  C   UNL A   1      43.940  25.118  27.279  1.00  0.00     0.037 A 
ATOM     59  C   UNL A   1      46.481  31.564  27.794  1.00  0.00     0.037 A 
ATOM     60  C   UNL A   1      45.344  25.240  26.981  1.00  0.00     0.049 A 
ATOM     61  C   UNL A   1      47.389  30.345  27.709  1.00  0.00     0.074 A 
ATOM     62  C   UNL A   1      46.204  24.295  26.446  1.00  0.00     0.029 A 
ATOM     63  N   UNL A   1      46.098  26.379  27.204  1.00  0.00    -0.354 N 
ATOM     64  N   UNL A   1      47.072  29.097  27.461  1.00  0.00    -0.248 NA
ATOM     65  C   UNL A   1      48.830  30.544  27.945  1.00  0.00     0.031 C 
ATOM     66  C   UNL A   1      47.491  24.844  26.407  1.00  0.00     0.029 A 
ATOM     67  C   UNL A   1      47.422  26.146  26.872  1.00  0.00     0.049 A 
ATOM     68  H   UNL A   1      45.745  27.231  27.548  1.00  0.00     0.167 HD
ATOM     69  C   UNL A   1      48.277  28.400  27.382  1.00  0.00     0.074 A 
ATOM     70  C   UNL A   1      49.329  29.346  27.674  1.00  0.00     0.031 C 
ATOM     71  C   UNL A   1      48.484  27.099  27.064  1.00  0.00     0.037 A 
BRANCH  58  72
ATOM     72  C   UNL A   1      43.298  23.783  27.027  1.00  0.00     0.058 A 
ATOM     73  C   UNL A   1      42.983  23.348  25.733  1.00  0.00     0.135 A 
ATOM     74  C   UNL A   1      43.098  22.886  28.091  1.00  0.00     0.135 A 
ATOM     75  F   UNL A   1      43.145  24.171  24.684  1.00  0.00    -0.206 F 
ATOM     76  C   UNL A   1      42.491  22.067  25.498  1.00  0.00     0.059 A 
ATOM     77  C   UNL A   1      42.626  21.595  27.878  1.00  0.00     0.059 A 
ATOM     78  F   UNL A   1      43.387  23.256  29.349  1.00  0.00    -0.206 F 
ATOM     79  C   UNL A   1      42.323  21.195  26.577  1.00  0.00     0.060 A 
BRANCH  79  80
ATOM     80  S   UNL A   1      41.731  19.521  26.249  1.00  0.00     0.124 S 
ATOM     81  O   UNL A   1      42.469  19.182  25.037  1.00  0.00    -0.237 OA
ATOM     82  O   UNL A   1      42.135  18.807  27.456  1.00  0.00    -0.237 OA
ATOM     83  O   UNL A   1      40.292  19.694  26.079  1.00  0.00    -0.744 OA
ENDBRANCH  79  80
ENDBRANCH  58  72
BRANCH  59  84
ATOM     84  C   UNL A   1      47.116  32.937  27.887  1.00  0.00     0.058 A 
ATOM     85  C   UNL A   1      47.592  33.498  29.088  1.00  0.00     0.135 A 
ATOM     86  C   UNL A   1      47.083  33.806  26.790  1.00  0.00     0.135 A 
ATOM     87  F   UNL A   1      47.641  32.750  30.202  1.00  0.00    -0.206 F 
ATOM     88  C   UNL A   1      47.921  34.857  29.204  1.00  0.00     0.059 A 
ATOM     89  C   UNL A   1      47.497  35.133  26.853  1.00  0.00     0.059 A 
ATOM     90  F   UNL A   1      46.556  33.385  25.637  1.00  0.00    -0.206 F 
ATOM     91  C   UNL A   1      47.864  35.671  28.074  1.00  0.00     0.060 A 
BRANCH  91  92
ATOM     92  S   UNL A   1      48.116  37.458  28.214  1.00  0.00     0.124 S 
ATOM     93  O   UNL A   1      46.842  37.908  28.764  1.00  0.00    -0.237 OA
ATOM     94  O   UNL A   1      49.262  37.524  29.114  1.00  0.00    -0.237 OA
ATOM     95  O   UNL A   1      48.385  37.874  26.840  1.00  0.00    -0.744 OA
ENDBRANCH  91  92
ENDBRANCH  59  84
BRANCH  71  96
ATOM     96  C   UNL A   1      49.897  26.641  26.820  1.00  0.00     0.058 A 
ATOM     97  C   UNL A   1      50.731  26.172  27.845  1.00  0.00     0.135 A 
ATOM     98  C   UNL A   1      50.403  26.622  25.507  1.00  0.00     0.135 A 
ATOM     99  F   UNL A   1      50.308  26.180  29.117  1.00  0.00    -0.206 F 
ATOM    100  C   UNL A   1      52.020  25.711  27.578  1.00  0.00     0.059 A 
ATOM    101  C   UNL A   1      51.676  26.143  25.215  1.00  0.00     0.059 A 
ATOM    102  F   UNL A   1      49.644  27.052  24.486  1.00  0.00    -0.206 F 
ATOM    103  C   UNL A   1      52.482  25.697  26.260  1.00  0.00     0.060 A 
BRANCH 103 104
ATOM    104  S   UNL A   1      54.137  25.057  25.919  1.00  0.00     0.124 S 
ATOM    105  O   UNL A   1      54.503  25.807  24.722  1.00  0.00    -0.237 OA
ATOM    106  O   UNL A   1      54.864  25.408  27.134  1.00  0.00    -0.237 OA
ATOM    107  O   UNL A   1      53.916  23.628  25.720  1.00  0.00    -0.744 OA
ENDBRANCH 103 104
ENDBRANCH  71  96
ENDBRANCH  45  46
ENDBRANCH  38  40
ENDBRANCH  37  38
ENDBRANCH  36  37
ENDBRANCH  35  36
ENDBRANCH  34  35
ENDBRANCH   1  34
TORSDOF 24
ENDMDL
MODEL 2
REMARK VINA RESULT:     -10.6      2.015      2.965
REMARK SMILES O=C(OCCOCCOCCOC(=O)c1ccc(-c2c3nc(c(-c4c(F)cc(S(=O)(=O)[O-])cc4F)c4ccc([nH]4)c(-c4c(F)cc(S(=O)(=O)[O-])cc4F)c4nc(c(-c5c(F)cc(S(=O)(=O)[O-])cc5F)c5ccc2[nH]5)C=C4)C=C3)cc1)C1=NN(c2ccc(S(=O)(=O)[O-])cc2)C(=O)/C1=C/Nc1ccccc1
REMARK SMILES IDX 8 1 7 2 6 3 5 4 4 5 3 6 2 7 1 8 81 9 82 10 96 11 83 12 94 13
REMARK SMILES IDX 97 14 95 15 84 16 85 17 93 18 86 19 92 20 87 21 88 22 89 23
REMARK SMILES IDX 90 24 91 25 98 26 99 28 100 29 104 30 101 31 103 32 102 33
REMARK SMILES IDX 9 34 10 35 11 36 12 37 13 38 14 39 15 40 16 41 80 42 17 43
REMARK SMILES IDX 79 44 18 45 19 46 20 47 73 48 21 49 78 50 72 51 74 52 22 53
REMARK SMILES IDX 77 54 71 55 70 56 23 58 57 59 36 60 56 61 37 62 40 63 55 64
REMARK SMILES IDX 75 65 38 66 39 67 54 69 76 70 41 71 24 72 25 73 34 74 26 75
REMARK SMILES IDX 27 76 33 77 35 78 28 79 29 80 30 81 31 82 32 83 58 84 59 85
REMARK SMILES IDX 68 86 60 87 61 88 67 89 69 90 62 91 63 92 64 93 65 94 66 95
REMARK SMILES IDX 42 96 43 97 52 98 44 99 45 100 51 101 53 102 46 103 47 104
REMARK SMILES IDX 48 105 49 106 50 107
REMARK H PARENT 98 27 74 57 40 68
REMARK Flexibility Score: inf
ROOT
ATOM      1  C   UNL A   1      34.569  31.488  28.122  1.00  0.00     0.188 C 
ENDROOT
BRANCH   1   2
ATOM      2  C   UNL A   1      34.452  30.057  27.621  1.00  0.00     0.188 C 
BRANCH   2   3
ATOM      3  O   UNL A   1      33.136  29.855  27.133  1.00  0.00    -0.376 OA
BRANCH   3   4
ATOM      4  C   UNL A   1      32.644  28.535  27.154  1.00  0.00     0.202 C 
BRANCH   4   5
ATOM      5  C   UNL A   1      33.617  27.577  26.473  1.00  0.00     0.261 C 
BRANCH   5   6
ATOM      6  O   UNL A   1      33.062  26.280  26.156  1.00  0.00    -0.458 OA
BRANCH   6   7
ATOM      7  C   UNL A   1      33.731  25.472  25.294  1.00  0.00     0.359 C 
ATOM      8  O   UNL A   1      34.821  25.674  24.795  1.00  0.00    -0.244 OA
BRANCH   7   9
ATOM      9  C   UNL A   1      32.975  24.185  25.150  1.00  0.00     0.183 C 
ATOM     10  N   UNL A   1      33.651  23.054  25.128  1.00  0.00    -0.157 NA
ATOM     11  C   UNL A   1      31.490  24.031  25.224  1.00  0.00     0.093 C 
ATOM     12  N   UNL A   1      32.731  22.044  25.215  1.00  0.00    -0.196 N 
ATOM     13  C   UNL A   1      31.427  22.508  25.406  1.00  0.00     0.282 C 
ATOM     14  C   UNL A   1      30.303  24.703  25.208  1.00  0.00     0.099 C 
ATOM     15  O   UNL A   1      30.453  21.860  25.747  1.00  0.00    -0.267 OA
BRANCH  12  16
ATOM     16  C   UNL A   1      33.139  20.677  25.133  1.00  0.00     0.069 A 
ATOM     17  C   UNL A   1      34.438  20.298  24.746  1.00  0.00     0.030 A 
ATOM     18  C   UNL A   1      32.216  19.647  25.388  1.00  0.00     0.030 A 
ATOM     19  C   UNL A   1      34.798  18.935  24.629  1.00  0.00     0.021 A 
ATOM     20  C   UNL A   1      32.549  18.297  25.230  1.00  0.00     0.021 A 
ATOM     21  C   UNL A   1      33.840  17.941  24.853  1.00  0.00     0.054 A 
BRANCH  21  22
ATOM     22  S   UNL A   1      34.187  16.226  24.520  1.00  0.00     0.124 S 
ATOM     23  O   UNL A   1      35.456  15.878  25.101  1.00  0.00    -0.237 OA
ATOM     24  O   UNL A   1      32.974  15.482  24.802  1.00  0.00    -0.237 OA
ATOM     25  O   UNL A   1      34.443  16.161  22.925  1.00  0.00    -0.744 OA
ENDBRANCH  21  22
ENDBRANCH  12  16
BRANCH  14  26
ATOM     26  N   UNL A   1      29.617  25.923  25.017  1.00  0.00    -0.361 N 
ATOM     27  H   UNL A   1      28.968  26.114  25.731  1.00  0.00     0.166 HD
BRANCH  26  28
ATOM     28  C   UNL A   1      29.658  26.972  23.981  1.00  0.00     0.038 A 
ATOM     29  C   UNL A   1      30.899  27.381  23.493  1.00  0.00     0.026 A 
ATOM     30  C   UNL A   1      28.598  27.754  23.464  1.00  0.00     0.026 A 
ATOM     31  C   UNL A   1      31.059  28.551  22.699  1.00  0.00     0.002 A 
ATOM     32  C   UNL A   1      28.729  28.938  22.706  1.00  0.00     0.002 A 
ATOM     33  C   UNL A   1      29.982  29.359  22.343  1.00  0.00     0.000 A 
ENDBRANCH  26  28
ENDBRANCH  14  26
ENDBRANCH   7   9
ENDBRANCH   6   7
ENDBRANCH   5   6
ENDBRANCH   4   5
ENDBRANCH   3   4
ENDBRANCH   2   3
ENDBRANCH   1   2
BRANCH   1  34
ATOM     34  O   UNL A   1      35.129  31.549  29.432  1.00  0.00    -0.376 OA
BRANCH  34  35
ATOM     35  C   UNL A   1      34.878  32.597  30.367  1.00  0.00     0.202 C 
BRANCH  35  36
ATOM     36  C   UNL A   1      35.132  32.313  31.971  1.00  0.00     0.261 C 
BRANCH  36  37
ATOM     37  O   UNL A   1      36.525  31.935  32.601  1.00  0.00    -0.460 OA
BRANCH  37  38
ATOM     38  C   UNL A   1      37.670  31.152  32.736  1.00  0.00     0.338 C 
ATOM     39  O   UNL A   1      37.878  30.683  33.863  1.00  0.00    -0.246 OA
BRANCH  38  40
ATOM     40  C   UNL A   1      38.784  30.762  31.730  1.00  0.00     0.060 A 
ATOM     41  C   UNL A   1      38.646  30.654  30.324  1.00  0.00     0.016 A 
ATOM     42  C   UNL A   1      40.003  30.283  32.221  1.00  0.00     0.016 A 
ATOM     43  C   UNL A   1      39.747  30.410  29.446  1.00  0.00     0.010 A 
ATOM     44  C   UNL A   1      41.081  29.943  31.354  1.00  0.00     0.010 A 
ATOM     45  C   UNL A   1      41.001  30.073  29.953  1.00  0.00    -0.014 A 
BRANCH  45  46
ATOM     46  C   UNL A   1      42.204  29.740  29.105  1.00  0.00     0.031 A 
ATOM     47  C   UNL A   1      42.434  28.315  28.668  1.00  0.00     0.074 A 
ATOM     48  C   UNL A   1      43.127  30.653  28.716  1.00  0.00     0.049 A 
ATOM     49  N   UNL A   1      43.540  27.727  28.291  1.00  0.00    -0.248 NA
ATOM     50  C   UNL A   1      41.243  27.456  28.604  1.00  0.00     0.031 C 
ATOM     51  C   UNL A   1      42.962  32.101  28.753  1.00  0.00     0.029 A 
ATOM     52  N   UNL A   1      44.410  30.489  28.212  1.00  0.00    -0.354 N 
ATOM     53  C   UNL A   1      43.184  26.426  27.947  1.00  0.00     0.074 A 
ATOM     54  C   UNL A   1      41.757  26.312  28.166  1.00  0.00     0.031 C 
ATOM     55  C   UNL A   1      44.098  32.686  28.325  1.00  0.00     0.029 A 
ATOM     56  C   UNL A   1      45.131  31.668  28.124  1.00  0.00     0.049 A 
ATOM     57  H   UNL A   1      44.773  29.614  27.942  1.00  0.00     0.167 HD
ATOM     58  C   UNL A   1      43.974  25.426  27.487  1.00  0.00     0.037 A 
ATOM     59  C   UNL A   1      46.471  31.890  28.011  1.00  0.00     0.037 A 
ATOM     60  C   UNL A   1      45.391  25.548  27.257  1.00  0.00     0.049 A 
ATOM     61  C   UNL A   1      47.384  30.672  27.994  1.00  0.00     0.074 A 
ATOM     62  C   UNL A   1      46.280  24.596  26.783  1.00  0.00     0.029 A 
ATOM     63  N   UNL A   1      46.131  26.694  27.497  1.00  0.00    -0.354 N 
ATOM     64  N   UNL A   1      47.083  29.419  27.753  1.00  0.00    -0.248 NA
ATOM     65  C   UNL A   1      48.811  30.881  28.298  1.00  0.00     0.031 C 
ATOM     66  C   UNL A   1      47.565  25.149  26.798  1.00  0.00     0.029 A 
ATOM     67  C   UNL A   1      47.469  26.459  27.236  1.00  0.00     0.049 A 
ATOM     68  H   UNL A   1      45.758  27.550  27.807  1.00  0.00     0.167 HD
ATOM     69  C   UNL A   1      48.292  28.725  27.747  1.00  0.00     0.074 A 
ATOM     70  C   UNL A   1      49.326  29.679  28.074  1.00  0.00     0.031 C 
ATOM     71  C   UNL A   1      48.518  27.419  27.464  1.00  0.00     0.037 A 
BRANCH  58  72
ATOM     72  C   UNL A   1      43.349  24.085  27.227  1.00  0.00     0.058 A 
ATOM     73  C   UNL A   1      43.101  23.173  28.263  1.00  0.00     0.135 A 
ATOM     74  C   UNL A   1      42.895  23.757  25.938  1.00  0.00     0.135 A 
ATOM     75  F   UNL A   1      43.525  23.434  29.510  1.00  0.00    -0.206 F 
ATOM     76  C   UNL A   1      42.423  21.980  28.030  1.00  0.00     0.059 A 
ATOM     77  C   UNL A   1      42.199  22.580  25.687  1.00  0.00     0.059 A 
ATOM     78  F   UNL A   1      43.108  24.599  24.914  1.00  0.00    -0.206 F 
ATOM     79  C   UNL A   1      41.969  21.695  26.740  1.00  0.00     0.060 A 
BRANCH  79  80
ATOM     80  S   UNL A   1      41.047  20.167  26.467  1.00  0.00     0.124 S 
ATOM     81  O   UNL A   1      41.882  19.495  25.476  1.00  0.00    -0.237 OA
ATOM     82  O   UNL A   1      41.038  19.568  27.798  1.00  0.00    -0.237 OA
ATOM     83  O   UNL A   1      39.751  20.632  25.983  1.00  0.00    -0.744 OA
ENDBRANCH  79  80
ENDBRANCH  58  72
BRANCH  59  84
ATOM     84  C   UNL A   1      47.096  33.266  28.111  1.00  0.00     0.058 A 
ATOM     85  C   UNL A   1      47.457  33.874  29.330  1.00  0.00     0.135 A 
ATOM     86  C   UNL A   1      47.169  34.092  26.984  1.00  0.00     0.135 A 
ATOM     87  F   UNL A   1      47.399  33.169  30.471  1.00  0.00    -0.206 F 
ATOM     88  C   UNL A   1      47.776  35.237  29.424  1.00  0.00     0.059 A 
ATOM     89  C   UNL A   1      47.578  35.421  27.034  1.00  0.00     0.059 A 
ATOM     90  F   UNL A   1      46.754  33.626  25.802  1.00  0.00    -0.206 F 
ATOM     91  C   UNL A   1      47.828  36.006  28.263  1.00  0.00     0.060 A 
BRANCH  91  92
ATOM     92  S   UNL A   1      48.070  37.798  28.357  1.00  0.00     0.124 S 
ATOM     93  O   UNL A   1      48.994  37.926  29.480  1.00  0.00    -0.237 OA
ATOM     94  O   UNL A   1      48.619  38.091  27.038  1.00  0.00    -0.237 OA
ATOM     95  O   UNL A   1      46.724  38.313  28.596  1.00  0.00    -0.744 OA
ENDBRANCH  91  92
ENDBRANCH  59  84
BRANCH  71  96
ATOM     96  C   UNL A   1      49.943  26.961  27.299  1.00  0.00     0.058 A 
ATOM     97  C   UNL A   1      50.641  27.072  26.088  1.00  0.00     0.135 A 
ATOM     98  C   UNL A   1      50.640  26.450  28.409  1.00  0.00     0.135 A 
ATOM     99  F   UNL A   1      50.023  27.538  24.993  1.00  0.00    -0.206 F 
ATOM    100  C   UNL A   1      51.975  26.681  25.980  1.00  0.00     0.059 A 
ATOM    101  C   UNL A   1      51.978  26.078  28.331  1.00  0.00     0.059 A 
ATOM    102  F   UNL A   1      50.023  26.330  29.596  1.00  0.00    -0.206 F 
ATOM    103  C   UNL A   1      52.636  26.189  27.109  1.00  0.00     0.060 A 
BRANCH 103 104
ATOM    104  S   UNL A   1      54.378  25.727  26.970  1.00  0.00     0.124 S 
ATOM    105  O   UNL A   1      54.910  26.821  26.164  1.00  0.00    -0.237 OA
ATOM    106  O   UNL A   1      54.806  25.701  28.365  1.00  0.00    -0.237 OA
ATOM    107  O   UNL A   1      54.335  24.426  26.310  1.00  0.00    -0.744 OA
ENDBRANCH 103 104
ENDBRANCH  71  96
ENDBRANCH  45  46
ENDBRANCH  38  40
ENDBRANCH  37  38
ENDBRANCH  36  37
ENDBRANCH  35  36
ENDBRANCH  34  35
ENDBRANCH   1  34
TORSDOF 24
ENDMDL
MODEL 3
REMARK VINA RESULT:      -9.8      5.848     13.937
REMARK SMILES O=C(OCCOCCOCCOC(=O)c1ccc(-c2c3nc(c(-c4c(F)cc(S(=O)(=O)[O-])cc4F)c4ccc([nH]4)c(-c4c(F)cc(S(=O)(=O)[O-])cc4F)c4nc(c(-c5c(F)cc(S(=O)(=O)[O-])cc5F)c5ccc2[nH]5)C=C4)C=C3)cc1)C1=NN(c2ccc(S(=O)(=O)[O-])cc2)C(=O)/C1=C/Nc1ccccc1
REMARK SMILES IDX 8 1 7 2 6 3 5 4 4 5 3 6 2 7 1 8 81 9 82 10 96 11 83 12 94 13
REMARK SMILES IDX 97 14 95 15 84 16 85 17 93 18 86 19 92 20 87 21 88 22 89 23
REMARK SMILES IDX 90 24 91 25 98 26 99 28 100 29 104 30 101 31 103 32 102 33
REMARK SMILES IDX 9 34 10 35 11 36 12 37 13 38 14 39 15 40 16 41 80 42 17 43
REMARK SMILES IDX 79 44 18 45 19 46 20 47 73 48 21 49 78 50 72 51 74 52 22 53
REMARK SMILES IDX 77 54 71 55 70 56 23 58 57 59 36 60 56 61 37 62 40 63 55 64
REMARK SMILES IDX 75 65 38 66 39 67 54 69 76 70 41 71 24 72 25 73 34 74 26 75
REMARK SMILES IDX 27 76 33 77 35 78 28 79 29 80 30 81 31 82 32 83 58 84 59 85
REMARK SMILES IDX 68 86 60 87 61 88 67 89 69 90 62 91 63 92 64 93 65 94 66 95
REMARK SMILES IDX 42 96 43 97 52 98 44 99 45 100 51 101 53 102 46 103 47 104
REMARK SMILES IDX 48 105 49 106 50 107
REMARK H PARENT 98 27 74 57 40 68
REMARK Flexibility Score: inf
ROOT
ATOM      1  C   UNL A   1      46.768  39.064  31.230  1.00  0.00     0.188 C 
ENDROOT
BRANCH   1   2
ATOM      2  C   UNL A   1      45.309  39.026  31.657  1.00  0.00     0.188 C 
BRANCH   2   3
ATOM      3  O   UNL A   1      44.556  39.837  30.769  1.00  0.00    -0.376 OA
BRANCH   3   4
ATOM      4  C   UNL A   1      44.106  41.077  31.265  1.00  0.00     0.202 C 
BRANCH   4   5
ATOM      5  C   UNL A   1      43.775  42.034  30.125  1.00  0.00     0.261 C 
BRANCH   5   6
ATOM      6  O   UNL A   1      44.771  42.094  29.079  1.00  0.00    -0.458 OA
BRANCH   6   7
ATOM      7  C   UNL A   1      44.796  43.173  28.255  1.00  0.00     0.359 C 
ATOM      8  O   UNL A   1      44.827  44.344  28.581  1.00  0.00    -0.244 OA
BRANCH   7   9
ATOM      9  C   UNL A   1      44.928  42.699  26.839  1.00  0.00     0.183 C 
ATOM     10  N   UNL A   1      45.108  43.593  25.888  1.00  0.00    -0.157 NA
ATOM     11  C   UNL A   1      45.073  41.276  26.403  1.00  0.00     0.093 C 
ATOM     12  N   UNL A   1      45.417  42.899  24.749  1.00  0.00    -0.196 N 
ATOM     13  C   UNL A   1      45.551  41.525  24.966  1.00  0.00     0.282 C 
ATOM     14  C   UNL A   1      44.961  39.977  26.803  1.00  0.00     0.099 C 
ATOM     15  O   UNL A   1      46.040  40.702  24.213  1.00  0.00    -0.267 OA
BRANCH  12  16
ATOM     16  C   UNL A   1      45.592  43.580  23.505  1.00  0.00     0.069 A 
ATOM     17  C   UNL A   1      46.737  43.412  22.704  1.00  0.00     0.030 A 
ATOM     18  C   UNL A   1      44.626  44.503  23.063  1.00  0.00     0.030 A 
ATOM     19  C   UNL A   1      46.901  44.136  21.501  1.00  0.00     0.021 A 
ATOM     20  C   UNL A   1      44.801  45.258  21.898  1.00  0.00     0.021 A 
ATOM     21  C   UNL A   1      45.937  45.074  21.115  1.00  0.00     0.054 A 
BRANCH  21  22
ATOM     22  S   UNL A   1      46.196  46.153  19.723  1.00  0.00     0.124 S 
ATOM     23  O   UNL A   1      46.292  47.511  20.188  1.00  0.00    -0.237 OA
ATOM     24  O   UNL A   1      47.216  45.542  18.893  1.00  0.00    -0.237 OA
ATOM     25  O   UNL A   1      44.803  46.107  18.903  1.00  0.00    -0.744 OA
ENDBRANCH  21  22
ENDBRANCH  12  16
BRANCH  14  26
ATOM     26  N   UNL A   1      44.554  39.057  27.795  1.00  0.00    -0.361 N 
ATOM     27  H   UNL A   1      44.736  39.374  28.709  1.00  0.00     0.166 HD
BRANCH  26  28
ATOM     28  C   UNL A   1      43.918  37.727  27.763  1.00  0.00     0.038 A 
ATOM     29  C   UNL A   1      44.184  36.834  28.801  1.00  0.00     0.026 A 
ATOM     30  C   UNL A   1      43.139  37.138  26.739  1.00  0.00     0.026 A 
ATOM     31  C   UNL A   1      43.835  35.456  28.730  1.00  0.00     0.002 A 
ATOM     32  C   UNL A   1      42.811  35.769  26.625  1.00  0.00     0.002 A 
ATOM     33  C   UNL A   1      43.192  34.910  27.623  1.00  0.00     0.000 A 
ENDBRANCH  26  28
ENDBRANCH  14  26
ENDBRANCH   7   9
ENDBRANCH   6   7
ENDBRANCH   5   6
ENDBRANCH   4   5
ENDBRANCH   3   4
ENDBRANCH   2   3
ENDBRANCH   1   2
BRANCH   1  34
ATOM     34  O   UNL A   1      46.907  39.264  29.826  1.00  0.00    -0.376 OA
BRANCH  34  35
ATOM     35  C   UNL A   1      47.959  40.012  29.219  1.00  0.00     0.202 C 
BRANCH  35  36
ATOM     36  C   UNL A   1      48.440  39.620  27.691  1.00  0.00     0.261 C 
BRANCH  36  37
ATOM     37  O   UNL A   1      48.183  38.226  27.006  1.00  0.00    -0.460 OA
BRANCH  37  38
ATOM     38  C   UNL A   1      47.383  37.176  26.558  1.00  0.00     0.338 C 
ATOM     39  O   UNL A   1      46.645  37.427  25.597  1.00  0.00    -0.246 OA
BRANCH  38  40
ATOM     40  C   UNL A   1      47.210  35.718  27.060  1.00  0.00     0.060 A 
ATOM     41  C   UNL A   1      47.760  35.166  28.243  1.00  0.00     0.016 A 
ATOM     42  C   UNL A   1      46.623  34.775  26.210  1.00  0.00     0.016 A 
ATOM     43  C   UNL A   1      47.457  33.848  28.705  1.00  0.00     0.010 A 
ATOM     44  C   UNL A   1      46.400  33.429  26.621  1.00  0.00     0.010 A 
ATOM     45  C   UNL A   1      46.743  32.959  27.904  1.00  0.00    -0.014 A 
BRANCH  45  46
ATOM     46  C   UNL A   1      46.428  31.532  28.282  1.00  0.00     0.031 A 
ATOM     47  C   UNL A   1      47.360  30.427  27.853  1.00  0.00     0.074 A 
ATOM     48  C   UNL A   1      45.327  31.163  28.981  1.00  0.00     0.049 A 
ATOM     49  N   UNL A   1      47.127  29.147  27.713  1.00  0.00    -0.248 NA
ATOM     50  C   UNL A   1      48.754  30.817  27.595  1.00  0.00     0.031 C 
ATOM     51  C   UNL A   1      44.466  32.055  29.748  1.00  0.00     0.029 A 
ATOM     52  N   UNL A   1      44.735  29.920  29.152  1.00  0.00    -0.354 N 
ATOM     53  C   UNL A   1      48.341  28.575  27.346  1.00  0.00     0.074 A 
ATOM     54  C   UNL A   1      49.308  29.651  27.282  1.00  0.00     0.031 C 
ATOM     55  C   UNL A   1      43.451  31.344  30.276  1.00  0.00     0.029 A 
ATOM     56  C   UNL A   1      43.495  29.971  29.768  1.00  0.00     0.049 A 
ATOM     57  H   UNL A   1      45.157  29.079  28.862  1.00  0.00     0.167 HD
ATOM     58  C   UNL A   1      48.621  27.273  27.095  1.00  0.00     0.037 A 
ATOM     59  C   UNL A   1      42.481  29.062  29.813  1.00  0.00     0.037 A 
ATOM     60  C   UNL A   1      47.659  26.203  27.174  1.00  0.00     0.049 A 
ATOM     61  C   UNL A   1      42.679  27.754  29.060  1.00  0.00     0.074 A 
ATOM     62  C   UNL A   1      47.846  24.849  26.947  1.00  0.00     0.029 A 
ATOM     63  N   UNL A   1      46.324  26.369  27.496  1.00  0.00    -0.354 N 
ATOM     64  N   UNL A   1      43.791  27.212  28.625  1.00  0.00    -0.248 NA
ATOM     65  C   UNL A   1      41.479  26.959  28.738  1.00  0.00     0.031 C 
ATOM     66  C   UNL A   1      46.608  24.208  27.069  1.00  0.00     0.029 A 
ATOM     67  C   UNL A   1      45.662  25.156  27.419  1.00  0.00     0.049 A 
ATOM     68  H   UNL A   1      45.906  27.225  27.744  1.00  0.00     0.167 HD
ATOM     69  C   UNL A   1      43.438  25.967  28.106  1.00  0.00     0.074 A 
ATOM     70  C   UNL A   1      42.001  25.858  28.215  1.00  0.00     0.031 C 
ATOM     71  C   UNL A   1      44.244  24.995  27.613  1.00  0.00     0.037 A 
BRANCH  58  72
ATOM     72  C   UNL A   1      50.016  26.912  26.670  1.00  0.00     0.058 A 
ATOM     73  C   UNL A   1      51.000  26.549  27.599  1.00  0.00     0.135 A 
ATOM     74  C   UNL A   1      50.336  26.827  25.304  1.00  0.00     0.135 A 
ATOM     75  F   UNL A   1      50.748  26.624  28.916  1.00  0.00    -0.206 F 
ATOM     76  C   UNL A   1      52.256  26.110  27.190  1.00  0.00     0.059 A 
ATOM     77  C   UNL A   1      51.578  26.373  24.873  1.00  0.00     0.059 A 
ATOM     78  F   UNL A   1      49.427  27.163  24.375  1.00  0.00    -0.206 F 
ATOM     79  C   UNL A   1      52.534  26.019  25.824  1.00  0.00     0.060 A 
BRANCH  79  80
ATOM     80  S   UNL A   1      54.151  25.401  25.311  1.00  0.00     0.124 S 
ATOM     81  O   UNL A   1      53.946  23.957  25.376  1.00  0.00    -0.237 OA
ATOM     82  O   UNL A   1      54.286  25.960  23.969  1.00  0.00    -0.237 OA
ATOM     83  O   UNL A   1      55.060  25.951  26.311  1.00  0.00    -0.744 OA
ENDBRANCH  79  80
ENDBRANCH  58  72
BRANCH  59  84
ATOM     84  C   UNL A   1      41.115  29.369  30.390  1.00  0.00     0.058 A 
ATOM     85  C   UNL A   1      40.085  30.000  29.665  1.00  0.00     0.135 A 
ATOM     86  C   UNL A   1      40.873  29.208  31.759  1.00  0.00     0.135 A 
ATOM     87  F   UNL A   1      40.231  30.219  28.349  1.00  0.00    -0.206 F 
ATOM     88  C   UNL A   1      38.937  30.516  30.286  1.00  0.00     0.059 A 
ATOM     89  C   UNL A   1      39.701  29.622  32.384  1.00  0.00     0.059 A 
ATOM     90  F   UNL A   1      41.836  28.706  32.539  1.00  0.00    -0.206 F 
ATOM     91  C   UNL A   1      38.758  30.325  31.654  1.00  0.00     0.060 A 
BRANCH  91  92
ATOM     92  S   UNL A   1      37.380  31.118  32.521  1.00  0.00     0.124 S 
ATOM     93  O   UNL A   1      36.230  30.376  32.015  1.00  0.00    -0.237 OA
ATOM     94  O   UNL A   1      37.734  30.881  33.916  1.00  0.00    -0.237 OA
ATOM     95  O   UNL A   1      37.462  32.512  32.091  1.00  0.00    -0.744 OA
ENDBRANCH  91  92
ENDBRANCH  59  84
BRANCH  71  96
ATOM     96  C   UNL A   1      43.640  23.646  27.326  1.00  0.00     0.058 A 
ATOM     97  C   UNL A   1      43.196  22.782  28.337  1.00  0.00     0.135 A 
ATOM     98  C   UNL A   1      43.454  23.239  25.992  1.00  0.00     0.135 A 
ATOM     99  F   UNL A   1      43.360  23.111  29.627  1.00  0.00    -0.206 F 
ATOM    100  C   UNL A   1      42.598  21.558  28.036  1.00  0.00     0.059 A 
ATOM    101  C   UNL A   1      42.838  22.035  25.669  1.00  0.00     0.059 A 
ATOM    102  F   UNL A   1      43.853  24.031  24.983  1.00  0.00    -0.206 F 
ATOM    103  C   UNL A   1      42.420  21.195  26.699  1.00  0.00     0.060 A 
BRANCH 103 104
ATOM    104  S   UNL A   1      41.605  19.628  26.319  1.00  0.00     0.124 S 
ATOM    105  O   UNL A   1      42.297  19.224  25.099  1.00  0.00    -0.237 OA
ATOM    106  O   UNL A   1      41.894  18.830  27.506  1.00  0.00    -0.237 OA
ATOM    107  O   UNL A   1      40.205  20.004  26.150  1.00  0.00    -0.744 OA
ENDBRANCH 103 104
ENDBRANCH  71  96
ENDBRANCH  45  46
ENDBRANCH  38  40
ENDBRANCH  37  38
ENDBRANCH  36  37
ENDBRANCH  35  36
ENDBRANCH  34  35
ENDBRANCH   1  34
TORSDOF 24
ENDMDL
