MODEL 1
REMARK VINA RESULT:     -10.6      0.000      0.000
REMARK SMILES Cc1cc(F)ccc1NC(=O)[C@H]1CC=CC[C@@H]1C(=O)OCCOCCOCCOC(=O)c1ccc(-c2c3nc(c(-c4c(F)cc(S(=O)(=O)[O-])cc4F)c4ccc([nH]4)c(-c4c(F)cc(S(=O)(=O)[O-])cc4F)c4nc(c(-c5c(F)cc(S(=O)(=O)[O-])cc5F)c5ccc2[nH]5)C=C4)C=C3)cc1
REMARK SMILES IDX 25 1 24 2 23 3 22 4 21 5 20 6 18 7 19 8 17 9 12 10 13 11
REMARK SMILES IDX 14 12 16 13 15 14 10 15 9 16 11 18 8 19 1 20 2 21 3 22 4 23
REMARK SMILES IDX 7 24 5 25 6 26 26 27 27 28 28 29 29 30 30 31 31 32 32 33
REMARK SMILES IDX 33 34 97 35 34 36 96 37 35 38 36 39 37 40 90 41 38 42 95 43
REMARK SMILES IDX 89 44 91 45 39 46 94 47 88 48 87 49 40 51 74 52 53 53 73 54
REMARK SMILES IDX 54 55 57 56 72 57 92 58 55 59 56 60 71 62 93 63 58 64 41 65
REMARK SMILES IDX 42 66 51 67 43 68 44 69 50 70 52 71 45 72 46 73 47 74 48 75
REMARK SMILES IDX 49 76 75 77 76 78 85 79 77 80 78 81 84 82 86 83 79 84 80 85
REMARK SMILES IDX 81 86 82 87 83 88 59 89 60 90 69 91 61 92 62 93 68 94 70 95
REMARK SMILES IDX 63 96 64 97 65 98 66 99 67 100
REMARK H PARENT 9 17 91 50 57 61
REMARK Flexibility Score: inf
ROOT
ATOM      1  C   UNL A   1      34.335  34.109  29.153  1.00  0.00     0.188 C 
ENDROOT
BRANCH   1   2
ATOM      2  C   UNL A   1      33.989  33.042  28.092  1.00  0.00     0.188 C 
BRANCH   2   3
ATOM      3  O   UNL A   1      34.201  31.651  28.369  1.00  0.00    -0.376 OA
BRANCH   3   4
ATOM      4  C   UNL A   1      34.203  30.687  27.319  1.00  0.00     0.202 C 
BRANCH   4   5
ATOM      5  C   UNL A   1      33.005  29.734  27.224  1.00  0.00     0.261 C 
BRANCH   5   6
ATOM      6  O   UNL A   1      33.006  29.160  25.925  1.00  0.00    -0.463 OA
BRANCH   6   7
ATOM      7  C   UNL A   1      31.991  29.122  25.020  1.00  0.00     0.310 C 
ATOM      8  O   UNL A   1      31.122  29.956  24.864  1.00  0.00    -0.252 OA
BRANCH   7   9
ATOM      9  C   UNL A   1      32.224  27.800  24.278  1.00  0.00     0.116 C 
ATOM     10  C   UNL A   1      31.933  27.573  22.803  1.00  0.00     0.097 C 
ATOM     11  C   UNL A   1      30.464  27.941  22.506  1.00  0.00     0.041 C 
ATOM     12  C   UNL A   1      29.551  27.119  23.362  1.00  0.00    -0.030 C 
ATOM     13  C   UNL A   1      31.361  26.812  25.042  1.00  0.00     0.043 C 
ATOM     14  C   UNL A   1      29.988  26.567  24.499  1.00  0.00    -0.030 C 
BRANCH  10  15
ATOM     15  C   UNL A   1      32.266  26.158  22.143  1.00  0.00     0.228 C 
ATOM     16  N   UNL A   1      33.063  25.086  22.465  1.00  0.00    -0.326 N 
ATOM     17  H   UNL A   1      33.221  24.587  21.632  1.00  0.00     0.169 HD
ATOM     18  O   UNL A   1      31.770  26.004  21.002  1.00  0.00    -0.274 OA
BRANCH  16  19
ATOM     19  C   UNL A   1      33.760  24.392  23.507  1.00  0.00     0.044 A 
ATOM     20  C   UNL A   1      32.641  22.141  22.913  1.00  0.00     0.047 C 
ATOM     21  C   UNL A   1      33.684  22.984  23.595  1.00  0.00    -0.025 A 
ATOM     22  C   UNL A   1      34.557  22.271  24.462  1.00  0.00     0.044 A 
ATOM     23  C   UNL A   1      35.430  22.941  25.298  1.00  0.00     0.123 A 
ATOM     24  C   UNL A   1      34.431  24.997  24.577  1.00  0.00     0.029 A 
ATOM     25  F   UNL A   1      36.283  22.267  26.079  1.00  0.00    -0.207 F 
ATOM     26  C   UNL A   1      35.343  24.309  25.396  1.00  0.00     0.041 A 
ENDBRANCH  16  19
ENDBRANCH  10  15
ENDBRANCH   7   9
ENDBRANCH   6   7
ENDBRANCH   5   6
ENDBRANCH   4   5
ENDBRANCH   3   4
ENDBRANCH   2   3
ENDBRANCH   1   2
BRANCH   1  27
ATOM     27  O   UNL A   1      34.031  33.669  30.456  1.00  0.00    -0.376 OA
BRANCH  27  28
ATOM     28  C   UNL A   1      35.084  33.466  31.374  1.00  0.00     0.202 C 
BRANCH  28  29
ATOM     29  C   UNL A   1      35.592  32.037  31.630  1.00  0.00     0.261 C 
BRANCH  29  30
ATOM     30  O   UNL A   1      36.572  31.529  30.715  1.00  0.00    -0.460 OA
BRANCH  30  31
ATOM     31  C   UNL A   1      37.045  30.287  30.960  1.00  0.00     0.338 C 
ATOM     32  O   UNL A   1      36.433  29.344  31.446  1.00  0.00    -0.246 OA
BRANCH  31  33
ATOM     33  C   UNL A   1      38.391  30.178  30.371  1.00  0.00     0.060 A 
ATOM     34  C   UNL A   1      38.531  30.193  28.975  1.00  0.00     0.016 A 
ATOM     35  C   UNL A   1      39.510  30.048  31.196  1.00  0.00     0.016 A 
ATOM     36  C   UNL A   1      39.798  30.061  28.400  1.00  0.00     0.010 A 
ATOM     37  C   UNL A   1      40.772  29.903  30.616  1.00  0.00     0.010 A 
ATOM     38  C   UNL A   1      40.921  29.884  29.218  1.00  0.00    -0.014 A 
BRANCH  38  39
ATOM     39  C   UNL A   1      42.243  29.526  28.645  1.00  0.00     0.031 A 
ATOM     40  C   UNL A   1      42.471  28.106  28.202  1.00  0.00     0.074 A 
ATOM     41  C   UNL A   1      43.241  30.426  28.577  1.00  0.00     0.049 A 
ATOM     42  N   UNL A   1      43.577  27.517  27.829  1.00  0.00    -0.248 NA
ATOM     43  C   UNL A   1      41.288  27.228  28.196  1.00  0.00     0.031 C 
ATOM     44  C   UNL A   1      43.136  31.836  28.945  1.00  0.00     0.029 A 
ATOM     45  N   UNL A   1      44.553  30.271  28.202  1.00  0.00    -0.354 N 
ATOM     46  C   UNL A   1      43.232  26.197  27.568  1.00  0.00     0.074 A 
ATOM     47  C   UNL A   1      41.818  26.065  27.847  1.00  0.00     0.031 C 
ATOM     48  C   UNL A   1      44.342  32.415  28.800  1.00  0.00     0.029 A 
ATOM     49  C   UNL A   1      45.311  31.406  28.372  1.00  0.00     0.049 A 
ATOM     50  H   UNL A   1      44.916  29.428  27.845  1.00  0.00     0.167 HD
ATOM     51  C   UNL A   1      44.022  25.187  27.134  1.00  0.00     0.037 A 
ATOM     52  C   UNL A   1      46.638  31.598  28.232  1.00  0.00     0.037 A 
ATOM     53  C   UNL A   1      45.430  25.329  26.859  1.00  0.00     0.049 A 
ATOM     54  C   UNL A   1      47.512  30.442  27.811  1.00  0.00     0.074 A 
ATOM     55  C   UNL A   1      46.313  24.375  26.385  1.00  0.00     0.029 A 
ATOM     56  N   UNL A   1      46.161  26.493  27.045  1.00  0.00    -0.354 N 
ATOM     57  N   UNL A   1      47.173  29.203  27.538  1.00  0.00    -0.248 NA
ATOM     58  C   UNL A   1      48.953  30.709  27.679  1.00  0.00     0.031 C 
ATOM     59  C   UNL A   1      47.589  24.944  26.343  1.00  0.00     0.029 A 
ATOM     60  C   UNL A   1      47.491  26.272  26.724  1.00  0.00     0.049 A 
ATOM     61  H   UNL A   1      45.791  27.349  27.359  1.00  0.00     0.167 HD
ATOM     62  C   UNL A   1      48.349  28.557  27.166  1.00  0.00     0.074 A 
ATOM     63  C   UNL A   1      49.407  29.542  27.243  1.00  0.00     0.031 C 
ATOM     64  C   UNL A   1      48.535  27.266  26.792  1.00  0.00     0.037 A 
BRANCH  51  65
ATOM     65  C   UNL A   1      43.393  23.831  26.959  1.00  0.00     0.058 A 
ATOM     66  C   UNL A   1      43.163  22.972  28.046  1.00  0.00     0.135 A 
ATOM     67  C   UNL A   1      42.981  23.398  25.687  1.00  0.00     0.135 A 
ATOM     68  F   UNL A   1      43.552  23.326  29.282  1.00  0.00    -0.206 F 
ATOM     69  C   UNL A   1      42.576  21.723  27.874  1.00  0.00     0.059 A 
ATOM     70  C   UNL A   1      42.364  22.167  25.497  1.00  0.00     0.059 A 
ATOM     71  F   UNL A   1      43.179  24.177  24.611  1.00  0.00    -0.206 F 
ATOM     72  C   UNL A   1      42.178  21.329  26.596  1.00  0.00     0.060 A 
BRANCH  72  73
ATOM     73  S   UNL A   1      41.413  19.708  26.393  1.00  0.00     0.124 S 
ATOM     74  O   UNL A   1      42.166  19.169  25.264  1.00  0.00    -0.237 OA
ATOM     75  O   UNL A   1      41.672  19.078  27.684  1.00  0.00    -0.237 OA
ATOM     76  O   UNL A   1      40.014  20.021  26.120  1.00  0.00    -0.744 OA
ENDBRANCH  72  73
ENDBRANCH  51  65
BRANCH  52  77
ATOM     77  C   UNL A   1      47.234  32.937  28.502  1.00  0.00     0.058 A 
ATOM     78  C   UNL A   1      47.487  33.836  27.455  1.00  0.00     0.135 A 
ATOM     79  C   UNL A   1      47.569  33.341  29.804  1.00  0.00     0.135 A 
ATOM     80  F   UNL A   1      47.200  33.491  26.191  1.00  0.00    -0.206 F 
ATOM     81  C   UNL A   1      48.065  35.081  27.686  1.00  0.00     0.059 A 
ATOM     82  C   UNL A   1      48.120  34.592  30.063  1.00  0.00     0.059 A 
ATOM     83  F   UNL A   1      47.342  32.521  30.842  1.00  0.00    -0.206 F 
ATOM     84  C   UNL A   1      48.374  35.452  28.995  1.00  0.00     0.060 A 
BRANCH  84  85
ATOM     85  S   UNL A   1      49.083  37.087  29.285  1.00  0.00     0.124 S 
ATOM     86  O   UNL A   1      48.056  37.711  30.111  1.00  0.00    -0.237 OA
ATOM     87  O   UNL A   1      50.335  36.761  29.960  1.00  0.00    -0.237 OA
ATOM     88  O   UNL A   1      49.228  37.634  27.939  1.00  0.00    -0.744 OA
ENDBRANCH  84  85
ENDBRANCH  52  77
BRANCH  64  89
ATOM     89  C   UNL A   1      49.924  26.848  26.382  1.00  0.00     0.058 A 
ATOM     90  C   UNL A   1      50.837  26.296  27.293  1.00  0.00     0.135 A 
ATOM     91  C   UNL A   1      50.323  26.947  25.037  1.00  0.00     0.135 A 
ATOM     92  F   UNL A   1      50.511  26.183  28.591  1.00  0.00    -0.206 F 
ATOM     93  C   UNL A   1      52.105  25.883  26.895  1.00  0.00     0.059 A 
ATOM     94  C   UNL A   1      51.573  26.508  24.610  1.00  0.00     0.059 A 
ATOM     95  F   UNL A   1      49.487  27.454  24.118  1.00  0.00    -0.206 F 
ATOM     96  C   UNL A   1      52.462  25.989  25.549  1.00  0.00     0.060 A 
BRANCH  96  97
ATOM     97  S   UNL A   1      54.096  25.414  25.038  1.00  0.00     0.124 S 
ATOM     98  O   UNL A   1      53.859  23.986  24.844  1.00  0.00    -0.237 OA
ATOM     99  O   UNL A   1      54.333  26.188  23.824  1.00  0.00    -0.237 OA
ATOM    100  O   UNL A   1      54.948  25.759  26.172  1.00  0.00    -0.744 OA
ENDBRANCH  96  97
ENDBRANCH  64  89
ENDBRANCH  38  39
ENDBRANCH  31  33
ENDBRANCH  30  31
ENDBRANCH  29  30
ENDBRANCH  28  29
ENDBRANCH  27  28
ENDBRANCH   1  27
TORSDOF 22
ENDMDL
MODEL 2
REMARK VINA RESULT:     -10.5      1.641      8.414
REMARK SMILES Cc1cc(F)ccc1NC(=O)[C@H]1CC=CC[C@@H]1C(=O)OCCOCCOCCOC(=O)c1ccc(-c2c3nc(c(-c4c(F)cc(S(=O)(=O)[O-])cc4F)c4ccc([nH]4)c(-c4c(F)cc(S(=O)(=O)[O-])cc4F)c4nc(c(-c5c(F)cc(S(=O)(=O)[O-])cc5F)c5ccc2[nH]5)C=C4)C=C3)cc1
REMARK SMILES IDX 25 1 24 2 23 3 22 4 21 5 20 6 18 7 19 8 17 9 12 10 13 11
REMARK SMILES IDX 14 12 16 13 15 14 10 15 9 16 11 18 8 19 1 20 2 21 3 22 4 23
REMARK SMILES IDX 7 24 5 25 6 26 26 27 27 28 28 29 29 30 30 31 31 32 32 33
REMARK SMILES IDX 33 34 97 35 34 36 96 37 35 38 36 39 37 40 90 41 38 42 95 43
REMARK SMILES IDX 89 44 91 45 39 46 94 47 88 48 87 49 40 51 74 52 53 53 73 54
REMARK SMILES IDX 54 55 57 56 72 57 92 58 55 59 56 60 71 62 93 63 58 64 41 65
REMARK SMILES IDX 42 66 51 67 43 68 44 69 50 70 52 71 45 72 46 73 47 74 48 75
REMARK SMILES IDX 49 76 75 77 76 78 85 79 77 80 78 81 84 82 86 83 79 84 80 85
REMARK SMILES IDX 81 86 82 87 83 88 59 89 60 90 69 91 61 92 62 93 68 94 70 95
REMARK SMILES IDX 63 96 64 97 65 98 66 99 67 100
REMARK H PARENT 9 17 91 50 57 61
REMARK Flexibility Score: inf
ROOT
ATOM      1  C   UNL A   1      33.175  30.442  27.031  1.00  0.00     0.188 C 
ENDROOT
BRANCH   1   2
ATOM      2  C   UNL A   1      32.151  30.287  25.886  1.00  0.00     0.188 C 
BRANCH   2   3
ATOM      3  O   UNL A   1      32.322  29.262  24.897  1.00  0.00    -0.376 OA
BRANCH   3   4
ATOM      4  C   UNL A   1      33.603  28.680  24.660  1.00  0.00     0.202 C 
BRANCH   4   5
ATOM      5  C   UNL A   1      33.976  28.347  23.211  1.00  0.00     0.261 C 
BRANCH   5   6
ATOM      6  O   UNL A   1      32.997  27.451  22.702  1.00  0.00    -0.463 OA
BRANCH   6   7
ATOM      7  C   UNL A   1      33.179  26.199  22.201  1.00  0.00     0.310 C 
ATOM      8  O   UNL A   1      33.286  25.892  21.032  1.00  0.00    -0.252 OA
BRANCH   7   9
ATOM      9  C   UNL A   1      33.211  25.316  23.454  1.00  0.00     0.116 C 
ATOM     10  C   UNL A   1      34.287  24.285  23.758  1.00  0.00     0.097 C 
ATOM     11  C   UNL A   1      34.406  23.301  22.575  1.00  0.00     0.041 C 
ATOM     12  C   UNL A   1      33.085  22.638  22.330  1.00  0.00    -0.030 C 
ATOM     13  C   UNL A   1      31.898  24.557  23.381  1.00  0.00     0.043 C 
ATOM     14  C   UNL A   1      31.946  23.201  22.748  1.00  0.00    -0.030 C 
BRANCH  10  15
ATOM     15  C   UNL A   1      34.226  23.461  25.124  1.00  0.00     0.228 C 
ATOM     16  N   UNL A   1      34.162  22.132  25.468  1.00  0.00    -0.326 N 
ATOM     17  H   UNL A   1      33.810  22.091  26.386  1.00  0.00     0.169 HD
ATOM     18  O   UNL A   1      34.103  24.180  26.143  1.00  0.00    -0.274 OA
BRANCH  16  19
ATOM     19  C   UNL A   1      34.395  20.782  25.049  1.00  0.00     0.044 A 
ATOM     20  C   UNL A   1      36.948  21.142  24.910  1.00  0.00     0.047 C 
ATOM     21  C   UNL A   1      35.713  20.283  24.958  1.00  0.00    -0.025 A 
ATOM     22  C   UNL A   1      35.945  18.891  24.784  1.00  0.00     0.044 A 
ATOM     23  C   UNL A   1      34.892  18.013  24.610  1.00  0.00     0.123 A 
ATOM     24  C   UNL A   1      33.416  19.902  24.568  1.00  0.00     0.029 A 
ATOM     25  F   UNL A   1      35.110  16.697  24.493  1.00  0.00    -0.207 F 
ATOM     26  C   UNL A   1      33.622  18.516  24.456  1.00  0.00     0.041 A 
ENDBRANCH  16  19
ENDBRANCH  10  15
ENDBRANCH   7   9
ENDBRANCH   6   7
ENDBRANCH   5   6
ENDBRANCH   4   5
ENDBRANCH   3   4
ENDBRANCH   2   3
ENDBRANCH   1   2
BRANCH   1  27
ATOM     27  O   UNL A   1      33.094  31.711  27.638  1.00  0.00    -0.376 OA
BRANCH  27  28
ATOM     28  C   UNL A   1      34.285  32.411  27.927  1.00  0.00     0.202 C 
BRANCH  28  29
ATOM     29  C   UNL A   1      34.781  32.482  29.381  1.00  0.00     0.261 C 
BRANCH  29  30
ATOM     30  O   UNL A   1      35.533  31.360  29.860  1.00  0.00    -0.460 OA
BRANCH  30  31
ATOM     31  C   UNL A   1      36.459  31.612  30.812  1.00  0.00     0.338 C 
ATOM     32  O   UNL A   1      36.281  32.167  31.890  1.00  0.00    -0.246 OA
BRANCH  31  33
ATOM     33  C   UNL A   1      37.713  30.939  30.431  1.00  0.00     0.060 A 
ATOM     34  C   UNL A   1      38.531  30.396  31.433  1.00  0.00     0.016 A 
ATOM     35  C   UNL A   1      38.083  30.854  29.088  1.00  0.00     0.016 A 
ATOM     36  C   UNL A   1      39.737  29.780  31.091  1.00  0.00     0.010 A 
ATOM     37  C   UNL A   1      39.296  30.249  28.751  1.00  0.00     0.010 A 
ATOM     38  C   UNL A   1      40.140  29.731  29.750  1.00  0.00    -0.014 A 
BRANCH  38  39
ATOM     39  C   UNL A   1      41.503  29.283  29.371  1.00  0.00     0.031 A 
ATOM     40  C   UNL A   1      42.607  30.306  29.321  1.00  0.00     0.074 A 
ATOM     41  C   UNL A   1      41.746  28.007  29.016  1.00  0.00     0.049 A 
ATOM     42  N   UNL A   1      43.826  30.193  28.865  1.00  0.00    -0.248 NA
ATOM     43  C   UNL A   1      42.278  31.642  29.845  1.00  0.00     0.031 C 
ATOM     44  C   UNL A   1      40.771  26.919  29.052  1.00  0.00     0.029 A 
ATOM     45  N   UNL A   1      42.887  27.423  28.524  1.00  0.00    -0.354 N 
ATOM     46  C   UNL A   1      44.405  31.447  29.023  1.00  0.00     0.074 A 
ATOM     47  C   UNL A   1      43.395  32.311  29.595  1.00  0.00     0.031 C 
ATOM     48  C   UNL A   1      41.349  25.801  28.578  1.00  0.00     0.029 A 
ATOM     49  C   UNL A   1      42.719  26.106  28.165  1.00  0.00     0.049 A 
ATOM     50  H   UNL A   1      43.744  27.900  28.438  1.00  0.00     0.167 HD
ATOM     51  C   UNL A   1      45.664  31.841  28.718  1.00  0.00     0.037 A 
ATOM     52  C   UNL A   1      43.562  25.257  27.544  1.00  0.00     0.037 A 
ATOM     53  C   UNL A   1      46.662  30.973  28.147  1.00  0.00     0.049 A 
ATOM     54  C   UNL A   1      44.939  25.736  27.153  1.00  0.00     0.074 A 
ATOM     55  C   UNL A   1      47.978  31.266  27.832  1.00  0.00     0.029 A 
ATOM     56  N   UNL A   1      46.454  29.647  27.797  1.00  0.00    -0.354 N 
ATOM     57  N   UNL A   1      45.488  26.915  27.332  1.00  0.00    -0.248 NA
ATOM     58  C   UNL A   1      45.813  24.767  26.474  1.00  0.00     0.031 C 
ATOM     59  C   UNL A   1      48.545  30.138  27.233  1.00  0.00     0.029 A 
ATOM     60  C   UNL A   1      47.607  29.118  27.239  1.00  0.00     0.049 A 
ATOM     61  H   UNL A   1      45.611  29.155  27.923  1.00  0.00     0.167 HD
ATOM     62  C   UNL A   1      46.780  26.817  26.823  1.00  0.00     0.074 A 
ATOM     63  C   UNL A   1      46.934  25.463  26.336  1.00  0.00     0.031 C 
ATOM     64  C   UNL A   1      47.753  27.762  26.768  1.00  0.00     0.037 A 
BRANCH  51  65
ATOM     65  C   UNL A   1      46.026  33.281  28.965  1.00  0.00     0.058 A 
ATOM     66  C   UNL A   1      46.598  33.707  30.175  1.00  0.00     0.135 A 
ATOM     67  C   UNL A   1      45.829  34.244  27.962  1.00  0.00     0.135 A 
ATOM     68  F   UNL A   1      46.792  32.834  31.176  1.00  0.00    -0.206 F 
ATOM     69  C   UNL A   1      46.933  35.040  30.391  1.00  0.00     0.059 A 
ATOM     70  C   UNL A   1      46.186  35.576  28.145  1.00  0.00     0.059 A 
ATOM     71  F   UNL A   1      45.283  33.894  26.786  1.00  0.00    -0.206 F 
ATOM     72  C   UNL A   1      46.725  35.967  29.369  1.00  0.00     0.060 A 
BRANCH  72  73
ATOM     73  S   UNL A   1      47.172  37.690  29.666  1.00  0.00     0.124 S 
ATOM     74  O   UNL A   1      47.175  37.743  31.124  1.00  0.00    -0.237 OA
ATOM     75  O   UNL A   1      48.481  37.786  29.027  1.00  0.00    -0.237 OA
ATOM     76  O   UNL A   1      46.101  38.438  29.014  1.00  0.00    -0.744 OA
ENDBRANCH  72  73
ENDBRANCH  51  65
BRANCH  52  77
ATOM     77  C   UNL A   1      43.131  23.864  27.238  1.00  0.00     0.058 A 
ATOM     78  C   UNL A   1      43.115  22.879  28.237  1.00  0.00     0.135 A 
ATOM     79  C   UNL A   1      42.736  23.486  25.945  1.00  0.00     0.135 A 
ATOM     80  F   UNL A   1      43.499  23.185  29.486  1.00  0.00    -0.206 F 
ATOM     81  C   UNL A   1      42.739  21.568  27.964  1.00  0.00     0.059 A 
ATOM     82  C   UNL A   1      42.327  22.188  25.654  1.00  0.00     0.059 A 
ATOM     83  F   UNL A   1      42.728  24.390  24.952  1.00  0.00    -0.206 F 
ATOM     84  C   UNL A   1      42.342  21.233  26.669  1.00  0.00     0.060 A 
BRANCH  84  85
ATOM     85  S   UNL A   1      41.814  19.537  26.339  1.00  0.00     0.124 S 
ATOM     86  O   UNL A   1      42.239  18.855  27.556  1.00  0.00    -0.237 OA
ATOM     87  O   UNL A   1      40.373  19.696  26.166  1.00  0.00    -0.237 OA
ATOM     88  O   UNL A   1      42.549  19.185  25.129  1.00  0.00    -0.744 OA
ENDBRANCH  84  85
ENDBRANCH  52  77
BRANCH  64  89
ATOM     89  C   UNL A   1      49.093  27.358  26.210  1.00  0.00     0.058 A 
ATOM     90  C   UNL A   1      50.143  26.920  27.032  1.00  0.00     0.135 A 
ATOM     91  C   UNL A   1      49.307  27.355  24.820  1.00  0.00     0.135 A 
ATOM     92  F   UNL A   1      49.996  26.908  28.366  1.00  0.00    -0.206 F 
ATOM     93  C   UNL A   1      51.365  26.518  26.501  1.00  0.00     0.059 A 
ATOM     94  C   UNL A   1      50.509  26.925  24.266  1.00  0.00     0.059 A 
ATOM     95  F   UNL A   1      48.335  27.751  23.984  1.00  0.00    -0.206 F 
ATOM     96  C   UNL A   1      51.537  26.520  25.114  1.00  0.00     0.060 A 
BRANCH  96  97
ATOM     97  S   UNL A   1      53.114  25.961  24.437  1.00  0.00     0.124 S 
ATOM     98  O   UNL A   1      52.942  26.246  23.015  1.00  0.00    -0.237 OA
ATOM     99  O   UNL A   1      54.073  26.806  25.141  1.00  0.00    -0.237 OA
ATOM    100  O   UNL A   1      53.156  24.546  24.791  1.00  0.00    -0.744 OA
ENDBRANCH  96  97
ENDBRANCH  64  89
ENDBRANCH  38  39
ENDBRANCH  31  33
ENDBRANCH  30  31
ENDBRANCH  29  30
ENDBRANCH  28  29
ENDBRANCH  27  28
ENDBRANCH   1  27
TORSDOF 22
ENDMDL
MODEL 3
REMARK VINA RESULT:     -10.2      1.009      2.021
REMARK SMILES Cc1cc(F)ccc1NC(=O)[C@H]1CC=CC[C@@H]1C(=O)OCCOCCOCCOC(=O)c1ccc(-c2c3nc(c(-c4c(F)cc(S(=O)(=O)[O-])cc4F)c4ccc([nH]4)c(-c4c(F)cc(S(=O)(=O)[O-])cc4F)c4nc(c(-c5c(F)cc(S(=O)(=O)[O-])cc5F)c5ccc2[nH]5)C=C4)C=C3)cc1
REMARK SMILES IDX 25 1 24 2 23 3 22 4 21 5 20 6 18 7 19 8 17 9 12 10 13 11
REMARK SMILES IDX 14 12 16 13 15 14 10 15 9 16 11 18 8 19 1 20 2 21 3 22 4 23
REMARK SMILES IDX 7 24 5 25 6 26 26 27 27 28 28 29 29 30 30 31 31 32 32 33
REMARK SMILES IDX 33 34 97 35 34 36 96 37 35 38 36 39 37 40 90 41 38 42 95 43
REMARK SMILES IDX 89 44 91 45 39 46 94 47 88 48 87 49 40 51 74 52 53 53 73 54
REMARK SMILES IDX 54 55 57 56 72 57 92 58 55 59 56 60 71 62 93 63 58 64 41 65
REMARK SMILES IDX 42 66 51 67 43 68 44 69 50 70 52 71 45 72 46 73 47 74 48 75
REMARK SMILES IDX 49 76 75 77 76 78 85 79 77 80 78 81 84 82 86 83 79 84 80 85
REMARK SMILES IDX 81 86 82 87 83 88 59 89 60 90 69 91 61 92 62 93 68 94 70 95
REMARK SMILES IDX 63 96 64 97 65 98 66 99 67 100
REMARK H PARENT 9 17 91 50 57 61
REMARK Flexibility Score: inf
ROOT
ATOM      1  C   UNL A   1      34.128  32.817  28.464  1.00  0.00     0.188 C 
ENDROOT
BRANCH   1   2
ATOM      2  C   UNL A   1      34.793  31.425  28.396  1.00  0.00     0.188 C 
BRANCH   2   3
ATOM      3  O   UNL A   1      34.665  30.620  27.217  1.00  0.00    -0.376 OA
BRANCH   3   4
ATOM      4  C   UNL A   1      33.754  29.523  27.174  1.00  0.00     0.202 C 
BRANCH   4   5
ATOM      5  C   UNL A   1      34.029  28.408  26.158  1.00  0.00     0.261 C 
BRANCH   5   6
ATOM      6  O   UNL A   1      32.777  27.906  25.711  1.00  0.00    -0.463 OA
BRANCH   6   7
ATOM      7  C   UNL A   1      32.166  26.740  26.053  1.00  0.00     0.310 C 
ATOM      8  O   UNL A   1      31.493  26.533  27.041  1.00  0.00    -0.252 OA
BRANCH   7   9
ATOM      9  C   UNL A   1      32.540  25.793  24.906  1.00  0.00     0.116 C 
ATOM     10  C   UNL A   1      32.708  26.215  23.456  1.00  0.00     0.097 C 
ATOM     11  C   UNL A   1      31.429  26.933  22.976  1.00  0.00     0.041 C 
ATOM     12  C   UNL A   1      30.248  26.025  23.134  1.00  0.00    -0.030 C 
ATOM     13  C   UNL A   1      31.426  24.762  24.926  1.00  0.00     0.043 C 
ATOM     14  C   UNL A   1      30.277  25.004  23.997  1.00  0.00    -0.030 C 
BRANCH  10  15
ATOM     15  C   UNL A   1      33.145  25.134  22.365  1.00  0.00     0.228 C 
ATOM     16  N   UNL A   1      33.510  23.810  22.386  1.00  0.00    -0.326 N 
ATOM     17  H   UNL A   1      34.010  23.637  21.555  1.00  0.00     0.169 HD
ATOM     18  O   UNL A   1      33.298  25.609  21.215  1.00  0.00    -0.274 OA
BRANCH  16  19
ATOM     19  C   UNL A   1      33.467  22.574  23.111  1.00  0.00     0.044 A 
ATOM     20  C   UNL A   1      35.860  22.896  24.028  1.00  0.00     0.047 C 
ATOM     21  C   UNL A   1      34.505  22.242  24.011  1.00  0.00    -0.025 A 
ATOM     22  C   UNL A   1      34.355  21.151  24.909  1.00  0.00     0.044 A 
ATOM     23  C   UNL A   1      33.237  20.338  24.858  1.00  0.00     0.123 A 
ATOM     24  C   UNL A   1      32.532  21.550  22.914  1.00  0.00     0.029 A 
ATOM     25  F   UNL A   1      33.077  19.339  25.734  1.00  0.00    -0.207 F 
ATOM     26  C   UNL A   1      32.338  20.504  23.832  1.00  0.00     0.041 A 
ENDBRANCH  16  19
ENDBRANCH  10  15
ENDBRANCH   7   9
ENDBRANCH   6   7
ENDBRANCH   5   6
ENDBRANCH   4   5
ENDBRANCH   3   4
ENDBRANCH   2   3
ENDBRANCH   1   2
BRANCH   1  27
ATOM     27  O   UNL A   1      35.065  33.834  28.732  1.00  0.00    -0.376 OA
BRANCH  27  28
ATOM     28  C   UNL A   1      35.281  34.232  30.069  1.00  0.00     0.202 C 
BRANCH  28  29
ATOM     29  C   UNL A   1      35.843  33.213  31.075  1.00  0.00     0.261 C 
BRANCH  29  30
ATOM     30  O   UNL A   1      37.059  32.548  30.707  1.00  0.00    -0.460 OA
BRANCH  30  31
ATOM     31  C   UNL A   1      37.215  31.280  31.149  1.00  0.00     0.338 C 
ATOM     32  O   UNL A   1      36.422  30.624  31.812  1.00  0.00    -0.246 OA
BRANCH  31  33
ATOM     33  C   UNL A   1      38.437  30.724  30.542  1.00  0.00     0.060 A 
ATOM     34  C   UNL A   1      39.541  30.442  31.360  1.00  0.00     0.016 A 
ATOM     35  C   UNL A   1      38.495  30.493  29.166  1.00  0.00     0.016 A 
ATOM     36  C   UNL A   1      40.717  29.941  30.796  1.00  0.00     0.010 A 
ATOM     37  C   UNL A   1      39.677  30.006  28.605  1.00  0.00     0.010 A 
ATOM     38  C   UNL A   1      40.801  29.751  29.411  1.00  0.00    -0.014 A 
BRANCH  38  39
ATOM     39  C   UNL A   1      42.092  29.429  28.754  1.00  0.00     0.031 A 
ATOM     40  C   UNL A   1      42.335  28.013  28.306  1.00  0.00     0.074 A 
ATOM     41  C   UNL A   1      43.055  30.359  28.613  1.00  0.00     0.049 A 
ATOM     42  N   UNL A   1      43.432  27.456  27.864  1.00  0.00    -0.248 NA
ATOM     43  C   UNL A   1      41.184  27.099  28.385  1.00  0.00     0.031 C 
ATOM     44  C   UNL A   1      42.931  31.768  28.978  1.00  0.00     0.029 A 
ATOM     45  N   UNL A   1      44.343  30.242  28.153  1.00  0.00    -0.354 N 
ATOM     46  C   UNL A   1      43.112  26.123  27.635  1.00  0.00     0.074 A 
ATOM     47  C   UNL A   1      41.725  25.949  28.009  1.00  0.00     0.031 C 
ATOM     48  C   UNL A   1      44.105  32.383  28.749  1.00  0.00     0.029 A 
ATOM     49  C   UNL A   1      45.075  31.401  28.264  1.00  0.00     0.049 A 
ATOM     50  H   UNL A   1      44.709  29.408  27.777  1.00  0.00     0.167 HD
ATOM     51  C   UNL A   1      43.904  25.135  27.155  1.00  0.00     0.037 A 
ATOM     52  C   UNL A   1      46.383  31.633  28.034  1.00  0.00     0.037 A 
ATOM     53  C   UNL A   1      45.285  25.318  26.787  1.00  0.00     0.049 A 
ATOM     54  C   UNL A   1      47.263  30.501  27.563  1.00  0.00     0.074 A 
ATOM     55  C   UNL A   1      46.164  24.387  26.261  1.00  0.00     0.029 A 
ATOM     56  N   UNL A   1      45.989  26.505  26.915  1.00  0.00    -0.354 N 
ATOM     57  N   UNL A   1      46.946  29.250  27.322  1.00  0.00    -0.248 NA
ATOM     58  C   UNL A   1      48.682  30.812  27.334  1.00  0.00     0.031 C 
ATOM     59  C   UNL A   1      47.416  24.995  26.130  1.00  0.00     0.029 A 
ATOM     60  C   UNL A   1      47.301  26.323  26.508  1.00  0.00     0.049 A 
ATOM     61  H   UNL A   1      45.614  27.352  27.248  1.00  0.00     0.167 HD
ATOM     62  C   UNL A   1      48.115  28.638  26.877  1.00  0.00     0.074 A 
ATOM     63  C   UNL A   1      49.144  29.655  26.876  1.00  0.00     0.031 C 
ATOM     64  C   UNL A   1      48.316  27.350  26.499  1.00  0.00     0.037 A 
BRANCH  51  65
ATOM     65  C   UNL A   1      43.307  23.758  27.032  1.00  0.00     0.058 A 
ATOM     66  C   UNL A   1      42.919  23.225  25.792  1.00  0.00     0.135 A 
ATOM     67  C   UNL A   1      43.154  22.947  28.169  1.00  0.00     0.135 A 
ATOM     68  F   UNL A   1      43.025  23.962  24.675  1.00  0.00    -0.206 F 
ATOM     69  C   UNL A   1      42.373  21.949  25.689  1.00  0.00     0.059 A 
ATOM     70  C   UNL A   1      42.640  21.657  28.083  1.00  0.00     0.059 A 
ATOM     71  F   UNL A   1      43.506  23.406  29.380  1.00  0.00    -0.206 F 
ATOM     72  C   UNL A   1      42.239  21.172  26.840  1.00  0.00     0.060 A 
BRANCH  72  73
ATOM     73  S   UNL A   1      41.535  19.518  26.685  1.00  0.00     0.124 S 
ATOM     74  O   UNL A   1      42.162  18.828  27.809  1.00  0.00    -0.237 OA
ATOM     75  O   UNL A   1      40.104  19.775  26.821  1.00  0.00    -0.237 OA
ATOM     76  O   UNL A   1      41.969  19.083  25.361  1.00  0.00    -0.744 OA
ENDBRANCH  72  73
ENDBRANCH  51  65
BRANCH  52  77
ATOM     77  C   UNL A   1      46.953  32.992  28.255  1.00  0.00     0.058 A 
ATOM     78  C   UNL A   1      46.997  33.932  27.214  1.00  0.00     0.135 A 
ATOM     79  C   UNL A   1      47.470  33.376  29.502  1.00  0.00     0.135 A 
ATOM     80  F   UNL A   1      46.531  33.608  25.998  1.00  0.00    -0.206 F 
ATOM     81  C   UNL A   1      47.548  35.197  27.396  1.00  0.00     0.059 A 
ATOM     82  C   UNL A   1      47.998  34.646  29.716  1.00  0.00     0.059 A 
ATOM     83  F   UNL A   1      47.447  32.518  30.534  1.00  0.00    -0.206 F 
ATOM     84  C   UNL A   1      48.042  35.546  28.653  1.00  0.00     0.060 A 
BRANCH  84  85
ATOM     85  S   UNL A   1      48.713  37.207  28.885  1.00  0.00     0.124 S 
ATOM     86  O   UNL A   1      50.041  36.916  29.412  1.00  0.00    -0.237 OA
ATOM     87  O   UNL A   1      48.668  37.745  27.529  1.00  0.00    -0.237 OA
ATOM     88  O   UNL A   1      47.780  37.818  29.827  1.00  0.00    -0.744 OA
ENDBRANCH  84  85
ENDBRANCH  52  77
BRANCH  64  89
ATOM     89  C   UNL A   1      49.687  26.971  26.000  1.00  0.00     0.058 A 
ATOM     90  C   UNL A   1      50.051  27.096  24.651  1.00  0.00     0.135 A 
ATOM     91  C   UNL A   1      50.670  26.530  26.903  1.00  0.00     0.135 A 
ATOM     92  F   UNL A   1      49.151  27.507  23.744  1.00  0.00    -0.206 F 
ATOM     93  C   UNL A   1      51.330  26.774  24.209  1.00  0.00     0.059 A 
ATOM     94  C   UNL A   1      51.965  26.235  26.489  1.00  0.00     0.059 A 
ATOM     95  F   UNL A   1      50.383  26.403  28.209  1.00  0.00    -0.206 F 
ATOM     96  C   UNL A   1      52.283  26.348  25.138  1.00  0.00     0.060 A 
BRANCH  96  97
ATOM     97  S   UNL A   1      53.950  25.969  24.557  1.00  0.00     0.124 S 
ATOM     98  O   UNL A   1      54.772  26.674  25.537  1.00  0.00    -0.237 OA
ATOM     99  O   UNL A   1      53.983  24.513  24.632  1.00  0.00    -0.237 OA
ATOM    100  O   UNL A   1      53.975  26.522  23.206  1.00  0.00    -0.744 OA
ENDBRANCH  96  97
ENDBRANCH  64  89
ENDBRANCH  38  39
ENDBRANCH  31  33
ENDBRANCH  30  31
ENDBRANCH  29  30
ENDBRANCH  28  29
ENDBRANCH  27  28
ENDBRANCH   1  27
TORSDOF 22
ENDMDL
