MODEL 1
REMARK VINA RESULT:     -10.3      0.000      0.000
REMARK SMILES Cc1cc(C(=O)Nc2c(Cl)cc(Cl)cc2C(=O)OCCOCCOCCOC(=O)c2ccc(-c3c4nc(c(-c5c(F)cc(S(=O)(=O)[O-])cc5F)c5ccc([nH]5)c(-c5c(F)cc(S(=O)(=O)[O-])cc5F)c5nc(c(-c6c(F)cc(S(=O)(=O)[O-])cc6F)c6ccc3[nH]6)C=C5)C=C4)cc2)c(C)s1
REMARK SMILES IDX 23 1 22 2 21 3 20 4 19 5 18 6 16 7 17 8 15 9 8 10 9 11 10 12
REMARK SMILES IDX 11 13 14 14 12 15 13 16 7 17 5 18 6 19 4 21 1 22 2 23 3 24
REMARK SMILES IDX 98 25 96 26 97 27 24 28 25 29 26 30 27 31 28 32 29 33 30 34
REMARK SMILES IDX 31 35 95 36 32 37 94 38 33 39 34 40 35 41 88 42 36 43 93 44
REMARK SMILES IDX 87 45 89 46 37 47 92 48 86 49 85 50 38 52 72 53 51 54 71 55
REMARK SMILES IDX 52 56 55 57 70 58 90 59 53 60 54 61 69 63 91 64 56 65 39 66
REMARK SMILES IDX 40 67 49 68 41 69 42 70 48 71 50 72 43 73 44 74 45 75 46 76
REMARK SMILES IDX 47 77 73 78 74 79 83 80 75 81 76 82 82 83 84 84 77 85 78 86
REMARK SMILES IDX 79 87 80 88 81 89 57 90 58 91 67 92 59 93 60 94 66 95 68 96
REMARK SMILES IDX 61 97 62 98 63 99 64 100 65 101
REMARK H PARENT 7 20 89 51 55 62
REMARK Flexibility Score: inf
ROOT
ATOM      1  C   UNL A   1      34.694  33.512  28.959  1.00  0.00     0.188 C 
ENDROOT
BRANCH   1   2
ATOM      2  C   UNL A   1      34.582  31.978  28.858  1.00  0.00     0.188 C 
BRANCH   2   3
ATOM      3  O   UNL A   1      35.452  31.261  27.990  1.00  0.00    -0.376 OA
BRANCH   3   4
ATOM      4  C   UNL A   1      35.108  29.948  27.566  1.00  0.00     0.202 C 
BRANCH   4   5
ATOM      5  C   UNL A   1      33.627  29.634  27.332  1.00  0.00     0.261 C 
BRANCH   5   6
ATOM      6  O   UNL A   1      33.373  28.254  27.004  1.00  0.00    -0.460 OA
BRANCH   6   7
ATOM      7  C   UNL A   1      32.075  27.877  27.079  1.00  0.00     0.340 C 
ATOM      8  O   UNL A   1      31.407  27.800  28.099  1.00  0.00    -0.246 OA
BRANCH   7   9
ATOM      9  C   UNL A   1      31.461  27.644  25.746  1.00  0.00     0.086 A 
ATOM     10  C   UNL A   1      30.443  26.708  25.464  1.00  0.00     0.075 A 
ATOM     11  C   UNL A   1      29.726  26.893  24.266  1.00  0.00     0.067 A 
ATOM     12  Cl  UNL A   1      28.130  26.253  24.035  1.00  0.00    -0.082 Cl
ATOM     13  C   UNL A   1      30.216  27.724  23.252  1.00  0.00     0.043 A 
ATOM     14  C   UNL A   1      31.953  28.477  24.726  1.00  0.00     0.038 A 
ATOM     15  C   UNL A   1      31.371  28.459  23.467  1.00  0.00     0.043 A 
ATOM     16  Cl  UNL A   1      32.046  29.394  22.196  1.00  0.00    -0.084 Cl
BRANCH  10  17
ATOM     17  N   UNL A   1      30.231  25.630  26.356  1.00  0.00    -0.320 N 
ATOM     18  C   UNL A   1      30.832  24.386  26.497  1.00  0.00     0.256 C 
ATOM     19  O   UNL A   1      30.310  23.622  27.314  1.00  0.00    -0.269 OA
ATOM     20  H   UNL A   1      29.511  25.794  27.008  1.00  0.00     0.170 HD
BRANCH  18  21
ATOM     21  C   UNL A   1      32.073  24.017  25.785  1.00  0.00     0.054 A 
ATOM     22  C   UNL A   1      35.864  23.880  25.579  1.00  0.00     0.056 C 
ATOM     23  C   UNL A   1      34.389  23.778  25.401  1.00  0.00     0.003 A 
ATOM     24  C   UNL A   1      33.394  23.863  26.351  1.00  0.00     0.029 A 
ATOM     25  S   UNL A   1      33.733  23.521  23.855  1.00  0.00    -0.145 S 
ATOM     26  C   UNL A   1      32.121  23.684  24.431  1.00  0.00     0.014 A 
ATOM     27  C   UNL A   1      31.029  23.491  23.426  1.00  0.00     0.057 C 
ENDBRANCH  18  21
ENDBRANCH  10  17
ENDBRANCH   7   9
ENDBRANCH   6   7
ENDBRANCH   5   6
ENDBRANCH   4   5
ENDBRANCH   3   4
ENDBRANCH   2   3
ENDBRANCH   1   2
BRANCH   1  28
ATOM     28  O   UNL A   1      33.464  34.194  28.802  1.00  0.00    -0.376 OA
BRANCH  28  29
ATOM     29  C   UNL A   1      33.528  35.613  28.790  1.00  0.00     0.202 C 
BRANCH  29  30
ATOM     30  C   UNL A   1      32.855  36.335  29.966  1.00  0.00     0.261 C 
BRANCH  30  31
ATOM     31  O   UNL A   1      32.470  35.508  31.077  1.00  0.00    -0.460 OA
BRANCH  31  32
ATOM     32  C   UNL A   1      33.014  35.794  32.282  1.00  0.00     0.338 C 
ATOM     33  O   UNL A   1      32.538  36.502  33.150  1.00  0.00    -0.246 OA
BRANCH  32  34
ATOM     34  C   UNL A   1      34.209  34.936  32.448  1.00  0.00     0.060 A 
ATOM     35  C   UNL A   1      34.059  33.658  33.000  1.00  0.00     0.016 A 
ATOM     36  C   UNL A   1      35.470  35.389  32.049  1.00  0.00     0.016 A 
ATOM     37  C   UNL A   1      35.177  32.838  33.177  1.00  0.00     0.010 A 
ATOM     38  C   UNL A   1      36.589  34.573  32.243  1.00  0.00     0.010 A 
ATOM     39  C   UNL A   1      36.453  33.304  32.831  1.00  0.00    -0.014 A 
BRANCH  39  40
ATOM     40  C   UNL A   1      37.662  32.544  33.235  1.00  0.00     0.031 A 
ATOM     41  C   UNL A   1      38.348  32.914  34.522  1.00  0.00     0.074 A 
ATOM     42  C   UNL A   1      38.150  31.546  32.475  1.00  0.00     0.049 A 
ATOM     43  N   UNL A   1      39.428  32.412  35.062  1.00  0.00    -0.248 NA
ATOM     44  C   UNL A   1      37.732  33.999  35.301  1.00  0.00     0.031 C 
ATOM     45  C   UNL A   1      37.564  31.070  31.223  1.00  0.00     0.029 A 
ATOM     46  N   UNL A   1      39.260  30.756  32.648  1.00  0.00    -0.354 N 
ATOM     47  C   UNL A   1      39.625  33.124  36.241  1.00  0.00     0.074 A 
ATOM     48  C   UNL A   1      38.566  34.105  36.324  1.00  0.00     0.031 C 
ATOM     49  C   UNL A   1      38.324  30.072  30.738  1.00  0.00     0.029 A 
ATOM     50  C   UNL A   1      39.464  29.857  31.629  1.00  0.00     0.049 A 
ATOM     51  H   UNL A   1      39.855  30.828  33.430  1.00  0.00     0.167 HD
ATOM     52  C   UNL A   1      40.598  32.970  37.170  1.00  0.00     0.037 A 
ATOM     53  C   UNL A   1      40.462  28.972  31.432  1.00  0.00     0.037 A 
ATOM     54  C   UNL A   1      41.655  31.998  37.084  1.00  0.00     0.049 A 
ATOM     55  C   UNL A   1      41.574  28.869  32.446  1.00  0.00     0.074 A 
ATOM     56  C   UNL A   1      42.664  31.741  37.995  1.00  0.00     0.029 A 
ATOM     57  N   UNL A   1      41.849  31.133  36.018  1.00  0.00    -0.354 N 
ATOM     58  N   UNL A   1      41.724  29.516  33.577  1.00  0.00    -0.248 NA
ATOM     59  C   UNL A   1      42.656  27.916  32.154  1.00  0.00     0.031 C 
ATOM     60  C   UNL A   1      43.497  30.754  37.457  1.00  0.00     0.029 A 
ATOM     61  C   UNL A   1      42.981  30.363  36.232  1.00  0.00     0.049 A 
ATOM     62  H   UNL A   1      41.269  31.076  35.225  1.00  0.00     0.167 HD
ATOM     63  C   UNL A   1      42.896  29.026  34.145  1.00  0.00     0.074 A 
ATOM     64  C   UNL A   1      43.416  28.029  33.234  1.00  0.00     0.031 C 
ATOM     65  C   UNL A   1      43.485  29.368  35.319  1.00  0.00     0.037 A 
BRANCH  52  66
ATOM     66  C   UNL A   1      40.578  33.907  38.346  1.00  0.00     0.058 A 
ATOM     67  C   UNL A   1      41.329  35.092  38.359  1.00  0.00     0.135 A 
ATOM     68  C   UNL A   1      39.794  33.613  39.473  1.00  0.00     0.135 A 
ATOM     69  F   UNL A   1      42.110  35.411  37.315  1.00  0.00    -0.206 F 
ATOM     70  C   UNL A   1      41.332  35.936  39.466  1.00  0.00     0.059 A 
ATOM     71  C   UNL A   1      39.763  34.455  40.580  1.00  0.00     0.059 A 
ATOM     72  F   UNL A   1      39.059  32.490  39.511  1.00  0.00    -0.206 F 
ATOM     73  C   UNL A   1      40.551  35.605  40.574  1.00  0.00     0.060 A 
BRANCH  73  74
ATOM     74  S   UNL A   1      40.582  36.696  42.012  1.00  0.00     0.124 S 
ATOM     75  O   UNL A   1      41.050  35.787  43.054  1.00  0.00    -0.237 OA
ATOM     76  O   UNL A   1      41.527  37.729  41.602  1.00  0.00    -0.237 OA
ATOM     77  O   UNL A   1      39.195  37.133  42.135  1.00  0.00    -0.744 OA
ENDBRANCH  73  74
ENDBRANCH  52  66
BRANCH  53  78
ATOM     78  C   UNL A   1      40.461  28.102  30.226  1.00  0.00     0.058 A 
ATOM     79  C   UNL A   1      41.349  28.339  29.167  1.00  0.00     0.135 A 
ATOM     80  C   UNL A   1      39.574  27.022  30.107  1.00  0.00     0.135 A 
ATOM     81  F   UNL A   1      42.205  29.371  29.228  1.00  0.00    -0.206 F 
ATOM     82  C   UNL A   1      41.356  27.539  28.028  1.00  0.00     0.059 A 
ATOM     83  C   UNL A   1      39.577  26.193  28.988  1.00  0.00     0.059 A 
ATOM     84  F   UNL A   1      38.707  26.750  31.095  1.00  0.00    -0.206 F 
ATOM     85  C   UNL A   1      40.468  26.465  27.950  1.00  0.00     0.060 A 
BRANCH  85  86
ATOM     86  S   UNL A   1      40.526  25.398  26.493  1.00  0.00     0.124 S 
ATOM     87  O   UNL A   1      40.972  26.331  25.464  1.00  0.00    -0.237 OA
ATOM     88  O   UNL A   1      41.492  24.381  26.896  1.00  0.00    -0.237 OA
ATOM     89  O   UNL A   1      39.149  24.930  26.367  1.00  0.00    -0.744 OA
ENDBRANCH  85  86
ENDBRANCH  53  78
BRANCH  65  90
ATOM     90  C   UNL A   1      44.739  28.635  35.710  1.00  0.00     0.058 A 
ATOM     91  C   UNL A   1      46.013  29.117  35.371  1.00  0.00     0.135 A 
ATOM     92  C   UNL A   1      44.666  27.466  36.485  1.00  0.00     0.135 A 
ATOM     93  F   UNL A   1      46.139  30.227  34.626  1.00  0.00    -0.206 F 
ATOM     94  C   UNL A   1      47.170  28.455  35.771  1.00  0.00     0.059 A 
ATOM     95  C   UNL A   1      45.809  26.802  36.917  1.00  0.00     0.059 A 
ATOM     96  F   UNL A   1      43.472  26.969  36.847  1.00  0.00    -0.206 F 
ATOM     97  C   UNL A   1      47.058  27.298  36.545  1.00  0.00     0.060 A 
BRANCH  97  98
ATOM     98  S   UNL A   1      48.566  26.468  37.092  1.00  0.00     0.124 S 
ATOM     99  O   UNL A   1      48.544  25.255  36.281  1.00  0.00    -0.237 OA
ATOM    100  O   UNL A   1      49.601  27.440  36.750  1.00  0.00    -0.237 OA
ATOM    101  O   UNL A   1      48.346  26.273  38.522  1.00  0.00    -0.744 OA
ENDBRANCH  97  98
ENDBRANCH  65  90
ENDBRANCH  39  40
ENDBRANCH  32  34
ENDBRANCH  31  32
ENDBRANCH  30  31
ENDBRANCH  29  30
ENDBRANCH  28  29
ENDBRANCH   1  28
TORSDOF 22
ENDMDL
MODEL 2
REMARK VINA RESULT:     -10.2      6.277     10.833
REMARK SMILES Cc1cc(C(=O)Nc2c(Cl)cc(Cl)cc2C(=O)OCCOCCOCCOC(=O)c2ccc(-c3c4nc(c(-c5c(F)cc(S(=O)(=O)[O-])cc5F)c5ccc([nH]5)c(-c5c(F)cc(S(=O)(=O)[O-])cc5F)c5nc(c(-c6c(F)cc(S(=O)(=O)[O-])cc6F)c6ccc3[nH]6)C=C5)C=C4)cc2)c(C)s1
REMARK SMILES IDX 23 1 22 2 21 3 20 4 19 5 18 6 16 7 17 8 15 9 8 10 9 11 10 12
REMARK SMILES IDX 11 13 14 14 12 15 13 16 7 17 5 18 6 19 4 21 1 22 2 23 3 24
REMARK SMILES IDX 98 25 96 26 97 27 24 28 25 29 26 30 27 31 28 32 29 33 30 34
REMARK SMILES IDX 31 35 95 36 32 37 94 38 33 39 34 40 35 41 88 42 36 43 93 44
REMARK SMILES IDX 87 45 89 46 37 47 92 48 86 49 85 50 38 52 72 53 51 54 71 55
REMARK SMILES IDX 52 56 55 57 70 58 90 59 53 60 54 61 69 63 91 64 56 65 39 66
REMARK SMILES IDX 40 67 49 68 41 69 42 70 48 71 50 72 43 73 44 74 45 75 46 76
REMARK SMILES IDX 47 77 73 78 74 79 83 80 75 81 76 82 82 83 84 84 77 85 78 86
REMARK SMILES IDX 79 87 80 88 81 89 57 90 58 91 67 92 59 93 60 94 66 95 68 96
REMARK SMILES IDX 61 97 62 98 63 99 64 100 65 101
REMARK H PARENT 7 20 89 51 55 62
REMARK Flexibility Score: inf
ROOT
ATOM      1  C   UNL A   1      35.318  33.675  29.649  1.00  0.00     0.188 C 
ENDROOT
BRANCH   1   2
ATOM      2  C   UNL A   1      34.202  32.713  29.195  1.00  0.00     0.188 C 
BRANCH   2   3
ATOM      3  O   UNL A   1      34.543  31.471  28.589  1.00  0.00    -0.376 OA
BRANCH   3   4
ATOM      4  C   UNL A   1      33.768  30.973  27.506  1.00  0.00     0.202 C 
BRANCH   4   5
ATOM      5  C   UNL A   1      33.193  29.559  27.626  1.00  0.00     0.261 C 
BRANCH   5   6
ATOM      6  O   UNL A   1      32.260  29.223  26.580  1.00  0.00    -0.460 OA
BRANCH   6   7
ATOM      7  C   UNL A   1      31.783  27.957  26.623  1.00  0.00     0.340 C 
ATOM      8  O   UNL A   1      31.112  27.472  27.522  1.00  0.00    -0.246 OA
BRANCH   7   9
ATOM      9  C   UNL A   1      32.072  27.186  25.387  1.00  0.00     0.086 A 
ATOM     10  C   UNL A   1      31.674  25.854  25.138  1.00  0.00     0.075 A 
ATOM     11  C   UNL A   1      31.692  25.428  23.796  1.00  0.00     0.067 A 
ATOM     12  Cl  UNL A   1      30.723  24.103  23.235  1.00  0.00    -0.082 Cl
ATOM     13  C   UNL A   1      32.390  26.146  22.819  1.00  0.00     0.043 A 
ATOM     14  C   UNL A   1      32.774  27.905  24.404  1.00  0.00     0.038 A 
ATOM     15  C   UNL A   1      32.989  27.352  23.151  1.00  0.00     0.043 A 
ATOM     16  Cl  UNL A   1      33.943  28.187  21.995  1.00  0.00    -0.084 Cl
BRANCH  10  17
ATOM     17  N   UNL A   1      31.332  25.021  26.230  1.00  0.00    -0.320 N 
ATOM     18  C   UNL A   1      31.850  23.823  26.705  1.00  0.00     0.256 C 
ATOM     19  O   UNL A   1      31.223  23.290  27.624  1.00  0.00    -0.269 OA
ATOM     20  H   UNL A   1      30.573  25.358  26.760  1.00  0.00     0.170 HD
BRANCH  18  21
ATOM     21  C   UNL A   1      33.122  23.255  26.212  1.00  0.00     0.054 A 
ATOM     22  C   UNL A   1      36.841  23.566  25.502  1.00  0.00     0.056 C 
ATOM     23  C   UNL A   1      35.420  23.158  25.690  1.00  0.00     0.003 A 
ATOM     24  C   UNL A   1      34.459  23.719  26.502  1.00  0.00     0.029 A 
ATOM     25  S   UNL A   1      34.795  21.830  24.834  1.00  0.00    -0.145 S 
ATOM     26  C   UNL A   1      33.204  22.105  25.426  1.00  0.00     0.014 A 
ATOM     27  C   UNL A   1      32.154  21.127  25.001  1.00  0.00     0.057 C 
ENDBRANCH  18  21
ENDBRANCH  10  17
ENDBRANCH   7   9
ENDBRANCH   6   7
ENDBRANCH   5   6
ENDBRANCH   4   5
ENDBRANCH   3   4
ENDBRANCH   2   3
ENDBRANCH   1   2
BRANCH   1  28
ATOM     28  O   UNL A   1      36.320  33.067  30.442  1.00  0.00    -0.376 OA
BRANCH  28  29
ATOM     29  C   UNL A   1      36.067  33.008  31.838  1.00  0.00     0.202 C 
BRANCH  29  30
ATOM     30  C   UNL A   1      36.530  31.734  32.561  1.00  0.00     0.261 C 
BRANCH  30  31
ATOM     31  O   UNL A   1      36.677  30.562  31.741  1.00  0.00    -0.460 OA
BRANCH  31  32
ATOM     32  C   UNL A   1      37.408  29.541  32.244  1.00  0.00     0.338 C 
ATOM     33  O   UNL A   1      37.028  28.679  33.014  1.00  0.00    -0.246 OA
BRANCH  32  34
ATOM     34  C   UNL A   1      38.711  29.535  31.540  1.00  0.00     0.060 A 
ATOM     35  C   UNL A   1      38.738  29.734  30.154  1.00  0.00     0.016 A 
ATOM     36  C   UNL A   1      39.900  29.344  32.249  1.00  0.00     0.016 A 
ATOM     37  C   UNL A   1      39.957  29.719  29.471  1.00  0.00     0.010 A 
ATOM     38  C   UNL A   1      41.117  29.312  31.561  1.00  0.00     0.010 A 
ATOM     39  C   UNL A   1      41.150  29.474  30.165  1.00  0.00    -0.014 A 
BRANCH  39  40
ATOM     40  C   UNL A   1      42.410  29.218  29.422  1.00  0.00     0.031 A 
ATOM     41  C   UNL A   1      42.621  27.857  28.814  1.00  0.00     0.074 A 
ATOM     42  C   UNL A   1      43.353  30.168  29.290  1.00  0.00     0.049 A 
ATOM     43  N   UNL A   1      43.648  27.396  28.147  1.00  0.00    -0.248 NA
ATOM     44  C   UNL A   1      41.528  26.888  28.985  1.00  0.00     0.031 C 
ATOM     45  C   UNL A   1      43.258  31.532  29.806  1.00  0.00     0.029 A 
ATOM     46  N   UNL A   1      44.584  30.123  28.683  1.00  0.00    -0.354 N 
ATOM     47  C   UNL A   1      43.327  26.081  27.825  1.00  0.00     0.074 A 
ATOM     48  C   UNL A   1      42.022  25.814  28.388  1.00  0.00     0.031 C 
ATOM     49  C   UNL A   1      44.388  32.194  29.496  1.00  0.00     0.029 A 
ATOM     50  C   UNL A   1      45.295  31.294  28.786  1.00  0.00     0.049 A 
ATOM     51  H   UNL A   1      44.925  29.325  28.218  1.00  0.00     0.167 HD
ATOM     52  C   UNL A   1      44.052  25.181  27.121  1.00  0.00     0.037 A 
ATOM     53  C   UNL A   1      46.541  31.598  28.367  1.00  0.00     0.037 A 
ATOM     54  C   UNL A   1      45.353  25.445  26.565  1.00  0.00     0.049 A 
ATOM     55  C   UNL A   1      47.358  30.555  27.647  1.00  0.00     0.074 A 
ATOM     56  C   UNL A   1      46.150  24.608  25.804  1.00  0.00     0.029 A 
ATOM     57  N   UNL A   1      46.056  26.629  26.725  1.00  0.00    -0.354 N 
ATOM     58  N   UNL A   1      47.026  29.332  27.310  1.00  0.00    -0.248 NA
ATOM     59  C   UNL A   1      48.724  30.935  27.253  1.00  0.00     0.031 C 
ATOM     60  C   UNL A   1      47.355  25.269  25.545  1.00  0.00     0.029 A 
ATOM     61  C   UNL A   1      47.291  26.535  26.105  1.00  0.00     0.049 A 
ATOM     62  H   UNL A   1      45.727  27.420  27.210  1.00  0.00     0.167 HD
ATOM     63  C   UNL A   1      48.126  28.808  26.638  1.00  0.00     0.074 A 
ATOM     64  C   UNL A   1      49.135  29.847  26.616  1.00  0.00     0.031 C 
ATOM     65  C   UNL A   1      48.285  27.580  26.084  1.00  0.00     0.037 A 
BRANCH  52  66
ATOM     66  C   UNL A   1      43.461  23.810  26.945  1.00  0.00     0.058 A 
ATOM     67  C   UNL A   1      43.521  22.844  27.960  1.00  0.00     0.135 A 
ATOM     68  C   UNL A   1      42.826  23.462  25.742  1.00  0.00     0.135 A 
ATOM     69  F   UNL A   1      44.134  23.119  29.122  1.00  0.00    -0.206 F 
ATOM     70  C   UNL A   1      43.003  21.566  27.777  1.00  0.00     0.059 A 
ATOM     71  C   UNL A   1      42.279  22.197  25.547  1.00  0.00     0.059 A 
ATOM     72  F   UNL A   1      42.744  24.349  24.738  1.00  0.00    -0.206 F 
ATOM     73  C   UNL A   1      42.389  21.250  26.563  1.00  0.00     0.060 A 
BRANCH  73  74
ATOM     74  S   UNL A   1      41.741  19.582  26.329  1.00  0.00     0.124 S 
ATOM     75  O   UNL A   1      42.451  19.163  25.124  1.00  0.00    -0.237 OA
ATOM     76  O   UNL A   1      42.140  18.913  27.563  1.00  0.00    -0.237 OA
ATOM     77  O   UNL A   1      40.306  19.795  26.171  1.00  0.00    -0.744 OA
ENDBRANCH  73  74
ENDBRANCH  52  66
BRANCH  53  78
ATOM     78  C   UNL A   1      47.098  32.956  28.610  1.00  0.00     0.058 A 
ATOM     79  C   UNL A   1      47.767  33.254  29.805  1.00  0.00     0.135 A 
ATOM     80  C   UNL A   1      46.971  33.978  27.658  1.00  0.00     0.135 A 
ATOM     81  F   UNL A   1      47.899  32.314  30.754  1.00  0.00    -0.206 F 
ATOM     82  C   UNL A   1      48.289  34.521  30.052  1.00  0.00     0.059 A 
ATOM     83  C   UNL A   1      47.503  35.247  27.872  1.00  0.00     0.059 A 
ATOM     84  F   UNL A   1      46.342  33.741  26.496  1.00  0.00    -0.206 F 
ATOM     85  C   UNL A   1      48.155  35.510  29.076  1.00  0.00     0.060 A 
BRANCH  85  86
ATOM     86  S   UNL A   1      48.886  37.134  29.382  1.00  0.00     0.124 S 
ATOM     87  O   UNL A   1      47.704  37.940  29.663  1.00  0.00    -0.237 OA
ATOM     88  O   UNL A   1      49.762  36.866  30.518  1.00  0.00    -0.237 OA
ATOM     89  O   UNL A   1      49.571  37.433  28.128  1.00  0.00    -0.744 OA
ENDBRANCH  85  86
ENDBRANCH  53  78
BRANCH  65  90
ATOM     90  C   UNL A   1      49.579  27.297  25.373  1.00  0.00     0.058 A 
ATOM     91  C   UNL A   1      49.707  27.449  23.984  1.00  0.00     0.135 A 
ATOM     92  C   UNL A   1      50.721  26.925  26.099  1.00  0.00     0.135 A 
ATOM     93  F   UNL A   1      48.645  27.797  23.241  1.00  0.00    -0.206 F 
ATOM     94  C   UNL A   1      50.920  27.224  23.338  1.00  0.00     0.059 A 
ATOM     95  C   UNL A   1      51.949  26.719  25.478  1.00  0.00     0.059 A 
ATOM     96  F   UNL A   1      50.656  26.776  27.433  1.00  0.00    -0.206 F 
ATOM     97  C   UNL A   1      52.036  26.860  24.094  1.00  0.00     0.060 A 
BRANCH  97  98
ATOM     98  S   UNL A   1      53.613  26.609  23.251  1.00  0.00     0.124 S 
ATOM     99  O   UNL A   1      53.185  25.968  22.012  1.00  0.00    -0.237 OA
ATOM    100  O   UNL A   1      54.120  27.972  23.117  1.00  0.00    -0.237 OA
ATOM    101  O   UNL A   1      54.359  25.758  24.174  1.00  0.00    -0.744 OA
ENDBRANCH  97  98
ENDBRANCH  65  90
ENDBRANCH  39  40
ENDBRANCH  32  34
ENDBRANCH  31  32
ENDBRANCH  30  31
ENDBRANCH  29  30
ENDBRANCH  28  29
ENDBRANCH   1  28
TORSDOF 22
ENDMDL
MODEL 3
REMARK VINA RESULT:     -10.1      6.208     10.679
REMARK SMILES Cc1cc(C(=O)Nc2c(Cl)cc(Cl)cc2C(=O)OCCOCCOCCOC(=O)c2ccc(-c3c4nc(c(-c5c(F)cc(S(=O)(=O)[O-])cc5F)c5ccc([nH]5)c(-c5c(F)cc(S(=O)(=O)[O-])cc5F)c5nc(c(-c6c(F)cc(S(=O)(=O)[O-])cc6F)c6ccc3[nH]6)C=C5)C=C4)cc2)c(C)s1
REMARK SMILES IDX 23 1 22 2 21 3 20 4 19 5 18 6 16 7 17 8 15 9 8 10 9 11 10 12
REMARK SMILES IDX 11 13 14 14 12 15 13 16 7 17 5 18 6 19 4 21 1 22 2 23 3 24
REMARK SMILES IDX 98 25 96 26 97 27 24 28 25 29 26 30 27 31 28 32 29 33 30 34
REMARK SMILES IDX 31 35 95 36 32 37 94 38 33 39 34 40 35 41 88 42 36 43 93 44
REMARK SMILES IDX 87 45 89 46 37 47 92 48 86 49 85 50 38 52 72 53 51 54 71 55
REMARK SMILES IDX 52 56 55 57 70 58 90 59 53 60 54 61 69 63 91 64 56 65 39 66
REMARK SMILES IDX 40 67 49 68 41 69 42 70 48 71 50 72 43 73 44 74 45 75 46 76
REMARK SMILES IDX 47 77 73 78 74 79 83 80 75 81 76 82 82 83 84 84 77 85 78 86
REMARK SMILES IDX 79 87 80 88 81 89 57 90 58 91 67 92 59 93 60 94 66 95 68 96
REMARK SMILES IDX 61 97 62 98 63 99 64 100 65 101
REMARK H PARENT 7 20 89 51 55 62
REMARK Flexibility Score: inf
ROOT
ATOM      1  C   UNL A   1      35.195  30.350  27.459  1.00  0.00     0.188 C 
ENDROOT
BRANCH   1   2
ATOM      2  C   UNL A   1      34.531  29.417  26.426  1.00  0.00     0.188 C 
BRANCH   2   3
ATOM      3  O   UNL A   1      33.784  28.290  26.869  1.00  0.00    -0.376 OA
BRANCH   3   4
ATOM      4  C   UNL A   1      32.619  28.478  27.662  1.00  0.00     0.202 C 
BRANCH   4   5
ATOM      5  C   UNL A   1      31.347  27.727  27.257  1.00  0.00     0.261 C 
BRANCH   5   6
ATOM      6  O   UNL A   1      31.520  26.299  27.172  1.00  0.00    -0.460 OA
BRANCH   6   7
ATOM      7  C   UNL A   1      30.795  25.691  26.204  1.00  0.00     0.340 C 
ATOM      8  O   UNL A   1      30.036  24.747  26.361  1.00  0.00    -0.246 OA
BRANCH   7   9
ATOM      9  C   UNL A   1      30.924  26.353  24.881  1.00  0.00     0.086 A 
ATOM     10  C   UNL A   1      32.075  26.334  24.063  1.00  0.00     0.075 A 
ATOM     11  C   UNL A   1      31.893  26.671  22.707  1.00  0.00     0.067 A 
ATOM     12  Cl  UNL A   1      32.996  26.154  21.471  1.00  0.00    -0.082 Cl
ATOM     13  C   UNL A   1      30.734  27.324  22.273  1.00  0.00     0.043 A 
ATOM     14  C   UNL A   1      29.761  27.011  24.444  1.00  0.00     0.038 A 
ATOM     15  C   UNL A   1      29.700  27.552  23.168  1.00  0.00     0.043 A 
ATOM     16  Cl  UNL A   1      28.321  28.451  22.681  1.00  0.00    -0.084 Cl
BRANCH  10  17
ATOM     17  N   UNL A   1      33.329  26.031  24.643  1.00  0.00    -0.320 N 
ATOM     18  C   UNL A   1      33.925  24.842  25.040  1.00  0.00     0.256 C 
ATOM     19  O   UNL A   1      35.000  24.948  25.637  1.00  0.00    -0.269 OA
ATOM     20  H   UNL A   1      33.893  26.824  24.797  1.00  0.00     0.170 HD
BRANCH  18  21
ATOM     21  C   UNL A   1      33.365  23.518  24.699  1.00  0.00     0.054 A 
ATOM     22  C   UNL A   1      31.963  21.063  22.161  1.00  0.00     0.056 C 
ATOM     23  C   UNL A   1      32.487  21.793  23.349  1.00  0.00     0.003 A 
ATOM     24  C   UNL A   1      33.300  22.905  23.392  1.00  0.00     0.029 A 
ATOM     25  S   UNL A   1      32.090  21.270  24.916  1.00  0.00    -0.145 S 
ATOM     26  C   UNL A   1      32.869  22.618  25.644  1.00  0.00     0.014 A 
ATOM     27  C   UNL A   1      32.876  22.660  27.139  1.00  0.00     0.057 C 
ENDBRANCH  18  21
ENDBRANCH  10  17
ENDBRANCH   7   9
ENDBRANCH   6   7
ENDBRANCH   5   6
ENDBRANCH   4   5
ENDBRANCH   3   4
ENDBRANCH   2   3
ENDBRANCH   1   2
BRANCH   1  28
ATOM     28  O   UNL A   1      34.352  31.385  27.929  1.00  0.00    -0.376 OA
BRANCH  28  29
ATOM     29  C   UNL A   1      35.002  32.540  28.441  1.00  0.00     0.202 C 
BRANCH  29  30
ATOM     30  C   UNL A   1      35.257  32.562  29.956  1.00  0.00     0.261 C 
BRANCH  30  31
ATOM     31  O   UNL A   1      36.620  32.364  30.369  1.00  0.00    -0.460 OA
BRANCH  31  32
ATOM     32  C   UNL A   1      36.904  31.230  31.049  1.00  0.00     0.338 C 
ATOM     33  O   UNL A   1      36.193  30.665  31.859  1.00  0.00    -0.246 OA
BRANCH  32  34
ATOM     34  C   UNL A   1      38.160  30.677  30.492  1.00  0.00     0.060 A 
ATOM     35  C   UNL A   1      39.202  30.341  31.365  1.00  0.00     0.016 A 
ATOM     36  C   UNL A   1      38.301  30.481  29.116  1.00  0.00     0.016 A 
ATOM     37  C   UNL A   1      40.400  29.830  30.858  1.00  0.00     0.010 A 
ATOM     38  C   UNL A   1      39.506  29.985  28.609  1.00  0.00     0.010 A 
ATOM     39  C   UNL A   1      40.571  29.681  29.474  1.00  0.00    -0.014 A 
BRANCH  39  40
ATOM     40  C   UNL A   1      41.911  29.370  28.916  1.00  0.00     0.031 A 
ATOM     41  C   UNL A   1      42.192  27.962  28.462  1.00  0.00     0.074 A 
ATOM     42  C   UNL A   1      42.866  30.313  28.815  1.00  0.00     0.049 A 
ATOM     43  N   UNL A   1      43.290  27.452  27.970  1.00  0.00    -0.248 NA
ATOM     44  C   UNL A   1      41.082  27.004  28.586  1.00  0.00     0.031 C 
ATOM     45  C   UNL A   1      42.713  31.717  29.191  1.00  0.00     0.029 A 
ATOM     46  N   UNL A   1      44.161  30.224  28.368  1.00  0.00    -0.354 N 
ATOM     47  C   UNL A   1      43.008  26.112  27.730  1.00  0.00     0.074 A 
ATOM     48  C   UNL A   1      41.643  25.885  28.152  1.00  0.00     0.031 C 
ATOM     49  C   UNL A   1      43.874  32.358  28.962  1.00  0.00     0.029 A 
ATOM     50  C   UNL A   1      44.858  31.405  28.452  1.00  0.00     0.049 A 
ATOM     51  H   UNL A   1      44.555  29.390  28.022  1.00  0.00     0.167 HD
ATOM     52  C   UNL A   1      43.811  25.158  27.202  1.00  0.00     0.037 A 
ATOM     53  C   UNL A   1      46.146  31.681  28.162  1.00  0.00     0.037 A 
ATOM     54  C   UNL A   1      45.171  25.382  26.788  1.00  0.00     0.049 A 
ATOM     55  C   UNL A   1      47.043  30.585  27.643  1.00  0.00     0.074 A 
ATOM     56  C   UNL A   1      46.052  24.487  26.207  1.00  0.00     0.029 A 
ATOM     57  N   UNL A   1      45.852  26.581  26.926  1.00  0.00    -0.354 N 
ATOM     58  N   UNL A   1      46.750  29.334  27.379  1.00  0.00    -0.248 NA
ATOM     59  C   UNL A   1      48.447  30.939  27.386  1.00  0.00     0.031 C 
ATOM     60  C   UNL A   1      47.282  25.132  26.038  1.00  0.00     0.029 A 
ATOM     61  C   UNL A   1      47.153  26.443  26.470  1.00  0.00     0.049 A 
ATOM     62  H   UNL A   1      45.468  27.410  27.294  1.00  0.00     0.167 HD
ATOM     63  C   UNL A   1      47.923  28.761  26.896  1.00  0.00     0.074 A 
ATOM     64  C   UNL A   1      48.930  29.802  26.903  1.00  0.00     0.031 C 
ATOM     65  C   UNL A   1      48.145  27.489  26.477  1.00  0.00     0.037 A 
BRANCH  52  66
ATOM     66  C   UNL A   1      43.242  23.772  27.079  1.00  0.00     0.058 A 
ATOM     67  C   UNL A   1      43.084  22.936  28.196  1.00  0.00     0.135 A 
ATOM     68  C   UNL A   1      42.849  23.276  25.826  1.00  0.00     0.135 A 
ATOM     69  F   UNL A   1      43.461  23.355  29.414  1.00  0.00    -0.206 F 
ATOM     70  C   UNL A   1      42.589  21.642  28.069  1.00  0.00     0.059 A 
ATOM     71  C   UNL A   1      42.329  21.994  25.680  1.00  0.00     0.059 A 
ATOM     72  F   UNL A   1      42.982  24.035  24.727  1.00  0.00    -0.206 F 
ATOM     73  C   UNL A   1      42.221  21.177  26.805  1.00  0.00     0.060 A 
BRANCH  73  74
ATOM     74  S   UNL A   1      41.602  19.489  26.649  1.00  0.00     0.124 S 
ATOM     75  O   UNL A   1      42.492  18.771  27.557  1.00  0.00    -0.237 OA
ATOM     76  O   UNL A   1      40.218  19.620  27.091  1.00  0.00    -0.237 OA
ATOM     77  O   UNL A   1      41.779  19.193  25.231  1.00  0.00    -0.744 OA
ENDBRANCH  73  74
ENDBRANCH  52  66
BRANCH  53  78
ATOM     78  C   UNL A   1      46.673  33.059  28.348  1.00  0.00     0.058 A 
ATOM     79  C   UNL A   1      47.209  33.464  29.579  1.00  0.00     0.135 A 
ATOM     80  C   UNL A   1      46.651  33.996  27.305  1.00  0.00     0.135 A 
ATOM     81  F   UNL A   1      47.236  32.608  30.613  1.00  0.00    -0.206 F 
ATOM     82  C   UNL A   1      47.700  34.752  29.773  1.00  0.00     0.059 A 
ATOM     83  C   UNL A   1      47.156  35.284  27.467  1.00  0.00     0.059 A 
ATOM     84  F   UNL A   1      46.152  33.657  26.106  1.00  0.00    -0.206 F 
ATOM     85  C   UNL A   1      47.673  35.654  28.708  1.00  0.00     0.060 A 
BRANCH  85  86
ATOM     86  S   UNL A   1      48.366  37.304  28.953  1.00  0.00     0.124 S 
ATOM     87  O   UNL A   1      48.885  37.205  30.312  1.00  0.00    -0.237 OA
ATOM     88  O   UNL A   1      49.365  37.378  27.891  1.00  0.00    -0.237 OA
ATOM     89  O   UNL A   1      47.211  38.181  28.780  1.00  0.00    -0.744 OA
ENDBRANCH  85  86
ENDBRANCH  53  78
BRANCH  65  90
ATOM     90  C   UNL A   1      49.515  27.155  25.957  1.00  0.00     0.058 A 
ATOM     91  C   UNL A   1      50.525  26.663  26.797  1.00  0.00     0.135 A 
ATOM     92  C   UNL A   1      49.802  27.272  24.587  1.00  0.00     0.135 A 
ATOM     93  F   UNL A   1      50.305  26.537  28.115  1.00  0.00    -0.206 F 
ATOM     94  C   UNL A   1      51.779  26.317  26.300  1.00  0.00     0.059 A 
ATOM     95  C   UNL A   1      51.039  26.910  24.064  1.00  0.00     0.059 A 
ATOM     96  F   UNL A   1      48.867  27.727  23.736  1.00  0.00    -0.206 F 
ATOM     97  C   UNL A   1      52.026  26.443  24.931  1.00  0.00     0.060 A 
BRANCH  97  98
ATOM     98  S   UNL A   1      53.643  25.955  24.291  1.00  0.00     0.124 S 
ATOM     99  O   UNL A   1      54.521  26.918  24.947  1.00  0.00    -0.237 OA
ATOM    100  O   UNL A   1      53.760  24.575  24.752  1.00  0.00    -0.237 OA
ATOM    101  O   UNL A   1      53.498  26.116  22.847  1.00  0.00    -0.744 OA
ENDBRANCH  97  98
ENDBRANCH  65  90
ENDBRANCH  39  40
ENDBRANCH  32  34
ENDBRANCH  31  32
ENDBRANCH  30  31
ENDBRANCH  29  30
ENDBRANCH  28  29
ENDBRANCH   1  28
TORSDOF 22
ENDMDL
