MODEL 1
REMARK VINA RESULT:      -7.9      0.000      0.000
REMARK SMILES CCCC[C@H]([NH3+])C(=O)Nc1snc(C)c1C(=O)OCCOCCOCCOC(=O)c1ccc(-c2c3nc(c(-c4c(F)cc(S(=O)(=O)[O-])cc4F)c4ccc([nH]4)c(-c4c(F)cc(S(=O)(=O)[O-])cc4F)c4nc(c(-c5c(F)cc(S(=O)(=O)[O-])cc5F)c5ccc2[nH]5)C=C4)C=C3)cc1
REMARK SMILES IDX 22 1 21 2 20 3 19 4 18 5 16 6 17 7 15 8 10 9 11 10 12 11
REMARK SMILES IDX 13 12 14 13 9 14 7 15 8 16 5 18 4 19 3 20 2 21 1 22 6 23
REMARK SMILES IDX 23 27 24 28 25 29 26 30 27 31 28 32 29 33 30 34 31 35 95 36
REMARK SMILES IDX 32 37 94 38 33 39 34 40 35 41 88 42 36 43 93 44 87 45 89 46
REMARK SMILES IDX 37 47 92 48 86 49 85 50 38 52 72 53 51 54 71 55 52 56 55 57
REMARK SMILES IDX 70 58 90 59 53 60 54 61 69 63 91 64 56 65 39 66 40 67 49 68
REMARK SMILES IDX 41 69 42 70 48 71 50 72 43 73 44 74 45 75 46 76 47 77 73 78
REMARK SMILES IDX 74 79 83 80 75 81 76 82 82 83 84 84 77 85 78 86 79 87 80 88
REMARK SMILES IDX 81 89 57 90 58 91 67 92 59 93 60 94 66 95 68 96 61 97 62 98
REMARK SMILES IDX 63 99 64 100 65 101
REMARK H PARENT 9 17 6 24 6 25 6 26 89 51 55 62
REMARK Flexibility Score: inf
ROOT
ATOM      1  C   UNL A   1      38.967  29.536  28.444  1.00  0.00     0.188 C 
ENDROOT
BRANCH   1   2
ATOM      2  O   UNL A   1      39.698  28.512  27.793  1.00  0.00    -0.376 OA
BRANCH   2   3
ATOM      3  C   UNL A   1      40.139  27.463  28.642  1.00  0.00     0.202 C 
BRANCH   3   4
ATOM      4  C   UNL A   1      40.025  26.037  28.082  1.00  0.00     0.261 C 
BRANCH   4   5
ATOM      5  O   UNL A   1      41.230  25.415  27.595  1.00  0.00    -0.460 OA
BRANCH   5   6
ATOM      6  C   UNL A   1      41.444  25.368  26.254  1.00  0.00     0.343 C 
ATOM      7  O   UNL A   1      41.004  26.207  25.478  1.00  0.00    -0.246 OA
BRANCH   6   8
ATOM      8  C   UNL A   1      42.334  24.287  25.862  1.00  0.00     0.117 A 
ATOM      9  C   UNL A   1      43.529  24.413  25.175  1.00  0.00     0.131 A 
ATOM     10  S   UNL A   1      44.024  22.877  24.615  1.00  0.00    -0.017 S 
ATOM     11  N   UNL A   1      42.863  22.020  25.406  1.00  0.00    -0.195 NA
ATOM     12  C   UNL A   1      42.002  22.871  25.970  1.00  0.00     0.068 A 
ATOM     13  C   UNL A   1      40.767  22.263  26.550  1.00  0.00     0.069 C 
BRANCH   9  14
ATOM     14  N   UNL A   1      44.368  25.418  24.771  1.00  0.00    -0.310 N 
ATOM     15  C   UNL A   1      45.364  26.083  25.411  1.00  0.00     0.283 C 
ATOM     16  O   UNL A   1      45.693  27.179  24.933  1.00  0.00    -0.268 OA
ATOM     17  H   UNL A   1      44.222  25.713  23.843  1.00  0.00     0.171 HD
BRANCH  15  18
ATOM     18  C   UNL A   1      46.163  25.533  26.627  1.00  0.00     0.271 C 
BRANCH  18  19
ATOM     19  C   UNL A   1      45.804  26.133  28.000  1.00  0.00     0.075 C 
BRANCH  19  20
ATOM     20  C   UNL A   1      44.353  26.608  28.204  1.00  0.00     0.006 C 
BRANCH  20  21
ATOM     21  C   UNL A   1      44.147  28.126  28.234  1.00  0.00    -0.003 C 
ATOM     22  C   UNL A   1      43.282  28.671  27.105  1.00  0.00     0.004 C 
ENDBRANCH  20  21
ENDBRANCH  19  20
ENDBRANCH  18  19
BRANCH  18  23
ATOM     23  N   UNL A   1      47.586  25.387  26.309  1.00  0.00    -0.347 N 
ATOM     24  H   UNL A   1      47.743  24.485  25.860  1.00  0.00     0.345 HD
ATOM     25  H   UNL A   1      48.133  25.440  27.168  1.00  0.00     0.345 HD
ATOM     26  H   UNL A   1      47.872  26.135  25.677  1.00  0.00     0.345 HD
ENDBRANCH  18  23
ENDBRANCH  15  18
ENDBRANCH   9  14
ENDBRANCH   6   8
ENDBRANCH   5   6
ENDBRANCH   4   5
ENDBRANCH   3   4
ENDBRANCH   2   3
ENDBRANCH   1   2
BRANCH   1  27
ATOM     27  C   UNL A   1      37.685  29.053  29.153  1.00  0.00     0.188 C 
BRANCH  27  28
ATOM     28  O   UNL A   1      36.391  29.452  28.716  1.00  0.00    -0.376 OA
BRANCH  28  29
ATOM     29  C   UNL A   1      36.218  30.329  27.606  1.00  0.00     0.202 C 
BRANCH  29  30
ATOM     30  C   UNL A   1      35.275  31.526  27.712  1.00  0.00     0.261 C 
BRANCH  30  31
ATOM     31  O   UNL A   1      34.493  31.491  28.892  1.00  0.00    -0.460 OA
BRANCH  31  32
ATOM     32  C   UNL A   1      34.398  32.680  29.519  1.00  0.00     0.338 C 
ATOM     33  O   UNL A   1      33.808  33.675  29.132  1.00  0.00    -0.246 OA
BRANCH  32  34
ATOM     34  C   UNL A   1      35.073  32.581  30.820  1.00  0.00     0.060 A 
ATOM     35  C   UNL A   1      35.163  33.761  31.558  1.00  0.00     0.016 A 
ATOM     36  C   UNL A   1      35.758  31.411  31.186  1.00  0.00     0.016 A 
ATOM     37  C   UNL A   1      36.200  33.872  32.447  1.00  0.00     0.010 A 
ATOM     38  C   UNL A   1      36.785  31.514  32.088  1.00  0.00     0.010 A 
ATOM     39  C   UNL A   1      37.074  32.788  32.562  1.00  0.00    -0.014 A 
BRANCH  39  40
ATOM     40  C   UNL A   1      38.429  33.112  32.939  1.00  0.00     0.031 A 
ATOM     41  C   UNL A   1      39.318  33.455  31.826  1.00  0.00     0.074 A 
ATOM     42  C   UNL A   1      38.786  33.088  34.238  1.00  0.00     0.049 A 
ATOM     43  N   UNL A   1      40.317  32.781  31.368  1.00  0.00    -0.248 NA
ATOM     44  C   UNL A   1      38.950  34.633  31.031  1.00  0.00     0.031 C 
ATOM     45  C   UNL A   1      37.906  33.038  35.416  1.00  0.00     0.029 A 
ATOM     46  N   UNL A   1      40.021  33.215  34.784  1.00  0.00    -0.354 N 
ATOM     47  C   UNL A   1      40.853  33.577  30.366  1.00  0.00     0.074 A 
ATOM     48  C   UNL A   1      39.873  34.592  30.071  1.00  0.00     0.031 C 
ATOM     49  C   UNL A   1      38.621  33.366  36.514  1.00  0.00     0.029 A 
ATOM     50  C   UNL A   1      40.014  33.520  36.136  1.00  0.00     0.049 A 
ATOM     51  H   UNL A   1      40.849  33.099  34.266  1.00  0.00     0.167 HD
ATOM     52  C   UNL A   1      42.171  33.518  30.044  1.00  0.00     0.037 A 
ATOM     53  C   UNL A   1      41.069  33.974  36.855  1.00  0.00     0.037 A 
ATOM     54  C   UNL A   1      42.789  32.302  30.500  1.00  0.00     0.049 A 
ATOM     55  C   UNL A   1      42.303  33.635  36.098  1.00  0.00     0.074 A 
ATOM     56  C   UNL A   1      42.560  30.958  30.267  1.00  0.00     0.029 A 
ATOM     57  N   UNL A   1      43.586  32.359  31.618  1.00  0.00    -0.354 N 
ATOM     58  N   UNL A   1      42.738  32.419  35.903  1.00  0.00    -0.248 NA
ATOM     59  C   UNL A   1      42.831  34.632  35.176  1.00  0.00     0.031 C 
ATOM     60  C   UNL A   1      42.860  30.304  31.495  1.00  0.00     0.029 A 
ATOM     61  C   UNL A   1      43.280  31.276  32.405  1.00  0.00     0.049 A 
ATOM     62  H   UNL A   1      44.255  33.052  31.818  1.00  0.00     0.167 HD
ATOM     63  C   UNL A   1      43.264  32.421  34.618  1.00  0.00     0.074 A 
ATOM     64  C   UNL A   1      43.389  33.832  34.264  1.00  0.00     0.031 C 
ATOM     65  C   UNL A   1      43.288  31.287  33.855  1.00  0.00     0.037 A 
BRANCH  52  66
ATOM     66  C   UNL A   1      42.947  34.737  29.631  1.00  0.00     0.058 A 
ATOM     67  C   UNL A   1      43.610  34.759  28.393  1.00  0.00     0.135 A 
ATOM     68  C   UNL A   1      43.267  35.787  30.524  1.00  0.00     0.135 A 
ATOM     69  F   UNL A   1      43.401  33.787  27.491  1.00  0.00    -0.206 F 
ATOM     70  C   UNL A   1      44.555  35.736  28.080  1.00  0.00     0.059 A 
ATOM     71  C   UNL A   1      44.153  36.804  30.208  1.00  0.00     0.059 A 
ATOM     72  F   UNL A   1      42.811  35.817  31.784  1.00  0.00    -0.206 F 
ATOM     73  C   UNL A   1      44.827  36.745  29.001  1.00  0.00     0.060 A 
BRANCH  73  74
ATOM     74  S   UNL A   1      46.129  37.939  28.658  1.00  0.00     0.124 S 
ATOM     75  O   UNL A   1      46.312  38.546  29.971  1.00  0.00    -0.237 OA
ATOM     76  O   UNL A   1      47.213  37.084  28.189  1.00  0.00    -0.237 OA
ATOM     77  O   UNL A   1      45.533  38.800  27.640  1.00  0.00    -0.744 OA
ENDBRANCH  73  74
ENDBRANCH  52  66
BRANCH  53  78
ATOM     78  C   UNL A   1      41.023  34.986  37.942  1.00  0.00     0.058 A 
ATOM     79  C   UNL A   1      40.389  36.224  37.762  1.00  0.00     0.135 A 
ATOM     80  C   UNL A   1      41.393  34.663  39.267  1.00  0.00     0.135 A 
ATOM     81  F   UNL A   1      39.969  36.595  36.543  1.00  0.00    -0.206 F 
ATOM     82  C   UNL A   1      40.118  37.085  38.833  1.00  0.00     0.059 A 
ATOM     83  C   UNL A   1      41.151  35.509  40.344  1.00  0.00     0.059 A 
ATOM     84  F   UNL A   1      41.925  33.469  39.568  1.00  0.00    -0.206 F 
ATOM     85  C   UNL A   1      40.495  36.711  40.124  1.00  0.00     0.060 A 
BRANCH  85  86
ATOM     86  S   UNL A   1      40.028  37.752  41.526  1.00  0.00     0.124 S 
ATOM     87  O   UNL A   1      39.232  38.789  40.879  1.00  0.00    -0.237 OA
ATOM     88  O   UNL A   1      39.293  36.816  42.371  1.00  0.00    -0.237 OA
ATOM     89  O   UNL A   1      41.311  38.195  42.063  1.00  0.00    -0.744 OA
ENDBRANCH  85  86
ENDBRANCH  53  78
BRANCH  65  90
ATOM     90  C   UNL A   1      43.039  29.968  34.539  1.00  0.00     0.058 A 
ATOM     91  C   UNL A   1      44.026  29.245  35.232  1.00  0.00     0.135 A 
ATOM     92  C   UNL A   1      41.717  29.505  34.642  1.00  0.00     0.135 A 
ATOM     93  F   UNL A   1      45.294  29.679  35.271  1.00  0.00    -0.206 F 
ATOM     94  C   UNL A   1      43.719  28.097  35.965  1.00  0.00     0.059 A 
ATOM     95  C   UNL A   1      41.383  28.379  35.392  1.00  0.00     0.059 A 
ATOM     96  F   UNL A   1      40.718  30.188  34.057  1.00  0.00    -0.206 F 
ATOM     97  C   UNL A   1      42.393  27.674  36.044  1.00  0.00     0.060 A 
BRANCH  97  98
ATOM     98  S   UNL A   1      41.983  26.252  37.083  1.00  0.00     0.124 S 
ATOM     99  O   UNL A   1      42.028  25.151  36.128  1.00  0.00    -0.237 OA
ATOM    100  O   UNL A   1      43.049  26.270  38.082  1.00  0.00    -0.237 OA
ATOM    101  O   UNL A   1      40.655  26.578  37.599  1.00  0.00    -0.744 OA
ENDBRANCH  97  98
ENDBRANCH  65  90
ENDBRANCH  39  40
ENDBRANCH  32  34
ENDBRANCH  31  32
ENDBRANCH  30  31
ENDBRANCH  29  30
ENDBRANCH  28  29
ENDBRANCH  27  28
ENDBRANCH   1  27
TORSDOF 26
ENDMDL
MODEL 2
REMARK VINA RESULT:      -7.6      1.162      2.621
REMARK SMILES CCCC[C@H]([NH3+])C(=O)Nc1snc(C)c1C(=O)OCCOCCOCCOC(=O)c1ccc(-c2c3nc(c(-c4c(F)cc(S(=O)(=O)[O-])cc4F)c4ccc([nH]4)c(-c4c(F)cc(S(=O)(=O)[O-])cc4F)c4nc(c(-c5c(F)cc(S(=O)(=O)[O-])cc5F)c5ccc2[nH]5)C=C4)C=C3)cc1
REMARK SMILES IDX 22 1 21 2 20 3 19 4 18 5 16 6 17 7 15 8 10 9 11 10 12 11
REMARK SMILES IDX 13 12 14 13 9 14 7 15 8 16 5 18 4 19 3 20 2 21 1 22 6 23
REMARK SMILES IDX 23 27 24 28 25 29 26 30 27 31 28 32 29 33 30 34 31 35 95 36
REMARK SMILES IDX 32 37 94 38 33 39 34 40 35 41 88 42 36 43 93 44 87 45 89 46
REMARK SMILES IDX 37 47 92 48 86 49 85 50 38 52 72 53 51 54 71 55 52 56 55 57
REMARK SMILES IDX 70 58 90 59 53 60 54 61 69 63 91 64 56 65 39 66 40 67 49 68
REMARK SMILES IDX 41 69 42 70 48 71 50 72 43 73 44 74 45 75 46 76 47 77 73 78
REMARK SMILES IDX 74 79 83 80 75 81 76 82 82 83 84 84 77 85 78 86 79 87 80 88
REMARK SMILES IDX 81 89 57 90 58 91 67 92 59 93 60 94 66 95 68 96 61 97 62 98
REMARK SMILES IDX 63 99 64 100 65 101
REMARK H PARENT 9 17 6 24 6 25 6 26 89 51 55 62
REMARK Flexibility Score: inf
ROOT
ATOM      1  C   UNL A   1      39.059  29.586  28.644  1.00  0.00     0.188 C 
ENDROOT
BRANCH   1   2
ATOM      2  O   UNL A   1      40.026  28.700  28.110  1.00  0.00    -0.376 OA
BRANCH   2   3
ATOM      3  C   UNL A   1      40.409  27.642  28.976  1.00  0.00     0.202 C 
BRANCH   3   4
ATOM      4  C   UNL A   1      40.571  26.257  28.332  1.00  0.00     0.261 C 
BRANCH   4   5
ATOM      5  O   UNL A   1      41.575  26.111  27.309  1.00  0.00    -0.460 OA
BRANCH   5   6
ATOM      6  C   UNL A   1      42.875  25.987  27.685  1.00  0.00     0.343 C 
ATOM      7  O   UNL A   1      43.221  25.440  28.725  1.00  0.00    -0.246 OA
BRANCH   6   8
ATOM      8  C   UNL A   1      43.803  26.473  26.675  1.00  0.00     0.117 A 
ATOM      9  C   UNL A   1      44.900  25.796  26.173  1.00  0.00     0.131 A 
ATOM     10  S   UNL A   1      45.890  26.887  25.308  1.00  0.00    -0.017 S 
ATOM     11  N   UNL A   1      44.849  28.160  25.377  1.00  0.00    -0.195 NA
ATOM     12  C   UNL A   1      43.825  27.841  26.171  1.00  0.00     0.068 A 
ATOM     13  C   UNL A   1      42.893  28.957  26.515  1.00  0.00     0.069 C 
BRANCH   9  14
ATOM     14  N   UNL A   1      45.435  24.536  26.236  1.00  0.00    -0.310 N 
ATOM     15  C   UNL A   1      44.923  23.315  25.932  1.00  0.00     0.283 C 
ATOM     16  O   UNL A   1      45.492  22.336  26.436  1.00  0.00    -0.268 OA
ATOM     17  H   UNL A   1      46.362  24.510  26.564  1.00  0.00     0.171 HD
BRANCH  15  18
ATOM     18  C   UNL A   1      43.748  23.065  24.943  1.00  0.00     0.271 C 
BRANCH  18  19
ATOM     19  C   UNL A   1      42.371  22.798  25.581  1.00  0.00     0.075 C 
BRANCH  19  20
ATOM     20  C   UNL A   1      42.354  22.313  27.043  1.00  0.00     0.006 C 
BRANCH  20  21
ATOM     21  C   UNL A   1      41.878  20.873  27.260  1.00  0.00    -0.003 C 
ATOM     22  C   UNL A   1      42.236  19.909  26.136  1.00  0.00     0.004 C 
ENDBRANCH  20  21
ENDBRANCH  19  20
ENDBRANCH  18  19
BRANCH  18  23
ATOM     23  N   UNL A   1      44.157  22.192  23.839  1.00  0.00    -0.347 N 
ATOM     24  H   UNL A   1      43.601  22.407  23.011  1.00  0.00     0.345 HD
ATOM     25  H   UNL A   1      44.010  21.218  24.104  1.00  0.00     0.345 HD
ATOM     26  H   UNL A   1      45.145  22.343  23.634  1.00  0.00     0.345 HD
ENDBRANCH  18  23
ENDBRANCH  15  18
ENDBRANCH   9  14
ENDBRANCH   6   8
ENDBRANCH   5   6
ENDBRANCH   4   5
ENDBRANCH   3   4
ENDBRANCH   2   3
ENDBRANCH   1   2
BRANCH   1  27
ATOM     27  C   UNL A   1      37.784  28.896  29.171  1.00  0.00     0.188 C 
BRANCH  27  28
ATOM     28  O   UNL A   1      36.483  29.334  28.794  1.00  0.00    -0.376 OA
BRANCH  28  29
ATOM     29  C   UNL A   1      36.275  30.128  27.629  1.00  0.00     0.202 C 
BRANCH  29  30
ATOM     30  C   UNL A   1      35.331  31.330  27.677  1.00  0.00     0.261 C 
BRANCH  30  31
ATOM     31  O   UNL A   1      34.534  31.340  28.846  1.00  0.00    -0.460 OA
BRANCH  31  32
ATOM     32  C   UNL A   1      34.406  32.558  29.409  1.00  0.00     0.338 C 
ATOM     33  O   UNL A   1      33.865  33.541  28.931  1.00  0.00    -0.246 OA
BRANCH  32  34
ATOM     34  C   UNL A   1      34.972  32.511  30.764  1.00  0.00     0.060 A 
ATOM     35  C   UNL A   1      35.017  33.722  31.455  1.00  0.00     0.016 A 
ATOM     36  C   UNL A   1      35.611  31.352  31.236  1.00  0.00     0.016 A 
ATOM     37  C   UNL A   1      35.979  33.863  32.420  1.00  0.00     0.010 A 
ATOM     38  C   UNL A   1      36.562  31.487  32.213  1.00  0.00     0.010 A 
ATOM     39  C   UNL A   1      36.828  32.778  32.653  1.00  0.00    -0.014 A 
BRANCH  39  40
ATOM     40  C   UNL A   1      38.151  33.107  33.125  1.00  0.00     0.031 A 
ATOM     41  C   UNL A   1      39.124  33.418  32.075  1.00  0.00     0.074 A 
ATOM     42  C   UNL A   1      38.408  33.114  34.448  1.00  0.00     0.049 A 
ATOM     43  N   UNL A   1      40.153  32.730  31.713  1.00  0.00    -0.248 NA
ATOM     44  C   UNL A   1      38.825  34.578  31.226  1.00  0.00     0.031 C 
ATOM     45  C   UNL A   1      37.440  33.097  35.555  1.00  0.00     0.029 A 
ATOM     46  N   UNL A   1      39.597  33.250  35.084  1.00  0.00    -0.354 N 
ATOM     47  C   UNL A   1      40.768  33.499  30.735  1.00  0.00     0.074 A 
ATOM     48  C   UNL A   1      39.819  34.509  30.341  1.00  0.00     0.031 C 
ATOM     49  C   UNL A   1      38.069  33.450  36.697  1.00  0.00     0.029 A 
ATOM     50  C   UNL A   1      39.489  33.589  36.423  1.00  0.00     0.049 A 
ATOM     51  H   UNL A   1      40.463  33.119  34.634  1.00  0.00     0.167 HD
ATOM     52  C   UNL A   1      42.106  33.427  30.516  1.00  0.00     0.037 A 
ATOM     53  C   UNL A   1      40.487  34.058  37.210  1.00  0.00     0.037 A 
ATOM     54  C   UNL A   1      42.681  32.220  31.048  1.00  0.00     0.049 A 
ATOM     55  C   UNL A   1      41.774  33.695  36.558  1.00  0.00     0.074 A 
ATOM     56  C   UNL A   1      42.464  30.872  30.832  1.00  0.00     0.029 A 
ATOM     57  N   UNL A   1      43.391  32.303  32.223  1.00  0.00    -0.354 N 
ATOM     58  N   UNL A   1      42.216  32.473  36.428  1.00  0.00    -0.248 NA
ATOM     59  C   UNL A   1      42.377  34.667  35.655  1.00  0.00     0.031 C 
ATOM     60  C   UNL A   1      42.665  30.248  32.096  1.00  0.00     0.029 A 
ATOM     61  C   UNL A   1      43.018  31.241  33.011  1.00  0.00     0.049 A 
ATOM     62  H   UNL A   1      44.046  32.998  32.457  1.00  0.00     0.167 HD
ATOM     63  C   UNL A   1      42.839  32.442  35.187  1.00  0.00     0.074 A 
ATOM     64  C   UNL A   1      42.999  33.842  34.809  1.00  0.00     0.031 C 
ATOM     65  C   UNL A   1      42.915  31.289  34.457  1.00  0.00     0.037 A 
BRANCH  52  66
ATOM     66  C   UNL A   1      42.918  34.632  30.135  1.00  0.00     0.058 A 
ATOM     67  C   UNL A   1      43.635  34.641  28.926  1.00  0.00     0.135 A 
ATOM     68  C   UNL A   1      43.216  35.680  31.038  1.00  0.00     0.135 A 
ATOM     69  F   UNL A   1      43.449  33.669  28.018  1.00  0.00    -0.206 F 
ATOM     70  C   UNL A   1      44.607  35.601  28.652  1.00  0.00     0.059 A 
ATOM     71  C   UNL A   1      44.131  36.682  30.758  1.00  0.00     0.059 A 
ATOM     72  F   UNL A   1      42.707  35.721  32.277  1.00  0.00    -0.206 F 
ATOM     73  C   UNL A   1      44.855  36.609  29.581  1.00  0.00     0.060 A 
BRANCH  73  74
ATOM     74  S   UNL A   1      46.189  37.782  29.292  1.00  0.00     0.124 S 
ATOM     75  O   UNL A   1      46.684  37.337  27.995  1.00  0.00    -0.237 OA
ATOM     76  O   UNL A   1      45.484  39.059  29.307  1.00  0.00    -0.237 OA
ATOM     77  O   UNL A   1      47.084  37.555  30.424  1.00  0.00    -0.744 OA
ENDBRANCH  73  74
ENDBRANCH  52  66
BRANCH  53  78
ATOM     78  C   UNL A   1      40.364  35.096  38.265  1.00  0.00     0.058 A 
ATOM     79  C   UNL A   1      40.724  34.834  39.595  1.00  0.00     0.135 A 
ATOM     80  C   UNL A   1      40.116  36.449  37.942  1.00  0.00     0.135 A 
ATOM     81  F   UNL A   1      41.014  33.582  39.979  1.00  0.00    -0.206 F 
ATOM     82  C   UNL A   1      40.850  35.853  40.547  1.00  0.00     0.059 A 
ATOM     83  C   UNL A   1      40.218  37.477  38.874  1.00  0.00     0.059 A 
ATOM     84  F   UNL A   1      39.851  36.827  36.682  1.00  0.00    -0.206 F 
ATOM     85  C   UNL A   1      40.605  37.175  40.172  1.00  0.00     0.060 A 
BRANCH  85  86
ATOM     86  S   UNL A   1      40.899  38.507  41.357  1.00  0.00     0.124 S 
ATOM     87  O   UNL A   1      41.127  39.648  40.477  1.00  0.00    -0.237 OA
ATOM     88  O   UNL A   1      39.653  38.524  42.115  1.00  0.00    -0.237 OA
ATOM     89  O   UNL A   1      42.071  38.050  42.099  1.00  0.00    -0.744 OA
ENDBRANCH  85  86
ENDBRANCH  53  78
BRANCH  65  90
ATOM     90  C   UNL A   1      42.607  29.987  35.151  1.00  0.00     0.058 A 
ATOM     91  C   UNL A   1      41.306  29.493  35.350  1.00  0.00     0.135 A 
ATOM     92  C   UNL A   1      43.672  29.130  35.473  1.00  0.00     0.135 A 
ATOM     93  F   UNL A   1      40.236  30.207  34.972  1.00  0.00    -0.206 F 
ATOM     94  C   UNL A   1      41.074  28.221  35.876  1.00  0.00     0.059 A 
ATOM     95  C   UNL A   1      43.464  27.846  35.971  1.00  0.00     0.059 A 
ATOM     96  F   UNL A   1      44.938  29.518  35.245  1.00  0.00    -0.206 F 
ATOM     97  C   UNL A   1      42.160  27.401  36.179  1.00  0.00     0.060 A 
BRANCH  97  98
ATOM     98  S   UNL A   1      41.856  25.715  36.755  1.00  0.00     0.124 S 
ATOM     99  O   UNL A   1      40.589  25.856  37.463  1.00  0.00    -0.237 OA
ATOM    100  O   UNL A   1      41.805  24.956  35.508  1.00  0.00    -0.237 OA
ATOM    101  O   UNL A   1      43.015  25.429  37.599  1.00  0.00    -0.744 OA
ENDBRANCH  97  98
ENDBRANCH  65  90
ENDBRANCH  39  40
ENDBRANCH  32  34
ENDBRANCH  31  32
ENDBRANCH  30  31
ENDBRANCH  29  30
ENDBRANCH  28  29
ENDBRANCH  27  28
ENDBRANCH   1  27
TORSDOF 26
ENDMDL
MODEL 3
REMARK VINA RESULT:      -7.4      6.248     12.787
REMARK SMILES CCCC[C@H]([NH3+])C(=O)Nc1snc(C)c1C(=O)OCCOCCOCCOC(=O)c1ccc(-c2c3nc(c(-c4c(F)cc(S(=O)(=O)[O-])cc4F)c4ccc([nH]4)c(-c4c(F)cc(S(=O)(=O)[O-])cc4F)c4nc(c(-c5c(F)cc(S(=O)(=O)[O-])cc5F)c5ccc2[nH]5)C=C4)C=C3)cc1
REMARK SMILES IDX 22 1 21 2 20 3 19 4 18 5 16 6 17 7 15 8 10 9 11 10 12 11
REMARK SMILES IDX 13 12 14 13 9 14 7 15 8 16 5 18 4 19 3 20 2 21 1 22 6 23
REMARK SMILES IDX 23 27 24 28 25 29 26 30 27 31 28 32 29 33 30 34 31 35 95 36
REMARK SMILES IDX 32 37 94 38 33 39 34 40 35 41 88 42 36 43 93 44 87 45 89 46
REMARK SMILES IDX 37 47 92 48 86 49 85 50 38 52 72 53 51 54 71 55 52 56 55 57
REMARK SMILES IDX 70 58 90 59 53 60 54 61 69 63 91 64 56 65 39 66 40 67 49 68
REMARK SMILES IDX 41 69 42 70 48 71 50 72 43 73 44 74 45 75 46 76 47 77 73 78
REMARK SMILES IDX 74 79 83 80 75 81 76 82 82 83 84 84 77 85 78 86 79 87 80 88
REMARK SMILES IDX 81 89 57 90 58 91 67 92 59 93 60 94 66 95 68 96 61 97 62 98
REMARK SMILES IDX 63 99 64 100 65 101
REMARK H PARENT 9 17 6 24 6 25 6 26 89 51 55 62
REMARK Flexibility Score: inf
ROOT
ATOM      1  C   UNL A   1      37.032  29.281  28.510  1.00  0.00     0.188 C 
ENDROOT
BRANCH   1   2
ATOM      2  O   UNL A   1      35.653  29.589  28.424  1.00  0.00    -0.376 OA
BRANCH   2   3
ATOM      3  C   UNL A   1      35.041  29.249  27.189  1.00  0.00     0.202 C 
BRANCH   3   4
ATOM      4  C   UNL A   1      33.511  29.116  27.198  1.00  0.00     0.261 C 
BRANCH   4   5
ATOM      5  O   UNL A   1      32.947  27.879  26.722  1.00  0.00    -0.460 OA
BRANCH   5   6
ATOM      6  C   UNL A   1      31.626  27.640  26.932  1.00  0.00     0.343 C 
ATOM      7  O   UNL A   1      31.045  27.957  27.963  1.00  0.00    -0.246 OA
BRANCH   6   8
ATOM      8  C   UNL A   1      30.963  27.073  25.769  1.00  0.00     0.117 A 
ATOM      9  C   UNL A   1      30.389  25.816  25.679  1.00  0.00     0.131 A 
ATOM     10  S   UNL A   1      30.078  25.452  24.039  1.00  0.00    -0.017 S 
ATOM     11  N   UNL A   1      30.461  26.942  23.454  1.00  0.00    -0.195 NA
ATOM     12  C   UNL A   1      30.970  27.680  24.443  1.00  0.00     0.068 A 
ATOM     13  C   UNL A   1      31.568  28.989  24.040  1.00  0.00     0.069 C 
BRANCH   9  14
ATOM     14  N   UNL A   1      30.074  24.780  26.518  1.00  0.00    -0.310 N 
ATOM     15  C   UNL A   1      30.601  23.536  26.664  1.00  0.00     0.283 C 
ATOM     16  O   UNL A   1      29.885  22.696  27.229  1.00  0.00    -0.268 OA
ATOM     17  H   UNL A   1      29.327  24.972  27.129  1.00  0.00     0.171 HD
BRANCH  15  18
ATOM     18  C   UNL A   1      32.045  23.129  26.257  1.00  0.00     0.271 C 
BRANCH  18  19
ATOM     19  C   UNL A   1      33.144  24.177  26.519  1.00  0.00     0.075 C 
BRANCH  19  20
ATOM     20  C   UNL A   1      34.030  24.583  25.327  1.00  0.00     0.006 C 
BRANCH  20  21
ATOM     21  C   UNL A   1      35.283  23.729  25.107  1.00  0.00    -0.003 C 
ATOM     22  C   UNL A   1      35.609  23.445  23.647  1.00  0.00     0.004 C 
ENDBRANCH  20  21
ENDBRANCH  19  20
ENDBRANCH  18  19
BRANCH  18  23
ATOM     23  N   UNL A   1      32.061  22.450  24.958  1.00  0.00    -0.347 N 
ATOM     24  H   UNL A   1      32.997  22.085  24.776  1.00  0.00     0.345 HD
ATOM     25  H   UNL A   1      31.806  23.112  24.226  1.00  0.00     0.345 HD
ATOM     26  H   UNL A   1      31.393  21.680  24.969  1.00  0.00     0.345 HD
ENDBRANCH  18  23
ENDBRANCH  15  18
ENDBRANCH   9  14
ENDBRANCH   6   8
ENDBRANCH   5   6
ENDBRANCH   4   5
ENDBRANCH   3   4
ENDBRANCH   2   3
ENDBRANCH   1   2
BRANCH   1  27
ATOM     27  C   UNL A   1      37.607  29.321  29.941  1.00  0.00     0.188 C 
BRANCH  27  28
ATOM     28  O   UNL A   1      38.942  28.918  30.224  1.00  0.00    -0.376 OA
BRANCH  28  29
ATOM     29  C   UNL A   1      39.699  29.534  31.264  1.00  0.00     0.202 C 
BRANCH  29  30
ATOM     30  C   UNL A   1      39.324  29.302  32.727  1.00  0.00     0.261 C 
BRANCH  30  31
ATOM     31  O   UNL A   1      40.185  28.374  33.361  1.00  0.00    -0.460 OA
BRANCH  31  32
ATOM     32  C   UNL A   1      40.725  28.828  34.509  1.00  0.00     0.338 C 
ATOM     33  O   UNL A   1      40.204  29.560  35.334  1.00  0.00    -0.246 OA
BRANCH  32  34
ATOM     34  C   UNL A   1      42.060  28.234  34.668  1.00  0.00     0.060 A 
ATOM     35  C   UNL A   1      43.132  29.126  34.698  1.00  0.00     0.016 A 
ATOM     36  C   UNL A   1      42.241  26.843  34.584  1.00  0.00     0.016 A 
ATOM     37  C   UNL A   1      44.354  28.658  34.293  1.00  0.00     0.010 A 
ATOM     38  C   UNL A   1      43.467  26.371  34.196  1.00  0.00     0.010 A 
ATOM     39  C   UNL A   1      44.439  27.319  33.903  1.00  0.00    -0.014 A 
BRANCH  39  40
ATOM     40  C   UNL A   1      45.450  27.016  32.918  1.00  0.00     0.031 A 
ATOM     41  C   UNL A   1      46.783  26.742  33.461  1.00  0.00     0.074 A 
ATOM     42  C   UNL A   1      45.126  26.997  31.610  1.00  0.00     0.049 A 
ATOM     43  N   UNL A   1      47.849  27.460  33.356  1.00  0.00    -0.248 NA
ATOM     44  C   UNL A   1      46.901  25.587  34.360  1.00  0.00     0.031 C 
ATOM     45  C   UNL A   1      43.782  26.977  31.013  1.00  0.00     0.029 A 
ATOM     46  N   UNL A   1      45.941  26.882  30.533  1.00  0.00    -0.354 N 
ATOM     47  C   UNL A   1      48.839  26.720  33.986  1.00  0.00     0.074 A 
ATOM     48  C   UNL A   1      48.172  25.692  34.745  1.00  0.00     0.031 C 
ATOM     49  C   UNL A   1      43.882  26.624  29.714  1.00  0.00     0.029 A 
ATOM     50  C   UNL A   1      45.288  26.522  29.365  1.00  0.00     0.049 A 
ATOM     51  H   UNL A   1      46.911  27.040  30.577  1.00  0.00     0.167 HD
ATOM     52  C   UNL A   1      50.143  26.827  33.620  1.00  0.00     0.037 A 
ATOM     53  C   UNL A   1      45.876  26.068  28.231  1.00  0.00     0.037 A 
ATOM     54  C   UNL A   1      50.407  28.040  32.893  1.00  0.00     0.049 A 
ATOM     55  C   UNL A   1      47.307  26.470  28.280  1.00  0.00     0.074 A 
ATOM     56  C   UNL A   1      50.264  29.385  33.179  1.00  0.00     0.029 A 
ATOM     57  N   UNL A   1      50.558  27.959  31.529  1.00  0.00    -0.354 N 
ATOM     58  N   UNL A   1      47.729  27.704  28.210  1.00  0.00    -0.248 NA
ATOM     59  C   UNL A   1      48.260  25.525  28.847  1.00  0.00     0.031 C 
ATOM     60  C   UNL A   1      49.897  29.997  31.946  1.00  0.00     0.029 A 
ATOM     61  C   UNL A   1      49.860  29.001  30.969  1.00  0.00     0.049 A 
ATOM     62  H   UNL A   1      51.073  27.276  31.042  1.00  0.00     0.167 HD
ATOM     63  C   UNL A   1      48.815  27.767  29.074  1.00  0.00     0.074 A 
ATOM     64  C   UNL A   1      49.157  26.376  29.351  1.00  0.00     0.031 C 
ATOM     65  C   UNL A   1      49.159  28.931  29.701  1.00  0.00     0.037 A 
BRANCH  52  66
ATOM     66  C   UNL A   1      51.073  25.646  33.627  1.00  0.00     0.058 A 
ATOM     67  C   UNL A   1      52.310  25.733  34.287  1.00  0.00     0.135 A 
ATOM     68  C   UNL A   1      50.895  24.519  32.791  1.00  0.00     0.135 A 
ATOM     69  F   UNL A   1      52.589  26.784  35.075  1.00  0.00    -0.206 F 
ATOM     70  C   UNL A   1      53.314  24.784  34.099  1.00  0.00     0.059 A 
ATOM     71  C   UNL A   1      51.854  23.530  32.641  1.00  0.00     0.059 A 
ATOM     72  F   UNL A   1      49.821  24.377  32.001  1.00  0.00    -0.206 F 
ATOM     73  C   UNL A   1      53.079  23.695  33.264  1.00  0.00     0.060 A 
BRANCH  73  74
ATOM     74  S   UNL A   1      54.407  22.530  32.919  1.00  0.00     0.124 S 
ATOM     75  O   UNL A   1      54.910  22.267  34.261  1.00  0.00    -0.237 OA
ATOM     76  O   UNL A   1      53.693  21.434  32.273  1.00  0.00    -0.237 OA
ATOM     77  O   UNL A   1      55.298  23.289  32.045  1.00  0.00    -0.744 OA
ENDBRANCH  73  74
ENDBRANCH  52  66
BRANCH  53  78
ATOM     78  C   UNL A   1      45.349  25.013  27.329  1.00  0.00     0.058 A 
ATOM     79  C   UNL A   1      45.230  25.224  25.947  1.00  0.00     0.135 A 
ATOM     80  C   UNL A   1      45.175  23.682  27.771  1.00  0.00     0.135 A 
ATOM     81  F   UNL A   1      45.418  26.450  25.435  1.00  0.00    -0.206 F 
ATOM     82  C   UNL A   1      44.974  24.178  25.053  1.00  0.00     0.059 A 
ATOM     83  C   UNL A   1      44.902  22.629  26.904  1.00  0.00     0.059 A 
ATOM     84  F   UNL A   1      45.352  23.349  29.059  1.00  0.00    -0.206 F 
ATOM     85  C   UNL A   1      44.822  22.880  25.542  1.00  0.00     0.060 A 
BRANCH  85  86
ATOM     86  S   UNL A   1      44.628  21.507  24.384  1.00  0.00     0.124 S 
ATOM     87  O   UNL A   1      45.913  20.826  24.505  1.00  0.00    -0.237 OA
ATOM     88  O   UNL A   1      43.477  20.800  24.936  1.00  0.00    -0.237 OA
ATOM     89  O   UNL A   1      44.393  22.171  23.105  1.00  0.00    -0.744 OA
ENDBRANCH  85  86
ENDBRANCH  53  78
BRANCH  65  90
ATOM     90  C   UNL A   1      48.552  30.215  29.198  1.00  0.00     0.058 A 
ATOM     91  C   UNL A   1      49.109  30.996  28.169  1.00  0.00     0.135 A 
ATOM     92  C   UNL A   1      47.274  30.577  29.654  1.00  0.00     0.135 A 
ATOM     93  F   UNL A   1      50.277  30.657  27.607  1.00  0.00    -0.206 F 
ATOM     94  C   UNL A   1      48.442  32.103  27.642  1.00  0.00     0.059 A 
ATOM     95  C   UNL A   1      46.577  31.660  29.123  1.00  0.00     0.059 A 
ATOM     96  F   UNL A   1      46.660  29.833  30.590  1.00  0.00    -0.206 F 
ATOM     97  C   UNL A   1      47.172  32.425  28.122  1.00  0.00     0.060 A 
BRANCH  97  98
ATOM     98  S   UNL A   1      46.265  33.792  27.363  1.00  0.00     0.124 S 
ATOM     99  O   UNL A   1      46.889  34.956  27.982  1.00  0.00    -0.237 OA
ATOM    100  O   UNL A   1      46.540  33.606  25.940  1.00  0.00    -0.237 OA
ATOM    101  O   UNL A   1      44.880  33.542  27.756  1.00  0.00    -0.744 OA
ENDBRANCH  97  98
ENDBRANCH  65  90
ENDBRANCH  39  40
ENDBRANCH  32  34
ENDBRANCH  31  32
ENDBRANCH  30  31
ENDBRANCH  29  30
ENDBRANCH  28  29
ENDBRANCH  27  28
ENDBRANCH   1  27
TORSDOF 26
ENDMDL
