MODEL 1
REMARK VINA RESULT:      -9.3      0.000      0.000
REMARK SMILES COc1ccc(-n2c(SCC(=O)OCCOCCOCCOC(=O)c3ccc(-c4c5nc(c(-c6c(F)cc(S(=O)(=O)[O-])cc6F)c6ccc([nH]6)c(-c6c(F)cc(S(=O)(=O)[O-])cc6F)c6nc(c(-c7c(F)cc(S(=O)(=O)[O-])cc7F)c7ccc4[nH]7)C=C6)C=C5)cc3)nc3sc4c(c3c2=O)CC[N@H+](C)C4)cc1
REMARK SMILES IDX 17 1 16 2 15 3 14 4 13 5 11 6 12 7 10 8 9 9 8 10 7 11 97 12
REMARK SMILES IDX 91 13 96 14 98 15 92 16 95 17 93 18 94 19 99 20 103 21
REMARK SMILES IDX 100 22 101 23 102 24 6 26 3 27 4 28 105 29 5 30 104 31 2 32
REMARK SMILES IDX 1 33 18 34 19 35 20 36 21 37 22 38 23 39 24 40 25 41 26 42
REMARK SMILES IDX 90 43 27 44 89 45 28 46 29 47 30 48 83 49 31 50 88 51 82 52
REMARK SMILES IDX 84 53 32 54 87 55 81 56 80 57 33 59 67 60 46 61 66 62 47 63
REMARK SMILES IDX 50 64 65 65 85 66 48 67 49 68 64 70 86 71 51 72 34 73 35 74
REMARK SMILES IDX 44 75 36 76 37 77 43 78 45 79 38 80 39 81 40 82 41 83 42 84
REMARK SMILES IDX 68 85 69 86 78 87 70 88 71 89 77 90 79 91 72 92 73 93 74 94
REMARK SMILES IDX 75 95 76 96 52 97 53 98 62 99 54 100 55 101 61 102 63 103
REMARK SMILES IDX 56 104 57 105 58 106 59 107 60 108
REMARK H PARENT 101 25 84 58 50 69
REMARK Flexibility Score: inf
ROOT
ATOM      1  C   UNL A   1      36.224  33.132  31.127  1.00  0.00     0.188 C 
ENDROOT
BRANCH   1   2
ATOM      2  O   UNL A   1      35.481  34.195  30.539  1.00  0.00    -0.376 OA
BRANCH   2   3
ATOM      3  C   UNL A   1      34.834  33.899  29.294  1.00  0.00     0.202 C 
BRANCH   3   4
ATOM      4  C   UNL A   1      34.178  32.508  29.142  1.00  0.00     0.261 C 
BRANCH   4   5
ATOM      5  O   UNL A   1      33.710  32.262  27.792  1.00  0.00    -0.463 OA
BRANCH   5   6
ATOM      6  C   UNL A   1      33.795  30.956  27.372  1.00  0.00     0.316 C 
ATOM      7  O   UNL A   1      34.871  30.395  27.176  1.00  0.00    -0.251 OA
BRANCH   6   8
ATOM      8  C   UNL A   1      32.456  30.202  27.263  1.00  0.00     0.200 C 
BRANCH   8   9
ATOM      9  S   UNL A   1      31.845  29.969  25.611  1.00  0.00    -0.076 SA
BRANCH   9  10
ATOM     10  C   UNL A   1      31.425  28.335  25.087  1.00  0.00     0.177 A 
ATOM     11  N   UNL A   1      30.514  27.891  24.087  1.00  0.00    -0.255 N 
ATOM     12  C   UNL A   1      30.406  26.485  23.899  1.00  0.00     0.267 A 
ATOM     13  N   UNL A   1      32.158  27.528  25.816  1.00  0.00    -0.212 NA
ATOM     14  C   UNL A   1      31.547  25.717  24.375  1.00  0.00     0.081 A 
ATOM     15  O   UNL A   1      29.427  25.905  23.500  1.00  0.00    -0.268 OA
ATOM     16  C   UNL A   1      32.223  26.237  25.433  1.00  0.00     0.132 A 
ATOM     17  C   UNL A   1      32.245  24.573  23.886  1.00  0.00    -0.008 A 
ATOM     18  S   UNL A   1      33.214  25.049  26.179  1.00  0.00    -0.114 S 
ATOM     19  C   UNL A   1      32.973  23.960  24.882  1.00  0.00     0.065 A 
ATOM     20  C   UNL A   1      32.291  24.000  22.526  1.00  0.00     0.099 C 
ATOM     21  C   UNL A   1      33.620  22.598  24.759  1.00  0.00     0.310 C 
ATOM     22  C   UNL A   1      33.420  22.961  22.345  1.00  0.00     0.267 C 
ATOM     23  N   UNL A   1      33.453  21.964  23.423  1.00  0.00    -0.333 N 
ATOM     24  C   UNL A   1      32.275  21.101  23.321  1.00  0.00     0.333 C 
ATOM     25  H   UNL A   1      34.277  21.371  23.314  1.00  0.00     0.348 HD
BRANCH  11  26
ATOM     26  C   UNL A   1      29.729  28.701  23.164  1.00  0.00     0.052 A 
ATOM     27  C   UNL A   1      28.067  30.638  21.809  1.00  0.00     0.119 A 
ATOM     28  C   UNL A   1      29.409  30.485  21.477  1.00  0.00     0.048 A 
ATOM     29  C   UNL A   1      27.541  29.764  22.734  1.00  0.00     0.048 A 
ATOM     30  C   UNL A   1      30.225  29.519  22.134  1.00  0.00     0.030 A 
ATOM     31  C   UNL A   1      28.385  28.881  23.421  1.00  0.00     0.030 A 
BRANCH  27  32
ATOM     32  O   UNL A   1      27.352  31.643  21.219  1.00  0.00    -0.497 OA
ATOM     33  C   UNL A   1      27.938  32.187  20.029  1.00  0.00     0.278 C 
ENDBRANCH  27  32
ENDBRANCH  11  26
ENDBRANCH   9  10
ENDBRANCH   8   9
ENDBRANCH   6   8
ENDBRANCH   5   6
ENDBRANCH   4   5
ENDBRANCH   3   4
ENDBRANCH   2   3
ENDBRANCH   1   2
BRANCH   1  34
ATOM     34  C   UNL A   1      37.549  32.781  30.425  1.00  0.00     0.188 C 
BRANCH  34  35
ATOM     35  O   UNL A   1      38.655  32.309  31.188  1.00  0.00    -0.376 OA
BRANCH  35  36
ATOM     36  C   UNL A   1      39.937  32.231  30.585  1.00  0.00     0.202 C 
BRANCH  36  37
ATOM     37  C   UNL A   1      40.511  30.803  30.534  1.00  0.00     0.261 C 
BRANCH  37  38
ATOM     38  O   UNL A   1      41.917  30.493  30.754  1.00  0.00    -0.460 OA
BRANCH  38  39
ATOM     39  C   UNL A   1      42.534  30.832  31.904  1.00  0.00     0.338 C 
ATOM     40  O   UNL A   1      42.069  31.559  32.768  1.00  0.00    -0.246 OA
BRANCH  39  41
ATOM     41  C   UNL A   1      43.976  30.416  31.965  1.00  0.00     0.060 A 
ATOM     42  C   UNL A   1      44.560  30.053  30.750  1.00  0.00     0.016 A 
ATOM     43  C   UNL A   1      44.609  30.015  33.144  1.00  0.00     0.016 A 
ATOM     44  C   UNL A   1      45.593  29.111  30.691  1.00  0.00     0.010 A 
ATOM     45  C   UNL A   1      45.653  29.061  33.080  1.00  0.00     0.010 A 
ATOM     46  C   UNL A   1      46.072  28.511  31.850  1.00  0.00    -0.014 A 
BRANCH  46  47
ATOM     47  C   UNL A   1      47.173  27.517  31.699  1.00  0.00     0.031 A 
ATOM     48  C   UNL A   1      46.697  26.381  30.877  1.00  0.00     0.074 A 
ATOM     49  C   UNL A   1      48.522  27.639  31.739  1.00  0.00     0.049 A 
ATOM     50  N   UNL A   1      46.702  26.455  29.580  1.00  0.00    -0.248 NA
ATOM     51  C   UNL A   1      45.834  25.347  31.435  1.00  0.00     0.031 C 
ATOM     52  C   UNL A   1      49.303  28.850  31.476  1.00  0.00     0.029 A 
ATOM     53  N   UNL A   1      49.485  26.646  31.788  1.00  0.00    -0.354 N 
ATOM     54  C   UNL A   1      45.708  25.608  29.150  1.00  0.00     0.074 A 
ATOM     55  C   UNL A   1      45.226  24.910  30.324  1.00  0.00     0.031 C 
ATOM     56  C   UNL A   1      50.552  28.486  31.100  1.00  0.00     0.029 A 
ATOM     57  C   UNL A   1      50.734  27.057  31.338  1.00  0.00     0.049 A 
ATOM     58  H   UNL A   1      49.302  25.734  32.110  1.00  0.00     0.167 HD
ATOM     59  C   UNL A   1      45.277  25.590  27.868  1.00  0.00     0.037 A 
ATOM     60  C   UNL A   1      51.676  26.274  30.741  1.00  0.00     0.037 A 
ATOM     61  C   UNL A   1      45.992  26.406  26.933  1.00  0.00     0.049 A 
ATOM     62  C   UNL A   1      51.038  25.917  29.424  1.00  0.00     0.074 A 
ATOM     63  C   UNL A   1      45.819  27.611  26.289  1.00  0.00     0.029 A 
ATOM     64  N   UNL A   1      47.209  25.944  26.487  1.00  0.00    -0.354 N 
ATOM     65  N   UNL A   1      51.106  26.610  28.315  1.00  0.00    -0.248 NA
ATOM     66  C   UNL A   1      50.012  24.878  29.423  1.00  0.00     0.031 C 
ATOM     67  C   UNL A   1      47.114  27.988  25.812  1.00  0.00     0.029 A 
ATOM     68  C   UNL A   1      48.019  27.031  26.270  1.00  0.00     0.049 A 
ATOM     69  H   UNL A   1      47.456  25.001  26.349  1.00  0.00     0.167 HD
ATOM     70  C   UNL A   1      49.955  26.274  27.595  1.00  0.00     0.074 A 
ATOM     71  C   UNL A   1      49.352  25.173  28.314  1.00  0.00     0.031 C 
ATOM     72  C   UNL A   1      49.442  27.026  26.573  1.00  0.00     0.037 A 
BRANCH  59  73
ATOM     73  C   UNL A   1      44.223  24.684  27.406  1.00  0.00     0.058 A 
ATOM     74  C   UNL A   1      42.902  25.139  27.484  1.00  0.00     0.135 A 
ATOM     75  C   UNL A   1      44.467  23.357  27.042  1.00  0.00     0.135 A 
ATOM     76  F   UNL A   1      42.650  26.416  27.814  1.00  0.00    -0.206 F 
ATOM     77  C   UNL A   1      41.839  24.284  27.268  1.00  0.00     0.059 A 
ATOM     78  C   UNL A   1      43.414  22.480  26.810  1.00  0.00     0.059 A 
ATOM     79  F   UNL A   1      45.725  22.896  26.946  1.00  0.00    -0.206 F 
ATOM     80  C   UNL A   1      42.105  22.950  26.956  1.00  0.00     0.060 A 
BRANCH  80  81
ATOM     81  S   UNL A   1      40.698  21.838  26.787  1.00  0.00     0.124 S 
ATOM     82  O   UNL A   1      40.625  21.251  28.121  1.00  0.00    -0.237 OA
ATOM     83  O   UNL A   1      39.624  22.764  26.440  1.00  0.00    -0.237 OA
ATOM     84  O   UNL A   1      41.109  20.931  25.721  1.00  0.00    -0.744 OA
ENDBRANCH  80  81
ENDBRANCH  59  73
BRANCH  60  85
ATOM     85  C   UNL A   1      52.336  25.296  31.670  1.00  0.00     0.058 A 
ATOM     86  C   UNL A   1      53.736  25.415  31.809  1.00  0.00     0.135 A 
ATOM     87  C   UNL A   1      51.725  24.324  32.479  1.00  0.00     0.135 A 
ATOM     88  F   UNL A   1      54.424  26.232  30.995  1.00  0.00    -0.206 F 
ATOM     89  C   UNL A   1      54.457  24.735  32.789  1.00  0.00     0.059 A 
ATOM     90  C   UNL A   1      52.420  23.647  33.487  1.00  0.00     0.059 A 
ATOM     91  F   UNL A   1      50.431  24.010  32.344  1.00  0.00    -0.206 F 
ATOM     92  C   UNL A   1      53.778  23.892  33.662  1.00  0.00     0.060 A 
BRANCH  92  93
ATOM     93  S   UNL A   1      54.673  23.206  35.072  1.00  0.00     0.124 S 
ATOM     94  O   UNL A   1      54.086  21.877  35.191  1.00  0.00    -0.237 OA
ATOM     95  O   UNL A   1      56.054  23.253  34.602  1.00  0.00    -0.237 OA
ATOM     96  O   UNL A   1      54.359  24.133  36.156  1.00  0.00    -0.744 OA
ENDBRANCH  92  93
ENDBRANCH  60  85
BRANCH  72  97
ATOM     97  C   UNL A   1      50.362  28.040  25.969  1.00  0.00     0.058 A 
ATOM     98  C   UNL A   1      51.013  27.785  24.753  1.00  0.00     0.135 A 
ATOM     99  C   UNL A   1      50.552  29.307  26.535  1.00  0.00     0.135 A 
ATOM    100  F   UNL A   1      50.856  26.602  24.137  1.00  0.00    -0.206 F 
ATOM    101  C   UNL A   1      51.791  28.755  24.120  1.00  0.00     0.059 A 
ATOM    102  C   UNL A   1      51.309  30.299  25.920  1.00  0.00     0.059 A 
ATOM    103  F   UNL A   1      49.959  29.621  27.691  1.00  0.00    -0.206 F 
ATOM    104  C   UNL A   1      51.917  30.017  24.703  1.00  0.00     0.060 A 
BRANCH 104 105
ATOM    105  S   UNL A   1      52.826  31.301  23.820  1.00  0.00     0.124 S 
ATOM    106  O   UNL A   1      53.795  31.740  24.819  1.00  0.00    -0.237 OA
ATOM    107  O   UNL A   1      53.375  30.562  22.688  1.00  0.00    -0.237 OA
ATOM    108  O   UNL A   1      51.798  32.281  23.477  1.00  0.00    -0.744 OA
ENDBRANCH 104 105
ENDBRANCH  72  97
ENDBRANCH  46  47
ENDBRANCH  39  41
ENDBRANCH  38  39
ENDBRANCH  37  38
ENDBRANCH  36  37
ENDBRANCH  35  36
ENDBRANCH  34  35
ENDBRANCH   1  34
TORSDOF 24
ENDMDL
MODEL 2
REMARK VINA RESULT:      -9.3      6.916     13.621
REMARK SMILES COc1ccc(-n2c(SCC(=O)OCCOCCOCCOC(=O)c3ccc(-c4c5nc(c(-c6c(F)cc(S(=O)(=O)[O-])cc6F)c6ccc([nH]6)c(-c6c(F)cc(S(=O)(=O)[O-])cc6F)c6nc(c(-c7c(F)cc(S(=O)(=O)[O-])cc7F)c7ccc4[nH]7)C=C6)C=C5)cc3)nc3sc4c(c3c2=O)CC[N@H+](C)C4)cc1
REMARK SMILES IDX 17 1 16 2 15 3 14 4 13 5 11 6 12 7 10 8 9 9 8 10 7 11 97 12
REMARK SMILES IDX 91 13 96 14 98 15 92 16 95 17 93 18 94 19 99 20 103 21
REMARK SMILES IDX 100 22 101 23 102 24 6 26 3 27 4 28 105 29 5 30 104 31 2 32
REMARK SMILES IDX 1 33 18 34 19 35 20 36 21 37 22 38 23 39 24 40 25 41 26 42
REMARK SMILES IDX 90 43 27 44 89 45 28 46 29 47 30 48 83 49 31 50 88 51 82 52
REMARK SMILES IDX 84 53 32 54 87 55 81 56 80 57 33 59 67 60 46 61 66 62 47 63
REMARK SMILES IDX 50 64 65 65 85 66 48 67 49 68 64 70 86 71 51 72 34 73 35 74
REMARK SMILES IDX 44 75 36 76 37 77 43 78 45 79 38 80 39 81 40 82 41 83 42 84
REMARK SMILES IDX 68 85 69 86 78 87 70 88 71 89 77 90 79 91 72 92 73 93 74 94
REMARK SMILES IDX 75 95 76 96 52 97 53 98 62 99 54 100 55 101 61 102 63 103
REMARK SMILES IDX 56 104 57 105 58 106 59 107 60 108
REMARK H PARENT 101 25 84 58 50 69
REMARK Flexibility Score: inf
ROOT
ATOM      1  C   UNL A   1      45.183  23.447  25.882  1.00  0.00     0.188 C 
ENDROOT
BRANCH   1   2
ATOM      2  O   UNL A   1      44.432  24.269  24.994  1.00  0.00    -0.376 OA
BRANCH   2   3
ATOM      3  C   UNL A   1      43.094  24.583  25.407  1.00  0.00     0.202 C 
BRANCH   3   4
ATOM      4  C   UNL A   1      42.627  26.049  25.258  1.00  0.00     0.261 C 
BRANCH   4   5
ATOM      5  O   UNL A   1      41.188  26.185  25.385  1.00  0.00    -0.463 OA
BRANCH   5   6
ATOM      6  C   UNL A   1      40.765  26.987  26.417  1.00  0.00     0.316 C 
ATOM      7  O   UNL A   1      41.201  28.123  26.591  1.00  0.00    -0.251 OA
BRANCH   6   8
ATOM      8  C   UNL A   1      39.629  26.415  27.285  1.00  0.00     0.200 C 
BRANCH   8   9
ATOM      9  S   UNL A   1      39.659  24.652  27.513  1.00  0.00    -0.076 SA
BRANCH   9  10
ATOM     10  C   UNL A   1      38.643  23.648  26.475  1.00  0.00     0.177 A 
ATOM     11  N   UNL A   1      38.850  22.332  25.972  1.00  0.00    -0.255 N 
ATOM     12  C   UNL A   1      37.821  21.790  25.154  1.00  0.00     0.267 A 
ATOM     13  N   UNL A   1      37.567  24.359  26.233  1.00  0.00    -0.212 NA
ATOM     14  C   UNL A   1      36.516  22.411  25.324  1.00  0.00     0.081 A 
ATOM     15  O   UNL A   1      37.978  20.971  24.283  1.00  0.00    -0.268 OA
ATOM     16  C   UNL A   1      36.516  23.721  25.682  1.00  0.00     0.132 A 
ATOM     17  C   UNL A   1      35.178  21.915  25.349  1.00  0.00    -0.008 A 
ATOM     18  S   UNL A   1      34.983  24.441  25.394  1.00  0.00    -0.114 S 
ATOM     19  C   UNL A   1      34.263  22.916  25.109  1.00  0.00     0.065 A 
ATOM     20  C   UNL A   1      34.679  20.546  25.593  1.00  0.00     0.099 C 
ATOM     21  C   UNL A   1      32.795  22.686  24.825  1.00  0.00     0.310 C 
ATOM     22  C   UNL A   1      33.158  20.497  25.860  1.00  0.00     0.267 C 
ATOM     23  N   UNL A   1      32.382  21.258  24.873  1.00  0.00    -0.333 N 
ATOM     24  C   UNL A   1      32.449  20.579  23.577  1.00  0.00     0.333 C 
ATOM     25  H   UNL A   1      31.401  21.281  25.155  1.00  0.00     0.348 HD
BRANCH  11  26
ATOM     26  C   UNL A   1      39.957  21.426  26.257  1.00  0.00     0.052 A 
ATOM     27  C   UNL A   1      42.099  19.488  26.252  1.00  0.00     0.119 A 
ATOM     28  C   UNL A   1      42.346  20.832  26.512  1.00  0.00     0.048 A 
ATOM     29  C   UNL A   1      40.787  19.105  26.098  1.00  0.00     0.048 A 
ATOM     30  C   UNL A   1      41.288  21.785  26.530  1.00  0.00     0.030 A 
ATOM     31  C   UNL A   1      39.777  20.075  26.040  1.00  0.00     0.030 A 
BRANCH  27  32
ATOM     32  O   UNL A   1      43.159  18.631  26.150  1.00  0.00    -0.497 OA
ATOM     33  C   UNL A   1      43.995  18.833  25.002  1.00  0.00     0.278 C 
ENDBRANCH  27  32
ENDBRANCH  11  26
ENDBRANCH   9  10
ENDBRANCH   8   9
ENDBRANCH   6   8
ENDBRANCH   5   6
ENDBRANCH   4   5
ENDBRANCH   3   4
ENDBRANCH   2   3
ENDBRANCH   1   2
BRANCH   1  34
ATOM     34  C   UNL A   1      46.295  24.165  26.669  1.00  0.00     0.188 C 
BRANCH  34  35
ATOM     35  O   UNL A   1      46.017  24.710  27.955  1.00  0.00    -0.376 OA
BRANCH  35  36
ATOM     36  C   UNL A   1      45.478  26.018  28.057  1.00  0.00     0.202 C 
BRANCH  36  37
ATOM     37  C   UNL A   1      45.142  26.440  29.499  1.00  0.00     0.261 C 
BRANCH  37  38
ATOM     38  O   UNL A   1      44.550  27.726  29.844  1.00  0.00    -0.460 OA
BRANCH  38  39
ATOM     39  C   UNL A   1      44.238  28.030  31.119  1.00  0.00     0.338 C 
ATOM     40  O   UNL A   1      44.376  27.286  32.078  1.00  0.00    -0.246 OA
BRANCH  39  41
ATOM     41  C   UNL A   1      43.481  29.318  31.269  1.00  0.00     0.060 A 
ATOM     42  C   UNL A   1      44.114  30.460  30.774  1.00  0.00     0.016 A 
ATOM     43  C   UNL A   1      42.427  29.489  32.170  1.00  0.00     0.016 A 
ATOM     44  C   UNL A   1      43.889  31.720  31.341  1.00  0.00     0.010 A 
ATOM     45  C   UNL A   1      42.204  30.764  32.741  1.00  0.00     0.010 A 
ATOM     46  C   UNL A   1      43.019  31.869  32.415  1.00  0.00    -0.014 A 
BRANCH  46  47
ATOM     47  C   UNL A   1      42.837  33.245  32.959  1.00  0.00     0.031 A 
ATOM     48  C   UNL A   1      41.489  33.740  32.599  1.00  0.00     0.074 A 
ATOM     49  C   UNL A   1      43.395  33.889  34.014  1.00  0.00     0.049 A 
ATOM     50  N   UNL A   1      40.452  33.416  33.311  1.00  0.00    -0.248 NA
ATOM     51  C   UNL A   1      41.191  34.227  31.257  1.00  0.00     0.031 C 
ATOM     52  C   UNL A   1      43.986  33.275  35.205  1.00  0.00     0.029 A 
ATOM     53  N   UNL A   1      43.331  35.230  34.347  1.00  0.00    -0.354 N 
ATOM     54  C   UNL A   1      39.376  33.475  32.458  1.00  0.00     0.074 A 
ATOM     55  C   UNL A   1      39.868  34.022  31.210  1.00  0.00     0.031 C 
ATOM     56  C   UNL A   1      43.950  34.173  36.218  1.00  0.00     0.029 A 
ATOM     57  C   UNL A   1      43.577  35.483  35.692  1.00  0.00     0.049 A 
ATOM     58  H   UNL A   1      43.130  35.939  33.694  1.00  0.00     0.167 HD
ATOM     59  C   UNL A   1      38.158  32.991  32.795  1.00  0.00     0.037 A 
ATOM     60  C   UNL A   1      43.065  36.510  36.428  1.00  0.00     0.037 A 
ATOM     61  C   UNL A   1      37.997  32.524  34.139  1.00  0.00     0.049 A 
ATOM     62  C   UNL A   1      41.598  36.182  36.498  1.00  0.00     0.074 A 
ATOM     63  C   UNL A   1      37.938  31.317  34.800  1.00  0.00     0.029 A 
ATOM     64  N   UNL A   1      37.848  33.470  35.127  1.00  0.00    -0.354 N 
ATOM     65  N   UNL A   1      41.012  35.426  37.393  1.00  0.00    -0.248 NA
ATOM     66  C   UNL A   1      40.778  36.468  35.322  1.00  0.00     0.031 C 
ATOM     67  C   UNL A   1      38.162  31.617  36.181  1.00  0.00     0.029 A 
ATOM     68  C   UNL A   1      38.432  32.982  36.270  1.00  0.00     0.049 A 
ATOM     69  H   UNL A   1      37.402  34.342  35.032  1.00  0.00     0.167 HD
ATOM     70  C   UNL A   1      39.867  34.924  36.766  1.00  0.00     0.074 A 
ATOM     71  C   UNL A   1      39.763  35.639  35.512  1.00  0.00     0.031 C 
ATOM     72  C   UNL A   1      39.177  33.823  37.194  1.00  0.00     0.037 A 
BRANCH  59  73
ATOM     73  C   UNL A   1      37.008  33.058  31.891  1.00  0.00     0.058 A 
ATOM     74  C   UNL A   1      36.921  32.090  30.885  1.00  0.00     0.135 A 
ATOM     75  C   UNL A   1      36.097  34.118  31.899  1.00  0.00     0.135 A 
ATOM     76  F   UNL A   1      37.776  31.055  30.873  1.00  0.00    -0.206 F 
ATOM     77  C   UNL A   1      35.991  32.198  29.869  1.00  0.00     0.059 A 
ATOM     78  C   UNL A   1      35.147  34.243  30.892  1.00  0.00     0.059 A 
ATOM     79  F   UNL A   1      36.148  35.055  32.860  1.00  0.00    -0.206 F 
ATOM     80  C   UNL A   1      35.125  33.292  29.867  1.00  0.00     0.060 A 
BRANCH  80  81
ATOM     81  S   UNL A   1      34.000  33.460  28.471  1.00  0.00     0.124 S 
ATOM     82  O   UNL A   1      33.727  32.065  28.143  1.00  0.00    -0.237 OA
ATOM     83  O   UNL A   1      32.893  34.203  29.065  1.00  0.00    -0.237 OA
ATOM     84  O   UNL A   1      34.789  34.195  27.487  1.00  0.00    -0.744 OA
ENDBRANCH  80  81
ENDBRANCH  59  73
BRANCH  60  85
ATOM     85  C   UNL A   1      43.630  37.855  36.075  1.00  0.00     0.058 A 
ATOM     86  C   UNL A   1      44.239  38.573  37.128  1.00  0.00     0.135 A 
ATOM     87  C   UNL A   1      43.697  38.460  34.809  1.00  0.00     0.135 A 
ATOM     88  F   UNL A   1      44.123  38.135  38.392  1.00  0.00    -0.206 F 
ATOM     89  C   UNL A   1      44.995  39.724  36.918  1.00  0.00     0.059 A 
ATOM     90  C   UNL A   1      44.470  39.600  34.566  1.00  0.00     0.059 A 
ATOM     91  F   UNL A   1      43.040  37.960  33.756  1.00  0.00    -0.206 F 
ATOM     92  C   UNL A   1      45.151  40.201  35.621  1.00  0.00     0.060 A 
BRANCH  92  93
ATOM     93  S   UNL A   1      46.322  41.544  35.329  1.00  0.00     0.124 S 
ATOM     94  O   UNL A   1      46.847  41.211  34.010  1.00  0.00    -0.237 OA
ATOM     95  O   UNL A   1      45.456  42.716  35.392  1.00  0.00    -0.237 OA
ATOM     96  O   UNL A   1      47.268  41.415  36.434  1.00  0.00    -0.744 OA
ENDBRANCH  92  93
ENDBRANCH  60  85
BRANCH  72  97
ATOM     97  C   UNL A   1      39.448  33.374  38.597  1.00  0.00     0.058 A 
ATOM     98  C   UNL A   1      38.428  33.374  39.560  1.00  0.00     0.135 A 
ATOM     99  C   UNL A   1      40.691  32.862  38.989  1.00  0.00     0.135 A 
ATOM    100  F   UNL A   1      37.203  33.825  39.247  1.00  0.00    -0.206 F 
ATOM    101  C   UNL A   1      38.632  32.863  40.842  1.00  0.00     0.059 A 
ATOM    102  C   UNL A   1      40.919  32.332  40.255  1.00  0.00     0.059 A 
ATOM    103  F   UNL A   1      41.707  32.828  38.122  1.00  0.00    -0.206 F 
ATOM    104  C   UNL A   1      39.877  32.326  41.174  1.00  0.00     0.060 A 
BRANCH 104 105
ATOM    105  S   UNL A   1      40.095  31.560  42.793  1.00  0.00     0.124 S 
ATOM    106  O   UNL A   1      41.393  30.909  42.657  1.00  0.00    -0.237 OA
ATOM    107  O   UNL A   1      40.055  32.715  43.684  1.00  0.00    -0.237 OA
ATOM    108  O   UNL A   1      38.953  30.655  42.905  1.00  0.00    -0.744 OA
ENDBRANCH 104 105
ENDBRANCH  72  97
ENDBRANCH  46  47
ENDBRANCH  39  41
ENDBRANCH  38  39
ENDBRANCH  37  38
ENDBRANCH  36  37
ENDBRANCH  35  36
ENDBRANCH  34  35
ENDBRANCH   1  34
TORSDOF 24
ENDMDL
MODEL 3
REMARK VINA RESULT:      -9.1      7.099     14.062
REMARK SMILES COc1ccc(-n2c(SCC(=O)OCCOCCOCCOC(=O)c3ccc(-c4c5nc(c(-c6c(F)cc(S(=O)(=O)[O-])cc6F)c6ccc([nH]6)c(-c6c(F)cc(S(=O)(=O)[O-])cc6F)c6nc(c(-c7c(F)cc(S(=O)(=O)[O-])cc7F)c7ccc4[nH]7)C=C6)C=C5)cc3)nc3sc4c(c3c2=O)CC[N@H+](C)C4)cc1
REMARK SMILES IDX 17 1 16 2 15 3 14 4 13 5 11 6 12 7 10 8 9 9 8 10 7 11 97 12
REMARK SMILES IDX 91 13 96 14 98 15 92 16 95 17 93 18 94 19 99 20 103 21
REMARK SMILES IDX 100 22 101 23 102 24 6 26 3 27 4 28 105 29 5 30 104 31 2 32
REMARK SMILES IDX 1 33 18 34 19 35 20 36 21 37 22 38 23 39 24 40 25 41 26 42
REMARK SMILES IDX 90 43 27 44 89 45 28 46 29 47 30 48 83 49 31 50 88 51 82 52
REMARK SMILES IDX 84 53 32 54 87 55 81 56 80 57 33 59 67 60 46 61 66 62 47 63
REMARK SMILES IDX 50 64 65 65 85 66 48 67 49 68 64 70 86 71 51 72 34 73 35 74
REMARK SMILES IDX 44 75 36 76 37 77 43 78 45 79 38 80 39 81 40 82 41 83 42 84
REMARK SMILES IDX 68 85 69 86 78 87 70 88 71 89 77 90 79 91 72 92 73 93 74 94
REMARK SMILES IDX 75 95 76 96 52 97 53 98 62 99 54 100 55 101 61 102 63 103
REMARK SMILES IDX 56 104 57 105 58 106 59 107 60 108
REMARK H PARENT 101 25 84 58 50 69
REMARK Flexibility Score: inf
ROOT
ATOM      1  C   UNL A   1      46.768  36.563  32.201  1.00  0.00     0.188 C 
ENDROOT
BRANCH   1   2
ATOM      2  O   UNL A   1      45.517  35.883  32.244  1.00  0.00    -0.376 OA
BRANCH   2   3
ATOM      3  C   UNL A   1      45.085  35.279  31.017  1.00  0.00     0.202 C 
BRANCH   3   4
ATOM      4  C   UNL A   1      43.790  35.820  30.371  1.00  0.00     0.261 C 
BRANCH   4   5
ATOM      5  O   UNL A   1      44.048  36.564  29.153  1.00  0.00    -0.463 OA
BRANCH   5   6
ATOM      6  C   UNL A   1      43.074  36.466  28.189  1.00  0.00     0.316 C 
ATOM      7  O   UNL A   1      42.100  35.725  28.309  1.00  0.00    -0.251 OA
BRANCH   6   8
ATOM      8  C   UNL A   1      43.221  37.423  26.992  1.00  0.00     0.200 C 
BRANCH   8   9
ATOM      9  S   UNL A   1      44.737  38.349  26.938  1.00  0.00    -0.076 SA
BRANCH   9  10
ATOM     10  C   UNL A   1      44.786  39.936  27.713  1.00  0.00     0.177 A 
ATOM     11  N   UNL A   1      44.373  41.211  27.234  1.00  0.00    -0.255 N 
ATOM     12  C   UNL A   1      44.541  42.312  28.119  1.00  0.00     0.267 A 
ATOM     13  N   UNL A   1      45.292  39.734  28.906  1.00  0.00    -0.212 NA
ATOM     14  C   UNL A   1      44.646  41.953  29.525  1.00  0.00     0.081 A 
ATOM     15  O   UNL A   1      44.717  43.458  27.786  1.00  0.00    -0.268 OA
ATOM     16  C   UNL A   1      45.193  40.740  29.797  1.00  0.00     0.132 A 
ATOM     17  C   UNL A   1      44.159  42.533  30.735  1.00  0.00    -0.008 A 
ATOM     18  S   UNL A   1      45.685  40.637  31.439  1.00  0.00    -0.114 S 
ATOM     19  C   UNL A   1      44.864  42.085  31.830  1.00  0.00     0.065 A 
ATOM     20  C   UNL A   1      43.054  43.489  30.950  1.00  0.00     0.099 C 
ATOM     21  C   UNL A   1      44.766  42.683  33.217  1.00  0.00     0.310 C 
ATOM     22  C   UNL A   1      42.638  43.608  32.433  1.00  0.00     0.267 C 
ATOM     23  N   UNL A   1      43.784  43.795  33.332  1.00  0.00    -0.333 N 
ATOM     24  C   UNL A   1      44.364  45.120  33.108  1.00  0.00     0.333 C 
ATOM     25  H   UNL A   1      43.466  43.760  34.301  1.00  0.00     0.348 HD
BRANCH  11  26
ATOM     26  C   UNL A   1      43.715  41.527  25.972  1.00  0.00     0.052 A 
ATOM     27  C   UNL A   1      42.023  42.433  23.813  1.00  0.00     0.119 A 
ATOM     28  C   UNL A   1      43.339  42.868  23.925  1.00  0.00     0.048 A 
ATOM     29  C   UNL A   1      41.593  41.480  24.709  1.00  0.00     0.048 A 
ATOM     30  C   UNL A   1      44.178  42.409  24.981  1.00  0.00     0.030 A 
ATOM     31  C   UNL A   1      42.413  41.110  25.783  1.00  0.00     0.030 A 
BRANCH  27  32
ATOM     32  O   UNL A   1      41.229  42.976  22.841  1.00  0.00    -0.497 OA
ATOM     33  C   UNL A   1      41.886  43.225  21.591  1.00  0.00     0.278 C 
ENDBRANCH  27  32
ENDBRANCH  11  26
ENDBRANCH   9  10
ENDBRANCH   8   9
ENDBRANCH   6   8
ENDBRANCH   5   6
ENDBRANCH   4   5
ENDBRANCH   3   4
ENDBRANCH   2   3
ENDBRANCH   1   2
BRANCH   1  34
ATOM     34  C   UNL A   1      47.703  36.159  31.045  1.00  0.00     0.188 C 
BRANCH  34  35
ATOM     35  O   UNL A   1      48.604  35.068  31.208  1.00  0.00    -0.376 OA
BRANCH  35  36
ATOM     36  C   UNL A   1      48.599  34.011  30.262  1.00  0.00     0.202 C 
BRANCH  36  37
ATOM     37  C   UNL A   1      49.220  34.391  28.905  1.00  0.00     0.261 C 
BRANCH  37  38
ATOM     38  O   UNL A   1      48.498  34.319  27.642  1.00  0.00    -0.460 OA
BRANCH  38  39
ATOM     39  C   UNL A   1      48.570  33.225  26.859  1.00  0.00     0.338 C 
ATOM     40  O   UNL A   1      49.422  33.019  26.007  1.00  0.00    -0.246 OA
BRANCH  39  41
ATOM     41  C   UNL A   1      47.367  32.331  26.951  1.00  0.00     0.060 A 
ATOM     42  C   UNL A   1      46.172  32.860  26.458  1.00  0.00     0.016 A 
ATOM     43  C   UNL A   1      47.293  31.229  27.807  1.00  0.00     0.016 A 
ATOM     44  C   UNL A   1      44.934  32.481  26.988  1.00  0.00     0.010 A 
ATOM     45  C   UNL A   1      46.039  30.850  28.341  1.00  0.00     0.010 A 
ATOM     46  C   UNL A   1      44.859  31.556  28.024  1.00  0.00    -0.014 A 
BRANCH  46  47
ATOM     47  C   UNL A   1      43.502  31.209  28.532  1.00  0.00     0.031 A 
ATOM     48  C   UNL A   1      43.153  29.837  28.097  1.00  0.00     0.074 A 
ATOM     49  C   UNL A   1      42.788  31.646  29.599  1.00  0.00     0.049 A 
ATOM     50  N   UNL A   1      43.571  28.805  28.764  1.00  0.00    -0.248 NA
ATOM     51  C   UNL A   1      42.719  29.559  26.733  1.00  0.00     0.031 C 
ATOM     52  C   UNL A   1      43.321  32.236  30.829  1.00  0.00     0.029 A 
ATOM     53  N   UNL A   1      41.456  31.429  29.902  1.00  0.00    -0.354 N 
ATOM     54  C   UNL A   1      43.636  27.772  27.860  1.00  0.00     0.074 A 
ATOM     55  C   UNL A   1      43.060  28.267  26.627  1.00  0.00     0.031 C 
ATOM     56  C   UNL A   1      42.417  32.059  31.821  1.00  0.00     0.029 A 
ATOM     57  C   UNL A   1      41.160  31.580  31.252  1.00  0.00     0.049 A 
ATOM     58  H   UNL A   1      40.781  31.189  29.226  1.00  0.00     0.167 HD
ATOM     59  C   UNL A   1      44.237  26.595  28.148  1.00  0.00     0.037 A 
ATOM     60  C   UNL A   1      40.180  30.931  31.942  1.00  0.00     0.037 A 
ATOM     61  C   UNL A   1      44.698  26.414  29.492  1.00  0.00     0.049 A 
ATOM     62  C   UNL A   1      40.655  29.503  31.947  1.00  0.00     0.074 A 
ATOM     63  C   UNL A   1      45.895  26.446  30.172  1.00  0.00     0.029 A 
ATOM     64  N   UNL A   1      43.758  26.122  30.453  1.00  0.00    -0.354 N 
ATOM     65  N   UNL A   1      41.454  28.954  32.828  1.00  0.00    -0.248 NA
ATOM     66  C   UNL A   1      40.473  28.718  30.729  1.00  0.00     0.031 C 
ATOM     67  C   UNL A   1      45.553  26.569  31.557  1.00  0.00     0.029 A 
ATOM     68  C   UNL A   1      44.166  26.695  31.632  1.00  0.00     0.049 A 
ATOM     69  H   UNL A   1      42.937  25.595  30.318  1.00  0.00     0.167 HD
ATOM     70  C   UNL A   1      42.080  27.898  32.157  1.00  0.00     0.074 A 
ATOM     71  C   UNL A   1      41.398  27.784  30.886  1.00  0.00     0.031 C 
ATOM     72  C   UNL A   1      43.239  27.303  32.574  1.00  0.00     0.037 A 
BRANCH  59  73
ATOM     73  C   UNL A   1      44.301  25.490  27.188  1.00  0.00     0.058 A 
ATOM     74  C   UNL A   1      43.296  24.520  27.254  1.00  0.00     0.135 A 
ATOM     75  C   UNL A   1      45.388  25.291  26.331  1.00  0.00     0.135 A 
ATOM     76  F   UNL A   1      42.236  24.704  28.057  1.00  0.00    -0.206 F 
ATOM     77  C   UNL A   1      43.390  23.345  26.533  1.00  0.00     0.059 A 
ATOM     78  C   UNL A   1      45.500  24.120  25.590  1.00  0.00     0.059 A 
ATOM     79  F   UNL A   1      46.361  26.211  26.238  1.00  0.00    -0.206 F 
ATOM     80  C   UNL A   1      44.509  23.143  25.724  1.00  0.00     0.060 A 
BRANCH  80  81
ATOM     81  S   UNL A   1      44.653  21.556  24.884  1.00  0.00     0.124 S 
ATOM     82  O   UNL A   1      44.611  21.960  23.483  1.00  0.00    -0.237 OA
ATOM     83  O   UNL A   1      45.943  21.075  25.370  1.00  0.00    -0.237 OA
ATOM     84  O   UNL A   1      43.490  20.814  25.361  1.00  0.00    -0.744 OA
ENDBRANCH  80  81
ENDBRANCH  59  73
BRANCH  60  85
ATOM     85  C   UNL A   1      38.789  31.374  31.589  1.00  0.00     0.058 A 
ATOM     86  C   UNL A   1      38.609  32.758  31.376  1.00  0.00     0.135 A 
ATOM     87  C   UNL A   1      37.656  30.573  31.371  1.00  0.00     0.135 A 
ATOM     88  F   UNL A   1      39.599  33.616  31.674  1.00  0.00    -0.206 F 
ATOM     89  C   UNL A   1      37.443  33.292  30.833  1.00  0.00     0.059 A 
ATOM     90  C   UNL A   1      36.482  31.080  30.803  1.00  0.00     0.059 A 
ATOM     91  F   UNL A   1      37.648  29.269  31.674  1.00  0.00    -0.206 F 
ATOM     92  C   UNL A   1      36.401  32.435  30.498  1.00  0.00     0.060 A 
BRANCH  92  93
ATOM     93  S   UNL A   1      34.997  33.099  29.578  1.00  0.00     0.124 S 
ATOM     94  O   UNL A   1      35.593  34.236  28.886  1.00  0.00    -0.237 OA
ATOM     95  O   UNL A   1      34.626  31.965  28.737  1.00  0.00    -0.237 OA
ATOM     96  O   UNL A   1      34.033  33.433  30.624  1.00  0.00    -0.744 OA
ENDBRANCH  92  93
ENDBRANCH  60  85
BRANCH  72  97
ATOM     97  C   UNL A   1      43.637  27.548  33.996  1.00  0.00     0.058 A 
ATOM     98  C   UNL A   1      43.302  26.631  35.003  1.00  0.00     0.135 A 
ATOM     99  C   UNL A   1      44.423  28.645  34.373  1.00  0.00     0.135 A 
ATOM    100  F   UNL A   1      42.574  25.541  34.711  1.00  0.00    -0.206 F 
ATOM    101  C   UNL A   1      43.752  26.786  36.314  1.00  0.00     0.059 A 
ATOM    102  C   UNL A   1      44.898  28.818  35.669  1.00  0.00     0.059 A 
ATOM    103  F   UNL A   1      44.782  29.556  33.464  1.00  0.00    -0.206 F 
ATOM    104  C   UNL A   1      44.566  27.875  36.634  1.00  0.00     0.060 A 
BRANCH 104 105
ATOM    105  S   UNL A   1      45.240  28.003  38.302  1.00  0.00     0.124 S 
ATOM    106  O   UNL A   1      46.631  27.610  38.107  1.00  0.00    -0.237 OA
ATOM    107  O   UNL A   1      45.017  29.411  38.613  1.00  0.00    -0.237 OA
ATOM    108  O   UNL A   1      44.430  27.065  39.077  1.00  0.00    -0.744 OA
ENDBRANCH 104 105
ENDBRANCH  72  97
ENDBRANCH  46  47
ENDBRANCH  39  41
ENDBRANCH  38  39
ENDBRANCH  37  38
ENDBRANCH  36  37
ENDBRANCH  35  36
ENDBRANCH  34  35
ENDBRANCH   1  34
TORSDOF 24
ENDMDL
