MODEL 1
REMARK VINA RESULT:     -10.8      0.000      0.000
REMARK SMILES CC(=O)c1ccc(N2/C(=[NH+]/C(=O)CCC(=O)OCCOCCOCCOC(=O)c3ccc(-c4c5nc(c(-c6c(F)cc(S(=O)(=O)[O-])cc6F)c6ccc([nH]6)c(-c6c(F)cc(S(=O)(=O)[O-])cc6F)c6nc(c(-c7c(F)cc(S(=O)(=O)[O-])cc7F)c7ccc4[nH]7)C=C6)C=C5)cc3)S[C@H]3CS(=O)(=O)C[C@@H]32)cc1
REMARK SMILES IDX 21 1 20 2 19 3 18 4 17 5 15 6 16 7 14 8 13 9 11 10 8 11 9 12
REMARK SMILES IDX 102 13 10 14 95 15 96 16 101 17 97 19 98 20 12 21 99 22
REMARK SMILES IDX 100 23 7 24 4 25 5 26 104 27 6 28 103 29 2 30 1 31 3 32
REMARK SMILES IDX 22 33 23 34 24 35 25 36 26 37 27 38 28 39 29 40 30 41 94 42
REMARK SMILES IDX 31 43 93 44 32 45 33 46 34 47 87 48 35 49 92 50 86 51 88 52
REMARK SMILES IDX 36 53 91 54 85 55 84 56 37 58 71 59 50 60 70 61 51 62 54 63
REMARK SMILES IDX 69 64 89 65 52 66 53 67 68 69 90 70 55 71 38 72 39 73 48 74
REMARK SMILES IDX 40 75 41 76 47 77 49 78 42 79 43 80 44 81 45 82 46 83 72 84
REMARK SMILES IDX 73 85 82 86 74 87 75 88 81 89 83 90 76 91 77 92 78 93 79 94
REMARK SMILES IDX 80 95 56 96 57 97 66 98 58 99 59 100 65 101 67 102 60 103
REMARK SMILES IDX 61 104 62 105 63 106 64 107
REMARK H PARENT 10 18 88 57 54 68
REMARK Flexibility Score: inf
ROOT
ATOM      1  C   UNL A   1      33.702  21.017  26.394  1.00  0.00     0.188 C 
ENDROOT
BRANCH   1   2
ATOM      2  O   UNL A   1      33.367  21.792  27.544  1.00  0.00    -0.376 OA
BRANCH   2   3
ATOM      3  C   UNL A   1      32.737  23.052  27.292  1.00  0.00     0.202 C 
BRANCH   3   4
ATOM      4  C   UNL A   1      31.709  23.013  26.159  1.00  0.00     0.261 C 
BRANCH   4   5
ATOM      5  O   UNL A   1      32.045  23.944  25.121  1.00  0.00    -0.463 OA
BRANCH   5   6
ATOM      6  C   UNL A   1      31.971  23.494  23.848  1.00  0.00     0.306 C 
ATOM      7  O   UNL A   1      30.925  23.256  23.255  1.00  0.00    -0.252 OA
BRANCH   6   8
ATOM      8  C   UNL A   1      33.324  23.417  23.173  1.00  0.00     0.135 C 
BRANCH   8   9
ATOM      9  C   UNL A   1      34.080  24.731  23.011  1.00  0.00     0.139 C 
BRANCH   9  10
ATOM     10  C   UNL A   1      33.138  25.830  22.577  1.00  0.00     0.308 C 
ATOM     11  N   UNL A   1      31.484  28.588  24.345  1.00  0.00    -0.217 N 
ATOM     12  C   UNL A   1      31.815  27.493  23.534  1.00  0.00     0.319 C 
ATOM     13  C   UNL A   1      30.193  29.198  24.020  1.00  0.00     0.212 C 
ATOM     14  N   UNL A   1      32.894  26.791  23.533  1.00  0.00    -0.204 N 
ATOM     15  S   UNL A   1      30.434  27.221  22.402  1.00  0.00    -0.029 SA
ATOM     16  C   UNL A   1      30.061  28.970  22.512  1.00  0.00     0.120 C 
ATOM     17  C   UNL A   1      30.019  30.694  24.175  1.00  0.00     0.188 C 
ATOM     18  H   UNL A   1      33.564  26.945  24.236  1.00  0.00     0.316 HD
ATOM     19  C   UNL A   1      28.727  29.517  22.101  1.00  0.00     0.156 C 
ATOM     20  S   UNL A   1      28.677  31.053  23.035  1.00  0.00     0.155 S 
ATOM     21  O   UNL A   1      32.789  25.881  21.399  1.00  0.00    -0.247 OA
ATOM     22  O   UNL A   1      29.102  32.136  22.168  1.00  0.00    -0.229 OA
ATOM     23  O   UNL A   1      27.441  31.096  23.776  1.00  0.00    -0.229 OA
BRANCH  11  24
ATOM     24  C   UNL A   1      32.248  29.184  25.355  1.00  0.00     0.128 A 
ATOM     25  C   UNL A   1      33.888  30.552  27.237  1.00  0.00     0.018 A 
ATOM     26  C   UNL A   1      32.598  31.008  26.945  1.00  0.00     0.016 A 
ATOM     27  C   UNL A   1      34.366  29.425  26.564  1.00  0.00     0.016 A 
ATOM     28  C   UNL A   1      31.799  30.343  26.004  1.00  0.00     0.052 A 
ATOM     29  C   UNL A   1      33.545  28.743  25.645  1.00  0.00     0.052 A 
BRANCH  25  30
ATOM     30  C   UNL A   1      34.683  31.298  28.262  1.00  0.00     0.159 C 
ATOM     31  C   UNL A   1      34.170  32.610  28.798  1.00  0.00     0.093 C 
ATOM     32  O   UNL A   1      35.730  30.812  28.686  1.00  0.00    -0.295 OA
ENDBRANCH  25  30
ENDBRANCH  11  24
ENDBRANCH   9  10
ENDBRANCH   8   9
ENDBRANCH   6   8
ENDBRANCH   5   6
ENDBRANCH   4   5
ENDBRANCH   3   4
ENDBRANCH   2   3
ENDBRANCH   1   2
BRANCH   1  33
ATOM     33  C   UNL A   1      35.043  21.388  25.765  1.00  0.00     0.188 C 
BRANCH  33  34
ATOM     34  O   UNL A   1      35.677  20.365  25.019  1.00  0.00    -0.376 OA
BRANCH  34  35
ATOM     35  C   UNL A   1      37.104  20.334  25.018  1.00  0.00     0.202 C 
BRANCH  35  36
ATOM     36  C   UNL A   1      37.905  21.658  25.016  1.00  0.00     0.261 C 
BRANCH  36  37
ATOM     37  O   UNL A   1      38.429  22.118  26.275  1.00  0.00    -0.460 OA
BRANCH  37  38
ATOM     38  C   UNL A   1      39.775  22.142  26.421  1.00  0.00     0.338 C 
ATOM     39  O   UNL A   1      40.566  21.400  25.863  1.00  0.00    -0.246 OA
BRANCH  38  40
ATOM     40  C   UNL A   1      40.151  23.405  27.126  1.00  0.00     0.060 A 
ATOM     41  C   UNL A   1      39.341  24.531  26.914  1.00  0.00     0.016 A 
ATOM     42  C   UNL A   1      41.197  23.473  28.054  1.00  0.00     0.016 A 
ATOM     43  C   UNL A   1      39.617  25.737  27.562  1.00  0.00     0.010 A 
ATOM     44  C   UNL A   1      41.487  24.687  28.692  1.00  0.00     0.010 A 
ATOM     45  C   UNL A   1      40.733  25.840  28.403  1.00  0.00    -0.014 A 
BRANCH  45  46
ATOM     46  C   UNL A   1      41.279  27.191  28.699  1.00  0.00     0.031 A 
ATOM     47  C   UNL A   1      42.711  27.455  28.305  1.00  0.00     0.074 A 
ATOM     48  C   UNL A   1      40.533  28.180  29.227  1.00  0.00     0.049 A 
ATOM     49  N   UNL A   1      43.429  28.539  28.435  1.00  0.00    -0.248 NA
ATOM     50  C   UNL A   1      43.430  26.333  27.676  1.00  0.00     0.031 C 
ATOM     51  C   UNL A   1      39.126  28.075  29.607  1.00  0.00     0.029 A 
ATOM     52  N   UNL A   1      40.867  29.478  29.529  1.00  0.00    -0.354 N 
ATOM     53  C   UNL A   1      44.680  28.227  27.915  1.00  0.00     0.074 A 
ATOM     54  C   UNL A   1      44.638  26.842  27.505  1.00  0.00     0.031 C 
ATOM     55  C   UNL A   1      38.719  29.258  30.102  1.00  0.00     0.029 A 
ATOM     56  C   UNL A   1      39.842  30.198  30.096  1.00  0.00     0.049 A 
ATOM     57  H   UNL A   1      41.759  29.858  29.358  1.00  0.00     0.167 HD
ATOM     58  C   UNL A   1      45.767  29.022  27.774  1.00  0.00     0.037 A 
ATOM     59  C   UNL A   1      39.818  31.462  30.567  1.00  0.00     0.037 A 
ATOM     60  C   UNL A   1      45.809  30.400  28.182  1.00  0.00     0.049 A 
ATOM     61  C   UNL A   1      41.061  32.317  30.458  1.00  0.00     0.074 A 
ATOM     62  C   UNL A   1      46.860  31.295  28.081  1.00  0.00     0.029 A 
ATOM     63  N   UNL A   1      44.758  31.082  28.778  1.00  0.00    -0.354 N 
ATOM     64  N   UNL A   1      42.233  32.013  29.953  1.00  0.00    -0.248 NA
ATOM     65  C   UNL A   1      40.971  33.690  30.974  1.00  0.00     0.031 C 
ATOM     66  C   UNL A   1      46.463  32.500  28.668  1.00  0.00     0.029 A 
ATOM     67  C   UNL A   1      45.141  32.381  29.068  1.00  0.00     0.049 A 
ATOM     68  H   UNL A   1      43.871  30.699  28.967  1.00  0.00     0.167 HD
ATOM     69  C   UNL A   1      43.005  33.169  30.049  1.00  0.00     0.074 A 
ATOM     70  C   UNL A   1      42.163  34.178  30.658  1.00  0.00     0.031 C 
ATOM     71  C   UNL A   1      44.289  33.380  29.663  1.00  0.00     0.037 A 
BRANCH  58  72
ATOM     72  C   UNL A   1      47.007  28.403  27.187  1.00  0.00     0.058 A 
ATOM     73  C   UNL A   1      47.999  27.817  27.991  1.00  0.00     0.135 A 
ATOM     74  C   UNL A   1      47.201  28.392  25.797  1.00  0.00     0.135 A 
ATOM     75  F   UNL A   1      47.879  27.823  29.328  1.00  0.00    -0.206 F 
ATOM     76  C   UNL A   1      49.154  27.272  27.439  1.00  0.00     0.059 A 
ATOM     77  C   UNL A   1      48.333  27.822  25.221  1.00  0.00     0.059 A 
ATOM     78  F   UNL A   1      46.289  28.944  24.981  1.00  0.00    -0.206 F 
ATOM     79  C   UNL A   1      49.311  27.280  26.051  1.00  0.00     0.060 A 
BRANCH  79  80
ATOM     80  S   UNL A   1      50.815  26.570  25.351  1.00  0.00     0.124 S 
ATOM     81  O   UNL A   1      50.510  26.593  23.923  1.00  0.00    -0.237 OA
ATOM     82  O   UNL A   1      51.839  27.511  25.794  1.00  0.00    -0.237 OA
ATOM     83  O   UNL A   1      50.880  25.244  25.956  1.00  0.00    -0.744 OA
ENDBRANCH  79  80
ENDBRANCH  58  72
BRANCH  59  84
ATOM     84  C   UNL A   1      38.579  32.009  31.188  1.00  0.00     0.058 A 
ATOM     85  C   UNL A   1      37.706  32.842  30.471  1.00  0.00     0.135 A 
ATOM     86  C   UNL A   1      38.247  31.716  32.521  1.00  0.00     0.135 A 
ATOM     87  F   UNL A   1      37.984  33.169  29.200  1.00  0.00    -0.206 F 
ATOM     88  C   UNL A   1      36.560  33.376  31.055  1.00  0.00     0.059 A 
ATOM     89  C   UNL A   1      37.092  32.214  33.118  1.00  0.00     0.059 A 
ATOM     90  F   UNL A   1      39.045  30.922  33.253  1.00  0.00    -0.206 F 
ATOM     91  C   UNL A   1      36.258  33.051  32.378  1.00  0.00     0.060 A 
BRANCH  91  92
ATOM     92  S   UNL A   1      34.739  33.703  33.106  1.00  0.00     0.124 S 
ATOM     93  O   UNL A   1      34.994  33.524  34.530  1.00  0.00    -0.237 OA
ATOM     94  O   UNL A   1      34.738  35.081  32.625  1.00  0.00    -0.237 OA
ATOM     95  O   UNL A   1      33.700  32.849  32.538  1.00  0.00    -0.744 OA
ENDBRANCH  91  92
ENDBRANCH  59  84
BRANCH  71  96
ATOM     96  C   UNL A   1      44.849  34.772  29.820  1.00  0.00     0.058 A 
ATOM     97  C   UNL A   1      45.561  35.170  30.961  1.00  0.00     0.135 A 
ATOM     98  C   UNL A   1      44.697  35.711  28.785  1.00  0.00     0.135 A 
ATOM     99  F   UNL A   1      45.739  34.314  31.980  1.00  0.00    -0.206 F 
ATOM    100  C   UNL A   1      46.063  36.462  31.092  1.00  0.00     0.059 A 
ATOM    101  C   UNL A   1      45.221  36.997  28.879  1.00  0.00     0.059 A 
ATOM    102  F   UNL A   1      44.042  35.380  27.661  1.00  0.00    -0.206 F 
ATOM    103  C   UNL A   1      45.885  37.370  30.045  1.00  0.00     0.060 A 
BRANCH 103 104
ATOM    104  S   UNL A   1      46.539  39.042  30.226  1.00  0.00     0.124 S 
ATOM    105  O   UNL A   1      46.874  39.377  28.846  1.00  0.00    -0.237 OA
ATOM    106  O   UNL A   1      45.406  39.762  30.797  1.00  0.00    -0.237 OA
ATOM    107  O   UNL A   1      47.679  38.867  31.122  1.00  0.00    -0.744 OA
ENDBRANCH 103 104
ENDBRANCH  71  96
ENDBRANCH  45  46
ENDBRANCH  38  40
ENDBRANCH  37  38
ENDBRANCH  36  37
ENDBRANCH  35  36
ENDBRANCH  34  35
ENDBRANCH  33  34
ENDBRANCH   1  33
TORSDOF 24
ENDMDL
MODEL 2
REMARK VINA RESULT:     -10.7      5.808      9.083
REMARK SMILES CC(=O)c1ccc(N2/C(=[NH+]/C(=O)CCC(=O)OCCOCCOCCOC(=O)c3ccc(-c4c5nc(c(-c6c(F)cc(S(=O)(=O)[O-])cc6F)c6ccc([nH]6)c(-c6c(F)cc(S(=O)(=O)[O-])cc6F)c6nc(c(-c7c(F)cc(S(=O)(=O)[O-])cc7F)c7ccc4[nH]7)C=C6)C=C5)cc3)S[C@H]3CS(=O)(=O)C[C@@H]32)cc1
REMARK SMILES IDX 21 1 20 2 19 3 18 4 17 5 15 6 16 7 14 8 13 9 11 10 8 11 9 12
REMARK SMILES IDX 102 13 10 14 95 15 96 16 101 17 97 19 98 20 12 21 99 22
REMARK SMILES IDX 100 23 7 24 4 25 5 26 104 27 6 28 103 29 2 30 1 31 3 32
REMARK SMILES IDX 22 33 23 34 24 35 25 36 26 37 27 38 28 39 29 40 30 41 94 42
REMARK SMILES IDX 31 43 93 44 32 45 33 46 34 47 87 48 35 49 92 50 86 51 88 52
REMARK SMILES IDX 36 53 91 54 85 55 84 56 37 58 71 59 50 60 70 61 51 62 54 63
REMARK SMILES IDX 69 64 89 65 52 66 53 67 68 69 90 70 55 71 38 72 39 73 48 74
REMARK SMILES IDX 40 75 41 76 47 77 49 78 42 79 43 80 44 81 45 82 46 83 72 84
REMARK SMILES IDX 73 85 82 86 74 87 75 88 81 89 83 90 76 91 77 92 78 93 79 94
REMARK SMILES IDX 80 95 56 96 57 97 66 98 58 99 59 100 65 101 67 102 60 103
REMARK SMILES IDX 61 104 62 105 63 106 64 107
REMARK H PARENT 10 18 88 57 54 68
REMARK Flexibility Score: inf
ROOT
ATOM      1  C   UNL A   1      34.928  23.331  26.434  1.00  0.00     0.188 C 
ENDROOT
BRANCH   1   2
ATOM      2  O   UNL A   1      34.033  24.380  26.065  1.00  0.00    -0.376 OA
BRANCH   2   3
ATOM      3  C   UNL A   1      34.067  24.782  24.692  1.00  0.00     0.202 C 
BRANCH   3   4
ATOM      4  C   UNL A   1      33.871  26.285  24.483  1.00  0.00     0.261 C 
BRANCH   4   5
ATOM      5  O   UNL A   1      33.514  26.938  25.710  1.00  0.00    -0.463 OA
BRANCH   5   6
ATOM      6  C   UNL A   1      33.681  28.279  25.760  1.00  0.00     0.306 C 
ATOM      7  O   UNL A   1      33.033  29.085  25.104  1.00  0.00    -0.252 OA
BRANCH   6   8
ATOM      8  C   UNL A   1      34.688  28.705  26.809  1.00  0.00     0.135 C 
BRANCH   8   9
ATOM      9  C   UNL A   1      34.663  30.173  27.218  1.00  0.00     0.139 C 
BRANCH   9  10
ATOM     10  C   UNL A   1      35.549  30.400  28.421  1.00  0.00     0.308 C 
ATOM     11  N   UNL A   1      38.567  28.743  29.691  1.00  0.00    -0.217 N 
ATOM     12  C   UNL A   1      37.320  29.362  29.524  1.00  0.00     0.319 C 
ATOM     13  C   UNL A   1      38.987  28.623  31.088  1.00  0.00     0.212 C 
ATOM     14  N   UNL A   1      36.711  29.661  28.431  1.00  0.00    -0.204 N 
ATOM     15  S   UNL A   1      36.673  29.728  31.171  1.00  0.00    -0.029 SA
ATOM     16  C   UNL A   1      38.363  29.851  31.755  1.00  0.00     0.120 C 
ATOM     17  C   UNL A   1      40.458  28.735  31.432  1.00  0.00     0.188 C 
ATOM     18  H   UNL A   1      37.086  29.352  27.575  1.00  0.00     0.316 HD
ATOM     19  C   UNL A   1      38.698  29.776  33.214  1.00  0.00     0.156 C 
ATOM     20  S   UNL A   1      40.419  29.260  33.150  1.00  0.00     0.155 S 
ATOM     21  O   UNL A   1      35.266  31.307  29.203  1.00  0.00    -0.247 OA
ATOM     22  O   UNL A   1      41.260  30.436  33.280  1.00  0.00    -0.229 OA
ATOM     23  O   UNL A   1      40.579  28.099  33.992  1.00  0.00    -0.229 OA
BRANCH  11  24
ATOM     24  C   UNL A   1      39.454  28.296  28.704  1.00  0.00     0.128 A 
ATOM     25  C   UNL A   1      41.083  27.445  26.530  1.00  0.00     0.018 A 
ATOM     26  C   UNL A   1      41.072  28.784  26.938  1.00  0.00     0.016 A 
ATOM     27  C   UNL A   1      40.254  26.538  27.196  1.00  0.00     0.016 A 
ATOM     28  C   UNL A   1      40.255  29.203  27.997  1.00  0.00     0.052 A 
ATOM     29  C   UNL A   1      39.462  26.962  28.281  1.00  0.00     0.052 A 
BRANCH  25  30
ATOM     30  C   UNL A   1      41.988  27.059  25.403  1.00  0.00     0.159 C 
ATOM     31  C   UNL A   1      42.447  25.629  25.268  1.00  0.00     0.093 C 
ATOM     32  O   UNL A   1      42.318  27.906  24.575  1.00  0.00    -0.295 OA
ENDBRANCH  25  30
ENDBRANCH  11  24
ENDBRANCH   9  10
ENDBRANCH   8   9
ENDBRANCH   6   8
ENDBRANCH   5   6
ENDBRANCH   4   5
ENDBRANCH   3   4
ENDBRANCH   2   3
ENDBRANCH   1   2
BRANCH   1  33
ATOM     33  C   UNL A   1      36.231  23.320  25.639  1.00  0.00     0.188 C 
BRANCH  33  34
ATOM     34  O   UNL A   1      37.084  22.213  25.873  1.00  0.00    -0.376 OA
BRANCH  34  35
ATOM     35  C   UNL A   1      38.480  22.472  26.012  1.00  0.00     0.202 C 
BRANCH  35  36
ATOM     36  C   UNL A   1      39.473  21.296  26.167  1.00  0.00     0.261 C 
BRANCH  36  37
ATOM     37  O   UNL A   1      40.876  21.589  26.033  1.00  0.00    -0.460 OA
BRANCH  37  38
ATOM     38  C   UNL A   1      41.707  21.119  26.993  1.00  0.00     0.338 C 
ATOM     39  O   UNL A   1      42.098  19.969  27.098  1.00  0.00    -0.246 OA
BRANCH  38  40
ATOM     40  C   UNL A   1      42.303  22.286  27.711  1.00  0.00     0.060 A 
ATOM     41  C   UNL A   1      43.676  22.523  27.537  1.00  0.00     0.016 A 
ATOM     42  C   UNL A   1      41.536  23.194  28.452  1.00  0.00     0.016 A 
ATOM     43  C   UNL A   1      44.293  23.611  28.156  1.00  0.00     0.010 A 
ATOM     44  C   UNL A   1      42.157  24.277  29.089  1.00  0.00     0.010 A 
ATOM     45  C   UNL A   1      43.550  24.455  28.991  1.00  0.00    -0.014 A 
BRANCH  45  46
ATOM     46  C   UNL A   1      44.275  25.289  29.987  1.00  0.00     0.031 A 
ATOM     47  C   UNL A   1      44.533  26.729  29.619  1.00  0.00     0.074 A 
ATOM     48  C   UNL A   1      44.632  24.830  31.201  1.00  0.00     0.049 A 
ATOM     49  N   UNL A   1      45.128  27.673  30.300  1.00  0.00    -0.248 NA
ATOM     50  C   UNL A   1      44.050  27.159  28.295  1.00  0.00     0.031 C 
ATOM     51  C   UNL A   1      44.399  23.478  31.702  1.00  0.00     0.029 A 
ATOM     52  N   UNL A   1      45.269  25.468  32.239  1.00  0.00    -0.354 N 
ATOM     53  C   UNL A   1      45.099  28.800  29.485  1.00  0.00     0.074 A 
ATOM     54  C   UNL A   1      44.466  28.413  28.245  1.00  0.00     0.031 C 
ATOM     55  C   UNL A   1      44.896  23.384  32.950  1.00  0.00     0.029 A 
ATOM     56  C   UNL A   1      45.502  24.661  33.327  1.00  0.00     0.049 A 
ATOM     57  H   UNL A   1      45.535  26.415  32.205  1.00  0.00     0.167 HD
ATOM     58  C   UNL A   1      45.544  30.051  29.746  1.00  0.00     0.037 A 
ATOM     59  C   UNL A   1      46.143  24.922  34.486  1.00  0.00     0.037 A 
ATOM     60  C   UNL A   1      46.175  30.436  30.979  1.00  0.00     0.049 A 
ATOM     61  C   UNL A   1      46.690  26.309  34.735  1.00  0.00     0.074 A 
ATOM     62  C   UNL A   1      46.659  31.679  31.346  1.00  0.00     0.029 A 
ATOM     63  N   UNL A   1      46.418  29.581  32.044  1.00  0.00    -0.354 N 
ATOM     64  N   UNL A   1      46.644  27.369  33.962  1.00  0.00    -0.248 NA
ATOM     65  C   UNL A   1      47.365  26.538  36.021  1.00  0.00     0.031 C 
ATOM     66  C   UNL A   1      47.246  31.562  32.609  1.00  0.00     0.029 A 
ATOM     67  C   UNL A   1      47.063  30.265  33.061  1.00  0.00     0.049 A 
ATOM     68  H   UNL A   1      46.169  28.629  32.073  1.00  0.00     0.167 HD
ATOM     69  C   UNL A   1      47.243  28.399  34.684  1.00  0.00     0.074 A 
ATOM     70  C   UNL A   1      47.639  27.834  35.957  1.00  0.00     0.031 C 
ATOM     71  C   UNL A   1      47.441  29.694  34.331  1.00  0.00     0.037 A 
BRANCH  58  72
ATOM     72  C   UNL A   1      45.395  31.080  28.657  1.00  0.00     0.058 A 
ATOM     73  C   UNL A   1      44.231  31.855  28.518  1.00  0.00     0.135 A 
ATOM     74  C   UNL A   1      46.437  31.297  27.742  1.00  0.00     0.135 A 
ATOM     75  F   UNL A   1      43.193  31.672  29.350  1.00  0.00    -0.206 F 
ATOM     76  C   UNL A   1      44.094  32.784  27.491  1.00  0.00     0.059 A 
ATOM     77  C   UNL A   1      46.335  32.244  26.727  1.00  0.00     0.059 A 
ATOM     78  F   UNL A   1      47.569  30.579  27.822  1.00  0.00    -0.206 F 
ATOM     79  C   UNL A   1      45.153  32.970  26.601  1.00  0.00     0.060 A 
BRANCH  79  80
ATOM     80  S   UNL A   1      44.959  34.178  25.274  1.00  0.00     0.124 S 
ATOM     81  O   UNL A   1      44.368  33.359  24.219  1.00  0.00    -0.237 OA
ATOM     82  O   UNL A   1      44.072  35.166  25.879  1.00  0.00    -0.237 OA
ATOM     83  O   UNL A   1      46.323  34.632  25.024  1.00  0.00    -0.744 OA
ENDBRANCH  79  80
ENDBRANCH  58  72
BRANCH  59  84
ATOM     84  C   UNL A   1      46.311  23.850  35.508  1.00  0.00     0.058 A 
ATOM     85  C   UNL A   1      45.406  23.705  36.571  1.00  0.00     0.135 A 
ATOM     86  C   UNL A   1      47.390  22.954  35.448  1.00  0.00     0.135 A 
ATOM     87  F   UNL A   1      44.367  24.546  36.688  1.00  0.00    -0.206 F 
ATOM     88  C   UNL A   1      45.572  22.722  37.544  1.00  0.00     0.059 A 
ATOM     89  C   UNL A   1      47.561  21.944  36.391  1.00  0.00     0.059 A 
ATOM     90  F   UNL A   1      48.285  23.045  34.450  1.00  0.00    -0.206 F 
ATOM     91  C   UNL A   1      46.650  21.842  37.441  1.00  0.00     0.060 A 
BRANCH  91  92
ATOM     92  S   UNL A   1      46.822  20.535  38.676  1.00  0.00     0.124 S 
ATOM     93  O   UNL A   1      48.159  20.030  38.387  1.00  0.00    -0.237 OA
ATOM     94  O   UNL A   1      46.675  21.275  39.925  1.00  0.00    -0.237 OA
ATOM     95  O   UNL A   1      45.722  19.628  38.361  1.00  0.00    -0.744 OA
ENDBRANCH  91  92
ENDBRANCH  59  84
BRANCH  71  96
ATOM     96  C   UNL A   1      48.052  30.615  35.357  1.00  0.00     0.058 A 
ATOM     97  C   UNL A   1      47.275  31.325  36.285  1.00  0.00     0.135 A 
ATOM     98  C   UNL A   1      49.449  30.757  35.431  1.00  0.00     0.135 A 
ATOM     99  F   UNL A   1      45.937  31.225  36.264  1.00  0.00    -0.206 F 
ATOM    100  C   UNL A   1      47.857  32.177  37.220  1.00  0.00     0.059 A 
ATOM    101  C   UNL A   1      50.053  31.576  36.380  1.00  0.00     0.059 A 
ATOM    102  F   UNL A   1      50.243  30.088  34.581  1.00  0.00    -0.206 F 
ATOM    103  C   UNL A   1      49.248  32.298  37.257  1.00  0.00     0.060 A 
BRANCH 103 104
ATOM    104  S   UNL A   1      49.991  33.407  38.472  1.00  0.00     0.124 S 
ATOM    105  O   UNL A   1      49.634  34.715  37.933  1.00  0.00    -0.237 OA
ATOM    106  O   UNL A   1      49.311  33.021  39.704  1.00  0.00    -0.237 OA
ATOM    107  O   UNL A   1      51.411  33.072  38.415  1.00  0.00    -0.744 OA
ENDBRANCH 103 104
ENDBRANCH  71  96
ENDBRANCH  45  46
ENDBRANCH  38  40
ENDBRANCH  37  38
ENDBRANCH  36  37
ENDBRANCH  35  36
ENDBRANCH  34  35
ENDBRANCH  33  34
ENDBRANCH   1  33
TORSDOF 24
ENDMDL
MODEL 3
REMARK VINA RESULT:     -10.4      0.778      7.823
REMARK SMILES CC(=O)c1ccc(N2/C(=[NH+]/C(=O)CCC(=O)OCCOCCOCCOC(=O)c3ccc(-c4c5nc(c(-c6c(F)cc(S(=O)(=O)[O-])cc6F)c6ccc([nH]6)c(-c6c(F)cc(S(=O)(=O)[O-])cc6F)c6nc(c(-c7c(F)cc(S(=O)(=O)[O-])cc7F)c7ccc4[nH]7)C=C6)C=C5)cc3)S[C@H]3CS(=O)(=O)C[C@@H]32)cc1
REMARK SMILES IDX 21 1 20 2 19 3 18 4 17 5 15 6 16 7 14 8 13 9 11 10 8 11 9 12
REMARK SMILES IDX 102 13 10 14 95 15 96 16 101 17 97 19 98 20 12 21 99 22
REMARK SMILES IDX 100 23 7 24 4 25 5 26 104 27 6 28 103 29 2 30 1 31 3 32
REMARK SMILES IDX 22 33 23 34 24 35 25 36 26 37 27 38 28 39 29 40 30 41 94 42
REMARK SMILES IDX 31 43 93 44 32 45 33 46 34 47 87 48 35 49 92 50 86 51 88 52
REMARK SMILES IDX 36 53 91 54 85 55 84 56 37 58 71 59 50 60 70 61 51 62 54 63
REMARK SMILES IDX 69 64 89 65 52 66 53 67 68 69 90 70 55 71 38 72 39 73 48 74
REMARK SMILES IDX 40 75 41 76 47 77 49 78 42 79 43 80 44 81 45 82 46 83 72 84
REMARK SMILES IDX 73 85 82 86 74 87 75 88 81 89 83 90 76 91 77 92 78 93 79 94
REMARK SMILES IDX 80 95 56 96 57 97 66 98 58 99 59 100 65 101 67 102 60 103
REMARK SMILES IDX 61 104 62 105 63 106 64 107
REMARK H PARENT 10 18 88 57 54 68
REMARK Flexibility Score: inf
ROOT
ATOM      1  C   UNL A   1      33.587  21.024  26.396  1.00  0.00     0.188 C 
ENDROOT
BRANCH   1   2
ATOM      2  O   UNL A   1      33.396  21.818  27.567  1.00  0.00    -0.376 OA
BRANCH   2   3
ATOM      3  C   UNL A   1      32.513  22.936  27.431  1.00  0.00     0.202 C 
BRANCH   3   4
ATOM      4  C   UNL A   1      31.628  22.877  26.184  1.00  0.00     0.261 C 
BRANCH   4   5
ATOM      5  O   UNL A   1      31.902  23.974  25.301  1.00  0.00    -0.463 OA
BRANCH   5   6
ATOM      6  C   UNL A   1      31.766  23.742  23.976  1.00  0.00     0.306 C 
ATOM      7  O   UNL A   1      30.692  23.675  23.390  1.00  0.00    -0.252 OA
BRANCH   6   8
ATOM      8  C   UNL A   1      33.094  23.682  23.250  1.00  0.00     0.135 C 
BRANCH   8   9
ATOM      9  C   UNL A   1      33.817  25.008  23.045  1.00  0.00     0.139 C 
BRANCH   9  10
ATOM     10  C   UNL A   1      32.847  26.071  22.584  1.00  0.00     0.308 C 
ATOM     11  N   UNL A   1      31.269  28.944  24.236  1.00  0.00    -0.217 N 
ATOM     12  C   UNL A   1      31.564  27.795  23.488  1.00  0.00     0.319 C 
ATOM     13  C   UNL A   1      29.958  29.524  23.937  1.00  0.00     0.212 C 
ATOM     14  N   UNL A   1      32.646  27.097  23.480  1.00  0.00    -0.204 N 
ATOM     15  S   UNL A   1      30.128  27.439  22.453  1.00  0.00    -0.029 SA
ATOM     16  C   UNL A   1      29.750  29.190  22.458  1.00  0.00     0.120 C 
ATOM     17  C   UNL A   1      29.783  31.028  23.995  1.00  0.00     0.188 C 
ATOM     18  H   UNL A   1      33.352  27.303  24.135  1.00  0.00     0.316 HD
ATOM     19  C   UNL A   1      28.392  29.703  22.080  1.00  0.00     0.156 C 
ATOM     20  S   UNL A   1      28.382  31.300  22.904  1.00  0.00     0.155 S 
ATOM     21  O   UNL A   1      32.436  26.038  21.425  1.00  0.00    -0.247 OA
ATOM     22  O   UNL A   1      28.753  32.320  21.941  1.00  0.00    -0.229 OA
ATOM     23  O   UNL A   1      27.185  31.393  23.705  1.00  0.00    -0.229 OA
BRANCH  11  24
ATOM     24  C   UNL A   1      32.080  29.611  25.161  1.00  0.00     0.128 A 
ATOM     25  C   UNL A   1      33.689  30.781  27.198  1.00  0.00     0.018 A 
ATOM     26  C   UNL A   1      34.231  29.858  26.296  1.00  0.00     0.016 A 
ATOM     27  C   UNL A   1      32.332  31.095  27.095  1.00  0.00     0.016 A 
ATOM     28  C   UNL A   1      33.432  29.270  25.306  1.00  0.00     0.052 A 
ATOM     29  C   UNL A   1      31.544  30.526  26.075  1.00  0.00     0.052 A 
BRANCH  25  30
ATOM     30  C   UNL A   1      34.599  31.383  28.222  1.00  0.00     0.159 C 
ATOM     31  C   UNL A   1      34.513  32.858  28.523  1.00  0.00     0.093 C 
ATOM     32  O   UNL A   1      35.381  30.660  28.836  1.00  0.00    -0.295 OA
ENDBRANCH  25  30
ENDBRANCH  11  24
ENDBRANCH   9  10
ENDBRANCH   8   9
ENDBRANCH   6   8
ENDBRANCH   5   6
ENDBRANCH   4   5
ENDBRANCH   3   4
ENDBRANCH   2   3
ENDBRANCH   1   2
BRANCH   1  33
ATOM     33  C   UNL A   1      34.794  21.437  25.557  1.00  0.00     0.188 C 
BRANCH  33  34
ATOM     34  O   UNL A   1      35.503  20.378  24.939  1.00  0.00    -0.376 OA
BRANCH  34  35
ATOM     35  C   UNL A   1      36.928  20.460  24.919  1.00  0.00     0.202 C 
BRANCH  35  36
ATOM     36  C   UNL A   1      37.622  21.843  24.903  1.00  0.00     0.261 C 
BRANCH  36  37
ATOM     37  O   UNL A   1      38.140  22.340  26.151  1.00  0.00    -0.460 OA
BRANCH  37  38
ATOM     38  C   UNL A   1      39.473  22.232  26.362  1.00  0.00     0.338 C 
ATOM     39  O   UNL A   1      40.194  21.348  25.933  1.00  0.00    -0.246 OA
BRANCH  38  40
ATOM     40  C   UNL A   1      39.964  23.520  26.940  1.00  0.00     0.060 A 
ATOM     41  C   UNL A   1      39.712  24.695  26.214  1.00  0.00     0.016 A 
ATOM     42  C   UNL A   1      40.559  23.606  28.205  1.00  0.00     0.016 A 
ATOM     43  C   UNL A   1      40.118  25.936  26.708  1.00  0.00     0.010 A 
ATOM     44  C   UNL A   1      40.984  24.849  28.694  1.00  0.00     0.010 A 
ATOM     45  C   UNL A   1      40.817  26.012  27.919  1.00  0.00    -0.014 A 
BRANCH  45  46
ATOM     46  C   UNL A   1      41.635  27.224  28.194  1.00  0.00     0.031 A 
ATOM     47  C   UNL A   1      40.940  28.384  28.864  1.00  0.00     0.074 A 
ATOM     48  C   UNL A   1      42.954  27.288  27.937  1.00  0.00     0.049 A 
ATOM     49  N   UNL A   1      41.413  29.547  29.226  1.00  0.00    -0.248 NA
ATOM     50  C   UNL A   1      39.509  28.199  29.166  1.00  0.00     0.031 C 
ATOM     51  C   UNL A   1      43.757  26.224  27.339  1.00  0.00     0.029 A 
ATOM     52  N   UNL A   1      43.853  28.305  28.156  1.00  0.00    -0.354 N 
ATOM     53  C   UNL A   1      40.340  30.232  29.786  1.00  0.00     0.074 A 
ATOM     54  C   UNL A   1      39.183  29.373  29.680  1.00  0.00     0.031 C 
ATOM     55  C   UNL A   1      45.030  26.648  27.230  1.00  0.00     0.029 A 
ATOM     56  C   UNL A   1      45.128  28.021  27.728  1.00  0.00     0.049 A 
ATOM     57  H   UNL A   1      43.605  29.158  28.579  1.00  0.00     0.167 HD
ATOM     58  C   UNL A   1      40.317  31.461  30.354  1.00  0.00     0.037 A 
ATOM     59  C   UNL A   1      46.239  28.787  27.726  1.00  0.00     0.037 A 
ATOM     60  C   UNL A   1      41.467  32.316  30.460  1.00  0.00     0.049 A 
ATOM     61  C   UNL A   1      46.180  30.181  28.308  1.00  0.00     0.074 A 
ATOM     62  C   UNL A   1      41.551  33.578  31.020  1.00  0.00     0.029 A 
ATOM     63  N   UNL A   1      42.733  32.002  29.987  1.00  0.00    -0.354 N 
ATOM     64  N   UNL A   1      45.162  30.811  28.846  1.00  0.00    -0.248 NA
ATOM     65  C   UNL A   1      47.425  30.962  28.293  1.00  0.00     0.031 C 
ATOM     66  C   UNL A   1      42.854  34.051  30.835  1.00  0.00     0.029 A 
ATOM     67  C   UNL A   1      43.601  33.055  30.226  1.00  0.00     0.049 A 
ATOM     68  H   UNL A   1      42.978  31.156  29.548  1.00  0.00     0.167 HD
ATOM     69  C   UNL A   1      45.654  32.043  29.272  1.00  0.00     0.074 A 
ATOM     70  C   UNL A   1      47.062  32.066  28.932  1.00  0.00     0.031 C 
ATOM     71  C   UNL A   1      45.004  33.060  29.894  1.00  0.00     0.037 A 
BRANCH  58  72
ATOM     72  C   UNL A   1      38.993  31.961  30.868  1.00  0.00     0.058 A 
ATOM     73  C   UNL A   1      38.201  32.860  30.135  1.00  0.00     0.135 A 
ATOM     74  C   UNL A   1      38.510  31.529  32.113  1.00  0.00     0.135 A 
ATOM     75  F   UNL A   1      38.625  33.326  28.950  1.00  0.00    -0.206 F 
ATOM     76  C   UNL A   1      36.992  33.337  30.632  1.00  0.00     0.059 A 
ATOM     77  C   UNL A   1      37.288  31.967  32.616  1.00  0.00     0.059 A 
ATOM     78  F   UNL A   1      39.229  30.677  32.861  1.00  0.00    -0.206 F 
ATOM     79  C   UNL A   1      36.544  32.883  31.875  1.00  0.00     0.060 A 
BRANCH  79  80
ATOM     80  S   UNL A   1      34.976  33.512  32.507  1.00  0.00     0.124 S 
ATOM     81  O   UNL A   1      34.904  34.819  31.862  1.00  0.00    -0.237 OA
ATOM     82  O   UNL A   1      34.024  32.515  32.024  1.00  0.00    -0.237 OA
ATOM     83  O   UNL A   1      35.175  33.537  33.952  1.00  0.00    -0.744 OA
ENDBRANCH  79  80
ENDBRANCH  58  72
BRANCH  59  84
ATOM     84  C   UNL A   1      47.512  28.261  27.155  1.00  0.00     0.058 A 
ATOM     85  C   UNL A   1      47.765  28.298  25.775  1.00  0.00     0.135 A 
ATOM     86  C   UNL A   1      48.498  27.698  27.981  1.00  0.00     0.135 A 
ATOM     87  F   UNL A   1      46.849  28.809  24.938  1.00  0.00    -0.206 F 
ATOM     88  C   UNL A   1      48.941  27.785  25.233  1.00  0.00     0.059 A 
ATOM     89  C   UNL A   1      49.694  27.205  27.466  1.00  0.00     0.059 A 
ATOM     90  F   UNL A   1      48.309  27.639  29.309  1.00  0.00    -0.206 F 
ATOM     91  C   UNL A   1      49.903  27.246  26.089  1.00  0.00     0.060 A 
BRANCH  91  92
ATOM     92  S   UNL A   1      51.449  26.636  25.380  1.00  0.00     0.124 S 
ATOM     93  O   UNL A   1      51.154  26.674  23.953  1.00  0.00    -0.237 OA
ATOM     94  O   UNL A   1      52.413  27.620  25.860  1.00  0.00    -0.237 OA
ATOM     95  O   UNL A   1      51.582  25.304  25.962  1.00  0.00    -0.744 OA
ENDBRANCH  91  92
ENDBRANCH  59  84
BRANCH  71  96
ATOM     96  C   UNL A   1      45.817  34.258  30.314  1.00  0.00     0.058 A 
ATOM     97  C   UNL A   1      45.954  35.394  29.502  1.00  0.00     0.135 A 
ATOM     98  C   UNL A   1      46.440  34.279  31.574  1.00  0.00     0.135 A 
ATOM     99  F   UNL A   1      45.378  35.433  28.290  1.00  0.00    -0.206 F 
ATOM    100  C   UNL A   1      46.715  36.489  29.904  1.00  0.00     0.059 A 
ATOM    101  C   UNL A   1      47.177  35.375  32.010  1.00  0.00     0.059 A 
ATOM    102  F   UNL A   1      46.328  33.227  32.401  1.00  0.00    -0.206 F 
ATOM    103  C   UNL A   1      47.326  36.468  31.159  1.00  0.00     0.060 A 
BRANCH 103 104
ATOM    104  S   UNL A   1      48.312  37.891  31.669  1.00  0.00     0.124 S 
ATOM    105  O   UNL A   1      49.049  38.191  30.447  1.00  0.00    -0.237 OA
ATOM    106  O   UNL A   1      47.290  38.861  32.048  1.00  0.00    -0.237 OA
ATOM    107  O   UNL A   1      49.115  37.372  32.773  1.00  0.00    -0.744 OA
ENDBRANCH 103 104
ENDBRANCH  71  96
ENDBRANCH  45  46
ENDBRANCH  38  40
ENDBRANCH  37  38
ENDBRANCH  36  37
ENDBRANCH  35  36
ENDBRANCH  34  35
ENDBRANCH  33  34
ENDBRANCH   1  33
TORSDOF 24
ENDMDL
