MODEL 1
REMARK VINA RESULT:     -10.1      0.000      0.000
REMARK SMILES C[C@]1(O)CC[C@H]2[C@H]3CCC4=C/C(=N\OCC(=O)N[C@@H](CO)C(=O)OCCOCCOCCOC(=O)c5ccc(-c6c7nc(c(-c8c(F)cc(S(=O)(=O)[O-])cc8F)c8ccc([nH]8)c(-c8c(F)cc(S(=O)(=O)[O-])cc8F)c8nc(c(-c9c(F)cc(S(=O)(=O)[O-])cc9F)c9ccc6[nH]9)C=C8)C=C7)cc5)CC[C@@]4(C)[C@@H]3CC[C@]21C
REMARK SMILES IDX 28 1 27 2 26 3 25 4 24 5 22 6 23 7 19 8 18 9 16 10 17 11
REMARK SMILES IDX 15 13 14 14 13 15 105 16 104 17 103 18 10 19 106 20 102 21
REMARK SMILES IDX 11 22 9 23 7 24 107 25 12 26 8 27 6 28 108 29 109 30 5 31
REMARK SMILES IDX 2 32 110 33 4 34 1 35 3 36 20 38 21 39 29 41 30 42 31 43
REMARK SMILES IDX 32 44 33 45 34 46 35 47 36 48 37 49 101 50 38 51 100 52
REMARK SMILES IDX 39 53 40 54 41 55 94 56 42 57 99 58 93 59 95 60 43 61 98 62
REMARK SMILES IDX 92 63 91 64 44 66 78 67 57 68 77 69 58 70 61 71 76 72 96 73
REMARK SMILES IDX 59 74 60 75 75 77 97 78 62 79 45 80 46 81 55 82 47 83 48 84
REMARK SMILES IDX 54 85 56 86 49 87 50 88 51 89 52 90 53 91 79 92 80 93 89 94
REMARK SMILES IDX 81 95 82 96 88 97 90 98 83 99 84 100 85 101 86 102 87 103
REMARK SMILES IDX 63 104 64 105 73 106 65 107 66 108 72 109 74 110 67 111
REMARK SMILES IDX 68 112 69 113 70 114 71 115
REMARK H PARENT 18 12 3 37 21 40 95 65 61 76
REMARK Flexibility Score: inf
ROOT
ATOM      1  C   UNL A   1      37.729  21.606  25.126  1.00  0.00     0.188 C 
ENDROOT
BRANCH   1   2
ATOM      2  O   UNL A   1      37.396  22.908  24.675  1.00  0.00    -0.376 OA
BRANCH   2   3
ATOM      3  C   UNL A   1      36.041  23.334  24.739  1.00  0.00     0.202 C 
BRANCH   3   4
ATOM      4  C   UNL A   1      35.414  24.132  23.586  1.00  0.00     0.261 C 
BRANCH   4   5
ATOM      5  O   UNL A   1      34.768  25.355  23.984  1.00  0.00    -0.462 OA
BRANCH   5   6
ATOM      6  C   UNL A   1      33.893  25.870  23.076  1.00  0.00     0.331 C 
ATOM      7  O   UNL A   1      33.640  25.361  21.989  1.00  0.00    -0.250 OA
BRANCH   6   8
ATOM      8  C   UNL A   1      33.200  27.151  23.554  1.00  0.00     0.218 C 
BRANCH   8   9
ATOM      9  N   UNL A   1      33.915  27.980  24.534  1.00  0.00    -0.338 N 
ATOM     10  C   UNL A   1      33.568  28.208  25.837  1.00  0.00     0.261 C 
ATOM     11  O   UNL A   1      34.234  29.014  26.490  1.00  0.00    -0.271 OA
ATOM     12  H   UNL A   1      34.738  28.420  24.217  1.00  0.00     0.164 HD
BRANCH  10  13
ATOM     13  C   UNL A   1      32.477  27.366  26.502  1.00  0.00     0.363 C 
BRANCH  13  14
ATOM     14  O   UNL A   1      32.584  25.942  26.444  1.00  0.00    -0.385 OA
BRANCH  14  15
ATOM     15  N   UNL A   1      31.394  25.375  26.900  1.00  0.00    -0.091 NA
ATOM     16  C   UNL A   1      33.151  22.953  25.650  1.00  0.00     0.016 C 
ATOM     17  C   UNL A   1      31.722  22.394  25.337  1.00  0.00    -0.008 C 
ATOM     18  C   UNL A   1      30.718  22.471  26.559  1.00  0.00     0.018 C 
ATOM     19  C   UNL A   1      31.263  23.283  24.184  1.00  0.00    -0.062 C 
ATOM     20  C   UNL A   1      31.866  20.896  25.041  1.00  0.00     0.002 C 
ATOM     21  C   UNL A   1      29.803  23.690  26.565  1.00  0.00     0.061 C 
ATOM     22  C   UNL A   1      30.893  24.548  24.516  1.00  0.00     0.027 C 
ATOM     23  C   UNL A   1      31.486  22.808  22.759  1.00  0.00     0.032 C 
ATOM     24  C   UNL A   1      32.618  20.707  23.724  1.00  0.00    -0.003 C 
ATOM     25  C   UNL A   1      32.465  20.216  26.305  1.00  0.00     0.005 C 
ATOM     26  C   UNL A   1      30.712  24.738  26.001  1.00  0.00     0.080 C 
ATOM     27  C   UNL A   1      31.806  21.302  22.562  1.00  0.00     0.008 C 
ATOM     28  C   UNL A   1      33.055  19.266  23.573  1.00  0.00     0.001 C 
ATOM     29  C   UNL A   1      32.993  18.831  26.107  1.00  0.00     0.010 C 
ATOM     30  C   UNL A   1      33.816  18.751  24.831  1.00  0.00    -0.001 C 
ATOM     31  C   UNL A   1      31.998  18.180  23.346  1.00  0.00     0.007 C 
ATOM     32  C   UNL A   1      33.986  17.272  24.454  1.00  0.00     0.068 C 
ATOM     33  C   UNL A   1      35.130  19.529  25.044  1.00  0.00     0.015 C 
ATOM     34  C   UNL A   1      32.616  16.873  23.882  1.00  0.00     0.036 C 
ATOM     35  C   UNL A   1      35.007  17.206  23.375  1.00  0.00     0.042 C 
BRANCH  32  36
ATOM     36  O   UNL A   1      34.361  16.455  25.543  1.00  0.00    -0.390 OA
ATOM     37  H   UNL A   1      33.679  16.501  26.232  1.00  0.00     0.211 HD
ENDBRANCH  32  36
ENDBRANCH  14  15
ENDBRANCH  13  14
ENDBRANCH  10  13
ENDBRANCH   8   9
BRANCH   8  38
ATOM     38  C   UNL A   1      32.904  27.978  22.294  1.00  0.00     0.193 C 
BRANCH  38  39
ATOM     39  O   UNL A   1      34.105  28.154  21.532  1.00  0.00    -0.394 OA
ATOM     40  H   UNL A   1      34.816  27.626  21.925  1.00  0.00     0.210 HD
ENDBRANCH  38  39
ENDBRANCH   8  38
ENDBRANCH   6   8
ENDBRANCH   5   6
ENDBRANCH   4   5
ENDBRANCH   3   4
ENDBRANCH   2   3
ENDBRANCH   1   2
BRANCH   1  41
ATOM     41  C   UNL A   1      39.109  21.358  25.767  1.00  0.00     0.188 C 
BRANCH  41  42
ATOM     42  O   UNL A   1      39.568  22.347  26.657  1.00  0.00    -0.376 OA
BRANCH  42  43
ATOM     43  C   UNL A   1      40.813  22.169  27.322  1.00  0.00     0.202 C 
BRANCH  43  44
ATOM     44  C   UNL A   1      42.080  23.043  27.147  1.00  0.00     0.261 C 
BRANCH  44  45
ATOM     45  O   UNL A   1      41.955  24.320  26.508  1.00  0.00    -0.460 OA
BRANCH  45  46
ATOM     46  C   UNL A   1      43.026  25.150  26.602  1.00  0.00     0.338 C 
ATOM     47  O   UNL A   1      44.081  25.067  25.990  1.00  0.00    -0.246 OA
BRANCH  46  48
ATOM     48  C   UNL A   1      42.702  26.247  27.538  1.00  0.00     0.060 A 
ATOM     49  C   UNL A   1      43.266  27.506  27.356  1.00  0.00     0.016 A 
ATOM     50  C   UNL A   1      41.868  26.028  28.634  1.00  0.00     0.016 A 
ATOM     51  C   UNL A   1      42.955  28.554  28.228  1.00  0.00     0.010 A 
ATOM     52  C   UNL A   1      41.601  27.077  29.540  1.00  0.00     0.010 A 
ATOM     53  C   UNL A   1      42.162  28.358  29.371  1.00  0.00    -0.014 A 
BRANCH  53  54
ATOM     54  C   UNL A   1      42.113  29.394  30.483  1.00  0.00     0.031 A 
ATOM     55  C   UNL A   1      40.842  30.294  30.529  1.00  0.00     0.074 A 
ATOM     56  C   UNL A   1      42.969  29.355  31.549  1.00  0.00     0.049 A 
ATOM     57  N   UNL A   1      40.475  31.210  31.396  1.00  0.00    -0.248 NA
ATOM     58  C   UNL A   1      39.790  30.022  29.529  1.00  0.00     0.031 C 
ATOM     59  C   UNL A   1      43.943  28.285  31.804  1.00  0.00     0.029 A 
ATOM     60  N   UNL A   1      43.045  30.114  32.718  1.00  0.00    -0.354 N 
ATOM     61  C   UNL A   1      39.159  31.581  31.095  1.00  0.00     0.074 A 
ATOM     62  C   UNL A   1      38.816  30.851  29.890  1.00  0.00     0.031 C 
ATOM     63  C   UNL A   1      44.357  28.345  33.088  1.00  0.00     0.029 A 
ATOM     64  C   UNL A   1      43.749  29.503  33.757  1.00  0.00     0.049 A 
ATOM     65  H   UNL A   1      42.637  31.006  32.802  1.00  0.00     0.167 HD
ATOM     66  C   UNL A   1      38.285  32.394  31.763  1.00  0.00     0.037 A 
ATOM     67  C   UNL A   1      43.807  29.752  35.102  1.00  0.00     0.037 A 
ATOM     68  C   UNL A   1      38.522  33.029  33.050  1.00  0.00     0.049 A 
ATOM     69  C   UNL A   1      42.921  30.841  35.743  1.00  0.00     0.074 A 
ATOM     70  C   UNL A   1      37.956  34.171  33.605  1.00  0.00     0.029 A 
ATOM     71  N   UNL A   1      39.213  32.466  34.104  1.00  0.00    -0.354 N 
ATOM     72  N   UNL A   1      41.887  31.485  35.249  1.00  0.00    -0.248 NA
ATOM     73  C   UNL A   1      43.186  31.192  37.150  1.00  0.00     0.031 C 
ATOM     74  C   UNL A   1      38.535  34.394  34.872  1.00  0.00     0.029 A 
ATOM     75  C   UNL A   1      39.422  33.364  35.130  1.00  0.00     0.049 A 
ATOM     76  H   UNL A   1      39.521  31.531  34.122  1.00  0.00     0.167 HD
ATOM     77  C   UNL A   1      41.343  32.258  36.279  1.00  0.00     0.074 A 
ATOM     78  C   UNL A   1      42.172  31.999  37.440  1.00  0.00     0.031 C 
ATOM     79  C   UNL A   1      40.272  33.106  36.275  1.00  0.00     0.037 A 
BRANCH  66  80
ATOM     80  C   UNL A   1      37.068  32.857  31.000  1.00  0.00     0.058 A 
ATOM     81  C   UNL A   1      35.752  32.452  31.261  1.00  0.00     0.135 A 
ATOM     82  C   UNL A   1      37.264  33.814  29.987  1.00  0.00     0.135 A 
ATOM     83  F   UNL A   1      35.505  31.507  32.183  1.00  0.00    -0.206 F 
ATOM     84  C   UNL A   1      34.673  32.988  30.549  1.00  0.00     0.059 A 
ATOM     85  C   UNL A   1      36.207  34.382  29.290  1.00  0.00     0.059 A 
ATOM     86  F   UNL A   1      38.506  34.226  29.682  1.00  0.00    -0.206 F 
ATOM     87  C   UNL A   1      34.913  33.957  29.570  1.00  0.00     0.060 A 
BRANCH  87  88
ATOM     88  S   UNL A   1      33.526  34.660  28.650  1.00  0.00     0.124 S 
ATOM     89  O   UNL A   1      32.562  34.904  29.720  1.00  0.00    -0.237 OA
ATOM     90  O   UNL A   1      34.118  35.848  28.046  1.00  0.00    -0.237 OA
ATOM     91  O   UNL A   1      33.164  33.599  27.715  1.00  0.00    -0.744 OA
ENDBRANCH  87  88
ENDBRANCH  66  80
BRANCH  67  92
ATOM     92  C   UNL A   1      44.667  28.897  36.020  1.00  0.00     0.058 A 
ATOM     93  C   UNL A   1      46.050  29.113  36.197  1.00  0.00     0.135 A 
ATOM     94  C   UNL A   1      44.136  27.775  36.678  1.00  0.00     0.135 A 
ATOM     95  F   UNL A   1      46.661  30.121  35.564  1.00  0.00    -0.206 F 
ATOM     96  C   UNL A   1      46.862  28.264  36.957  1.00  0.00     0.059 A 
ATOM     97  C   UNL A   1      44.920  26.922  37.462  1.00  0.00     0.059 A 
ATOM     98  F   UNL A   1      42.833  27.483  36.557  1.00  0.00    -0.206 F 
ATOM     99  C   UNL A   1      46.286  27.163  37.581  1.00  0.00     0.060 A 
BRANCH  99 100
ATOM    100  S   UNL A   1      47.339  26.048  38.541  1.00  0.00     0.124 S 
ATOM    101  O   UNL A   1      47.159  26.562  39.894  1.00  0.00    -0.237 OA
ATOM    102  O   UNL A   1      46.739  24.745  38.267  1.00  0.00    -0.237 OA
ATOM    103  O   UNL A   1      48.662  26.254  37.958  1.00  0.00    -0.744 OA
ENDBRANCH  99 100
ENDBRANCH  67  92
BRANCH  79 104
ATOM    104  C   UNL A   1      40.037  33.945  37.507  1.00  0.00     0.058 A 
ATOM    105  C   UNL A   1      40.702  35.174  37.667  1.00  0.00     0.135 A 
ATOM    106  C   UNL A   1      39.085  33.594  38.479  1.00  0.00     0.135 A 
ATOM    107  F   UNL A   1      41.609  35.573  36.762  1.00  0.00    -0.206 F 
ATOM    108  C   UNL A   1      40.461  36.004  38.754  1.00  0.00     0.059 A 
ATOM    109  C   UNL A   1      38.808  34.425  39.566  1.00  0.00     0.059 A 
ATOM    110  F   UNL A   1      38.403  32.442  38.373  1.00  0.00    -0.206 F 
ATOM    111  C   UNL A   1      39.508  35.624  39.699  1.00  0.00     0.060 A 
BRANCH 111 112
ATOM    112  S   UNL A   1      39.179  36.748  41.075  1.00  0.00     0.124 S 
ATOM    113  O   UNL A   1      38.411  35.895  41.977  1.00  0.00    -0.237 OA
ATOM    114  O   UNL A   1      40.525  37.090  41.524  1.00  0.00    -0.237 OA
ATOM    115  O   UNL A   1      38.434  37.839  40.456  1.00  0.00    -0.744 OA
ENDBRANCH 111 112
ENDBRANCH  79 104
ENDBRANCH  53  54
ENDBRANCH  46  48
ENDBRANCH  45  46
ENDBRANCH  44  45
ENDBRANCH  43  44
ENDBRANCH  42  43
ENDBRANCH  41  42
ENDBRANCH   1  41
TORSDOF 27
ENDMDL
MODEL 2
REMARK VINA RESULT:      -9.5      8.198     11.787
REMARK SMILES C[C@]1(O)CC[C@H]2[C@H]3CCC4=C/C(=N\OCC(=O)N[C@@H](CO)C(=O)OCCOCCOCCOC(=O)c5ccc(-c6c7nc(c(-c8c(F)cc(S(=O)(=O)[O-])cc8F)c8ccc([nH]8)c(-c8c(F)cc(S(=O)(=O)[O-])cc8F)c8nc(c(-c9c(F)cc(S(=O)(=O)[O-])cc9F)c9ccc6[nH]9)C=C8)C=C7)cc5)CC[C@@]4(C)[C@@H]3CC[C@]21C
REMARK SMILES IDX 28 1 27 2 26 3 25 4 24 5 22 6 23 7 19 8 18 9 16 10 17 11
REMARK SMILES IDX 15 13 14 14 13 15 105 16 104 17 103 18 10 19 106 20 102 21
REMARK SMILES IDX 11 22 9 23 7 24 107 25 12 26 8 27 6 28 108 29 109 30 5 31
REMARK SMILES IDX 2 32 110 33 4 34 1 35 3 36 20 38 21 39 29 41 30 42 31 43
REMARK SMILES IDX 32 44 33 45 34 46 35 47 36 48 37 49 101 50 38 51 100 52
REMARK SMILES IDX 39 53 40 54 41 55 94 56 42 57 99 58 93 59 95 60 43 61 98 62
REMARK SMILES IDX 92 63 91 64 44 66 78 67 57 68 77 69 58 70 61 71 76 72 96 73
REMARK SMILES IDX 59 74 60 75 75 77 97 78 62 79 45 80 46 81 55 82 47 83 48 84
REMARK SMILES IDX 54 85 56 86 49 87 50 88 51 89 52 90 53 91 79 92 80 93 89 94
REMARK SMILES IDX 81 95 82 96 88 97 90 98 83 99 84 100 85 101 86 102 87 103
REMARK SMILES IDX 63 104 64 105 73 106 65 107 66 108 72 109 74 110 67 111
REMARK SMILES IDX 68 112 69 113 70 114 71 115
REMARK H PARENT 18 12 3 37 21 40 95 65 61 76
REMARK Flexibility Score: inf
ROOT
ATOM      1  C   UNL A   1      37.909  23.132  26.327  1.00  0.00     0.188 C 
ENDROOT
BRANCH   1   2
ATOM      2  O   UNL A   1      38.263  21.968  25.601  1.00  0.00    -0.376 OA
BRANCH   2   3
ATOM      3  C   UNL A   1      37.299  21.372  24.741  1.00  0.00     0.202 C 
BRANCH   3   4
ATOM      4  C   UNL A   1      35.809  21.368  25.117  1.00  0.00     0.261 C 
BRANCH   4   5
ATOM      5  O   UNL A   1      35.149  20.101  24.941  1.00  0.00    -0.462 OA
BRANCH   5   6
ATOM      6  C   UNL A   1      33.883  20.171  24.445  1.00  0.00     0.331 C 
ATOM      7  O   UNL A   1      33.235  19.206  24.053  1.00  0.00    -0.250 OA
BRANCH   6   8
ATOM      8  C   UNL A   1      33.301  21.589  24.452  1.00  0.00     0.218 C 
BRANCH   8   9
ATOM      9  N   UNL A   1      33.063  22.228  23.150  1.00  0.00    -0.338 N 
ATOM     10  C   UNL A   1      33.605  23.396  22.689  1.00  0.00     0.261 C 
ATOM     11  O   UNL A   1      33.216  23.837  21.606  1.00  0.00    -0.271 OA
ATOM     12  H   UNL A   1      32.447  21.762  22.540  1.00  0.00     0.164 HD
BRANCH  10  13
ATOM     13  C   UNL A   1      34.772  24.050  23.432  1.00  0.00     0.363 C 
BRANCH  13  14
ATOM     14  O   UNL A   1      34.481  25.038  24.424  1.00  0.00    -0.385 OA
BRANCH  14  15
ATOM     15  N   UNL A   1      33.410  24.602  25.204  1.00  0.00    -0.091 NA
ATOM     16  C   UNL A   1      32.385  27.238  23.617  1.00  0.00     0.016 C 
ATOM     17  C   UNL A   1      31.516  27.389  24.909  1.00  0.00    -0.008 C 
ATOM     18  C   UNL A   1      30.788  26.054  25.355  1.00  0.00     0.018 C 
ATOM     19  C   UNL A   1      32.541  27.836  25.949  1.00  0.00    -0.062 C 
ATOM     20  C   UNL A   1      30.379  28.368  24.592  1.00  0.00     0.002 C 
ATOM     21  C   UNL A   1      31.519  25.248  26.423  1.00  0.00     0.061 C 
ATOM     22  C   UNL A   1      33.383  26.874  26.410  1.00  0.00     0.027 C 
ATOM     23  C   UNL A   1      32.724  29.321  26.203  1.00  0.00     0.032 C 
ATOM     24  C   UNL A   1      30.956  29.768  24.387  1.00  0.00    -0.003 C 
ATOM     25  C   UNL A   1      29.544  27.766  23.426  1.00  0.00     0.005 C 
ATOM     26  C   UNL A   1      32.946  25.480  26.036  1.00  0.00     0.080 C 
ATOM     27  C   UNL A   1      31.607  30.267  25.687  1.00  0.00     0.008 C 
ATOM     28  C   UNL A   1      29.919  30.675  23.761  1.00  0.00     0.001 C 
ATOM     29  C   UNL A   1      28.604  28.710  22.747  1.00  0.00     0.010 C 
ATOM     30  C   UNL A   1      29.285  30.045  22.485  1.00  0.00    -0.001 C 
ATOM     31  C   UNL A   1      28.693  31.093  24.579  1.00  0.00     0.007 C 
ATOM     32  C   UNL A   1      28.204  31.090  22.178  1.00  0.00     0.068 C 
ATOM     33  C   UNL A   1      30.340  29.848  21.377  1.00  0.00     0.015 C 
ATOM     34  C   UNL A   1      27.587  31.403  23.551  1.00  0.00     0.036 C 
ATOM     35  C   UNL A   1      28.895  32.303  21.664  1.00  0.00     0.042 C 
BRANCH  32  36
ATOM     36  O   UNL A   1      27.235  30.642  21.254  1.00  0.00    -0.390 OA
ATOM     37  H   UNL A   1      27.135  29.680  21.332  1.00  0.00     0.211 HD
ENDBRANCH  32  36
ENDBRANCH  14  15
ENDBRANCH  13  14
ENDBRANCH  10  13
ENDBRANCH   8   9
BRANCH   8  38
ATOM     38  C   UNL A   1      31.984  21.512  25.237  1.00  0.00     0.193 C 
BRANCH  38  39
ATOM     39  O   UNL A   1      32.212  21.850  26.611  1.00  0.00    -0.394 OA
ATOM     40  H   UNL A   1      31.993  21.089  27.171  1.00  0.00     0.210 HD
ENDBRANCH  38  39
ENDBRANCH   8  38
ENDBRANCH   6   8
ENDBRANCH   5   6
ENDBRANCH   4   5
ENDBRANCH   3   4
ENDBRANCH   2   3
ENDBRANCH   1   2
BRANCH   1  41
ATOM     41  C   UNL A   1      38.936  24.272  26.474  1.00  0.00     0.188 C 
BRANCH  41  42
ATOM     42  O   UNL A   1      39.743  24.237  27.627  1.00  0.00    -0.376 OA
BRANCH  42  43
ATOM     43  C   UNL A   1      40.667  23.169  27.804  1.00  0.00     0.202 C 
BRANCH  43  44
ATOM     44  C   UNL A   1      41.937  22.905  26.958  1.00  0.00     0.261 C 
BRANCH  44  45
ATOM     45  O   UNL A   1      43.209  22.857  27.618  1.00  0.00    -0.460 OA
BRANCH  45  46
ATOM     46  C   UNL A   1      43.496  23.891  28.451  1.00  0.00     0.338 C 
ATOM     47  O   UNL A   1      43.027  24.097  29.561  1.00  0.00    -0.246 OA
BRANCH  46  48
ATOM     48  C   UNL A   1      44.543  24.729  27.831  1.00  0.00     0.060 A 
ATOM     49  C   UNL A   1      45.530  25.309  28.624  1.00  0.00     0.016 A 
ATOM     50  C   UNL A   1      44.534  24.987  26.461  1.00  0.00     0.016 A 
ATOM     51  C   UNL A   1      46.533  26.092  28.046  1.00  0.00     0.010 A 
ATOM     52  C   UNL A   1      45.520  25.823  25.892  1.00  0.00     0.010 A 
ATOM     53  C   UNL A   1      46.526  26.417  26.679  1.00  0.00    -0.014 A 
BRANCH  53  54
ATOM     54  C   UNL A   1      47.402  27.532  26.128  1.00  0.00     0.031 A 
ATOM     55  C   UNL A   1      46.911  28.986  26.393  1.00  0.00     0.074 A 
ATOM     56  C   UNL A   1      48.678  27.302  25.693  1.00  0.00     0.049 A 
ATOM     57  N   UNL A   1      47.475  30.141  26.119  1.00  0.00    -0.248 NA
ATOM     58  C   UNL A   1      45.680  29.145  27.193  1.00  0.00     0.031 C 
ATOM     59  C   UNL A   1      49.382  26.016  25.795  1.00  0.00     0.029 A 
ATOM     60  N   UNL A   1      49.688  28.162  25.258  1.00  0.00    -0.354 N 
ATOM     61  C   UNL A   1      46.721  31.143  26.741  1.00  0.00     0.074 A 
ATOM     62  C   UNL A   1      45.589  30.462  27.340  1.00  0.00     0.031 C 
ATOM     63  C   UNL A   1      50.707  26.210  25.628  1.00  0.00     0.029 A 
ATOM     64  C   UNL A   1      50.974  27.623  25.327  1.00  0.00     0.049 A 
ATOM     65  H   UNL A   1      49.508  29.072  24.928  1.00  0.00     0.167 HD
ATOM     66  C   UNL A   1      46.953  32.485  26.869  1.00  0.00     0.037 A 
ATOM     67  C   UNL A   1      52.216  28.196  25.284  1.00  0.00     0.037 A 
ATOM     68  C   UNL A   1      48.142  33.194  26.422  1.00  0.00     0.049 A 
ATOM     69  C   UNL A   1      52.378  29.729  25.222  1.00  0.00     0.074 A 
ATOM     70  C   UNL A   1      48.317  34.532  26.088  1.00  0.00     0.029 A 
ATOM     71  N   UNL A   1      49.430  32.701  26.470  1.00  0.00    -0.354 N 
ATOM     72  N   UNL A   1      51.494  30.679  25.432  1.00  0.00    -0.248 NA
ATOM     73  C   UNL A   1      53.730  30.260  24.972  1.00  0.00     0.031 C 
ATOM     74  C   UNL A   1      49.656  34.728  25.689  1.00  0.00     0.029 A 
ATOM     75  C   UNL A   1      50.328  33.526  25.824  1.00  0.00     0.049 A 
ATOM     76  H   UNL A   1      49.681  31.858  26.912  1.00  0.00     0.167 HD
ATOM     77  C   UNL A   1      52.175  31.900  25.402  1.00  0.00     0.074 A 
ATOM     78  C   UNL A   1      53.563  31.566  25.152  1.00  0.00     0.031 C 
ATOM     79  C   UNL A   1      51.708  33.174  25.558  1.00  0.00     0.037 A 
BRANCH  66  80
ATOM     80  C   UNL A   1      45.784  33.339  27.298  1.00  0.00     0.058 A 
ATOM     81  C   UNL A   1      45.647  33.941  28.557  1.00  0.00     0.135 A 
ATOM     82  C   UNL A   1      44.785  33.597  26.342  1.00  0.00     0.135 A 
ATOM     83  F   UNL A   1      46.541  33.693  29.527  1.00  0.00    -0.206 F 
ATOM     84  C   UNL A   1      44.563  34.777  28.846  1.00  0.00     0.059 A 
ATOM     85  C   UNL A   1      43.718  34.448  26.596  1.00  0.00     0.059 A 
ATOM     86  F   UNL A   1      44.857  33.034  25.125  1.00  0.00    -0.206 F 
ATOM     87  C   UNL A   1      43.608  35.027  27.855  1.00  0.00     0.060 A 
BRANCH  87  88
ATOM     88  S   UNL A   1      42.209  36.112  28.218  1.00  0.00     0.124 S 
ATOM     89  O   UNL A   1      42.097  36.868  26.974  1.00  0.00    -0.237 OA
ATOM     90  O   UNL A   1      41.134  35.161  28.482  1.00  0.00    -0.237 OA
ATOM     91  O   UNL A   1      42.662  36.878  29.375  1.00  0.00    -0.744 OA
ENDBRANCH  87  88
ENDBRANCH  66  80
BRANCH  67  92
ATOM     92  C   UNL A   1      53.474  27.348  25.400  1.00  0.00     0.058 A 
ATOM     93  C   UNL A   1      53.969  26.875  26.635  1.00  0.00     0.135 A 
ATOM     94  C   UNL A   1      54.267  27.065  24.277  1.00  0.00     0.135 A 
ATOM     95  F   UNL A   1      53.316  27.145  27.770  1.00  0.00    -0.206 F 
ATOM     96  C   UNL A   1      55.180  26.186  26.755  1.00  0.00     0.059 A 
ATOM     97  C   UNL A   1      55.472  26.358  24.365  1.00  0.00     0.059 A 
ATOM     98  F   UNL A   1      53.883  27.485  23.063  1.00  0.00    -0.206 F 
ATOM     99  C   UNL A   1      55.931  25.939  25.611  1.00  0.00     0.060 A 
BRANCH  99 100
ATOM    100  S   UNL A   1      57.512  25.074  25.767  1.00  0.00     0.124 S 
ATOM    101  O   UNL A   1      57.481  24.188  24.608  1.00  0.00    -0.237 OA
ATOM    102  O   UNL A   1      58.473  26.171  25.706  1.00  0.00    -0.237 OA
ATOM    103  O   UNL A   1      57.405  24.417  27.067  1.00  0.00    -0.744 OA
ENDBRANCH  99 100
ENDBRANCH  67  92
BRANCH  79 104
ATOM    104  C   UNL A   1      52.667  34.309  25.291  1.00  0.00     0.058 A 
ATOM    105  C   UNL A   1      53.337  34.938  26.357  1.00  0.00     0.135 A 
ATOM    106  C   UNL A   1      53.006  34.710  23.989  1.00  0.00     0.135 A 
ATOM    107  F   UNL A   1      53.070  34.585  27.624  1.00  0.00    -0.206 F 
ATOM    108  C   UNL A   1      54.277  35.939  26.146  1.00  0.00     0.059 A 
ATOM    109  C   UNL A   1      53.966  35.696  23.752  1.00  0.00     0.059 A 
ATOM    110  F   UNL A   1      52.415  34.136  22.929  1.00  0.00    -0.206 F 
ATOM    111  C   UNL A   1      54.589  36.310  24.838  1.00  0.00     0.060 A 
BRANCH 111 112
ATOM    112  S   UNL A   1      55.851  37.580  24.593  1.00  0.00     0.124 S 
ATOM    113  O   UNL A   1      56.849  37.202  25.589  1.00  0.00    -0.237 OA
ATOM    114  O   UNL A   1      56.236  37.370  23.201  1.00  0.00    -0.237 OA
ATOM    115  O   UNL A   1      55.140  38.826  24.860  1.00  0.00    -0.744 OA
ENDBRANCH 111 112
ENDBRANCH  79 104
ENDBRANCH  53  54
ENDBRANCH  46  48
ENDBRANCH  45  46
ENDBRANCH  44  45
ENDBRANCH  43  44
ENDBRANCH  42  43
ENDBRANCH  41  42
ENDBRANCH   1  41
TORSDOF 27
ENDMDL
MODEL 3
REMARK VINA RESULT:      -9.5      7.610     10.355
REMARK SMILES C[C@]1(O)CC[C@H]2[C@H]3CCC4=C/C(=N\OCC(=O)N[C@@H](CO)C(=O)OCCOCCOCCOC(=O)c5ccc(-c6c7nc(c(-c8c(F)cc(S(=O)(=O)[O-])cc8F)c8ccc([nH]8)c(-c8c(F)cc(S(=O)(=O)[O-])cc8F)c8nc(c(-c9c(F)cc(S(=O)(=O)[O-])cc9F)c9ccc6[nH]9)C=C8)C=C7)cc5)CC[C@@]4(C)[C@@H]3CC[C@]21C
REMARK SMILES IDX 28 1 27 2 26 3 25 4 24 5 22 6 23 7 19 8 18 9 16 10 17 11
REMARK SMILES IDX 15 13 14 14 13 15 105 16 104 17 103 18 10 19 106 20 102 21
REMARK SMILES IDX 11 22 9 23 7 24 107 25 12 26 8 27 6 28 108 29 109 30 5 31
REMARK SMILES IDX 2 32 110 33 4 34 1 35 3 36 20 38 21 39 29 41 30 42 31 43
REMARK SMILES IDX 32 44 33 45 34 46 35 47 36 48 37 49 101 50 38 51 100 52
REMARK SMILES IDX 39 53 40 54 41 55 94 56 42 57 99 58 93 59 95 60 43 61 98 62
REMARK SMILES IDX 92 63 91 64 44 66 78 67 57 68 77 69 58 70 61 71 76 72 96 73
REMARK SMILES IDX 59 74 60 75 75 77 97 78 62 79 45 80 46 81 55 82 47 83 48 84
REMARK SMILES IDX 54 85 56 86 49 87 50 88 51 89 52 90 53 91 79 92 80 93 89 94
REMARK SMILES IDX 81 95 82 96 88 97 90 98 83 99 84 100 85 101 86 102 87 103
REMARK SMILES IDX 63 104 64 105 73 106 65 107 66 108 72 109 74 110 67 111
REMARK SMILES IDX 68 112 69 113 70 114 71 115
REMARK H PARENT 18 12 3 37 21 40 95 65 61 76
REMARK Flexibility Score: inf
ROOT
ATOM      1  C   UNL A   1      37.876  21.813  25.190  1.00  0.00     0.188 C 
ENDROOT
BRANCH   1   2
ATOM      2  O   UNL A   1      37.265  22.659  24.231  1.00  0.00    -0.376 OA
BRANCH   2   3
ATOM      3  C   UNL A   1      36.153  23.455  24.623  1.00  0.00     0.202 C 
BRANCH   3   4
ATOM      4  C   UNL A   1      35.224  24.078  23.570  1.00  0.00     0.261 C 
BRANCH   4   5
ATOM      5  O   UNL A   1      34.670  25.354  23.938  1.00  0.00    -0.462 OA
BRANCH   5   6
ATOM      6  C   UNL A   1      33.842  25.915  23.014  1.00  0.00     0.331 C 
ATOM      7  O   UNL A   1      33.684  25.490  21.873  1.00  0.00    -0.250 OA
BRANCH   6   8
ATOM      8  C   UNL A   1      33.070  27.130  23.541  1.00  0.00     0.218 C 
BRANCH   8   9
ATOM      9  N   UNL A   1      33.789  28.049  24.435  1.00  0.00    -0.338 N 
ATOM     10  C   UNL A   1      33.482  28.350  25.734  1.00  0.00     0.261 C 
ATOM     11  O   UNL A   1      34.139  29.222  26.306  1.00  0.00    -0.271 OA
ATOM     12  H   UNL A   1      34.581  28.496  24.058  1.00  0.00     0.164 HD
BRANCH  10  13
ATOM     13  C   UNL A   1      32.451  27.514  26.495  1.00  0.00     0.363 C 
BRANCH  13  14
ATOM     14  O   UNL A   1      32.554  26.089  26.443  1.00  0.00    -0.385 OA
BRANCH  14  15
ATOM     15  N   UNL A   1      31.358  25.528  26.891  1.00  0.00    -0.091 NA
ATOM     16  C   UNL A   1      33.112  23.099  25.647  1.00  0.00     0.016 C 
ATOM     17  C   UNL A   1      31.682  22.548  25.323  1.00  0.00    -0.008 C 
ATOM     18  C   UNL A   1      30.671  22.628  26.540  1.00  0.00     0.018 C 
ATOM     19  C   UNL A   1      31.234  23.442  24.170  1.00  0.00    -0.062 C 
ATOM     20  C   UNL A   1      31.821  21.050  25.025  1.00  0.00     0.002 C 
ATOM     21  C   UNL A   1      29.762  23.851  26.542  1.00  0.00     0.061 C 
ATOM     22  C   UNL A   1      30.868  24.708  24.502  1.00  0.00     0.027 C 
ATOM     23  C   UNL A   1      31.464  22.969  22.745  1.00  0.00     0.032 C 
ATOM     24  C   UNL A   1      32.580  20.860  23.713  1.00  0.00    -0.003 C 
ATOM     25  C   UNL A   1      32.409  20.365  26.292  1.00  0.00     0.005 C 
ATOM     26  C   UNL A   1      30.679  24.895  25.986  1.00  0.00     0.080 C 
ATOM     27  C   UNL A   1      31.778  21.462  22.547  1.00  0.00     0.008 C 
ATOM     28  C   UNL A   1      33.011  19.417  23.562  1.00  0.00     0.001 C 
ATOM     29  C   UNL A   1      32.931  18.977  26.095  1.00  0.00     0.010 C 
ATOM     30  C   UNL A   1      33.761  18.896  24.823  1.00  0.00    -0.001 C 
ATOM     31  C   UNL A   1      31.951  18.337  23.325  1.00  0.00     0.007 C 
ATOM     32  C   UNL A   1      33.927  17.418  24.445  1.00  0.00     0.068 C 
ATOM     33  C   UNL A   1      35.078  19.667  25.046  1.00  0.00     0.015 C 
ATOM     34  C   UNL A   1      32.559  17.026  23.863  1.00  0.00     0.036 C 
ATOM     35  C   UNL A   1      34.954  17.348  23.371  1.00  0.00     0.042 C 
BRANCH  32  36
ATOM     36  O   UNL A   1      34.292  16.596  25.533  1.00  0.00    -0.390 OA
ATOM     37  H   UNL A   1      35.151  16.884  25.881  1.00  0.00     0.211 HD
ENDBRANCH  32  36
ENDBRANCH  14  15
ENDBRANCH  13  14
ENDBRANCH  10  13
ENDBRANCH   8   9
BRANCH   8  38
ATOM     38  C   UNL A   1      32.572  27.895  22.306  1.00  0.00     0.193 C 
BRANCH  38  39
ATOM     39  O   UNL A   1      32.758  29.303  22.495  1.00  0.00    -0.394 OA
ATOM     40  H   UNL A   1      32.647  29.520  23.433  1.00  0.00     0.210 HD
ENDBRANCH  38  39
ENDBRANCH   8  38
ENDBRANCH   6   8
ENDBRANCH   5   6
ENDBRANCH   4   5
ENDBRANCH   3   4
ENDBRANCH   2   3
ENDBRANCH   1   2
BRANCH   1  41
ATOM     41  C   UNL A   1      38.952  22.391  26.129  1.00  0.00     0.188 C 
BRANCH  41  42
ATOM     42  O   UNL A   1      38.912  23.782  26.340  1.00  0.00    -0.376 OA
BRANCH  42  43
ATOM     43  C   UNL A   1      39.338  24.316  27.588  1.00  0.00     0.202 C 
BRANCH  43  44
ATOM     44  C   UNL A   1      40.801  24.584  28.019  1.00  0.00     0.261 C 
BRANCH  44  45
ATOM     45  O   UNL A   1      41.816  23.644  27.643  1.00  0.00    -0.460 OA
BRANCH  45  46
ATOM     46  C   UNL A   1      42.980  23.700  28.341  1.00  0.00     0.338 C 
ATOM     47  O   UNL A   1      43.361  22.924  29.205  1.00  0.00    -0.246 OA
BRANCH  46  48
ATOM     48  C   UNL A   1      43.782  24.838  27.844  1.00  0.00     0.060 A 
ATOM     49  C   UNL A   1      43.853  25.094  26.478  1.00  0.00     0.016 A 
ATOM     50  C   UNL A   1      44.509  25.638  28.725  1.00  0.00     0.016 A 
ATOM     51  C   UNL A   1      44.598  26.176  25.999  1.00  0.00     0.010 A 
ATOM     52  C   UNL A   1      45.301  26.695  28.229  1.00  0.00     0.010 A 
ATOM     53  C   UNL A   1      45.384  26.970  26.850  1.00  0.00    -0.014 A 
BRANCH  53  54
ATOM     54  C   UNL A   1      46.445  27.908  26.295  1.00  0.00     0.031 A 
ATOM     55  C   UNL A   1      46.130  29.431  26.380  1.00  0.00     0.074 A 
ATOM     56  C   UNL A   1      47.713  27.481  26.011  1.00  0.00     0.049 A 
ATOM     57  N   UNL A   1      46.863  30.474  26.064  1.00  0.00    -0.248 NA
ATOM     58  C   UNL A   1      44.865  29.820  27.037  1.00  0.00     0.031 C 
ATOM     59  C   UNL A   1      48.229  26.135  26.295  1.00  0.00     0.029 A 
ATOM     60  N   UNL A   1      48.862  28.163  25.605  1.00  0.00    -0.354 N 
ATOM     61  C   UNL A   1      46.197  31.619  26.518  1.00  0.00     0.074 A 
ATOM     62  C   UNL A   1      44.936  31.146  27.057  1.00  0.00     0.031 C 
ATOM     63  C   UNL A   1      49.578  26.146  26.244  1.00  0.00     0.029 A 
ATOM     64  C   UNL A   1      50.054  27.478  25.850  1.00  0.00     0.049 A 
ATOM     65  H   UNL A   1      48.834  29.050  25.181  1.00  0.00     0.167 HD
ATOM     66  C   UNL A   1      46.591  32.928  26.551  1.00  0.00     0.037 A 
ATOM     67  C   UNL A   1      51.360  27.887  25.881  1.00  0.00     0.037 A 
ATOM     68  C   UNL A   1      47.898  33.437  26.165  1.00  0.00     0.049 A 
ATOM     69  C   UNL A   1      51.728  29.374  25.702  1.00  0.00     0.074 A 
ATOM     70  C   UNL A   1      48.278  34.704  25.734  1.00  0.00     0.029 A 
ATOM     71  N   UNL A   1      49.101  32.797  26.384  1.00  0.00    -0.354 N 
ATOM     72  N   UNL A   1      50.963  30.443  25.738  1.00  0.00    -0.248 NA
ATOM     73  C   UNL A   1      53.156  29.707  25.543  1.00  0.00     0.031 C 
ATOM     74  C   UNL A   1      49.660  34.693  25.455  1.00  0.00     0.029 A 
ATOM     75  C   UNL A   1      50.153  33.436  25.762  1.00  0.00     0.049 A 
ATOM     76  H   UNL A   1      49.198  31.977  26.921  1.00  0.00     0.167 HD
ATOM     77  C   UNL A   1      51.799  31.561  25.671  1.00  0.00     0.074 A 
ATOM     78  C   UNL A   1      53.147  31.035  25.591  1.00  0.00     0.031 C 
ATOM     79  C   UNL A   1      51.493  32.892  25.666  1.00  0.00     0.037 A 
BRANCH  66  80
ATOM     80  C   UNL A   1      45.513  33.958  26.784  1.00  0.00     0.058 A 
ATOM     81  C   UNL A   1      44.514  34.301  25.863  1.00  0.00     0.135 A 
ATOM     82  C   UNL A   1      45.473  34.580  28.046  1.00  0.00     0.135 A 
ATOM     83  F   UNL A   1      44.526  33.778  24.626  1.00  0.00    -0.206 F 
ATOM     84  C   UNL A   1      43.509  35.218  26.190  1.00  0.00     0.059 A 
ATOM     85  C   UNL A   1      44.468  35.468  28.404  1.00  0.00     0.059 A 
ATOM     86  F   UNL A   1      46.415  34.302  28.962  1.00  0.00    -0.206 F 
ATOM     87  C   UNL A   1      43.493  35.790  27.466  1.00  0.00     0.060 A 
BRANCH  87  88
ATOM     88  S   UNL A   1      42.195  36.969  27.900  1.00  0.00     0.124 S 
ATOM     89  O   UNL A   1      41.970  37.637  26.622  1.00  0.00    -0.237 OA
ATOM     90  O   UNL A   1      41.118  36.098  28.359  1.00  0.00    -0.237 OA
ATOM     91  O   UNL A   1      42.814  37.793  28.934  1.00  0.00    -0.744 OA
ENDBRANCH  87  88
ENDBRANCH  66  80
BRANCH  67  92
ATOM     92  C   UNL A   1      52.480  26.906  26.196  1.00  0.00     0.058 A 
ATOM     93  C   UNL A   1      53.136  26.866  27.445  1.00  0.00     0.135 A 
ATOM     94  C   UNL A   1      52.985  26.038  25.215  1.00  0.00     0.135 A 
ATOM     95  F   UNL A   1      52.768  27.697  28.426  1.00  0.00    -0.206 F 
ATOM     96  C   UNL A   1      54.235  26.039  27.702  1.00  0.00     0.059 A 
ATOM     97  C   UNL A   1      54.068  25.184  25.451  1.00  0.00     0.059 A 
ATOM     98  F   UNL A   1      52.432  26.014  23.993  1.00  0.00    -0.206 F 
ATOM     99  C   UNL A   1      54.699  25.205  26.691  1.00  0.00     0.060 A 
BRANCH  99 100
ATOM    100  S   UNL A   1      56.138  24.154  27.011  1.00  0.00     0.124 S 
ATOM    101  O   UNL A   1      55.779  22.935  26.294  1.00  0.00    -0.237 OA
ATOM    102  O   UNL A   1      57.226  24.938  26.434  1.00  0.00    -0.237 OA
ATOM    103  O   UNL A   1      56.155  24.049  28.467  1.00  0.00    -0.744 OA
ENDBRANCH  99 100
ENDBRANCH  67  92
BRANCH  79 104
ATOM    104  C   UNL A   1      52.613  33.868  25.399  1.00  0.00     0.058 A 
ATOM    105  C   UNL A   1      52.980  34.184  24.079  1.00  0.00     0.135 A 
ATOM    106  C   UNL A   1      53.255  34.568  26.433  1.00  0.00     0.135 A 
ATOM    107  F   UNL A   1      52.389  33.561  23.046  1.00  0.00    -0.206 F 
ATOM    108  C   UNL A   1      53.959  35.127  23.793  1.00  0.00     0.059 A 
ATOM    109  C   UNL A   1      54.224  35.539  26.169  1.00  0.00     0.059 A 
ATOM    110  F   UNL A   1      52.936  34.326  27.715  1.00  0.00    -0.206 F 
ATOM    111  C   UNL A   1      54.574  35.804  24.846  1.00  0.00     0.060 A 
BRANCH 111 112
ATOM    112  S   UNL A   1      55.809  37.061  24.443  1.00  0.00     0.124 S 
ATOM    113  O   UNL A   1      54.973  38.236  24.219  1.00  0.00    -0.237 OA
ATOM    114  O   UNL A   1      56.628  37.089  25.650  1.00  0.00    -0.237 OA
ATOM    115  O   UNL A   1      56.469  36.525  23.256  1.00  0.00    -0.744 OA
ENDBRANCH 111 112
ENDBRANCH  79 104
ENDBRANCH  53  54
ENDBRANCH  46  48
ENDBRANCH  45  46
ENDBRANCH  44  45
ENDBRANCH  43  44
ENDBRANCH  42  43
ENDBRANCH  41  42
ENDBRANCH   1  41
TORSDOF 27
ENDMDL
