MODEL 1
REMARK VINA RESULT:      -9.9      0.000      0.000
REMARK SMILES Cc1ccc(NC(=O)c2cnn3c2NC2=C(C(=O)CCC2)[C@H]3c2ccc(C(=O)OCCOCCOCCOC(=O)c3ccc(-c4c5nc(c(-c6c(F)cc(S(=O)(=O)[O-])cc6F)c6ccc([nH]6)c(-c6c(F)cc(S(=O)(=O)[O-])cc6F)c6nc(c(-c7c(F)cc(S(=O)(=O)[O-])cc7F)c7ccc4[nH]7)C=C6)C=C5)cc3)cc2)cc1
REMARK SMILES IDX 33 1 32 2 31 3 30 4 29 5 27 6 28 7 26 8 23 9 24 10 108 11
REMARK SMILES IDX 25 12 107 13 22 14 9 15 10 16 13 17 11 18 12 19 14 20 15 21
REMARK SMILES IDX 16 23 21 24 17 25 20 26 18 27 19 28 7 29 6 30 8 32 5 33 1 34
REMARK SMILES IDX 2 35 3 36 110 37 4 38 109 39 34 40 35 41 36 42 37 43 38 44
REMARK SMILES IDX 39 45 40 46 41 47 42 48 106 49 43 50 105 51 44 52 45 53
REMARK SMILES IDX 46 54 99 55 47 56 104 57 98 58 100 59 48 60 103 61 97 62
REMARK SMILES IDX 96 63 49 65 83 66 62 67 82 68 63 69 66 70 81 71 101 72 64 73
REMARK SMILES IDX 65 74 80 76 102 77 67 78 50 79 51 80 60 81 52 82 53 83 59 84
REMARK SMILES IDX 61 85 54 86 55 87 56 88 57 89 58 90 84 91 85 92 94 93 86 94
REMARK SMILES IDX 87 95 93 96 95 97 88 98 89 99 90 100 91 101 92 102 68 103
REMARK SMILES IDX 69 104 78 105 70 106 71 107 77 108 79 109 72 110 73 111
REMARK SMILES IDX 74 112 75 113 76 114
REMARK H PARENT 14 22 6 31 100 64 66 75
REMARK Flexibility Score: inf
ROOT
ATOM      1  C   UNL A   1      34.554  33.045  31.693  1.00  0.00     0.188 C 
ENDROOT
BRANCH   1   2
ATOM      2  O   UNL A   1      33.995  33.707  30.545  1.00  0.00    -0.376 OA
BRANCH   2   3
ATOM      3  C   UNL A   1      34.412  33.369  29.218  1.00  0.00     0.202 C 
BRANCH   3   4
ATOM      4  C   UNL A   1      34.798  31.842  28.889  1.00  0.00     0.261 C 
BRANCH   4   5
ATOM      5  O   UNL A   1      34.648  31.236  27.493  1.00  0.00    -0.460 OA
BRANCH   5   6
ATOM      6  C   UNL A   1      33.432  30.594  27.172  1.00  0.00     0.338 C 
ATOM      7  O   UNL A   1      32.418  31.279  27.248  1.00  0.00    -0.246 OA
BRANCH   6   8
ATOM      8  C   UNL A   1      33.365  29.013  26.545  1.00  0.00     0.060 A 
ATOM      9  C   UNL A   1      33.201  26.002  26.081  1.00  0.00    -0.019 A 
ATOM     10  C   UNL A   1      32.175  26.683  26.632  1.00  0.00     0.007 A 
ATOM     11  C   UNL A   1      34.228  26.876  25.592  1.00  0.00     0.007 A 
ATOM     12  C   UNL A   1      32.345  28.059  26.864  1.00  0.00     0.016 A 
ATOM     13  C   UNL A   1      34.331  28.342  25.838  1.00  0.00     0.016 A 
BRANCH   9  14
ATOM     14  C   UNL A   1      33.235  24.429  26.254  1.00  0.00     0.175 C 
ATOM     15  C   UNL A   1      32.649  23.874  22.850  1.00  0.00     0.102 A 
ATOM     16  C   UNL A   1      31.535  23.228  23.473  1.00  0.00     0.151 A 
ATOM     17  C   UNL A   1      33.586  23.936  23.861  1.00  0.00     0.142 A 
ATOM     18  N   UNL A   1      31.611  23.243  24.807  1.00  0.00    -0.178 NA
ATOM     19  N   UNL A   1      32.774  23.883  24.987  1.00  0.00    -0.237 N 
ATOM     20  N   UNL A   1      34.936  24.132  24.051  1.00  0.00    -0.343 N 
ATOM     21  C   UNL A   1      35.497  23.865  25.321  1.00  0.00     0.026 C 
ATOM     22  H   UNL A   1      35.502  24.454  23.313  1.00  0.00     0.168 HD
ATOM     23  C   UNL A   1      34.626  23.739  26.360  1.00  0.00     0.044 C 
ATOM     24  C   UNL A   1      36.891  23.284  25.466  1.00  0.00     0.055 C 
ATOM     25  C   UNL A   1      34.614  22.266  26.745  1.00  0.00     0.163 C 
ATOM     26  C   UNL A   1      36.841  21.767  25.649  1.00  0.00     0.014 C 
ATOM     27  O   UNL A   1      33.860  21.858  27.627  1.00  0.00    -0.294 OA
ATOM     28  C   UNL A   1      35.410  21.285  25.853  1.00  0.00     0.081 C 
BRANCH  15  29
ATOM     29  C   UNL A   1      32.721  24.355  21.503  1.00  0.00     0.261 C 
ATOM     30  N   UNL A   1      32.161  25.584  21.197  1.00  0.00    -0.322 N 
ATOM     31  H   UNL A   1      32.020  25.730  20.233  1.00  0.00     0.170 HD
ATOM     32  O   UNL A   1      33.232  23.669  20.597  1.00  0.00    -0.269 OA
BRANCH  30  33
ATOM     33  C   UNL A   1      31.750  26.676  22.010  1.00  0.00     0.041 A 
ATOM     34  C   UNL A   1      30.570  30.102  24.418  1.00  0.00     0.044 C 
ATOM     35  C   UNL A   1      31.005  28.927  23.595  1.00  0.00    -0.051 A 
ATOM     36  C   UNL A   1      30.131  27.865  23.412  1.00  0.00     0.005 A 
ATOM     37  C   UNL A   1      32.264  28.851  22.993  1.00  0.00     0.005 A 
ATOM     38  C   UNL A   1      30.524  26.750  22.661  1.00  0.00     0.026 A 
ATOM     39  C   UNL A   1      32.634  27.735  22.214  1.00  0.00     0.026 A 
ENDBRANCH  30  33
ENDBRANCH  15  29
ENDBRANCH   9  14
ENDBRANCH   6   8
ENDBRANCH   5   6
ENDBRANCH   4   5
ENDBRANCH   3   4
ENDBRANCH   2   3
ENDBRANCH   1   2
BRANCH   1  40
ATOM     40  C   UNL A   1      34.012  33.302  33.095  1.00  0.00     0.188 C 
BRANCH  40  41
ATOM     41  O   UNL A   1      35.025  33.009  34.041  1.00  0.00    -0.376 OA
BRANCH  41  42
ATOM     42  C   UNL A   1      36.269  33.654  33.884  1.00  0.00     0.202 C 
BRANCH  42  43
ATOM     43  C   UNL A   1      37.466  32.700  34.021  1.00  0.00     0.261 C 
BRANCH  43  44
ATOM     44  O   UNL A   1      38.362  33.145  35.078  1.00  0.00    -0.460 OA
BRANCH  44  45
ATOM     45  C   UNL A   1      38.111  32.718  36.360  1.00  0.00     0.338 C 
ATOM     46  O   UNL A   1      37.481  31.676  36.581  1.00  0.00    -0.246 OA
BRANCH  45  47
ATOM     47  C   UNL A   1      38.791  33.585  37.396  1.00  0.00     0.060 A 
ATOM     48  C   UNL A   1      38.444  33.830  38.732  1.00  0.00     0.016 A 
ATOM     49  C   UNL A   1      39.815  34.359  36.945  1.00  0.00     0.016 A 
ATOM     50  C   UNL A   1      39.124  34.852  39.542  1.00  0.00     0.010 A 
ATOM     51  C   UNL A   1      40.223  35.494  37.662  1.00  0.00     0.010 A 
ATOM     52  C   UNL A   1      40.075  35.733  39.004  1.00  0.00    -0.014 A 
BRANCH  52  53
ATOM     53  C   UNL A   1      40.971  36.936  39.515  1.00  0.00     0.031 A 
ATOM     54  C   UNL A   1      40.665  38.548  39.936  1.00  0.00     0.074 A 
ATOM     55  C   UNL A   1      42.159  36.438  39.906  1.00  0.00     0.049 A 
ATOM     56  N   UNL A   1      41.634  39.405  40.147  1.00  0.00    -0.248 NA
ATOM     57  C   UNL A   1      39.409  39.394  40.021  1.00  0.00     0.031 C 
ATOM     58  C   UNL A   1      43.137  37.010  40.802  1.00  0.00     0.029 A 
ATOM     59  N   UNL A   1      42.786  35.312  39.367  1.00  0.00    -0.354 N 
ATOM     60  C   UNL A   1      41.091  40.579  40.707  1.00  0.00     0.074 A 
ATOM     61  C   UNL A   1      39.749  40.636  40.333  1.00  0.00     0.031 C 
ATOM     62  C   UNL A   1      44.323  36.432  40.552  1.00  0.00     0.029 A 
ATOM     63  C   UNL A   1      44.157  35.566  39.393  1.00  0.00     0.049 A 
ATOM     64  H   UNL A   1      42.346  34.498  39.034  1.00  0.00     0.167 HD
ATOM     65  C   UNL A   1      41.759  41.306  41.639  1.00  0.00     0.037 A 
ATOM     66  C   UNL A   1      44.829  35.639  38.210  1.00  0.00     0.037 A 
ATOM     67  C   UNL A   1      43.144  40.942  41.542  1.00  0.00     0.049 A 
ATOM     68  C   UNL A   1      45.404  37.013  37.992  1.00  0.00     0.074 A 
ATOM     69  C   UNL A   1      44.013  40.207  42.313  1.00  0.00     0.029 A 
ATOM     70  N   UNL A   1      43.711  41.081  40.293  1.00  0.00    -0.354 N 
ATOM     71  N   UNL A   1      45.010  38.057  38.670  1.00  0.00    -0.248 NA
ATOM     72  C   UNL A   1      46.496  37.336  37.082  1.00  0.00     0.031 C 
ATOM     73  C   UNL A   1      45.082  39.812  41.456  1.00  0.00     0.029 A 
ATOM     74  C   UNL A   1      44.861  40.348  40.194  1.00  0.00     0.049 A 
ATOM     75  H   UNL A   1      43.338  41.634  39.570  1.00  0.00     0.167 HD
ATOM     76  C   UNL A   1      45.755  39.149  38.333  1.00  0.00     0.074 A 
ATOM     77  C   UNL A   1      46.665  38.651  37.322  1.00  0.00     0.031 C 
ATOM     78  C   UNL A   1      45.548  40.364  38.914  1.00  0.00     0.037 A 
BRANCH  65  79
ATOM     79  C   UNL A   1      41.187  42.240  42.705  1.00  0.00     0.058 A 
ATOM     80  C   UNL A   1      40.795  43.541  42.316  1.00  0.00     0.135 A 
ATOM     81  C   UNL A   1      41.116  42.015  44.105  1.00  0.00     0.135 A 
ATOM     82  F   UNL A   1      40.818  43.912  41.028  1.00  0.00    -0.206 F 
ATOM     83  C   UNL A   1      40.387  44.529  43.219  1.00  0.00     0.059 A 
ATOM     84  C   UNL A   1      40.660  42.978  45.024  1.00  0.00     0.059 A 
ATOM     85  F   UNL A   1      41.536  40.878  44.671  1.00  0.00    -0.206 F 
ATOM     86  C   UNL A   1      40.313  44.241  44.573  1.00  0.00     0.060 A 
BRANCH  86  87
ATOM     87  S   UNL A   1      39.777  45.537  45.710  1.00  0.00     0.124 S 
ATOM     88  O   UNL A   1      40.223  45.018  46.999  1.00  0.00    -0.237 OA
ATOM     89  O   UNL A   1      40.500  46.704  45.213  1.00  0.00    -0.237 OA
ATOM     90  O   UNL A   1      38.328  45.582  45.527  1.00  0.00    -0.744 OA
ENDBRANCH  86  87
ENDBRANCH  65  79
BRANCH  66  91
ATOM     91  C   UNL A   1      44.356  34.604  37.230  1.00  0.00     0.058 A 
ATOM     92  C   UNL A   1      43.693  35.115  36.091  1.00  0.00     0.135 A 
ATOM     93  C   UNL A   1      44.956  33.340  37.088  1.00  0.00     0.135 A 
ATOM     94  F   UNL A   1      43.079  36.309  36.160  1.00  0.00    -0.206 F 
ATOM     95  C   UNL A   1      43.796  34.521  34.835  1.00  0.00     0.059 A 
ATOM     96  C   UNL A   1      45.035  32.702  35.836  1.00  0.00     0.059 A 
ATOM     97  F   UNL A   1      45.611  32.781  38.116  1.00  0.00    -0.206 F 
ATOM     98  C   UNL A   1      44.536  33.352  34.705  1.00  0.00     0.060 A 
BRANCH  98  99
ATOM     99  S   UNL A   1      44.992  32.825  33.031  1.00  0.00     0.124 S 
ATOM    100  O   UNL A   1      46.175  33.646  32.760  1.00  0.00    -0.237 OA
ATOM    101  O   UNL A   1      45.262  31.400  33.243  1.00  0.00    -0.237 OA
ATOM    102  O   UNL A   1      43.816  33.143  32.243  1.00  0.00    -0.744 OA
ENDBRANCH  98  99
ENDBRANCH  66  91
BRANCH  78 103
ATOM    103  C   UNL A   1      45.893  41.711  38.308  1.00  0.00     0.058 A 
ATOM    104  C   UNL A   1      46.866  42.572  38.834  1.00  0.00     0.135 A 
ATOM    105  C   UNL A   1      45.401  42.067  37.020  1.00  0.00     0.135 A 
ATOM    106  F   UNL A   1      47.500  42.302  39.982  1.00  0.00    -0.206 F 
ATOM    107  C   UNL A   1      47.265  43.735  38.176  1.00  0.00     0.059 A 
ATOM    108  C   UNL A   1      45.857  43.168  36.306  1.00  0.00     0.059 A 
ATOM    109  F   UNL A   1      44.469  41.335  36.389  1.00  0.00    -0.206 F 
ATOM    110  C   UNL A   1      46.754  44.026  36.916  1.00  0.00     0.060 A 
BRANCH 110 111
ATOM    111  S   UNL A   1      47.243  45.539  36.081  1.00  0.00     0.124 S 
ATOM    112  O   UNL A   1      47.967  45.005  34.932  1.00  0.00    -0.237 OA
ATOM    113  O   UNL A   1      45.961  46.171  35.781  1.00  0.00    -0.237 OA
ATOM    114  O   UNL A   1      48.055  46.228  37.078  1.00  0.00    -0.744 OA
ENDBRANCH 110 111
ENDBRANCH  78 103
ENDBRANCH  52  53
ENDBRANCH  45  47
ENDBRANCH  44  45
ENDBRANCH  43  44
ENDBRANCH  42  43
ENDBRANCH  41  42
ENDBRANCH  40  41
ENDBRANCH   1  40
TORSDOF 23
ENDMDL
MODEL 2
REMARK VINA RESULT:      -9.8      9.695     12.953
REMARK SMILES Cc1ccc(NC(=O)c2cnn3c2NC2=C(C(=O)CCC2)[C@H]3c2ccc(C(=O)OCCOCCOCCOC(=O)c3ccc(-c4c5nc(c(-c6c(F)cc(S(=O)(=O)[O-])cc6F)c6ccc([nH]6)c(-c6c(F)cc(S(=O)(=O)[O-])cc6F)c6nc(c(-c7c(F)cc(S(=O)(=O)[O-])cc7F)c7ccc4[nH]7)C=C6)C=C5)cc3)cc2)cc1
REMARK SMILES IDX 33 1 32 2 31 3 30 4 29 5 27 6 28 7 26 8 23 9 24 10 108 11
REMARK SMILES IDX 25 12 107 13 22 14 9 15 10 16 13 17 11 18 12 19 14 20 15 21
REMARK SMILES IDX 16 23 21 24 17 25 20 26 18 27 19 28 7 29 6 30 8 32 5 33 1 34
REMARK SMILES IDX 2 35 3 36 110 37 4 38 109 39 34 40 35 41 36 42 37 43 38 44
REMARK SMILES IDX 39 45 40 46 41 47 42 48 106 49 43 50 105 51 44 52 45 53
REMARK SMILES IDX 46 54 99 55 47 56 104 57 98 58 100 59 48 60 103 61 97 62
REMARK SMILES IDX 96 63 49 65 83 66 62 67 82 68 63 69 66 70 81 71 101 72 64 73
REMARK SMILES IDX 65 74 80 76 102 77 67 78 50 79 51 80 60 81 52 82 53 83 59 84
REMARK SMILES IDX 61 85 54 86 55 87 56 88 57 89 58 90 84 91 85 92 94 93 86 94
REMARK SMILES IDX 87 95 93 96 95 97 88 98 89 99 90 100 91 101 92 102 68 103
REMARK SMILES IDX 69 104 78 105 70 106 71 107 77 108 79 109 72 110 73 111
REMARK SMILES IDX 74 112 75 113 76 114
REMARK H PARENT 14 22 6 31 100 64 66 75
REMARK Flexibility Score: inf
ROOT
ATOM      1  C   UNL A   1      35.505  33.908  30.214  1.00  0.00     0.188 C 
ENDROOT
BRANCH   1   2
ATOM      2  O   UNL A   1      36.327  32.918  29.572  1.00  0.00    -0.376 OA
BRANCH   2   3
ATOM      3  C   UNL A   1      35.759  31.939  28.696  1.00  0.00     0.202 C 
BRANCH   3   4
ATOM      4  C   UNL A   1      36.734  30.884  27.970  1.00  0.00     0.261 C 
BRANCH   4   5
ATOM      5  O   UNL A   1      38.072  30.451  28.571  1.00  0.00    -0.460 OA
BRANCH   5   6
ATOM      6  C   UNL A   1      38.874  29.552  27.834  1.00  0.00     0.338 C 
ATOM      7  O   UNL A   1      38.694  29.531  26.621  1.00  0.00    -0.246 OA
BRANCH   6   8
ATOM      8  C   UNL A   1      40.143  28.664  28.539  1.00  0.00     0.060 A 
ATOM      9  C   UNL A   1      42.665  27.064  29.164  1.00  0.00    -0.019 A 
ATOM     10  C   UNL A   1      42.734  28.336  28.721  1.00  0.00     0.007 A 
ATOM     11  C   UNL A   1      41.320  26.672  29.471  1.00  0.00     0.007 A 
ATOM     12  C   UNL A   1      41.531  28.991  28.403  1.00  0.00     0.016 A 
ATOM     13  C   UNL A   1      40.081  27.434  29.144  1.00  0.00     0.016 A 
BRANCH   9  14
ATOM     14  C   UNL A   1      43.963  26.164  29.063  1.00  0.00     0.175 C 
ATOM     15  C   UNL A   1      42.149  23.375  27.982  1.00  0.00     0.102 A 
ATOM     16  C   UNL A   1      42.758  22.909  29.189  1.00  0.00     0.151 A 
ATOM     17  C   UNL A   1      42.944  24.442  27.616  1.00  0.00     0.142 A 
ATOM     18  N   UNL A   1      43.584  23.808  29.730  1.00  0.00    -0.178 NA
ATOM     19  N   UNL A   1      43.486  24.808  28.843  1.00  0.00    -0.237 N 
ATOM     20  N   UNL A   1      43.231  25.233  26.526  1.00  0.00    -0.343 N 
ATOM     21  C   UNL A   1      44.345  26.102  26.582  1.00  0.00     0.026 C 
ATOM     22  H   UNL A   1      42.668  25.195  25.720  1.00  0.00     0.168 HD
ATOM     23  C   UNL A   1      44.874  26.340  27.813  1.00  0.00     0.044 C 
ATOM     24  C   UNL A   1      45.198  26.376  25.357  1.00  0.00     0.055 C 
ATOM     25  C   UNL A   1      46.217  25.624  27.858  1.00  0.00     0.163 C 
ATOM     26  C   UNL A   1      46.442  25.486  25.341  1.00  0.00     0.014 C 
ATOM     27  O   UNL A   1      46.889  25.624  28.888  1.00  0.00    -0.294 OA
ATOM     28  C   UNL A   1      46.593  24.730  26.655  1.00  0.00     0.081 C 
BRANCH  15  29
ATOM     29  C   UNL A   1      40.976  22.850  27.351  1.00  0.00     0.261 C 
ATOM     30  N   UNL A   1      41.114  21.873  26.379  1.00  0.00    -0.322 N 
ATOM     31  H   UNL A   1      40.313  21.749  25.820  1.00  0.00     0.170 HD
ATOM     32  O   UNL A   1      39.841  23.289  27.623  1.00  0.00    -0.269 OA
BRANCH  30  33
ATOM     33  C   UNL A   1      42.195  21.015  26.035  1.00  0.00     0.041 A 
ATOM     34  C   UNL A   1      45.590  18.493  25.016  1.00  0.00     0.044 C 
ATOM     35  C   UNL A   1      44.429  19.381  25.347  1.00  0.00    -0.051 A 
ATOM     36  C   UNL A   1      43.278  18.823  25.883  1.00  0.00     0.005 A 
ATOM     37  C   UNL A   1      44.452  20.763  25.140  1.00  0.00     0.005 A 
ATOM     38  C   UNL A   1      42.175  19.633  26.183  1.00  0.00     0.026 A 
ATOM     39  C   UNL A   1      43.345  21.570  25.475  1.00  0.00     0.026 A 
ENDBRANCH  30  33
ENDBRANCH  15  29
ENDBRANCH   9  14
ENDBRANCH   6   8
ENDBRANCH   5   6
ENDBRANCH   4   5
ENDBRANCH   3   4
ENDBRANCH   2   3
ENDBRANCH   1   2
BRANCH   1  40
ATOM     40  C   UNL A   1      34.702  33.577  31.468  1.00  0.00     0.188 C 
BRANCH  40  41
ATOM     41  O   UNL A   1      35.076  32.291  31.929  1.00  0.00    -0.376 OA
BRANCH  41  42
ATOM     42  C   UNL A   1      36.062  32.221  32.935  1.00  0.00     0.202 C 
BRANCH  42  43
ATOM     43  C   UNL A   1      37.230  31.292  32.573  1.00  0.00     0.261 C 
BRANCH  43  44
ATOM     44  O   UNL A   1      37.459  30.314  33.627  1.00  0.00    -0.460 OA
BRANCH  44  45
ATOM     45  C   UNL A   1      38.159  29.174  33.311  1.00  0.00     0.338 C 
ATOM     46  O   UNL A   1      37.579  28.114  33.045  1.00  0.00    -0.246 OA
BRANCH  45  47
ATOM     47  C   UNL A   1      39.647  29.425  33.211  1.00  0.00     0.060 A 
ATOM     48  C   UNL A   1      40.578  29.722  34.216  1.00  0.00     0.016 A 
ATOM     49  C   UNL A   1      40.152  29.516  31.951  1.00  0.00     0.016 A 
ATOM     50  C   UNL A   1      41.962  30.117  33.908  1.00  0.00     0.010 A 
ATOM     51  C   UNL A   1      41.374  30.165  31.715  1.00  0.00     0.010 A 
ATOM     52  C   UNL A   1      42.409  30.345  32.596  1.00  0.00    -0.014 A 
BRANCH  52  53
ATOM     53  C   UNL A   1      43.752  30.789  31.883  1.00  0.00     0.031 A 
ATOM     54  C   UNL A   1      44.118  31.623  30.456  1.00  0.00     0.074 A 
ATOM     55  C   UNL A   1      44.759  30.661  32.768  1.00  0.00     0.049 A 
ATOM     56  N   UNL A   1      45.340  31.693  29.987  1.00  0.00    -0.248 NA
ATOM     57  C   UNL A   1      43.279  32.288  29.379  1.00  0.00     0.031 C 
ATOM     58  C   UNL A   1      46.056  31.298  32.772  1.00  0.00     0.029 A 
ATOM     59  N   UNL A   1      44.822  29.720  33.798  1.00  0.00    -0.354 N 
ATOM     60  C   UNL A   1      45.375  32.637  28.941  1.00  0.00     0.074 A 
ATOM     61  C   UNL A   1      44.083  32.735  28.426  1.00  0.00     0.031 C 
ATOM     62  C   UNL A   1      46.881  30.562  33.533  1.00  0.00     0.029 A 
ATOM     63  C   UNL A   1      46.162  29.360  33.930  1.00  0.00     0.049 A 
ATOM     64  H   UNL A   1      44.067  29.377  34.328  1.00  0.00     0.167 HD
ATOM     65  C   UNL A   1      46.450  33.440  28.733  1.00  0.00     0.037 A 
ATOM     66  C   UNL A   1      46.518  28.068  33.677  1.00  0.00     0.037 A 
ATOM     67  C   UNL A   1      47.565  32.828  29.397  1.00  0.00     0.049 A 
ATOM     68  C   UNL A   1      47.454  27.980  32.502  1.00  0.00     0.074 A 
ATOM     69  C   UNL A   1      48.292  33.101  30.532  1.00  0.00     0.029 A 
ATOM     70  N   UNL A   1      47.832  31.525  29.036  1.00  0.00    -0.354 N 
ATOM     71  N   UNL A   1      47.609  28.957  31.649  1.00  0.00    -0.248 NA
ATOM     72  C   UNL A   1      48.342  26.861  32.211  1.00  0.00     0.031 C 
ATOM     73  C   UNL A   1      48.929  31.882  30.910  1.00  0.00     0.029 A 
ATOM     74  C   UNL A   1      48.609  30.906  29.977  1.00  0.00     0.049 A 
ATOM     75  H   UNL A   1      47.507  31.096  28.212  1.00  0.00     0.167 HD
ATOM     76  C   UNL A   1      48.576  28.644  30.740  1.00  0.00     0.074 A 
ATOM     77  C   UNL A   1      48.997  27.312  31.124  1.00  0.00     0.031 C 
ATOM     78  C   UNL A   1      48.936  29.508  29.750  1.00  0.00     0.037 A 
BRANCH  65  79
ATOM     79  C   UNL A   1      46.498  34.808  28.054  1.00  0.00     0.058 A 
ATOM     80  C   UNL A   1      47.213  34.930  26.841  1.00  0.00     0.135 A 
ATOM     81  C   UNL A   1      46.014  36.043  28.561  1.00  0.00     0.135 A 
ATOM     82  F   UNL A   1      47.743  33.854  26.242  1.00  0.00    -0.206 F 
ATOM     83  C   UNL A   1      47.443  36.151  26.197  1.00  0.00     0.059 A 
ATOM     84  C   UNL A   1      46.191  37.274  27.903  1.00  0.00     0.059 A 
ATOM     85  F   UNL A   1      45.397  36.141  29.744  1.00  0.00    -0.206 F 
ATOM     86  C   UNL A   1      46.923  37.322  26.728  1.00  0.00     0.060 A 
BRANCH  86  87
ATOM     87  S   UNL A   1      47.233  38.879  25.869  1.00  0.00     0.124 S 
ATOM     88  O   UNL A   1      45.887  39.426  25.727  1.00  0.00    -0.237 OA
ATOM     89  O   UNL A   1      48.106  39.581  26.804  1.00  0.00    -0.237 OA
ATOM     90  O   UNL A   1      47.869  38.466  24.620  1.00  0.00    -0.744 OA
ENDBRANCH  86  87
ENDBRANCH  65  79
BRANCH  66  91
ATOM     91  C   UNL A   1      45.505  27.093  34.203  1.00  0.00     0.058 A 
ATOM     92  C   UNL A   1      45.516  26.912  35.605  1.00  0.00     0.135 A 
ATOM     93  C   UNL A   1      44.295  26.804  33.546  1.00  0.00     0.135 A 
ATOM     94  F   UNL A   1      46.645  27.149  36.295  1.00  0.00    -0.206 F 
ATOM     95  C   UNL A   1      44.357  26.669  36.337  1.00  0.00     0.059 A 
ATOM     96  C   UNL A   1      43.120  26.516  34.266  1.00  0.00     0.059 A 
ATOM     97  F   UNL A   1      44.192  26.952  32.216  1.00  0.00    -0.206 F 
ATOM     98  C   UNL A   1      43.149  26.549  35.661  1.00  0.00     0.060 A 
BRANCH  98  99
ATOM     99  S   UNL A   1      41.623  26.640  36.638  1.00  0.00     0.124 S 
ATOM    100  O   UNL A   1      41.403  28.086  36.733  1.00  0.00    -0.237 OA
ATOM    101  O   UNL A   1      40.684  25.927  35.769  1.00  0.00    -0.237 OA
ATOM    102  O   UNL A   1      41.976  25.978  37.879  1.00  0.00    -0.744 OA
ENDBRANCH  98  99
ENDBRANCH  66  91
BRANCH  78 103
ATOM    103  C   UNL A   1      49.561  29.130  28.421  1.00  0.00     0.058 A 
ATOM    104  C   UNL A   1      48.826  28.660  27.324  1.00  0.00     0.135 A 
ATOM    105  C   UNL A   1      50.918  29.459  28.145  1.00  0.00     0.135 A 
ATOM    106  F   UNL A   1      47.511  28.419  27.407  1.00  0.00    -0.206 F 
ATOM    107  C   UNL A   1      49.405  28.458  26.071  1.00  0.00     0.059 A 
ATOM    108  C   UNL A   1      51.487  29.358  26.882  1.00  0.00     0.059 A 
ATOM    109  F   UNL A   1      51.742  29.924  29.097  1.00  0.00    -0.206 F 
ATOM    110  C   UNL A   1      50.735  28.806  25.861  1.00  0.00     0.060 A 
BRANCH 110 111
ATOM    111  S   UNL A   1      51.491  28.518  24.257  1.00  0.00     0.124 S 
ATOM    112  O   UNL A   1      51.639  29.884  23.767  1.00  0.00    -0.237 OA
ATOM    113  O   UNL A   1      52.733  27.833  24.604  1.00  0.00    -0.237 OA
ATOM    114  O   UNL A   1      50.505  27.698  23.562  1.00  0.00    -0.744 OA
ENDBRANCH 110 111
ENDBRANCH  78 103
ENDBRANCH  52  53
ENDBRANCH  45  47
ENDBRANCH  44  45
ENDBRANCH  43  44
ENDBRANCH  42  43
ENDBRANCH  41  42
ENDBRANCH  40  41
ENDBRANCH   1  40
TORSDOF 23
ENDMDL
MODEL 3
REMARK VINA RESULT:      -9.6      7.486     16.515
REMARK SMILES Cc1ccc(NC(=O)c2cnn3c2NC2=C(C(=O)CCC2)[C@H]3c2ccc(C(=O)OCCOCCOCCOC(=O)c3ccc(-c4c5nc(c(-c6c(F)cc(S(=O)(=O)[O-])cc6F)c6ccc([nH]6)c(-c6c(F)cc(S(=O)(=O)[O-])cc6F)c6nc(c(-c7c(F)cc(S(=O)(=O)[O-])cc7F)c7ccc4[nH]7)C=C6)C=C5)cc3)cc2)cc1
REMARK SMILES IDX 33 1 32 2 31 3 30 4 29 5 27 6 28 7 26 8 23 9 24 10 108 11
REMARK SMILES IDX 25 12 107 13 22 14 9 15 10 16 13 17 11 18 12 19 14 20 15 21
REMARK SMILES IDX 16 23 21 24 17 25 20 26 18 27 19 28 7 29 6 30 8 32 5 33 1 34
REMARK SMILES IDX 2 35 3 36 110 37 4 38 109 39 34 40 35 41 36 42 37 43 38 44
REMARK SMILES IDX 39 45 40 46 41 47 42 48 106 49 43 50 105 51 44 52 45 53
REMARK SMILES IDX 46 54 99 55 47 56 104 57 98 58 100 59 48 60 103 61 97 62
REMARK SMILES IDX 96 63 49 65 83 66 62 67 82 68 63 69 66 70 81 71 101 72 64 73
REMARK SMILES IDX 65 74 80 76 102 77 67 78 50 79 51 80 60 81 52 82 53 83 59 84
REMARK SMILES IDX 61 85 54 86 55 87 56 88 57 89 58 90 84 91 85 92 94 93 86 94
REMARK SMILES IDX 87 95 93 96 95 97 88 98 89 99 90 100 91 101 92 102 68 103
REMARK SMILES IDX 69 104 78 105 70 106 71 107 77 108 79 109 72 110 73 111
REMARK SMILES IDX 74 112 75 113 76 114
REMARK H PARENT 14 22 6 31 100 64 66 75
REMARK Flexibility Score: inf
ROOT
ATOM      1  C   UNL A   1      40.962  37.907  39.424  1.00  0.00     0.188 C 
ENDROOT
BRANCH   1   2
ATOM      2  O   UNL A   1      42.067  36.994  39.308  1.00  0.00    -0.376 OA
BRANCH   2   3
ATOM      3  C   UNL A   1      42.857  36.934  38.117  1.00  0.00     0.202 C 
BRANCH   3   4
ATOM      4  C   UNL A   1      43.271  35.494  37.528  1.00  0.00     0.261 C 
BRANCH   4   5
ATOM      5  O   UNL A   1      44.103  35.333  36.256  1.00  0.00    -0.460 OA
BRANCH   5   6
ATOM      6  C   UNL A   1      43.424  35.115  35.037  1.00  0.00     0.338 C 
ATOM      7  O   UNL A   1      42.583  34.223  35.035  1.00  0.00    -0.246 OA
BRANCH   6   8
ATOM      8  C   UNL A   1      43.614  36.132  33.685  1.00  0.00     0.060 A 
ATOM      9  C   UNL A   1      44.610  37.966  31.461  1.00  0.00    -0.019 A 
ATOM     10  C   UNL A   1      45.045  36.694  31.566  1.00  0.00     0.007 A 
ATOM     11  C   UNL A   1      43.532  38.245  32.364  1.00  0.00     0.007 A 
ATOM     12  C   UNL A   1      44.581  35.926  32.649  1.00  0.00     0.016 A 
ATOM     13  C   UNL A   1      43.058  37.367  33.471  1.00  0.00     0.016 A 
BRANCH   9  14
ATOM     14  C   UNL A   1      45.455  38.975  30.580  1.00  0.00     0.175 C 
ATOM     15  C   UNL A   1      43.502  38.389  27.737  1.00  0.00     0.102 A 
ATOM     16  C   UNL A   1      44.810  37.999  27.310  1.00  0.00     0.151 A 
ATOM     17  C   UNL A   1      43.753  39.222  28.808  1.00  0.00     0.142 A 
ATOM     18  N   UNL A   1      45.745  38.231  28.235  1.00  0.00    -0.178 NA
ATOM     19  N   UNL A   1      45.006  38.774  29.211  1.00  0.00    -0.237 N 
ATOM     20  N   UNL A   1      43.136  40.183  29.579  1.00  0.00    -0.343 N 
ATOM     21  C   UNL A   1      43.918  40.957  30.467  1.00  0.00     0.026 C 
ATOM     22  H   UNL A   1      42.165  40.328  29.512  1.00  0.00     0.168 HD
ATOM     23  C   UNL A   1      45.169  40.496  30.742  1.00  0.00     0.044 C 
ATOM     24  C   UNL A   1      43.607  42.420  30.726  1.00  0.00     0.055 C 
ATOM     25  C   UNL A   1      46.145  41.438  30.049  1.00  0.00     0.163 C 
ATOM     26  C   UNL A   1      44.475  43.331  29.856  1.00  0.00     0.014 C 
ATOM     27  O   UNL A   1      47.354  41.218  30.084  1.00  0.00    -0.294 OA
ATOM     28  C   UNL A   1      45.555  42.535  29.133  1.00  0.00     0.081 C 
BRANCH  15  29
ATOM     29  C   UNL A   1      42.253  37.968  27.178  1.00  0.00     0.261 C 
ATOM     30  N   UNL A   1      41.834  36.663  27.375  1.00  0.00    -0.322 N 
ATOM     31  H   UNL A   1      41.117  36.377  26.763  1.00  0.00     0.170 HD
ATOM     32  O   UNL A   1      41.564  38.736  26.479  1.00  0.00    -0.269 OA
BRANCH  30  33
ATOM     33  C   UNL A   1      42.242  35.658  28.294  1.00  0.00     0.041 A 
ATOM     34  C   UNL A   1      43.621  32.595  31.058  1.00  0.00     0.044 C 
ATOM     35  C   UNL A   1      43.155  33.634  30.083  1.00  0.00    -0.051 A 
ATOM     36  C   UNL A   1      42.109  34.474  30.434  1.00  0.00     0.005 A 
ATOM     37  C   UNL A   1      43.735  33.800  28.822  1.00  0.00     0.005 A 
ATOM     38  C   UNL A   1      41.647  35.440  29.531  1.00  0.00     0.026 A 
ATOM     39  C   UNL A   1      43.279  34.797  27.936  1.00  0.00     0.026 A 
ENDBRANCH  30  33
ENDBRANCH  15  29
ENDBRANCH   9  14
ENDBRANCH   6   8
ENDBRANCH   5   6
ENDBRANCH   4   5
ENDBRANCH   3   4
ENDBRANCH   2   3
ENDBRANCH   1   2
BRANCH   1  40
ATOM     40  C   UNL A   1      39.531  37.401  39.580  1.00  0.00     0.188 C 
BRANCH  40  41
ATOM     41  O   UNL A   1      39.162  36.694  38.410  1.00  0.00    -0.376 OA
BRANCH  41  42
ATOM     42  C   UNL A   1      39.247  35.287  38.444  1.00  0.00     0.202 C 
BRANCH  42  43
ATOM     43  C   UNL A   1      39.595  34.669  37.082  1.00  0.00     0.261 C 
BRANCH  43  44
ATOM     44  O   UNL A   1      38.388  34.275  36.370  1.00  0.00    -0.460 OA
BRANCH  44  45
ATOM     45  C   UNL A   1      38.203  32.940  36.101  1.00  0.00     0.338 C 
ATOM     46  O   UNL A   1      37.259  32.308  36.590  1.00  0.00    -0.246 OA
BRANCH  45  47
ATOM     47  C   UNL A   1      39.186  32.421  35.075  1.00  0.00     0.060 A 
ATOM     48  C   UNL A   1      39.604  32.988  33.863  1.00  0.00     0.016 A 
ATOM     49  C   UNL A   1      39.639  31.153  35.273  1.00  0.00     0.016 A 
ATOM     50  C   UNL A   1      40.436  32.250  32.900  1.00  0.00     0.010 A 
ATOM     51  C   UNL A   1      40.178  30.413  34.210  1.00  0.00     0.010 A 
ATOM     52  C   UNL A   1      40.763  30.895  33.067  1.00  0.00    -0.014 A 
BRANCH  52  53
ATOM     53  C   UNL A   1      41.574  29.785  32.278  1.00  0.00     0.031 A 
ATOM     54  C   UNL A   1      43.185  29.266  32.281  1.00  0.00     0.074 A 
ATOM     55  C   UNL A   1      40.689  28.965  31.681  1.00  0.00     0.049 A 
ATOM     56  N   UNL A   1      43.650  28.442  31.374  1.00  0.00    -0.248 NA
ATOM     57  C   UNL A   1      44.414  29.649  33.086  1.00  0.00     0.031 C 
ATOM     58  C   UNL A   1      40.874  27.611  31.211  1.00  0.00     0.029 A 
ATOM     59  N   UNL A   1      39.423  29.331  31.218  1.00  0.00    -0.354 N 
ATOM     60  C   UNL A   1      44.932  28.006  31.766  1.00  0.00     0.074 A 
ATOM     61  C   UNL A   1      45.456  28.974  32.623  1.00  0.00     0.031 C 
ATOM     62  C   UNL A   1      39.925  27.351  30.298  1.00  0.00     0.029 A 
ATOM     63  C   UNL A   1      39.185  28.583  30.066  1.00  0.00     0.049 A 
ATOM     64  H   UNL A   1      38.816  29.989  31.626  1.00  0.00     0.167 HD
ATOM     65  C   UNL A   1      45.370  26.745  31.519  1.00  0.00     0.037 A 
ATOM     66  C   UNL A   1      39.036  29.241  28.881  1.00  0.00     0.037 A 
ATOM     67  C   UNL A   1      44.550  26.215  30.467  1.00  0.00     0.049 A 
ATOM     68  C   UNL A   1      40.128  28.875  27.912  1.00  0.00     0.074 A 
ATOM     69  C   UNL A   1      43.549  25.276  30.394  1.00  0.00     0.029 A 
ATOM     70  N   UNL A   1      44.500  26.967  29.313  1.00  0.00    -0.354 N 
ATOM     71  N   UNL A   1      41.235  28.291  28.285  1.00  0.00    -0.248 NA
ATOM     72  C   UNL A   1      40.065  29.044  26.465  1.00  0.00     0.031 C 
ATOM     73  C   UNL A   1      42.819  25.552  29.200  1.00  0.00     0.029 A 
ATOM     74  C   UNL A   1      43.414  26.627  28.554  1.00  0.00     0.049 A 
ATOM     75  H   UNL A   1      45.158  27.657  29.068  1.00  0.00     0.167 HD
ATOM     76  C   UNL A   1      42.005  27.997  27.199  1.00  0.00     0.074 A 
ATOM     77  C   UNL A   1      41.237  28.502  26.080  1.00  0.00     0.031 C 
ATOM     78  C   UNL A   1      43.209  27.370  27.323  1.00  0.00     0.037 A 
BRANCH  65  79
ATOM     79  C   UNL A   1      46.431  25.942  32.271  1.00  0.00     0.058 A 
ATOM     80  C   UNL A   1      46.004  25.035  33.266  1.00  0.00     0.135 A 
ATOM     81  C   UNL A   1      47.841  26.086  32.194  1.00  0.00     0.135 A 
ATOM     82  F   UNL A   1      44.700  24.799  33.471  1.00  0.00    -0.206 F 
ATOM     83  C   UNL A   1      46.879  24.346  34.114  1.00  0.00     0.059 A 
ATOM     84  C   UNL A   1      48.740  25.365  33.001  1.00  0.00     0.059 A 
ATOM     85  F   UNL A   1      48.429  26.969  31.378  1.00  0.00    -0.206 F 
ATOM     86  C   UNL A   1      48.249  24.508  33.973  1.00  0.00     0.060 A 
BRANCH  86  87
ATOM     87  S   UNL A   1      49.350  23.600  35.078  1.00  0.00     0.124 S 
ATOM     88  O   UNL A   1      48.469  23.288  36.200  1.00  0.00    -0.237 OA
ATOM     89  O   UNL A   1      49.750  22.464  34.254  1.00  0.00    -0.237 OA
ATOM     90  O   UNL A   1      50.413  24.557  35.372  1.00  0.00    -0.744 OA
ENDBRANCH  86  87
ENDBRANCH  65  79
BRANCH  66  91
ATOM     91  C   UNL A   1      38.243  30.507  29.037  1.00  0.00     0.058 A 
ATOM     92  C   UNL A   1      36.840  30.337  29.057  1.00  0.00     0.135 A 
ATOM     93  C   UNL A   1      38.742  31.659  29.670  1.00  0.00     0.135 A 
ATOM     94  F   UNL A   1      36.292  29.269  28.454  1.00  0.00    -0.206 F 
ATOM     95  C   UNL A   1      36.001  31.136  29.830  1.00  0.00     0.059 A 
ATOM     96  C   UNL A   1      37.905  32.504  30.422  1.00  0.00     0.059 A 
ATOM     97  F   UNL A   1      40.062  31.898  29.703  1.00  0.00    -0.206 F 
ATOM     98  C   UNL A   1      36.556  32.172  30.571  1.00  0.00     0.060 A 
BRANCH  98  99
ATOM     99  S   UNL A   1      35.532  32.928  31.863  1.00  0.00     0.124 S 
ATOM    100  O   UNL A   1      36.214  32.500  33.088  1.00  0.00    -0.237 OA
ATOM    101  O   UNL A   1      35.671  34.351  31.542  1.00  0.00    -0.237 OA
ATOM    102  O   UNL A   1      34.222  32.346  31.641  1.00  0.00    -0.744 OA
ENDBRANCH  98  99
ENDBRANCH  66  91
BRANCH  78 103
ATOM    103  C   UNL A   1      44.360  27.452  26.339  1.00  0.00     0.058 A 
ATOM    104  C   UNL A   1      45.233  28.546  26.255  1.00  0.00     0.135 A 
ATOM    105  C   UNL A   1      44.757  26.302  25.599  1.00  0.00     0.135 A 
ATOM    106  F   UNL A   1      45.048  29.653  26.985  1.00  0.00    -0.206 F 
ATOM    107  C   UNL A   1      46.368  28.533  25.444  1.00  0.00     0.059 A 
ATOM    108  C   UNL A   1      45.933  26.236  24.864  1.00  0.00     0.059 A 
ATOM    109  F   UNL A   1      44.023  25.178  25.587  1.00  0.00    -0.206 F 
ATOM    110  C   UNL A   1      46.707  27.376  24.751  1.00  0.00     0.060 A 
BRANCH 110 111
ATOM    111  S   UNL A   1      48.151  27.368  23.681  1.00  0.00     0.124 S 
ATOM    112  O   UNL A   1      47.756  28.342  22.669  1.00  0.00    -0.237 OA
ATOM    113  O   UNL A   1      49.221  27.790  24.581  1.00  0.00    -0.237 OA
ATOM    114  O   UNL A   1      48.231  25.983  23.232  1.00  0.00    -0.744 OA
ENDBRANCH 110 111
ENDBRANCH  78 103
ENDBRANCH  52  53
ENDBRANCH  45  47
ENDBRANCH  44  45
ENDBRANCH  43  44
ENDBRANCH  42  43
ENDBRANCH  41  42
ENDBRANCH  40  41
ENDBRANCH   1  40
TORSDOF 23
ENDMDL
