MODEL 1
REMARK VINA RESULT:     -10.0      0.000      0.000
REMARK SMILES O=C(OCCOCCOCCOC(=O)c1cc(-n2ccnc2)ccn1)c1ccc(-c2c3nc(c(-c4c(F)cc(S(=O)(=O)[O-])cc4F)c4ccc([nH]4)c(-c4c(F)cc(S(=O)(=O)[O-])cc4F)c4nc(c(-c5c(F)cc(S(=O)(=O)[O-])cc5F)c5ccc2[nH]5)C=C4)C=C3)cc1
REMARK SMILES IDX 7 1 6 2 5 3 4 4 3 5 2 6 1 7 26 8 27 9 91 10 28 11 90 12
REMARK SMILES IDX 29 13 30 14 31 15 84 16 32 17 89 18 83 19 85 20 33 21 88 22
REMARK SMILES IDX 82 23 81 24 34 26 68 27 47 28 67 29 48 30 51 31 66 32 86 33
REMARK SMILES IDX 49 34 50 35 65 37 87 38 52 39 35 40 36 41 45 42 37 43 38 44
REMARK SMILES IDX 44 45 46 46 39 47 40 48 41 49 42 50 43 51 69 52 70 53 79 54
REMARK SMILES IDX 71 55 72 56 78 57 80 58 73 59 74 60 75 61 76 62 77 63 53 64
REMARK SMILES IDX 54 65 63 66 55 67 56 68 62 69 64 70 57 71 58 72 59 73 60 74
REMARK SMILES IDX 61 75 8 76 9 77 10 78 11 79 12 80 13 81 14 82 15 83 16 84
REMARK SMILES IDX 25 85 17 86 24 87 23 88 18 89 19 90 22 91 20 92 21 93
REMARK H PARENT 85 25 51 36
REMARK Flexibility Score: inf
ROOT
ATOM      1  C   UNL A   1      31.573  29.658  24.717  1.00  0.00     0.188 C 
ENDROOT
BRANCH   1   2
ATOM      2  O   UNL A   1      31.464  29.015  25.981  1.00  0.00    -0.376 OA
BRANCH   2   3
ATOM      3  C   UNL A   1      32.625  29.014  26.794  1.00  0.00     0.202 C 
BRANCH   3   4
ATOM      4  C   UNL A   1      33.047  30.390  27.316  1.00  0.00     0.261 C 
BRANCH   4   5
ATOM      5  O   UNL A   1      34.402  30.778  27.035  1.00  0.00    -0.460 OA
BRANCH   5   6
ATOM      6  C   UNL A   1      35.256  31.581  27.698  1.00  0.00     0.338 C 
ATOM      7  O   UNL A   1      35.168  32.798  27.548  1.00  0.00    -0.246 OA
BRANCH   6   8
ATOM      8  C   UNL A   1      36.419  31.060  28.458  1.00  0.00     0.060 A 
ATOM      9  C   UNL A   1      37.355  31.848  29.127  1.00  0.00     0.016 A 
ATOM     10  C   UNL A   1      36.610  29.665  28.397  1.00  0.00     0.016 A 
ATOM     11  C   UNL A   1      38.520  31.279  29.615  1.00  0.00     0.010 A 
ATOM     12  C   UNL A   1      37.775  29.091  28.880  1.00  0.00     0.010 A 
ATOM     13  C   UNL A   1      38.761  29.923  29.402  1.00  0.00    -0.014 A 
BRANCH  13  14
ATOM     14  C   UNL A   1      40.126  29.457  29.611  1.00  0.00     0.031 A 
ATOM     15  C   UNL A   1      40.599  29.368  31.019  1.00  0.00     0.074 A 
ATOM     16  C   UNL A   1      40.870  29.083  28.549  1.00  0.00     0.049 A 
ATOM     17  N   UNL A   1      41.642  29.907  31.565  1.00  0.00    -0.248 NA
ATOM     18  C   UNL A   1      39.735  28.646  31.967  1.00  0.00     0.031 C 
ATOM     19  C   UNL A   1      40.419  28.898  27.162  1.00  0.00     0.029 A 
ATOM     20  N   UNL A   1      42.162  28.662  28.504  1.00  0.00    -0.354 N 
ATOM     21  C   UNL A   1      41.684  29.418  32.871  1.00  0.00     0.074 A 
ATOM     22  C   UNL A   1      40.418  28.773  33.104  1.00  0.00     0.031 C 
ATOM     23  C   UNL A   1      41.333  28.170  26.491  1.00  0.00     0.029 A 
ATOM     24  C   UNL A   1      42.479  27.950  27.355  1.00  0.00     0.049 A 
ATOM     25  H   UNL A   1      42.813  28.844  29.219  1.00  0.00     0.167 HD
ATOM     26  C   UNL A   1      42.836  29.381  33.598  1.00  0.00     0.037 A 
ATOM     27  C   UNL A   1      43.550  27.141  27.175  1.00  0.00     0.037 A 
ATOM     28  C   UNL A   1      43.802  30.332  33.115  1.00  0.00     0.049 A 
ATOM     29  C   UNL A   1      44.567  27.520  28.189  1.00  0.00     0.074 A 
ATOM     30  C   UNL A   1      43.824  31.706  32.976  1.00  0.00     0.029 A 
ATOM     31  N   UNL A   1      44.870  29.871  32.386  1.00  0.00    -0.354 N 
ATOM     32  N   UNL A   1      45.188  28.669  28.211  1.00  0.00    -0.248 NA
ATOM     33  C   UNL A   1      44.587  26.781  29.443  1.00  0.00     0.031 C 
ATOM     34  C   UNL A   1      44.588  31.949  31.798  1.00  0.00     0.029 A 
ATOM     35  C   UNL A   1      45.015  30.712  31.312  1.00  0.00     0.049 A 
ATOM     36  H   UNL A   1      45.428  29.087  32.595  1.00  0.00     0.167 HD
ATOM     37  C   UNL A   1      45.323  28.980  29.558  1.00  0.00     0.074 A 
ATOM     38  C   UNL A   1      45.024  27.737  30.264  1.00  0.00     0.031 C 
ATOM     39  C   UNL A   1      45.394  30.275  29.986  1.00  0.00     0.037 A 
BRANCH  26  40
ATOM     40  C   UNL A   1      43.209  28.235  34.518  1.00  0.00     0.058 A 
ATOM     41  C   UNL A   1      43.531  28.500  35.867  1.00  0.00     0.135 A 
ATOM     42  C   UNL A   1      43.553  26.945  34.056  1.00  0.00     0.135 A 
ATOM     43  F   UNL A   1      43.243  29.690  36.418  1.00  0.00    -0.206 F 
ATOM     44  C   UNL A   1      44.234  27.591  36.660  1.00  0.00     0.059 A 
ATOM     45  C   UNL A   1      44.205  26.005  34.845  1.00  0.00     0.059 A 
ATOM     46  F   UNL A   1      43.366  26.561  32.788  1.00  0.00    -0.206 F 
ATOM     47  C   UNL A   1      44.592  26.356  36.127  1.00  0.00     0.060 A 
BRANCH  47  48
ATOM     48  S   UNL A   1      45.648  25.249  37.076  1.00  0.00     0.124 S 
ATOM     49  O   UNL A   1      45.607  24.043  36.258  1.00  0.00    -0.237 OA
ATOM     50  O   UNL A   1      46.915  25.973  37.088  1.00  0.00    -0.237 OA
ATOM     51  O   UNL A   1      44.968  25.163  38.365  1.00  0.00    -0.744 OA
ENDBRANCH  47  48
ENDBRANCH  26  40
BRANCH  27  52
ATOM     52  C   UNL A   1      43.544  25.836  26.461  1.00  0.00     0.058 A 
ATOM     53  C   UNL A   1      44.421  25.579  25.396  1.00  0.00     0.135 A 
ATOM     54  C   UNL A   1      42.839  24.722  26.968  1.00  0.00     0.135 A 
ATOM     55  F   UNL A   1      45.159  26.570  24.876  1.00  0.00    -0.206 F 
ATOM     56  C   UNL A   1      44.607  24.289  24.880  1.00  0.00     0.059 A 
ATOM     57  C   UNL A   1      42.991  23.435  26.458  1.00  0.00     0.059 A 
ATOM     58  F   UNL A   1      42.042  24.831  28.040  1.00  0.00    -0.206 F 
ATOM     59  C   UNL A   1      43.895  23.221  25.427  1.00  0.00     0.060 A 
BRANCH  59  60
ATOM     60  S   UNL A   1      44.236  21.537  24.870  1.00  0.00     0.124 S 
ATOM     61  O   UNL A   1      44.390  21.720  23.431  1.00  0.00    -0.237 OA
ATOM     62  O   UNL A   1      45.452  21.210  25.605  1.00  0.00    -0.237 OA
ATOM     63  O   UNL A   1      43.045  20.795  25.278  1.00  0.00    -0.744 OA
ENDBRANCH  59  60
ENDBRANCH  27  52
BRANCH  39  64
ATOM     64  C   UNL A   1      45.603  31.358  28.958  1.00  0.00     0.058 A 
ATOM     65  C   UNL A   1      44.559  31.941  28.218  1.00  0.00     0.135 A 
ATOM     66  C   UNL A   1      46.871  31.949  28.849  1.00  0.00     0.135 A 
ATOM     67  F   UNL A   1      43.298  31.511  28.352  1.00  0.00    -0.206 F 
ATOM     68  C   UNL A   1      44.771  33.038  27.381  1.00  0.00     0.059 A 
ATOM     69  C   UNL A   1      47.100  33.064  28.043  1.00  0.00     0.059 A 
ATOM     70  F   UNL A   1      47.895  31.483  29.583  1.00  0.00    -0.206 F 
ATOM     71  C   UNL A   1      46.046  33.597  27.305  1.00  0.00     0.060 A 
BRANCH  71  72
ATOM     72  S   UNL A   1      46.288  35.086  26.311  1.00  0.00     0.124 S 
ATOM     73  O   UNL A   1      47.667  35.444  26.623  1.00  0.00    -0.237 OA
ATOM     74  O   UNL A   1      46.048  34.604  24.953  1.00  0.00    -0.237 OA
ATOM     75  O   UNL A   1      45.273  36.005  26.822  1.00  0.00    -0.744 OA
ENDBRANCH  71  72
ENDBRANCH  39  64
ENDBRANCH  13  14
ENDBRANCH   6   8
ENDBRANCH   5   6
ENDBRANCH   4   5
ENDBRANCH   3   4
ENDBRANCH   2   3
ENDBRANCH   1   2
BRANCH   1  76
ATOM     76  C   UNL A   1      30.349  29.471  23.786  1.00  0.00     0.188 C 
BRANCH  76  77
ATOM     77  O   UNL A   1      30.239  28.407  22.838  1.00  0.00    -0.376 OA
BRANCH  77  78
ATOM     78  C   UNL A   1      29.678  27.169  23.223  1.00  0.00     0.202 C 
BRANCH  78  79
ATOM     79  C   UNL A   1      30.705  26.119  23.657  1.00  0.00     0.261 C 
BRANCH  79  80
ATOM     80  O   UNL A   1      30.276  25.290  24.743  1.00  0.00    -0.459 OA
BRANCH  80  81
ATOM     81  C   UNL A   1      30.992  25.402  25.895  1.00  0.00     0.357 C 
ATOM     82  O   UNL A   1      30.730  26.083  26.869  1.00  0.00    -0.244 OA
BRANCH  81  83
ATOM     83  C   UNL A   1      32.250  24.634  25.731  1.00  0.00     0.150 A 
ATOM     84  C   UNL A   1      32.151  23.269  25.543  1.00  0.00     0.062 A 
ATOM     85  N   UNL A   1      33.421  25.318  25.739  1.00  0.00    -0.249 NA
ATOM     86  C   UNL A   1      33.333  22.550  25.351  1.00  0.00     0.050 A 
ATOM     87  C   UNL A   1      34.549  24.592  25.571  1.00  0.00     0.114 A 
ATOM     88  C   UNL A   1      34.562  23.216  25.390  1.00  0.00     0.047 A 
BRANCH  86  89
ATOM     89  N   UNL A   1      33.263  21.165  25.065  1.00  0.00    -0.306 N 
ATOM     90  C   UNL A   1      34.333  20.312  24.913  1.00  0.00     0.113 A 
ATOM     91  C   UNL A   1      32.139  20.386  24.921  1.00  0.00     0.204 A 
ATOM     92  C   UNL A   1      33.796  19.064  24.714  1.00  0.00     0.131 A 
ATOM     93  N   UNL A   1      32.432  19.121  24.706  1.00  0.00    -0.245 NA
ENDBRANCH  86  89
ENDBRANCH  81  83
ENDBRANCH  80  81
ENDBRANCH  79  80
ENDBRANCH  78  79
ENDBRANCH  77  78
ENDBRANCH  76  77
ENDBRANCH   1  76
TORSDOF 21
ENDMDL
MODEL 2
REMARK VINA RESULT:      -9.9      3.364      5.345
REMARK SMILES O=C(OCCOCCOCCOC(=O)c1cc(-n2ccnc2)ccn1)c1ccc(-c2c3nc(c(-c4c(F)cc(S(=O)(=O)[O-])cc4F)c4ccc([nH]4)c(-c4c(F)cc(S(=O)(=O)[O-])cc4F)c4nc(c(-c5c(F)cc(S(=O)(=O)[O-])cc5F)c5ccc2[nH]5)C=C4)C=C3)cc1
REMARK SMILES IDX 7 1 6 2 5 3 4 4 3 5 2 6 1 7 26 8 27 9 91 10 28 11 90 12
REMARK SMILES IDX 29 13 30 14 31 15 84 16 32 17 89 18 83 19 85 20 33 21 88 22
REMARK SMILES IDX 82 23 81 24 34 26 68 27 47 28 67 29 48 30 51 31 66 32 86 33
REMARK SMILES IDX 49 34 50 35 65 37 87 38 52 39 35 40 36 41 45 42 37 43 38 44
REMARK SMILES IDX 44 45 46 46 39 47 40 48 41 49 42 50 43 51 69 52 70 53 79 54
REMARK SMILES IDX 71 55 72 56 78 57 80 58 73 59 74 60 75 61 76 62 77 63 53 64
REMARK SMILES IDX 54 65 63 66 55 67 56 68 62 69 64 70 57 71 58 72 59 73 60 74
REMARK SMILES IDX 61 75 8 76 9 77 10 78 11 79 12 80 13 81 14 82 15 83 16 84
REMARK SMILES IDX 25 85 17 86 24 87 23 88 18 89 19 90 22 91 20 92 21 93
REMARK H PARENT 85 25 51 36
REMARK Flexibility Score: inf
ROOT
ATOM      1  C   UNL A   1      33.926  34.034  28.174  1.00  0.00     0.188 C 
ENDROOT
BRANCH   1   2
ATOM      2  O   UNL A   1      32.843  34.660  28.850  1.00  0.00    -0.376 OA
BRANCH   2   3
ATOM      3  C   UNL A   1      32.996  36.037  29.152  1.00  0.00     0.202 C 
BRANCH   3   4
ATOM      4  C   UNL A   1      32.568  36.438  30.567  1.00  0.00     0.261 C 
BRANCH   4   5
ATOM      5  O   UNL A   1      33.451  36.035  31.626  1.00  0.00    -0.460 OA
BRANCH   5   6
ATOM      6  C   UNL A   1      33.525  34.897  32.342  1.00  0.00     0.338 C 
ATOM      7  O   UNL A   1      32.504  34.452  32.863  1.00  0.00    -0.246 OA
BRANCH   6   8
ATOM      8  C   UNL A   1      34.816  34.250  32.687  1.00  0.00     0.060 A 
ATOM      9  C   UNL A   1      35.994  34.929  32.992  1.00  0.00     0.016 A 
ATOM     10  C   UNL A   1      34.834  32.843  32.594  1.00  0.00     0.016 A 
ATOM     11  C   UNL A   1      37.192  34.237  33.080  1.00  0.00     0.010 A 
ATOM     12  C   UNL A   1      36.030  32.147  32.678  1.00  0.00     0.010 A 
ATOM     13  C   UNL A   1      37.211  32.867  32.827  1.00  0.00    -0.014 A 
BRANCH  13  14
ATOM     14  C   UNL A   1      38.514  32.262  32.583  1.00  0.00     0.031 A 
ATOM     15  C   UNL A   1      39.408  32.093  33.760  1.00  0.00     0.074 A 
ATOM     16  C   UNL A   1      38.828  31.839  31.340  1.00  0.00     0.049 A 
ATOM     17  N   UNL A   1      40.622  32.512  33.929  1.00  0.00    -0.248 NA
ATOM     18  C   UNL A   1      38.833  31.440  34.947  1.00  0.00     0.031 C 
ATOM     19  C   UNL A   1      37.932  31.734  30.179  1.00  0.00     0.029 A 
ATOM     20  N   UNL A   1      39.984  31.292  30.880  1.00  0.00    -0.354 N 
ATOM     21  C   UNL A   1      41.038  31.992  35.155  1.00  0.00     0.074 A 
ATOM     22  C   UNL A   1      39.859  31.471  35.796  1.00  0.00     0.031 C 
ATOM     23  C   UNL A   1      38.498  30.932  29.255  1.00  0.00     0.029 A 
ATOM     24  C   UNL A   1      39.834  30.580  29.699  1.00  0.00     0.049 A 
ATOM     25  H   UNL A   1      40.848  31.392  31.341  1.00  0.00     0.167 HD
ATOM     26  C   UNL A   1      42.354  31.822  35.465  1.00  0.00     0.037 A 
ATOM     27  C   UNL A   1      40.698  29.671  29.187  1.00  0.00     0.037 A 
ATOM     28  C   UNL A   1      43.201  32.682  34.683  1.00  0.00     0.049 A 
ATOM     29  C   UNL A   1      42.024  29.922  29.808  1.00  0.00     0.074 A 
ATOM     30  C   UNL A   1      43.318  34.050  34.529  1.00  0.00     0.029 A 
ATOM     31  N   UNL A   1      43.920  32.133  33.649  1.00  0.00    -0.354 N 
ATOM     32  N   UNL A   1      42.733  31.002  29.613  1.00  0.00    -0.248 NA
ATOM     33  C   UNL A   1      42.376  29.156  30.995  1.00  0.00     0.031 C 
ATOM     34  C   UNL A   1      43.676  34.242  33.163  1.00  0.00     0.029 A 
ATOM     35  C   UNL A   1      43.791  32.981  32.578  1.00  0.00     0.049 A 
ATOM     36  H   UNL A   1      44.432  31.293  33.673  1.00  0.00     0.167 HD
ATOM     37  C   UNL A   1      43.331  31.267  30.839  1.00  0.00     0.074 A 
ATOM     38  C   UNL A   1      43.154  30.045  31.618  1.00  0.00     0.031 C 
ATOM     39  C   UNL A   1      43.670  32.538  31.206  1.00  0.00     0.037 A 
BRANCH  26  40
ATOM     40  C   UNL A   1      42.887  30.624  36.226  1.00  0.00     0.058 A 
ATOM     41  C   UNL A   1      43.843  30.814  37.247  1.00  0.00     0.135 A 
ATOM     42  C   UNL A   1      42.726  29.289  35.790  1.00  0.00     0.135 A 
ATOM     43  F   UNL A   1      44.075  32.039  37.747  1.00  0.00    -0.206 F 
ATOM     44  C   UNL A   1      44.647  29.776  37.721  1.00  0.00     0.059 A 
ATOM     45  C   UNL A   1      43.479  28.232  36.286  1.00  0.00     0.059 A 
ATOM     46  F   UNL A   1      41.903  28.954  34.789  1.00  0.00    -0.206 F 
ATOM     47  C   UNL A   1      44.476  28.493  37.210  1.00  0.00     0.060 A 
BRANCH  47  48
ATOM     48  S   UNL A   1      45.621  27.185  37.682  1.00  0.00     0.124 S 
ATOM     49  O   UNL A   1      44.722  26.043  37.790  1.00  0.00    -0.237 OA
ATOM     50  O   UNL A   1      46.546  27.170  36.554  1.00  0.00    -0.237 OA
ATOM     51  O   UNL A   1      46.182  27.672  38.939  1.00  0.00    -0.744 OA
ENDBRANCH  47  48
ENDBRANCH  26  40
BRANCH  27  52
ATOM     52  C   UNL A   1      40.326  28.390  28.529  1.00  0.00     0.058 A 
ATOM     53  C   UNL A   1      40.797  28.060  27.248  1.00  0.00     0.135 A 
ATOM     54  C   UNL A   1      39.693  27.350  29.245  1.00  0.00     0.135 A 
ATOM     55  F   UNL A   1      41.443  28.975  26.511  1.00  0.00    -0.206 F 
ATOM     56  C   UNL A   1      40.668  26.769  26.718  1.00  0.00     0.059 A 
ATOM     57  C   UNL A   1      39.535  26.066  28.732  1.00  0.00     0.059 A 
ATOM     58  F   UNL A   1      39.284  27.524  30.510  1.00  0.00    -0.206 F 
ATOM     59  C   UNL A   1      40.046  25.775  27.474  1.00  0.00     0.060 A 
BRANCH  59  60
ATOM     60  S   UNL A   1      40.007  24.075  26.862  1.00  0.00     0.124 S 
ATOM     61  O   UNL A   1      38.668  23.990  26.292  1.00  0.00    -0.237 OA
ATOM     62  O   UNL A   1      41.109  24.067  25.908  1.00  0.00    -0.237 OA
ATOM     63  O   UNL A   1      40.223  23.275  28.066  1.00  0.00    -0.744 OA
ENDBRANCH  59  60
ENDBRANCH  27  52
BRANCH  39  64
ATOM     64  C   UNL A   1      43.642  33.618  30.154  1.00  0.00     0.058 A 
ATOM     65  C   UNL A   1      42.496  34.371  29.842  1.00  0.00     0.135 A 
ATOM     66  C   UNL A   1      44.853  34.026  29.573  1.00  0.00     0.135 A 
ATOM     67  F   UNL A   1      41.325  34.121  30.441  1.00  0.00    -0.206 F 
ATOM     68  C   UNL A   1      42.543  35.457  28.967  1.00  0.00     0.059 A 
ATOM     69  C   UNL A   1      44.929  35.126  28.721  1.00  0.00     0.059 A 
ATOM     70  F   UNL A   1      45.994  33.392  29.885  1.00  0.00    -0.206 F 
ATOM     71  C   UNL A   1      43.767  35.832  28.415  1.00  0.00     0.060 A 
BRANCH  71  72
ATOM     72  S   UNL A   1      43.841  37.308  27.376  1.00  0.00     0.124 S 
ATOM     73  O   UNL A   1      45.148  37.172  26.741  1.00  0.00    -0.237 OA
ATOM     74  O   UNL A   1      42.687  37.135  26.496  1.00  0.00    -0.237 OA
ATOM     75  O   UNL A   1      43.722  38.405  28.333  1.00  0.00    -0.744 OA
ENDBRANCH  71  72
ENDBRANCH  39  64
ENDBRANCH  13  14
ENDBRANCH   6   8
ENDBRANCH   5   6
ENDBRANCH   4   5
ENDBRANCH   3   4
ENDBRANCH   2   3
ENDBRANCH   1   2
BRANCH   1  76
ATOM     76  C   UNL A   1      34.524  32.806  28.906  1.00  0.00     0.188 C 
BRANCH  76  77
ATOM     77  O   UNL A   1      34.401  31.466  28.422  1.00  0.00    -0.376 OA
BRANCH  77  78
ATOM     78  C   UNL A   1      33.497  31.170  27.378  1.00  0.00     0.202 C 
BRANCH  78  79
ATOM     79  C   UNL A   1      33.434  29.686  27.001  1.00  0.00     0.261 C 
BRANCH  79  80
ATOM     80  O   UNL A   1      32.928  29.434  25.685  1.00  0.00    -0.459 OA
BRANCH  80  81
ATOM     81  C   UNL A   1      32.624  28.138  25.404  1.00  0.00     0.357 C 
ATOM     82  O   UNL A   1      33.295  27.150  25.637  1.00  0.00    -0.244 OA
BRANCH  81  83
ATOM     83  C   UNL A   1      31.358  28.121  24.632  1.00  0.00     0.150 A 
ATOM     84  C   UNL A   1      30.862  29.329  24.179  1.00  0.00     0.062 A 
ATOM     85  N   UNL A   1      30.777  26.920  24.384  1.00  0.00    -0.249 NA
ATOM     86  C   UNL A   1      29.690  29.309  23.421  1.00  0.00     0.050 A 
ATOM     87  C   UNL A   1      29.633  26.936  23.665  1.00  0.00     0.114 A 
ATOM     88  C   UNL A   1      29.044  28.094  23.177  1.00  0.00     0.047 A 
BRANCH  86  89
ATOM     89  N   UNL A   1      29.204  30.518  22.865  1.00  0.00    -0.306 N 
ATOM     90  C   UNL A   1      28.948  31.683  23.553  1.00  0.00     0.113 A 
ATOM     91  C   UNL A   1      28.929  30.793  21.546  1.00  0.00     0.204 A 
ATOM     92  C   UNL A   1      28.560  32.601  22.609  1.00  0.00     0.131 A 
ATOM     93  N   UNL A   1      28.537  32.036  21.366  1.00  0.00    -0.245 NA
ENDBRANCH  86  89
ENDBRANCH  81  83
ENDBRANCH  80  81
ENDBRANCH  79  80
ENDBRANCH  78  79
ENDBRANCH  77  78
ENDBRANCH  76  77
ENDBRANCH   1  76
TORSDOF 21
ENDMDL
MODEL 3
REMARK VINA RESULT:      -9.8      3.318      8.449
REMARK SMILES O=C(OCCOCCOCCOC(=O)c1cc(-n2ccnc2)ccn1)c1ccc(-c2c3nc(c(-c4c(F)cc(S(=O)(=O)[O-])cc4F)c4ccc([nH]4)c(-c4c(F)cc(S(=O)(=O)[O-])cc4F)c4nc(c(-c5c(F)cc(S(=O)(=O)[O-])cc5F)c5ccc2[nH]5)C=C4)C=C3)cc1
REMARK SMILES IDX 7 1 6 2 5 3 4 4 3 5 2 6 1 7 26 8 27 9 91 10 28 11 90 12
REMARK SMILES IDX 29 13 30 14 31 15 84 16 32 17 89 18 83 19 85 20 33 21 88 22
REMARK SMILES IDX 82 23 81 24 34 26 68 27 47 28 67 29 48 30 51 31 66 32 86 33
REMARK SMILES IDX 49 34 50 35 65 37 87 38 52 39 35 40 36 41 45 42 37 43 38 44
REMARK SMILES IDX 44 45 46 46 39 47 40 48 41 49 42 50 43 51 69 52 70 53 79 54
REMARK SMILES IDX 71 55 72 56 78 57 80 58 73 59 74 60 75 61 76 62 77 63 53 64
REMARK SMILES IDX 54 65 63 66 55 67 56 68 62 69 64 70 57 71 58 72 59 73 60 74
REMARK SMILES IDX 61 75 8 76 9 77 10 78 11 79 12 80 13 81 14 82 15 83 16 84
REMARK SMILES IDX 25 85 17 86 24 87 23 88 18 89 19 90 22 91 20 92 21 93
REMARK H PARENT 85 25 51 36
REMARK Flexibility Score: inf
ROOT
ATOM      1  C   UNL A   1      36.591  22.232  23.701  1.00  0.00     0.188 C 
ENDROOT
BRANCH   1   2
ATOM      2  O   UNL A   1      36.697  21.320  24.788  1.00  0.00    -0.376 OA
BRANCH   2   3
ATOM      3  C   UNL A   1      37.680  20.307  24.671  1.00  0.00     0.202 C 
BRANCH   3   4
ATOM      4  C   UNL A   1      38.771  20.339  25.745  1.00  0.00     0.261 C 
BRANCH   4   5
ATOM      5  O   UNL A   1      39.851  19.408  25.568  1.00  0.00    -0.460 OA
BRANCH   5   6
ATOM      6  C   UNL A   1      41.149  19.470  25.921  1.00  0.00     0.338 C 
ATOM      7  O   UNL A   1      41.869  18.494  25.717  1.00  0.00    -0.246 OA
BRANCH   6   8
ATOM      8  C   UNL A   1      41.713  20.592  26.712  1.00  0.00     0.060 A 
ATOM      9  C   UNL A   1      41.525  20.780  28.080  1.00  0.00     0.016 A 
ATOM     10  C   UNL A   1      42.403  21.572  25.970  1.00  0.00     0.016 A 
ATOM     11  C   UNL A   1      41.904  21.972  28.676  1.00  0.00     0.010 A 
ATOM     12  C   UNL A   1      42.782  22.767  26.560  1.00  0.00     0.010 A 
ATOM     13  C   UNL A   1      42.441  22.989  27.891  1.00  0.00    -0.014 A 
BRANCH  13  14
ATOM     14  C   UNL A   1      42.490  24.321  28.482  1.00  0.00     0.031 A 
ATOM     15  C   UNL A   1      41.352  25.232  28.181  1.00  0.00     0.074 A 
ATOM     16  C   UNL A   1      43.511  24.647  29.301  1.00  0.00     0.049 A 
ATOM     17  N   UNL A   1      41.372  26.422  27.673  1.00  0.00    -0.248 NA
ATOM     18  C   UNL A   1      39.997  24.700  28.399  1.00  0.00     0.031 C 
ATOM     19  C   UNL A   1      44.537  23.751  29.852  1.00  0.00     0.029 A 
ATOM     20  N   UNL A   1      43.779  25.828  29.921  1.00  0.00    -0.354 N 
ATOM     21  C   UNL A   1      40.053  26.874  27.706  1.00  0.00     0.074 A 
ATOM     22  C   UNL A   1      39.240  25.729  28.022  1.00  0.00     0.031 C 
ATOM     23  C   UNL A   1      45.134  24.351  30.901  1.00  0.00     0.029 A 
ATOM     24  C   UNL A   1      44.628  25.707  31.011  1.00  0.00     0.049 A 
ATOM     25  H   UNL A   1      43.404  26.689  29.624  1.00  0.00     0.167 HD
ATOM     26  C   UNL A   1      39.737  28.199  27.693  1.00  0.00     0.037 A 
ATOM     27  C   UNL A   1      44.808  26.615  32.000  1.00  0.00     0.037 A 
ATOM     28  C   UNL A   1      40.793  28.994  27.127  1.00  0.00     0.049 A 
ATOM     29  C   UNL A   1      44.350  27.930  31.483  1.00  0.00     0.074 A 
ATOM     30  C   UNL A   1      41.422  29.037  25.897  1.00  0.00     0.029 A 
ATOM     31  N   UNL A   1      41.585  29.734  27.970  1.00  0.00    -0.354 N 
ATOM     32  N   UNL A   1      44.931  28.579  30.509  1.00  0.00    -0.248 NA
ATOM     33  C   UNL A   1      42.979  28.331  31.762  1.00  0.00     0.031 C 
ATOM     34  C   UNL A   1      42.777  29.375  26.184  1.00  0.00     0.029 A 
ATOM     35  C   UNL A   1      42.882  29.553  27.563  1.00  0.00     0.049 A 
ATOM     36  H   UNL A   1      41.280  30.290  28.723  1.00  0.00     0.167 HD
ATOM     37  C   UNL A   1      43.894  29.171  29.801  1.00  0.00     0.074 A 
ATOM     38  C   UNL A   1      42.729  29.065  30.676  1.00  0.00     0.031 C 
ATOM     39  C   UNL A   1      44.007  29.445  28.468  1.00  0.00     0.037 A 
BRANCH  26  40
ATOM     40  C   UNL A   1      38.616  28.801  28.519  1.00  0.00     0.058 A 
ATOM     41  C   UNL A   1      37.780  29.785  27.949  1.00  0.00     0.135 A 
ATOM     42  C   UNL A   1      38.527  28.672  29.923  1.00  0.00     0.135 A 
ATOM     43  F   UNL A   1      37.773  29.992  26.622  1.00  0.00    -0.206 F 
ATOM     44  C   UNL A   1      36.997  30.642  28.725  1.00  0.00     0.059 A 
ATOM     45  C   UNL A   1      37.714  29.479  30.710  1.00  0.00     0.059 A 
ATOM     46  F   UNL A   1      39.297  27.826  30.618  1.00  0.00    -0.206 F 
ATOM     47  C   UNL A   1      36.996  30.497  30.109  1.00  0.00     0.060 A 
BRANCH  47  48
ATOM     48  S   UNL A   1      36.132  31.704  31.130  1.00  0.00     0.124 S 
ATOM     49  O   UNL A   1      36.033  30.988  32.396  1.00  0.00    -0.237 OA
ATOM     50  O   UNL A   1      37.050  32.837  31.104  1.00  0.00    -0.237 OA
ATOM     51  O   UNL A   1      34.875  31.906  30.415  1.00  0.00    -0.744 OA
ENDBRANCH  47  48
ENDBRANCH  26  40
BRANCH  27  52
ATOM     52  C   UNL A   1      44.963  26.306  33.447  1.00  0.00     0.058 A 
ATOM     53  C   UNL A   1      46.151  26.599  34.136  1.00  0.00     0.135 A 
ATOM     54  C   UNL A   1      43.857  25.937  34.244  1.00  0.00     0.135 A 
ATOM     55  F   UNL A   1      47.241  26.994  33.463  1.00  0.00    -0.206 F 
ATOM     56  C   UNL A   1      46.230  26.551  35.534  1.00  0.00     0.059 A 
ATOM     57  C   UNL A   1      43.917  25.863  35.633  1.00  0.00     0.059 A 
ATOM     58  F   UNL A   1      42.649  25.722  33.703  1.00  0.00    -0.206 F 
ATOM     59  C   UNL A   1      45.103  26.193  36.274  1.00  0.00     0.060 A 
BRANCH  59  60
ATOM     60  S   UNL A   1      45.153  26.272  38.079  1.00  0.00     0.124 S 
ATOM     61  O   UNL A   1      44.245  27.380  38.358  1.00  0.00    -0.237 OA
ATOM     62  O   UNL A   1      44.679  24.947  38.459  1.00  0.00    -0.237 OA
ATOM     63  O   UNL A   1      46.561  26.534  38.369  1.00  0.00    -0.744 OA
ENDBRANCH  59  60
ENDBRANCH  27  52
BRANCH  39  64
ATOM     64  C   UNL A   1      45.371  29.352  27.832  1.00  0.00     0.058 A 
ATOM     65  C   UNL A   1      46.297  30.410  27.817  1.00  0.00     0.135 A 
ATOM     66  C   UNL A   1      45.824  28.100  27.385  1.00  0.00     0.135 A 
ATOM     67  F   UNL A   1      45.983  31.606  28.331  1.00  0.00    -0.206 F 
ATOM     68  C   UNL A   1      47.601  30.243  27.348  1.00  0.00     0.059 A 
ATOM     69  C   UNL A   1      47.130  27.902  26.941  1.00  0.00     0.059 A 
ATOM     70  F   UNL A   1      45.010  27.033  27.439  1.00  0.00    -0.206 F 
ATOM     71  C   UNL A   1      48.011  28.982  26.918  1.00  0.00     0.060 A 
BRANCH  71  72
ATOM     72  S   UNL A   1      49.732  28.746  26.421  1.00  0.00     0.124 S 
ATOM     73  O   UNL A   1      50.220  27.818  27.434  1.00  0.00    -0.237 OA
ATOM     74  O   UNL A   1      49.601  28.201  25.071  1.00  0.00    -0.237 OA
ATOM     75  O   UNL A   1      50.292  30.093  26.485  1.00  0.00    -0.744 OA
ENDBRANCH  71  72
ENDBRANCH  39  64
ENDBRANCH  13  14
ENDBRANCH   6   8
ENDBRANCH   5   6
ENDBRANCH   4   5
ENDBRANCH   3   4
ENDBRANCH   2   3
ENDBRANCH   1   2
BRANCH   1  76
ATOM     76  C   UNL A   1      35.741  23.494  23.993  1.00  0.00     0.188 C 
BRANCH  76  77
ATOM     77  O   UNL A   1      34.636  23.901  23.182  1.00  0.00    -0.376 OA
BRANCH  77  78
ATOM     78  C   UNL A   1      33.528  24.551  23.769  1.00  0.00     0.202 C 
BRANCH  78  79
ATOM     79  C   UNL A   1      32.233  24.448  22.956  1.00  0.00     0.261 C 
BRANCH  79  80
ATOM     80  O   UNL A   1      32.215  25.256  21.773  1.00  0.00    -0.459 OA
BRANCH  80  81
ATOM     81  C   UNL A   1      32.844  26.459  21.866  1.00  0.00     0.357 C 
ATOM     82  O   UNL A   1      33.977  26.734  21.518  1.00  0.00    -0.244 OA
BRANCH  81  83
ATOM     83  C   UNL A   1      31.948  27.390  22.594  1.00  0.00     0.150 A 
ATOM     84  C   UNL A   1      32.456  28.036  23.706  1.00  0.00     0.062 A 
ATOM     85  N   UNL A   1      30.696  27.582  22.110  1.00  0.00    -0.249 NA
ATOM     86  C   UNL A   1      31.625  28.941  24.370  1.00  0.00     0.050 A 
ATOM     87  C   UNL A   1      29.909  28.449  22.785  1.00  0.00     0.114 A 
ATOM     88  C   UNL A   1      30.315  29.137  23.920  1.00  0.00     0.047 A 
BRANCH  86  89
ATOM     89  N   UNL A   1      32.142  29.687  25.456  1.00  0.00    -0.306 N 
ATOM     90  C   UNL A   1      33.335  29.457  26.104  1.00  0.00     0.113 A 
ATOM     91  C   UNL A   1      31.597  30.798  26.057  1.00  0.00     0.204 A 
ATOM     92  C   UNL A   1      33.455  30.456  27.039  1.00  0.00     0.131 A 
ATOM     93  N   UNL A   1      32.365  31.276  27.013  1.00  0.00    -0.245 NA
ENDBRANCH  86  89
ENDBRANCH  81  83
ENDBRANCH  80  81
ENDBRANCH  79  80
ENDBRANCH  78  79
ENDBRANCH  77  78
ENDBRANCH  76  77
ENDBRANCH   1  76
TORSDOF 21
ENDMDL
