MODEL 1
REMARK VINA RESULT:     -10.5      0.000      0.000
REMARK SMILES CO[C@@H]1C[C@H](C(=O)OCCOCCOCCOC(=O)c2ccc(-c3c4nc(c(-c5c(F)cc(S(=O)(=O)[O-])cc5F)c5ccc([nH]5)c(-c5c(F)cc(S(=O)(=O)[O-])cc5F)c5nc(c(-c6c(F)cc(S(=O)(=O)[O-])cc6F)c6ccc3[nH]6)C=C5)C=C4)cc2)N(C(=O)c2ccn(C)c(=O)c2)C1
REMARK SMILES IDX 13 1 12 2 11 3 10 4 9 5 8 6 6 7 7 8 5 9 3 10 4 11 97 12
REMARK SMILES IDX 86 13 2 14 1 15 87 16 88 17 89 18 90 19 96 20 91 21 94 22
REMARK SMILES IDX 92 23 95 24 93 25 14 26 15 27 16 28 17 29 18 30 19 31 20 32
REMARK SMILES IDX 21 33 85 34 22 35 84 36 23 37 24 38 25 39 78 40 26 41 83 42
REMARK SMILES IDX 77 43 79 44 27 45 82 46 76 47 75 48 28 50 62 51 41 52 61 53
REMARK SMILES IDX 42 54 45 55 60 56 80 57 43 58 44 59 59 61 81 62 46 63 29 64
REMARK SMILES IDX 30 65 39 66 31 67 32 68 38 69 40 70 33 71 34 72 35 73 36 74
REMARK SMILES IDX 37 75 63 76 64 77 73 78 65 79 66 80 72 81 74 82 67 83 68 84
REMARK SMILES IDX 69 85 70 86 71 87 47 88 48 89 57 90 49 91 50 92 56 93 58 94
REMARK SMILES IDX 51 95 52 96 53 97 54 98 55 99
REMARK H PARENT 79 49 45 60
REMARK Flexibility Score: inf
ROOT
ATOM      1  C   UNL A   1      40.635  20.942  26.628  1.00  0.00     0.188 C 
ENDROOT
BRANCH   1   2
ATOM      2  C   UNL A   1      39.442  21.900  26.543  1.00  0.00     0.188 C 
BRANCH   2   3
ATOM      3  O   UNL A   1      38.480  21.593  25.537  1.00  0.00    -0.376 OA
BRANCH   3   4
ATOM      4  C   UNL A   1      37.300  22.400  25.494  1.00  0.00     0.202 C 
BRANCH   4   5
ATOM      5  C   UNL A   1      36.848  22.888  24.109  1.00  0.00     0.261 C 
BRANCH   5   6
ATOM      6  O   UNL A   1      35.532  22.424  23.745  1.00  0.00    -0.462 OA
BRANCH   6   7
ATOM      7  C   UNL A   1      34.510  22.943  24.468  1.00  0.00     0.329 C 
ATOM      8  O   UNL A   1      34.078  24.084  24.315  1.00  0.00    -0.250 OA
BRANCH   7   9
ATOM      9  C   UNL A   1      33.834  21.927  25.417  1.00  0.00     0.198 C 
ATOM     10  C   UNL A   1      32.006  23.083  26.495  1.00  0.00     0.140 C 
ATOM     11  C   UNL A   1      33.334  22.370  26.782  1.00  0.00     0.071 C 
ATOM     12  C   UNL A   1      31.549  22.494  25.140  1.00  0.00     0.152 C 
ATOM     13  N   UNL A   1      32.594  21.551  24.760  1.00  0.00    -0.322 N 
BRANCH  10  14
ATOM     14  O   UNL A   1      32.232  24.493  26.420  1.00  0.00    -0.380 OA
ATOM     15  C   UNL A   1      31.047  25.210  26.067  1.00  0.00     0.195 C 
ENDBRANCH  10  14
BRANCH  13  16
ATOM     16  C   UNL A   1      32.440  20.612  23.765  1.00  0.00     0.254 C 
ATOM     17  O   UNL A   1      32.071  20.901  22.630  1.00  0.00    -0.269 OA
BRANCH  16  18
ATOM     18  C   UNL A   1      32.703  19.186  24.131  1.00  0.00     0.046 A 
ATOM     19  C   UNL A   1      32.384  18.673  25.442  1.00  0.00     0.032 A 
ATOM     20  C   UNL A   1      33.297  18.400  23.221  1.00  0.00     0.085 A 
ATOM     21  C   UNL A   1      32.694  17.409  25.758  1.00  0.00     0.089 A 
ATOM     22  C   UNL A   1      33.601  16.981  23.544  1.00  0.00     0.251 A 
ATOM     23  N   UNL A   1      33.304  16.570  24.840  1.00  0.00    -0.319 N 
ATOM     24  O   UNL A   1      34.080  16.277  22.661  1.00  0.00    -0.269 OA
ATOM     25  C   UNL A   1      33.657  15.217  25.261  1.00  0.00     0.153 C 
ENDBRANCH  16  18
ENDBRANCH  13  16
ENDBRANCH   7   9
ENDBRANCH   6   7
ENDBRANCH   5   6
ENDBRANCH   4   5
ENDBRANCH   3   4
ENDBRANCH   2   3
ENDBRANCH   1   2
BRANCH   1  26
ATOM     26  O   UNL A   1      41.640  21.178  25.658  1.00  0.00    -0.376 OA
BRANCH  26  27
ATOM     27  C   UNL A   1      42.897  21.720  26.051  1.00  0.00     0.202 C 
BRANCH  27  28
ATOM     28  C   UNL A   1      43.171  23.228  25.871  1.00  0.00     0.261 C 
BRANCH  28  29
ATOM     29  O   UNL A   1      42.154  24.140  26.326  1.00  0.00    -0.460 OA
BRANCH  29  30
ATOM     30  C   UNL A   1      42.251  25.440  25.946  1.00  0.00     0.338 C 
ATOM     31  O   UNL A   1      42.214  25.859  24.812  1.00  0.00    -0.246 OA
BRANCH  30  32
ATOM     32  C   UNL A   1      42.109  26.286  27.171  1.00  0.00     0.060 A 
ATOM     33  C   UNL A   1      41.051  25.996  28.046  1.00  0.00     0.016 A 
ATOM     34  C   UNL A   1      43.041  27.270  27.517  1.00  0.00     0.016 A 
ATOM     35  C   UNL A   1      40.901  26.708  29.241  1.00  0.00     0.010 A 
ATOM     36  C   UNL A   1      42.880  27.994  28.707  1.00  0.00     0.010 A 
ATOM     37  C   UNL A   1      41.790  27.742  29.559  1.00  0.00    -0.014 A 
BRANCH  37  38
ATOM     38  C   UNL A   1      41.459  28.699  30.650  1.00  0.00     0.031 A 
ATOM     39  C   UNL A   1      42.271  28.627  31.919  1.00  0.00     0.074 A 
ATOM     40  C   UNL A   1      40.485  29.620  30.533  1.00  0.00     0.049 A 
ATOM     41  N   UNL A   1      42.141  29.302  33.031  1.00  0.00    -0.248 NA
ATOM     42  C   UNL A   1      43.379  27.658  31.928  1.00  0.00     0.031 C 
ATOM     43  C   UNL A   1      39.657  29.837  29.348  1.00  0.00     0.029 A 
ATOM     44  N   UNL A   1      40.023  30.547  31.438  1.00  0.00    -0.354 N 
ATOM     45  C   UNL A   1      43.141  28.833  33.876  1.00  0.00     0.074 A 
ATOM     46  C   UNL A   1      43.849  27.793  33.159  1.00  0.00     0.031 C 
ATOM     47  C   UNL A   1      38.778  30.822  29.605  1.00  0.00     0.029 A 
ATOM     48  C   UNL A   1      38.956  31.285  30.981  1.00  0.00     0.049 A 
ATOM     49  H   UNL A   1      40.420  30.671  32.330  1.00  0.00     0.167 HD
ATOM     50  C   UNL A   1      43.452  29.234  35.131  1.00  0.00     0.037 A 
ATOM     51  C   UNL A   1      38.196  32.208  31.609  1.00  0.00     0.037 A 
ATOM     52  C   UNL A   1      42.750  30.268  35.844  1.00  0.00     0.049 A 
ATOM     53  C   UNL A   1      38.510  32.586  33.038  1.00  0.00     0.074 A 
ATOM     54  C   UNL A   1      43.004  30.756  37.114  1.00  0.00     0.029 A 
ATOM     55  N   UNL A   1      41.656  30.968  35.359  1.00  0.00    -0.354 N 
ATOM     56  N   UNL A   1      39.469  32.148  33.818  1.00  0.00    -0.248 NA
ATOM     57  C   UNL A   1      37.637  33.587  33.671  1.00  0.00     0.031 C 
ATOM     58  C   UNL A   1      42.024  31.707  37.421  1.00  0.00     0.029 A 
ATOM     59  C   UNL A   1      41.203  31.861  36.316  1.00  0.00     0.049 A 
ATOM     60  H   UNL A   1      41.260  30.847  34.466  1.00  0.00     0.167 HD
ATOM     61  C   UNL A   1      39.336  32.845  35.018  1.00  0.00     0.074 A 
ATOM     62  C   UNL A   1      38.208  33.737  34.859  1.00  0.00     0.031 C 
ATOM     63  C   UNL A   1      40.084  32.755  36.147  1.00  0.00     0.037 A 
BRANCH  50  64
ATOM     64  C   UNL A   1      44.581  28.526  35.829  1.00  0.00     0.058 A 
ATOM     65  C   UNL A   1      44.393  27.306  36.499  1.00  0.00     0.135 A 
ATOM     66  C   UNL A   1      45.879  29.062  35.798  1.00  0.00     0.135 A 
ATOM     67  F   UNL A   1      43.169  26.758  36.579  1.00  0.00    -0.206 F 
ATOM     68  C   UNL A   1      45.446  26.658  37.135  1.00  0.00     0.059 A 
ATOM     69  C   UNL A   1      46.952  28.415  36.401  1.00  0.00     0.059 A 
ATOM     70  F   UNL A   1      46.114  30.228  35.176  1.00  0.00    -0.206 F 
ATOM     71  C   UNL A   1      46.723  27.219  37.080  1.00  0.00     0.060 A 
BRANCH  71  72
ATOM     72  S   UNL A   1      48.078  26.361  37.906  1.00  0.00     0.124 S 
ATOM     73  O   UNL A   1      49.018  27.454  38.135  1.00  0.00    -0.237 OA
ATOM     74  O   UNL A   1      47.427  25.825  39.097  1.00  0.00    -0.237 OA
ATOM     75  O   UNL A   1      48.501  25.366  36.925  1.00  0.00    -0.744 OA
ENDBRANCH  71  72
ENDBRANCH  50  64
BRANCH  51  76
ATOM     76  C   UNL A   1      37.042  32.833  30.902  1.00  0.00     0.058 A 
ATOM     77  C   UNL A   1      37.230  33.846  29.951  1.00  0.00     0.135 A 
ATOM     78  C   UNL A   1      35.723  32.438  31.181  1.00  0.00     0.135 A 
ATOM     79  F   UNL A   1      38.468  34.277  29.666  1.00  0.00    -0.206 F 
ATOM     80  C   UNL A   1      36.155  34.452  29.307  1.00  0.00     0.059 A 
ATOM     81  C   UNL A   1      34.633  33.008  30.527  1.00  0.00     0.059 A 
ATOM     82  F   UNL A   1      35.484  31.474  32.082  1.00  0.00    -0.206 F 
ATOM     83  C   UNL A   1      34.860  34.020  29.596  1.00  0.00     0.060 A 
BRANCH  83  84
ATOM     84  S   UNL A   1      33.480  34.764  28.702  1.00  0.00     0.124 S 
ATOM     85  O   UNL A   1      34.102  35.952  28.131  1.00  0.00    -0.237 OA
ATOM     86  O   UNL A   1      33.128  33.706  27.758  1.00  0.00    -0.237 OA
ATOM     87  O   UNL A   1      32.493  35.009  29.750  1.00  0.00    -0.744 OA
ENDBRANCH  83  84
ENDBRANCH  51  76
BRANCH  63  88
ATOM     88  C   UNL A   1      39.744  33.673  37.293  1.00  0.00     0.058 A 
ATOM     89  C   UNL A   1      38.902  33.274  38.342  1.00  0.00     0.135 A 
ATOM     90  C   UNL A   1      40.326  34.950  37.373  1.00  0.00     0.135 A 
ATOM     91  F   UNL A   1      38.316  32.067  38.317  1.00  0.00    -0.206 F 
ATOM     92  C   UNL A   1      38.629  34.117  39.417  1.00  0.00     0.059 A 
ATOM     93  C   UNL A   1      40.093  35.796  38.453  1.00  0.00     0.059 A 
ATOM     94  F   UNL A   1      41.151  35.379  36.404  1.00  0.00    -0.206 F 
ATOM     95  C   UNL A   1      39.234  35.376  39.466  1.00  0.00     0.060 A 
BRANCH  95  96
ATOM     96  S   UNL A   1      38.899  36.443  40.884  1.00  0.00     0.124 S 
ATOM     97  O   UNL A   1      37.814  35.724  41.544  1.00  0.00    -0.237 OA
ATOM     98  O   UNL A   1      40.180  36.441  41.584  1.00  0.00    -0.237 OA
ATOM     99  O   UNL A   1      38.527  37.715  40.272  1.00  0.00    -0.744 OA
ENDBRANCH  95  96
ENDBRANCH  63  88
ENDBRANCH  37  38
ENDBRANCH  30  32
ENDBRANCH  29  30
ENDBRANCH  28  29
ENDBRANCH  27  28
ENDBRANCH  26  27
ENDBRANCH   1  26
TORSDOF 23
ENDMDL
MODEL 2
REMARK VINA RESULT:      -9.8      3.431      9.733
REMARK SMILES CO[C@@H]1C[C@H](C(=O)OCCOCCOCCOC(=O)c2ccc(-c3c4nc(c(-c5c(F)cc(S(=O)(=O)[O-])cc5F)c5ccc([nH]5)c(-c5c(F)cc(S(=O)(=O)[O-])cc5F)c5nc(c(-c6c(F)cc(S(=O)(=O)[O-])cc6F)c6ccc3[nH]6)C=C5)C=C4)cc2)N(C(=O)c2ccn(C)c(=O)c2)C1
REMARK SMILES IDX 13 1 12 2 11 3 10 4 9 5 8 6 6 7 7 8 5 9 3 10 4 11 97 12
REMARK SMILES IDX 86 13 2 14 1 15 87 16 88 17 89 18 90 19 96 20 91 21 94 22
REMARK SMILES IDX 92 23 95 24 93 25 14 26 15 27 16 28 17 29 18 30 19 31 20 32
REMARK SMILES IDX 21 33 85 34 22 35 84 36 23 37 24 38 25 39 78 40 26 41 83 42
REMARK SMILES IDX 77 43 79 44 27 45 82 46 76 47 75 48 28 50 62 51 41 52 61 53
REMARK SMILES IDX 42 54 45 55 60 56 80 57 43 58 44 59 59 61 81 62 46 63 29 64
REMARK SMILES IDX 30 65 39 66 31 67 32 68 38 69 40 70 33 71 34 72 35 73 36 74
REMARK SMILES IDX 37 75 63 76 64 77 73 78 65 79 66 80 72 81 74 82 67 83 68 84
REMARK SMILES IDX 69 85 70 86 71 87 47 88 48 89 57 90 49 91 50 92 56 93 58 94
REMARK SMILES IDX 51 95 52 96 53 97 54 98 55 99
REMARK H PARENT 79 49 45 60
REMARK Flexibility Score: inf
ROOT
ATOM      1  C   UNL A   1      35.027  32.599  28.000  1.00  0.00     0.188 C 
ENDROOT
BRANCH   1   2
ATOM      2  C   UNL A   1      34.670  31.114  27.877  1.00  0.00     0.188 C 
BRANCH   2   3
ATOM      3  O   UNL A   1      33.279  30.810  27.946  1.00  0.00    -0.376 OA
BRANCH   3   4
ATOM      4  C   UNL A   1      32.499  31.050  26.771  1.00  0.00     0.202 C 
BRANCH   4   5
ATOM      5  C   UNL A   1      31.792  29.834  26.153  1.00  0.00     0.261 C 
BRANCH   5   6
ATOM      6  O   UNL A   1      31.801  28.675  27.012  1.00  0.00    -0.462 OA
BRANCH   6   7
ATOM      7  C   UNL A   1      31.814  27.478  26.375  1.00  0.00     0.329 C 
ATOM      8  O   UNL A   1      31.397  26.435  26.875  1.00  0.00    -0.250 OA
BRANCH   7   9
ATOM      9  C   UNL A   1      32.278  27.557  24.902  1.00  0.00     0.198 C 
ATOM     10  C   UNL A   1      33.789  25.706  24.542  1.00  0.00     0.140 C 
ATOM     11  C   UNL A   1      33.718  27.239  24.534  1.00  0.00     0.071 C 
ATOM     12  C   UNL A   1      32.325  25.261  24.315  1.00  0.00     0.152 C 
ATOM     13  N   UNL A   1      31.560  26.497  24.215  1.00  0.00    -0.322 N 
BRANCH  10  14
ATOM     14  O   UNL A   1      34.297  25.263  25.803  1.00  0.00    -0.380 OA
ATOM     15  C   UNL A   1      33.895  23.925  26.105  1.00  0.00     0.195 C 
ENDBRANCH  10  14
BRANCH  13  16
ATOM     16  C   UNL A   1      30.271  26.552  23.734  1.00  0.00     0.254 C 
ATOM     17  O   UNL A   1      29.521  25.579  23.732  1.00  0.00    -0.269 OA
BRANCH  16  18
ATOM     18  C   UNL A   1      29.814  27.855  23.162  1.00  0.00     0.046 A 
ATOM     19  C   UNL A   1      30.698  28.687  22.382  1.00  0.00     0.032 A 
ATOM     20  C   UNL A   1      28.566  28.263  23.437  1.00  0.00     0.085 A 
ATOM     21  C   UNL A   1      30.278  29.879  21.940  1.00  0.00     0.089 A 
ATOM     22  C   UNL A   1      28.072  29.562  22.911  1.00  0.00     0.251 A 
ATOM     23  N   UNL A   1      28.994  30.328  22.204  1.00  0.00    -0.319 N 
ATOM     24  O   UNL A   1      26.903  29.866  23.125  1.00  0.00    -0.269 OA
ATOM     25  C   UNL A   1      28.611  31.656  21.732  1.00  0.00     0.153 C 
ENDBRANCH  16  18
ENDBRANCH  13  16
ENDBRANCH   7   9
ENDBRANCH   6   7
ENDBRANCH   5   6
ENDBRANCH   4   5
ENDBRANCH   3   4
ENDBRANCH   2   3
ENDBRANCH   1   2
BRANCH   1  26
ATOM     26  O   UNL A   1      34.124  33.351  28.790  1.00  0.00    -0.376 OA
BRANCH  26  27
ATOM     27  C   UNL A   1      33.973  34.748  28.567  1.00  0.00     0.202 C 
BRANCH  27  28
ATOM     28  C   UNL A   1      32.922  35.543  29.370  1.00  0.00     0.261 C 
BRANCH  28  29
ATOM     29  O   UNL A   1      33.340  36.101  30.630  1.00  0.00    -0.460 OA
BRANCH  29  30
ATOM     30  C   UNL A   1      32.915  35.492  31.767  1.00  0.00     0.338 C 
ATOM     31  O   UNL A   1      31.765  35.341  32.112  1.00  0.00    -0.246 OA
BRANCH  30  32
ATOM     32  C   UNL A   1      34.085  34.780  32.369  1.00  0.00     0.060 A 
ATOM     33  C   UNL A   1      35.360  35.323  32.156  1.00  0.00     0.016 A 
ATOM     34  C   UNL A   1      33.938  33.670  33.207  1.00  0.00     0.016 A 
ATOM     35  C   UNL A   1      36.488  34.742  32.744  1.00  0.00     0.010 A 
ATOM     36  C   UNL A   1      35.071  33.078  33.784  1.00  0.00     0.010 A 
ATOM     37  C   UNL A   1      36.356  33.589  33.528  1.00  0.00    -0.014 A 
BRANCH  37  38
ATOM     38  C   UNL A   1      37.561  32.793  33.889  1.00  0.00     0.031 A 
ATOM     39  C   UNL A   1      38.277  33.142  35.169  1.00  0.00     0.074 A 
ATOM     40  C   UNL A   1      38.012  31.778  33.129  1.00  0.00     0.049 A 
ATOM     41  N   UNL A   1      39.377  32.646  35.672  1.00  0.00    -0.248 NA
ATOM     42  C   UNL A   1      37.663  34.200  35.990  1.00  0.00     0.031 C 
ATOM     43  C   UNL A   1      37.391  31.298  31.896  1.00  0.00     0.029 A 
ATOM     44  N   UNL A   1      39.114  30.970  33.285  1.00  0.00    -0.354 N 
ATOM     45  C   UNL A   1      39.593  33.336  36.860  1.00  0.00     0.074 A 
ATOM     46  C   UNL A   1      38.529  34.308  36.987  1.00  0.00     0.031 C 
ATOM     47  C   UNL A   1      38.131  30.289  31.400  1.00  0.00     0.029 A 
ATOM     48  C   UNL A   1      39.294  30.072  32.260  1.00  0.00     0.049 A 
ATOM     49  H   UNL A   1      39.717  31.028  34.061  1.00  0.00     0.167 HD
ATOM     50  C   UNL A   1      40.583  33.172  37.770  1.00  0.00     0.037 A 
ATOM     51  C   UNL A   1      40.295  29.195  32.029  1.00  0.00     0.037 A 
ATOM     52  C   UNL A   1      41.641  32.205  37.647  1.00  0.00     0.049 A 
ATOM     53  C   UNL A   1      41.432  29.082  33.017  1.00  0.00     0.074 A 
ATOM     54  C   UNL A   1      42.678  31.953  38.528  1.00  0.00     0.029 A 
ATOM     55  N   UNL A   1      41.805  31.338  36.577  1.00  0.00    -0.354 N 
ATOM     56  N   UNL A   1      41.615  29.727  34.145  1.00  0.00    -0.248 NA
ATOM     57  C   UNL A   1      42.499  28.119  32.702  1.00  0.00     0.031 C 
ATOM     58  C   UNL A   1      43.505  30.977  37.961  1.00  0.00     0.029 A 
ATOM     59  C   UNL A   1      42.945  30.572  36.761  1.00  0.00     0.049 A 
ATOM     60  H   UNL A   1      41.201  31.276  35.803  1.00  0.00     0.167 HD
ATOM     61  C   UNL A   1      42.795  29.223  34.688  1.00  0.00     0.074 A 
ATOM     62  C   UNL A   1      43.279  28.215  33.770  1.00  0.00     0.031 C 
ATOM     63  C   UNL A   1      43.417  29.562  35.846  1.00  0.00     0.037 A 
BRANCH  50  64
ATOM     64  C   UNL A   1      40.586  34.085  38.967  1.00  0.00     0.058 A 
ATOM     65  C   UNL A   1      41.239  35.328  38.951  1.00  0.00     0.135 A 
ATOM     66  C   UNL A   1      39.897  33.722  40.135  1.00  0.00     0.135 A 
ATOM     67  F   UNL A   1      41.933  35.716  37.868  1.00  0.00    -0.206 F 
ATOM     68  C   UNL A   1      41.231  36.166  40.061  1.00  0.00     0.059 A 
ATOM     69  C   UNL A   1      39.849  34.559  41.246  1.00  0.00     0.059 A 
ATOM     70  F   UNL A   1      39.259  32.543  40.206  1.00  0.00    -0.206 F 
ATOM     71  C   UNL A   1      40.531  35.774  41.204  1.00  0.00     0.060 A 
BRANCH  71  72
ATOM     72  S   UNL A   1      40.526  36.877  42.631  1.00  0.00     0.124 S 
ATOM     73  O   UNL A   1      39.276  36.500  43.286  1.00  0.00    -0.237 OA
ATOM     74  O   UNL A   1      41.748  36.490  43.328  1.00  0.00    -0.237 OA
ATOM     75  O   UNL A   1      40.542  38.209  42.034  1.00  0.00    -0.744 OA
ENDBRANCH  71  72
ENDBRANCH  50  64
BRANCH  51  76
ATOM     76  C   UNL A   1      40.287  28.360  30.794  1.00  0.00     0.058 A 
ATOM     77  C   UNL A   1      41.164  28.620  29.731  1.00  0.00     0.135 A 
ATOM     78  C   UNL A   1      39.385  27.294  30.646  1.00  0.00     0.135 A 
ATOM     79  F   UNL A   1      42.029  29.643  29.810  1.00  0.00    -0.206 F 
ATOM     80  C   UNL A   1      41.144  27.862  28.564  1.00  0.00     0.059 A 
ATOM     81  C   UNL A   1      39.366  26.502  29.501  1.00  0.00     0.059 A 
ATOM     82  F   UNL A   1      38.523  27.000  31.631  1.00  0.00    -0.206 F 
ATOM     83  C   UNL A   1      40.246  26.799  28.462  1.00  0.00     0.060 A 
BRANCH  83  84
ATOM     84  S   UNL A   1      40.278  25.779  26.973  1.00  0.00     0.124 S 
ATOM     85  O   UNL A   1      40.671  26.748  25.957  1.00  0.00    -0.237 OA
ATOM     86  O   UNL A   1      41.277  24.772  27.321  1.00  0.00    -0.237 OA
ATOM     87  O   UNL A   1      38.909  25.281  26.876  1.00  0.00    -0.744 OA
ENDBRANCH  83  84
ENDBRANCH  51  76
BRANCH  63  88
ATOM     88  C   UNL A   1      44.670  28.812  36.219  1.00  0.00     0.058 A 
ATOM     89  C   UNL A   1      45.949  29.292  35.897  1.00  0.00     0.135 A 
ATOM     90  C   UNL A   1      44.588  27.626  36.970  1.00  0.00     0.135 A 
ATOM     91  F   UNL A   1      46.088  30.417  35.179  1.00  0.00    -0.206 F 
ATOM     92  C   UNL A   1      47.101  28.611  36.283  1.00  0.00     0.059 A 
ATOM     93  C   UNL A   1      45.726  26.947  37.394  1.00  0.00     0.059 A 
ATOM     94  F   UNL A   1      43.391  27.128  37.318  1.00  0.00    -0.206 F 
ATOM     95  C   UNL A   1      46.979  27.441  37.037  1.00  0.00     0.060 A 
BRANCH  95  96
ATOM     96  S   UNL A   1      48.482  26.589  37.562  1.00  0.00     0.124 S 
ATOM     97  O   UNL A   1      48.206  25.218  37.143  1.00  0.00    -0.237 OA
ATOM     98  O   UNL A   1      49.517  27.288  36.806  1.00  0.00    -0.237 OA
ATOM     99  O   UNL A   1      48.512  26.809  39.005  1.00  0.00    -0.744 OA
ENDBRANCH  95  96
ENDBRANCH  63  88
ENDBRANCH  37  38
ENDBRANCH  30  32
ENDBRANCH  29  30
ENDBRANCH  28  29
ENDBRANCH  27  28
ENDBRANCH  26  27
ENDBRANCH   1  26
TORSDOF 23
ENDMDL
MODEL 3
REMARK VINA RESULT:      -9.5      6.526      8.952
REMARK SMILES CO[C@@H]1C[C@H](C(=O)OCCOCCOCCOC(=O)c2ccc(-c3c4nc(c(-c5c(F)cc(S(=O)(=O)[O-])cc5F)c5ccc([nH]5)c(-c5c(F)cc(S(=O)(=O)[O-])cc5F)c5nc(c(-c6c(F)cc(S(=O)(=O)[O-])cc6F)c6ccc3[nH]6)C=C5)C=C4)cc2)N(C(=O)c2ccn(C)c(=O)c2)C1
REMARK SMILES IDX 13 1 12 2 11 3 10 4 9 5 8 6 6 7 7 8 5 9 3 10 4 11 97 12
REMARK SMILES IDX 86 13 2 14 1 15 87 16 88 17 89 18 90 19 96 20 91 21 94 22
REMARK SMILES IDX 92 23 95 24 93 25 14 26 15 27 16 28 17 29 18 30 19 31 20 32
REMARK SMILES IDX 21 33 85 34 22 35 84 36 23 37 24 38 25 39 78 40 26 41 83 42
REMARK SMILES IDX 77 43 79 44 27 45 82 46 76 47 75 48 28 50 62 51 41 52 61 53
REMARK SMILES IDX 42 54 45 55 60 56 80 57 43 58 44 59 59 61 81 62 46 63 29 64
REMARK SMILES IDX 30 65 39 66 31 67 32 68 38 69 40 70 33 71 34 72 35 73 36 74
REMARK SMILES IDX 37 75 63 76 64 77 73 78 65 79 66 80 72 81 74 82 67 83 68 84
REMARK SMILES IDX 69 85 70 86 71 87 47 88 48 89 57 90 49 91 50 92 56 93 58 94
REMARK SMILES IDX 51 95 52 96 53 97 54 98 55 99
REMARK H PARENT 79 49 45 60
REMARK Flexibility Score: inf
ROOT
ATOM      1  C   UNL A   1      40.037  21.833  26.921  1.00  0.00     0.188 C 
ENDROOT
BRANCH   1   2
ATOM      2  C   UNL A   1      40.327  23.279  26.503  1.00  0.00     0.188 C 
BRANCH   2   3
ATOM      3  O   UNL A   1      39.216  24.171  26.568  1.00  0.00    -0.376 OA
BRANCH   3   4
ATOM      4  C   UNL A   1      37.910  23.592  26.508  1.00  0.00     0.202 C 
BRANCH   4   5
ATOM      5  C   UNL A   1      37.107  23.836  25.221  1.00  0.00     0.261 C 
BRANCH   5   6
ATOM      6  O   UNL A   1      35.724  23.439  25.331  1.00  0.00    -0.462 OA
BRANCH   6   7
ATOM      7  C   UNL A   1      34.827  24.295  24.783  1.00  0.00     0.329 C 
ATOM      8  O   UNL A   1      34.542  24.311  23.587  1.00  0.00    -0.250 OA
BRANCH   7   9
ATOM      9  C   UNL A   1      34.083  25.170  25.818  1.00  0.00     0.198 C 
ATOM     10  C   UNL A   1      32.888  26.863  24.576  1.00  0.00     0.140 C 
ATOM     11  C   UNL A   1      33.992  26.675  25.625  1.00  0.00     0.071 C 
ATOM     12  C   UNL A   1      32.039  25.575  24.687  1.00  0.00     0.152 C 
ATOM     13  N   UNL A   1      32.687  24.778  25.721  1.00  0.00    -0.322 N 
BRANCH  10  14
ATOM     14  O   UNL A   1      33.483  27.006  23.283  1.00  0.00    -0.380 OA
ATOM     15  C   UNL A   1      32.515  26.939  22.234  1.00  0.00     0.195 C 
ENDBRANCH  10  14
BRANCH  13  16
ATOM     16  C   UNL A   1      32.092  23.691  26.322  1.00  0.00     0.254 C 
ATOM     17  O   UNL A   1      31.292  23.800  27.248  1.00  0.00    -0.269 OA
BRANCH  16  18
ATOM     18  C   UNL A   1      32.493  22.338  25.828  1.00  0.00     0.046 A 
ATOM     19  C   UNL A   1      33.276  21.440  26.643  1.00  0.00     0.032 A 
ATOM     20  C   UNL A   1      32.148  21.995  24.579  1.00  0.00     0.085 A 
ATOM     21  C   UNL A   1      33.674  20.263  26.145  1.00  0.00     0.089 A 
ATOM     22  C   UNL A   1      32.541  20.669  24.033  1.00  0.00     0.251 A 
ATOM     23  N   UNL A   1      33.332  19.876  24.860  1.00  0.00    -0.319 N 
ATOM     24  O   UNL A   1      32.147  20.365  22.912  1.00  0.00    -0.269 OA
ATOM     25  C   UNL A   1      33.835  18.599  24.361  1.00  0.00     0.153 C 
ENDBRANCH  16  18
ENDBRANCH  13  16
ENDBRANCH   7   9
ENDBRANCH   6   7
ENDBRANCH   5   6
ENDBRANCH   4   5
ENDBRANCH   3   4
ENDBRANCH   2   3
ENDBRANCH   1   2
BRANCH   1  26
ATOM     26  O   UNL A   1      40.520  20.858  26.014  1.00  0.00    -0.376 OA
BRANCH  26  27
ATOM     27  C   UNL A   1      41.020  19.618  26.501  1.00  0.00     0.202 C 
BRANCH  27  28
ATOM     28  C   UNL A   1      42.463  19.188  26.165  1.00  0.00     0.261 C 
BRANCH  28  29
ATOM     29  O   UNL A   1      42.947  19.485  24.841  1.00  0.00    -0.460 OA
BRANCH  29  30
ATOM     30  C   UNL A   1      44.288  19.599  24.666  1.00  0.00     0.338 C 
ATOM     31  O   UNL A   1      45.019  18.770  24.173  1.00  0.00    -0.246 OA
BRANCH  30  32
ATOM     32  C   UNL A   1      44.660  21.027  24.905  1.00  0.00     0.060 A 
ATOM     33  C   UNL A   1      45.276  21.346  26.125  1.00  0.00     0.016 A 
ATOM     34  C   UNL A   1      44.512  22.017  23.928  1.00  0.00     0.016 A 
ATOM     35  C   UNL A   1      45.707  22.651  26.385  1.00  0.00     0.010 A 
ATOM     36  C   UNL A   1      44.929  23.329  24.195  1.00  0.00     0.010 A 
ATOM     37  C   UNL A   1      45.496  23.662  25.438  1.00  0.00    -0.014 A 
BRANCH  37  38
ATOM     38  C   UNL A   1      45.658  25.090  25.826  1.00  0.00     0.031 A 
ATOM     39  C   UNL A   1      47.043  25.683  25.764  1.00  0.00     0.074 A 
ATOM     40  C   UNL A   1      44.620  25.858  26.206  1.00  0.00     0.049 A 
ATOM     41  N   UNL A   1      47.456  26.874  26.107  1.00  0.00    -0.248 NA
ATOM     42  C   UNL A   1      48.105  24.803  25.246  1.00  0.00     0.031 C 
ATOM     43  C   UNL A   1      43.223  25.433  26.261  1.00  0.00     0.029 A 
ATOM     44  N   UNL A   1      44.589  27.166  26.628  1.00  0.00    -0.354 N 
ATOM     45  C   UNL A   1      48.824  26.886  25.857  1.00  0.00     0.074 A 
ATOM     46  C   UNL A   1      49.177  25.572  25.364  1.00  0.00     0.031 C 
ATOM     47  C   UNL A   1      42.474  26.458  26.708  1.00  0.00     0.029 A 
ATOM     48  C   UNL A   1      43.339  27.600  27.002  1.00  0.00     0.049 A 
ATOM     49  H   UNL A   1      45.389  27.741  26.658  1.00  0.00     0.167 HD
ATOM     50  C   UNL A   1      49.709  27.900  26.013  1.00  0.00     0.037 A 
ATOM     51  C   UNL A   1      42.943  28.773  27.541  1.00  0.00     0.037 A 
ATOM     52  C   UNL A   1      49.360  29.207  26.501  1.00  0.00     0.049 A 
ATOM     53  C   UNL A   1      43.959  29.865  27.782  1.00  0.00     0.074 A 
ATOM     54  C   UNL A   1      50.184  30.305  26.677  1.00  0.00     0.029 A 
ATOM     55  N   UNL A   1      48.089  29.595  26.900  1.00  0.00    -0.354 N 
ATOM     56  N   UNL A   1      45.246  29.869  27.524  1.00  0.00    -0.248 NA
ATOM     57  C   UNL A   1      43.469  31.114  28.385  1.00  0.00     0.031 C 
ATOM     58  C   UNL A   1      49.425  31.336  27.240  1.00  0.00     0.029 A 
ATOM     59  C   UNL A   1      48.113  30.905  27.350  1.00  0.00     0.049 A 
ATOM     60  H   UNL A   1      47.288  29.024  26.866  1.00  0.00     0.167 HD
ATOM     61  C   UNL A   1      45.708  31.129  27.900  1.00  0.00     0.074 A 
ATOM     62  C   UNL A   1      44.564  31.862  28.397  1.00  0.00     0.031 C 
ATOM     63  C   UNL A   1      46.967  31.633  27.835  1.00  0.00     0.037 A 
BRANCH  50  64
ATOM     64  C   UNL A   1      51.151  27.622  25.685  1.00  0.00     0.058 A 
ATOM     65  C   UNL A   1      52.053  27.141  26.647  1.00  0.00     0.135 A 
ATOM     66  C   UNL A   1      51.627  27.811  24.377  1.00  0.00     0.135 A 
ATOM     67  F   UNL A   1      51.658  26.963  27.919  1.00  0.00    -0.206 F 
ATOM     68  C   UNL A   1      53.382  26.882  26.331  1.00  0.00     0.059 A 
ATOM     69  C   UNL A   1      52.945  27.529  24.032  1.00  0.00     0.059 A 
ATOM     70  F   UNL A   1      50.809  28.274  23.420  1.00  0.00    -0.206 F 
ATOM     71  C   UNL A   1      53.819  27.077  25.019  1.00  0.00     0.060 A 
BRANCH  71  72
ATOM     72  S   UNL A   1      55.545  26.731  24.625  1.00  0.00     0.124 S 
ATOM     73  O   UNL A   1      56.237  27.695  25.476  1.00  0.00    -0.237 OA
ATOM     74  O   UNL A   1      55.679  25.331  25.015  1.00  0.00    -0.237 OA
ATOM     75  O   UNL A   1      55.627  26.990  23.191  1.00  0.00    -0.744 OA
ENDBRANCH  71  72
ENDBRANCH  50  64
BRANCH  51  76
ATOM     76  C   UNL A   1      41.516  28.979  27.918  1.00  0.00     0.058 A 
ATOM     77  C   UNL A   1      41.110  29.004  29.260  1.00  0.00     0.135 A 
ATOM     78  C   UNL A   1      40.523  29.136  26.936  1.00  0.00     0.135 A 
ATOM     79  F   UNL A   1      42.015  28.834  30.236  1.00  0.00    -0.206 F 
ATOM     80  C   UNL A   1      39.776  29.169  29.618  1.00  0.00     0.059 A 
ATOM     81  C   UNL A   1      39.186  29.333  27.269  1.00  0.00     0.059 A 
ATOM     82  F   UNL A   1      40.854  29.120  25.636  1.00  0.00    -0.206 F 
ATOM     83  C   UNL A   1      38.821  29.341  28.614  1.00  0.00     0.060 A 
BRANCH  83  84
ATOM     84  S   UNL A   1      37.104  29.625  29.094  1.00  0.00     0.124 S 
ATOM     85  O   UNL A   1      36.381  29.016  27.984  1.00  0.00    -0.237 OA
ATOM     86  O   UNL A   1      37.029  28.923  30.372  1.00  0.00    -0.237 OA
ATOM     87  O   UNL A   1      37.016  31.079  29.183  1.00  0.00    -0.744 OA
ENDBRANCH  83  84
ENDBRANCH  51  76
BRANCH  63  88
ATOM     88  C   UNL A   1      47.179  33.061  28.268  1.00  0.00     0.058 A 
ATOM     89  C   UNL A   1      47.554  33.393  29.579  1.00  0.00     0.135 A 
ATOM     90  C   UNL A   1      47.067  34.107  27.337  1.00  0.00     0.135 A 
ATOM     91  F   UNL A   1      47.673  32.435  30.512  1.00  0.00    -0.206 F 
ATOM     92  C   UNL A   1      47.787  34.713  29.957  1.00  0.00     0.059 A 
ATOM     93  C   UNL A   1      47.326  35.430  27.685  1.00  0.00     0.059 A 
ATOM     94  F   UNL A   1      46.724  33.847  26.065  1.00  0.00    -0.206 F 
ATOM     95  C   UNL A   1      47.675  35.725  29.001  1.00  0.00     0.060 A 
BRANCH  95  96
ATOM     96  S   UNL A   1      48.016  37.428  29.497  1.00  0.00     0.124 S 
ATOM     97  O   UNL A   1      47.002  38.162  28.746  1.00  0.00    -0.237 OA
ATOM     98  O   UNL A   1      47.821  37.376  30.942  1.00  0.00    -0.237 OA
ATOM     99  O   UNL A   1      49.393  37.640  29.062  1.00  0.00    -0.744 OA
ENDBRANCH  95  96
ENDBRANCH  63  88
ENDBRANCH  37  38
ENDBRANCH  30  32
ENDBRANCH  29  30
ENDBRANCH  28  29
ENDBRANCH  27  28
ENDBRANCH  26  27
ENDBRANCH   1  26
TORSDOF 23
ENDMDL
