MODEL 1
REMARK VINA RESULT:     -10.6      0.000      0.000
REMARK SMILES Cc1nc(CNC(=O)[C@H]2CCO[C@H]2C)sc1C(=O)OCCOCCOCCOC(=O)c1ccc(-c2c3nc(c(-c4c(F)cc(S(=O)(=O)[O-])cc4F)c4ccc([nH]4)c(-c4c(F)cc(S(=O)(=O)[O-])cc4F)c4nc(c(-c5c(F)cc(S(=O)(=O)[O-])cc5F)c5ccc2[nH]5)C=C4)C=C3)cc1
REMARK SMILES IDX 23 1 22 2 21 3 20 4 19 5 17 6 18 7 16 8 1 9 2 10 3 11 4 12
REMARK SMILES IDX 15 13 5 14 6 15 7 16 8 18 9 19 10 20 13 21 11 22 12 23 14 24
REMARK SMILES IDX 24 25 25 26 26 27 27 28 28 29 29 30 30 31 31 32 32 33 96 34
REMARK SMILES IDX 33 35 95 36 34 37 35 38 36 39 89 40 37 41 94 42 88 43 90 44
REMARK SMILES IDX 38 45 93 46 87 47 86 48 39 50 73 51 52 52 72 53 53 54 56 55
REMARK SMILES IDX 71 56 91 57 54 58 55 59 70 61 92 62 57 63 40 64 41 65 50 66
REMARK SMILES IDX 42 67 43 68 49 69 51 70 44 71 45 72 46 73 47 74 48 75 74 76
REMARK SMILES IDX 75 77 84 78 76 79 77 80 83 81 85 82 78 83 79 84 80 85 81 86
REMARK SMILES IDX 82 87 58 88 59 89 68 90 60 91 61 92 67 93 69 94 62 95 63 96
REMARK SMILES IDX 64 97 65 98 66 99
REMARK H PARENT 6 17 90 49 56 60
REMARK Flexibility Score: inf
ROOT
ATOM      1  C   UNL A   1      31.594  29.330  24.138  1.00  0.00     0.188 C 
ENDROOT
BRANCH   1   2
ATOM      2  O   UNL A   1      30.300  28.912  23.716  1.00  0.00    -0.376 OA
BRANCH   2   3
ATOM      3  C   UNL A   1      30.122  27.590  23.221  1.00  0.00     0.202 C 
BRANCH   3   4
ATOM      4  C   UNL A   1      29.813  26.505  24.255  1.00  0.00     0.261 C 
BRANCH   4   5
ATOM      5  O   UNL A   1      30.951  26.212  25.084  1.00  0.00    -0.459 OA
BRANCH   5   6
ATOM      6  C   UNL A   1      30.792  25.177  25.958  1.00  0.00     0.350 C 
ATOM      7  O   UNL A   1      29.813  25.033  26.681  1.00  0.00    -0.245 OA
BRANCH   6   8
ATOM      8  C   UNL A   1      31.876  24.231  25.819  1.00  0.00     0.135 A 
ATOM      9  C   UNL A   1      34.044  25.647  25.745  1.00  0.00     0.068 C 
ATOM     10  C   UNL A   1      33.249  24.390  25.688  1.00  0.00     0.063 A 
ATOM     11  N   UNL A   1      33.955  23.201  25.513  1.00  0.00    -0.244 NA
ATOM     12  C   UNL A   1      33.139  22.167  25.519  1.00  0.00     0.113 A 
ATOM     13  S   UNL A   1      31.486  22.558  25.769  1.00  0.00    -0.110 S 
BRANCH  12  14
ATOM     14  C   UNL A   1      33.528  20.722  25.370  1.00  0.00     0.183 C 
BRANCH  14  15
ATOM     15  N   UNL A   1      32.919  20.129  24.192  1.00  0.00    -0.349 N 
ATOM     16  C   UNL A   1      32.682  18.819  23.902  1.00  0.00     0.226 C 
ATOM     17  H   UNL A   1      32.634  20.769  23.500  1.00  0.00     0.163 HD
ATOM     18  O   UNL A   1      32.075  18.544  22.867  1.00  0.00    -0.275 OA
BRANCH  16  19
ATOM     19  C   UNL A   1      33.176  17.752  24.855  1.00  0.00     0.109 C 
ATOM     20  C   UNL A   1      32.183  16.635  25.114  1.00  0.00     0.044 C 
ATOM     21  C   UNL A   1      34.388  16.977  24.345  1.00  0.00     0.127 C 
ATOM     22  C   UNL A   1      33.080  15.542  25.652  1.00  0.00     0.161 C 
ATOM     23  O   UNL A   1      34.370  15.714  25.049  1.00  0.00    -0.378 OA
ATOM     24  C   UNL A   1      34.386  16.655  22.852  1.00  0.00     0.039 C 
ENDBRANCH  16  19
ENDBRANCH  14  15
ENDBRANCH  12  14
ENDBRANCH   6   8
ENDBRANCH   5   6
ENDBRANCH   4   5
ENDBRANCH   3   4
ENDBRANCH   2   3
ENDBRANCH   1   2
BRANCH   1  25
ATOM     25  C   UNL A   1      31.827  29.669  25.622  1.00  0.00     0.188 C 
BRANCH  25  26
ATOM     26  O   UNL A   1      33.153  30.071  25.934  1.00  0.00    -0.376 OA
BRANCH  26  27
ATOM     27  C   UNL A   1      33.344  30.590  27.244  1.00  0.00     0.202 C 
BRANCH  27  28
ATOM     28  C   UNL A   1      34.596  30.047  27.941  1.00  0.00     0.261 C 
BRANCH  28  29
ATOM     29  O   UNL A   1      35.665  30.995  28.081  1.00  0.00    -0.460 OA
BRANCH  29  30
ATOM     30  C   UNL A   1      36.341  30.981  29.252  1.00  0.00     0.338 C 
ATOM     31  O   UNL A   1      35.924  31.318  30.345  1.00  0.00    -0.246 OA
BRANCH  30  32
ATOM     32  C   UNL A   1      37.640  30.320  29.016  1.00  0.00     0.060 A 
ATOM     33  C   UNL A   1      38.513  30.133  30.093  1.00  0.00     0.016 A 
ATOM     34  C   UNL A   1      37.989  29.888  27.733  1.00  0.00     0.016 A 
ATOM     35  C   UNL A   1      39.754  29.527  29.883  1.00  0.00     0.010 A 
ATOM     36  C   UNL A   1      39.236  29.298  27.522  1.00  0.00     0.010 A 
ATOM     37  C   UNL A   1      40.135  29.136  28.591  1.00  0.00    -0.014 A 
BRANCH  37  38
ATOM     38  C   UNL A   1      41.526  28.699  28.321  1.00  0.00     0.031 A 
ATOM     39  C   UNL A   1      42.617  29.736  28.306  1.00  0.00     0.074 A 
ATOM     40  C   UNL A   1      41.818  27.408  28.080  1.00  0.00     0.049 A 
ATOM     41  N   UNL A   1      43.890  29.596  28.047  1.00  0.00    -0.248 NA
ATOM     42  C   UNL A   1      42.213  31.115  28.625  1.00  0.00     0.031 C 
ATOM     43  C   UNL A   1      40.856  26.308  28.081  1.00  0.00     0.029 A 
ATOM     44  N   UNL A   1      43.015  26.809  27.773  1.00  0.00    -0.354 N 
ATOM     45  C   UNL A   1      44.442  30.864  28.175  1.00  0.00     0.074 A 
ATOM     46  C   UNL A   1      43.360  31.766  28.508  1.00  0.00     0.031 C 
ATOM     47  C   UNL A   1      41.499  25.168  27.769  1.00  0.00     0.029 A 
ATOM     48  C   UNL A   1      42.910  25.461  27.524  1.00  0.00     0.049 A 
ATOM     49  H   UNL A   1      43.869  27.300  27.734  1.00  0.00     0.167 HD
ATOM     50  C   UNL A   1      45.734  31.244  28.037  1.00  0.00     0.037 A 
ATOM     51  C   UNL A   1      43.844  24.574  27.125  1.00  0.00     0.037 A 
ATOM     52  C   UNL A   1      46.809  30.353  27.689  1.00  0.00     0.049 A 
ATOM     53  C   UNL A   1      45.265  25.030  26.916  1.00  0.00     0.074 A 
ATOM     54  C   UNL A   1      48.152  30.645  27.532  1.00  0.00     0.029 A 
ATOM     55  N   UNL A   1      46.661  28.998  27.436  1.00  0.00    -0.354 N 
ATOM     56  N   UNL A   1      45.779  26.228  27.072  1.00  0.00    -0.248 NA
ATOM     57  C   UNL A   1      46.235  24.015  26.480  1.00  0.00     0.031 C 
ATOM     58  C   UNL A   1      48.812  29.472  27.149  1.00  0.00     0.029 A 
ATOM     59  C   UNL A   1      47.886  28.442  27.107  1.00  0.00     0.049 A 
ATOM     60  H   UNL A   1      45.811  28.504  27.484  1.00  0.00     0.167 HD
ATOM     61  C   UNL A   1      47.133  26.104  26.776  1.00  0.00     0.074 A 
ATOM     62  C   UNL A   1      47.362  24.714  26.440  1.00  0.00     0.031 C 
ATOM     63  C   UNL A   1      48.100  27.055  26.784  1.00  0.00     0.037 A 
BRANCH  50  64
ATOM     64  C   UNL A   1      46.049  32.697  28.247  1.00  0.00     0.058 A 
ATOM     65  C   UNL A   1      46.070  33.604  27.175  1.00  0.00     0.135 A 
ATOM     66  C   UNL A   1      46.314  33.191  29.533  1.00  0.00     0.135 A 
ATOM     67  F   UNL A   1      45.844  33.176  25.924  1.00  0.00    -0.206 F 
ATOM     68  C   UNL A   1      46.367  34.948  27.370  1.00  0.00     0.059 A 
ATOM     69  C   UNL A   1      46.591  34.537  29.754  1.00  0.00     0.059 A 
ATOM     70  F   UNL A   1      46.311  32.363  30.590  1.00  0.00    -0.206 F 
ATOM     71  C   UNL A   1      46.628  35.405  28.663  1.00  0.00     0.060 A 
BRANCH  71  72
ATOM     72  S   UNL A   1      47.016  37.152  28.901  1.00  0.00     0.124 S 
ATOM     73  O   UNL A   1      45.941  37.793  28.148  1.00  0.00    -0.237 OA
ATOM     74  O   UNL A   1      46.945  37.294  30.351  1.00  0.00    -0.237 OA
ATOM     75  O   UNL A   1      48.351  37.285  28.325  1.00  0.00    -0.744 OA
ENDBRANCH  71  72
ENDBRANCH  50  64
BRANCH  51  76
ATOM     76  C   UNL A   1      43.466  23.157  26.878  1.00  0.00     0.058 A 
ATOM     77  C   UNL A   1      43.209  22.281  27.943  1.00  0.00     0.135 A 
ATOM     78  C   UNL A   1      43.365  22.650  25.574  1.00  0.00     0.135 A 
ATOM     79  F   UNL A   1      43.306  22.717  29.208  1.00  0.00    -0.206 F 
ATOM     80  C   UNL A   1      42.880  20.947  27.725  1.00  0.00     0.059 A 
ATOM     81  C   UNL A   1      43.016  21.326  25.329  1.00  0.00     0.059 A 
ATOM     82  F   UNL A   1      43.594  23.452  24.522  1.00  0.00    -0.206 F 
ATOM     83  C   UNL A   1      42.785  20.478  26.413  1.00  0.00     0.060 A 
BRANCH  83  84
ATOM     84  S   UNL A   1      42.311  18.757  26.136  1.00  0.00     0.124 S 
ATOM     85  O   UNL A   1      42.483  18.188  27.468  1.00  0.00    -0.237 OA
ATOM     86  O   UNL A   1      40.934  18.889  25.671  1.00  0.00    -0.237 OA
ATOM     87  O   UNL A   1      43.265  18.308  25.126  1.00  0.00    -0.744 OA
ENDBRANCH  83  84
ENDBRANCH  51  76
BRANCH  63  88
ATOM     88  C   UNL A   1      49.502  26.625  26.452  1.00  0.00     0.058 A 
ATOM     89  C   UNL A   1      50.310  25.960  27.388  1.00  0.00     0.135 A 
ATOM     90  C   UNL A   1      50.020  26.826  25.162  1.00  0.00     0.135 A 
ATOM     91  F   UNL A   1      49.864  25.748  28.636  1.00  0.00    -0.206 F 
ATOM     92  C   UNL A   1      51.591  25.525  27.062  1.00  0.00     0.059 A 
ATOM     93  C   UNL A   1      51.290  26.379  24.808  1.00  0.00     0.059 A 
ATOM     94  F   UNL A   1      49.283  27.447  24.228  1.00  0.00    -0.206 F 
ATOM     95  C   UNL A   1      52.073  25.740  25.768  1.00  0.00     0.060 A 
BRANCH  95  96
ATOM     96  S   UNL A   1      53.721  25.137  25.342  1.00  0.00     0.124 S 
ATOM     97  O   UNL A   1      54.533  25.739  26.395  1.00  0.00    -0.237 OA
ATOM     98  O   UNL A   1      53.557  23.688  25.418  1.00  0.00    -0.237 OA
ATOM     99  O   UNL A   1      53.938  25.666  24.000  1.00  0.00    -0.744 OA
ENDBRANCH  95  96
ENDBRANCH  63  88
ENDBRANCH  37  38
ENDBRANCH  30  32
ENDBRANCH  29  30
ENDBRANCH  28  29
ENDBRANCH  27  28
ENDBRANCH  26  27
ENDBRANCH  25  26
ENDBRANCH   1  25
TORSDOF 23
ENDMDL
MODEL 2
REMARK VINA RESULT:     -10.1      0.630      8.104
REMARK SMILES Cc1nc(CNC(=O)[C@H]2CCO[C@H]2C)sc1C(=O)OCCOCCOCCOC(=O)c1ccc(-c2c3nc(c(-c4c(F)cc(S(=O)(=O)[O-])cc4F)c4ccc([nH]4)c(-c4c(F)cc(S(=O)(=O)[O-])cc4F)c4nc(c(-c5c(F)cc(S(=O)(=O)[O-])cc5F)c5ccc2[nH]5)C=C4)C=C3)cc1
REMARK SMILES IDX 23 1 22 2 21 3 20 4 19 5 17 6 18 7 16 8 1 9 2 10 3 11 4 12
REMARK SMILES IDX 15 13 5 14 6 15 7 16 8 18 9 19 10 20 13 21 11 22 12 23 14 24
REMARK SMILES IDX 24 25 25 26 26 27 27 28 28 29 29 30 30 31 31 32 32 33 96 34
REMARK SMILES IDX 33 35 95 36 34 37 35 38 36 39 89 40 37 41 94 42 88 43 90 44
REMARK SMILES IDX 38 45 93 46 87 47 86 48 39 50 73 51 52 52 72 53 53 54 56 55
REMARK SMILES IDX 71 56 91 57 54 58 55 59 70 61 92 62 57 63 40 64 41 65 50 66
REMARK SMILES IDX 42 67 43 68 49 69 51 70 44 71 45 72 46 73 47 74 48 75 74 76
REMARK SMILES IDX 75 77 84 78 76 79 77 80 83 81 85 82 78 83 79 84 80 85 81 86
REMARK SMILES IDX 82 87 58 88 59 89 68 90 60 91 61 92 67 93 69 94 62 95 63 96
REMARK SMILES IDX 64 97 65 98 66 99
REMARK H PARENT 6 17 90 49 56 60
REMARK Flexibility Score: inf
ROOT
ATOM      1  C   UNL A   1      31.511  29.319  24.017  1.00  0.00     0.188 C 
ENDROOT
BRANCH   1   2
ATOM      2  O   UNL A   1      30.230  28.819  23.649  1.00  0.00    -0.376 OA
BRANCH   2   3
ATOM      3  C   UNL A   1      30.119  27.491  23.148  1.00  0.00     0.202 C 
BRANCH   3   4
ATOM      4  C   UNL A   1      29.661  26.419  24.140  1.00  0.00     0.261 C 
BRANCH   4   5
ATOM      5  O   UNL A   1      30.540  26.326  25.275  1.00  0.00    -0.459 OA
BRANCH   5   6
ATOM      6  C   UNL A   1      30.326  25.260  26.099  1.00  0.00     0.350 C 
ATOM      7  O   UNL A   1      29.295  25.080  26.735  1.00  0.00    -0.245 OA
BRANCH   6   8
ATOM      8  C   UNL A   1      31.432  24.332  26.018  1.00  0.00     0.135 A 
ATOM      9  C   UNL A   1      33.578  25.781  26.090  1.00  0.00     0.068 C 
ATOM     10  C   UNL A   1      32.807  24.513  25.973  1.00  0.00     0.063 A 
ATOM     11  N   UNL A   1      33.541  23.336  25.829  1.00  0.00    -0.244 NA
ATOM     12  C   UNL A   1      32.742  22.291  25.775  1.00  0.00     0.113 A 
ATOM     13  S   UNL A   1      31.072  22.654  25.926  1.00  0.00    -0.110 S 
BRANCH  12  14
ATOM     14  C   UNL A   1      33.162  20.853  25.635  1.00  0.00     0.183 C 
BRANCH  14  15
ATOM     15  N   UNL A   1      32.568  20.240  24.460  1.00  0.00    -0.349 N 
ATOM     16  C   UNL A   1      32.527  18.929  24.090  1.00  0.00     0.226 C 
ATOM     17  H   UNL A   1      32.128  20.864  23.838  1.00  0.00     0.163 HD
ATOM     18  O   UNL A   1      31.894  18.620  23.081  1.00  0.00    -0.275 OA
BRANCH  16  19
ATOM     19  C   UNL A   1      33.263  17.904  24.925  1.00  0.00     0.109 C 
ATOM     20  C   UNL A   1      32.424  16.706  25.330  1.00  0.00     0.044 C 
ATOM     21  C   UNL A   1      34.429  17.236  24.202  1.00  0.00     0.127 C 
ATOM     22  C   UNL A   1      33.486  15.691  25.687  1.00  0.00     0.161 C 
ATOM     23  O   UNL A   1      34.636  15.973  24.877  1.00  0.00    -0.378 OA
ATOM     24  C   UNL A   1      34.198  16.920  22.726  1.00  0.00     0.039 C 
ENDBRANCH  16  19
ENDBRANCH  14  15
ENDBRANCH  12  14
ENDBRANCH   6   8
ENDBRANCH   5   6
ENDBRANCH   4   5
ENDBRANCH   3   4
ENDBRANCH   2   3
ENDBRANCH   1   2
BRANCH   1  25
ATOM     25  C   UNL A   1      31.768  29.721  25.482  1.00  0.00     0.188 C 
BRANCH  25  26
ATOM     26  O   UNL A   1      33.115  30.066  25.771  1.00  0.00    -0.376 OA
BRANCH  26  27
ATOM     27  C   UNL A   1      33.382  30.410  27.125  1.00  0.00     0.202 C 
BRANCH  27  28
ATOM     28  C   UNL A   1      34.633  29.730  27.693  1.00  0.00     0.261 C 
BRANCH  28  29
ATOM     29  O   UNL A   1      35.776  30.589  27.826  1.00  0.00    -0.460 OA
BRANCH  29  30
ATOM     30  C   UNL A   1      36.417  30.570  29.017  1.00  0.00     0.338 C 
ATOM     31  O   UNL A   1      35.938  30.793  30.112  1.00  0.00    -0.246 OA
BRANCH  30  32
ATOM     32  C   UNL A   1      37.783  30.059  28.785  1.00  0.00     0.060 A 
ATOM     33  C   UNL A   1      38.650  29.919  29.875  1.00  0.00     0.016 A 
ATOM     34  C   UNL A   1      38.201  29.721  27.495  1.00  0.00     0.016 A 
ATOM     35  C   UNL A   1      39.951  29.457  29.670  1.00  0.00     0.010 A 
ATOM     36  C   UNL A   1      39.508  29.275  27.290  1.00  0.00     0.010 A 
ATOM     37  C   UNL A   1      40.397  29.163  28.373  1.00  0.00    -0.014 A 
BRANCH  37  38
ATOM     38  C   UNL A   1      41.832  28.886  28.120  1.00  0.00     0.031 A 
ATOM     39  C   UNL A   1      42.252  27.473  27.819  1.00  0.00     0.074 A 
ATOM     40  C   UNL A   1      42.751  29.868  28.169  1.00  0.00     0.049 A 
ATOM     41  N   UNL A   1      43.449  26.990  27.614  1.00  0.00    -0.248 NA
ATOM     42  C   UNL A   1      41.175  26.474  27.741  1.00  0.00     0.031 C 
ATOM     43  C   UNL A   1      42.470  31.278  28.435  1.00  0.00     0.029 A 
ATOM     44  N   UNL A   1      44.114  29.821  28.008  1.00  0.00    -0.354 N 
ATOM     45  C   UNL A   1      43.271  25.633  27.378  1.00  0.00     0.074 A 
ATOM     46  C   UNL A   1      41.854  25.364  27.493  1.00  0.00     0.031 C 
ATOM     47  C   UNL A   1      43.631  31.959  28.438  1.00  0.00     0.029 A 
ATOM     48  C   UNL A   1      44.735  31.031  28.197  1.00  0.00     0.049 A 
ATOM     49  H   UNL A   1      44.600  28.995  27.779  1.00  0.00     0.167 HD
ATOM     50  C   UNL A   1      44.203  24.694  27.085  1.00  0.00     0.037 A 
ATOM     51  C   UNL A   1      46.046  31.347  28.197  1.00  0.00     0.037 A 
ATOM     52  C   UNL A   1      45.614  24.956  26.987  1.00  0.00     0.049 A 
ATOM     53  C   UNL A   1      47.071  30.275  27.929  1.00  0.00     0.074 A 
ATOM     54  C   UNL A   1      46.635  24.070  26.688  1.00  0.00     0.029 A 
ATOM     55  N   UNL A   1      46.205  26.192  27.195  1.00  0.00    -0.354 N 
ATOM     56  N   UNL A   1      46.886  29.001  27.677  1.00  0.00    -0.248 NA
ATOM     57  C   UNL A   1      48.484  30.684  27.943  1.00  0.00     0.031 C 
ATOM     58  C   UNL A   1      47.848  24.765  26.750  1.00  0.00     0.029 A 
ATOM     59  C   UNL A   1      47.578  26.091  27.048  1.00  0.00     0.049 A 
ATOM     60  H   UNL A   1      45.721  27.020  27.414  1.00  0.00     0.167 HD
ATOM     61  C   UNL A   1      48.155  28.463  27.480  1.00  0.00     0.074 A 
ATOM     62  C   UNL A   1      49.099  29.550  27.634  1.00  0.00     0.031 C 
ATOM     63  C   UNL A   1      48.506  27.184  27.195  1.00  0.00     0.037 A 
BRANCH  50  64
ATOM     64  C   UNL A   1      43.718  23.291  26.865  1.00  0.00     0.058 A 
ATOM     65  C   UNL A   1      43.250  22.503  27.928  1.00  0.00     0.135 A 
ATOM     66  C   UNL A   1      43.704  22.734  25.577  1.00  0.00     0.135 A 
ATOM     67  F   UNL A   1      43.262  22.984  29.181  1.00  0.00    -0.206 F 
ATOM     68  C   UNL A   1      42.805  21.202  27.725  1.00  0.00     0.059 A 
ATOM     69  C   UNL A   1      43.243  21.441  25.347  1.00  0.00     0.059 A 
ATOM     70  F   UNL A   1      44.148  23.444  24.527  1.00  0.00    -0.206 F 
ATOM     71  C   UNL A   1      42.808  20.678  26.431  1.00  0.00     0.060 A 
BRANCH  71  72
ATOM     72  S   UNL A   1      42.232  18.985  26.182  1.00  0.00     0.124 S 
ATOM     73  O   UNL A   1      42.495  18.394  27.490  1.00  0.00    -0.237 OA
ATOM     74  O   UNL A   1      40.826  19.180  25.845  1.00  0.00    -0.237 OA
ATOM     75  O   UNL A   1      43.073  18.498  25.092  1.00  0.00    -0.744 OA
ENDBRANCH  71  72
ENDBRANCH  50  64
BRANCH  51  76
ATOM     76  C   UNL A   1      46.475  32.744  28.475  1.00  0.00     0.058 A 
ATOM     77  C   UNL A   1      46.770  33.165  29.779  1.00  0.00     0.135 A 
ATOM     78  C   UNL A   1      46.586  33.687  27.442  1.00  0.00     0.135 A 
ATOM     79  F   UNL A   1      46.665  32.303  30.802  1.00  0.00    -0.206 F 
ATOM     80  C   UNL A   1      47.146  34.476  30.054  1.00  0.00     0.059 A 
ATOM     81  C   UNL A   1      46.982  34.997  27.687  1.00  0.00     0.059 A 
ATOM     82  F   UNL A   1      46.322  33.330  26.175  1.00  0.00    -0.206 F 
ATOM     83  C   UNL A   1      47.251  35.386  29.000  1.00  0.00     0.060 A 
BRANCH  83  84
ATOM     84  S   UNL A   1      47.786  37.074  29.358  1.00  0.00     0.124 S 
ATOM     85  O   UNL A   1      48.159  36.971  30.764  1.00  0.00    -0.237 OA
ATOM     86  O   UNL A   1      48.887  37.253  28.417  1.00  0.00    -0.237 OA
ATOM     87  O   UNL A   1      46.595  37.868  29.074  1.00  0.00    -0.744 OA
ENDBRANCH  83  84
ENDBRANCH  51  76
BRANCH  63  88
ATOM     88  C   UNL A   1      49.966  26.891  26.996  1.00  0.00     0.058 A 
ATOM     89  C   UNL A   1      50.567  26.961  25.730  1.00  0.00     0.135 A 
ATOM     90  C   UNL A   1      50.787  26.596  28.098  1.00  0.00     0.135 A 
ATOM     91  F   UNL A   1      49.826  27.235  24.645  1.00  0.00    -0.206 F 
ATOM     92  C   UNL A   1      51.929  26.732  25.559  1.00  0.00     0.059 A 
ATOM     93  C   UNL A   1      52.155  26.385  27.952  1.00  0.00     0.059 A 
ATOM     94  F   UNL A   1      50.263  26.527  29.331  1.00  0.00    -0.206 F 
ATOM     95  C   UNL A   1      52.716  26.444  26.677  1.00  0.00     0.060 A 
BRANCH  95  96
ATOM     96  S   UNL A   1      54.489  26.187  26.450  1.00  0.00     0.124 S 
ATOM     97  O   UNL A   1      54.591  26.119  24.996  1.00  0.00    -0.237 OA
ATOM     98  O   UNL A   1      55.063  27.377  27.072  1.00  0.00    -0.237 OA
ATOM     99  O   UNL A   1      54.742  24.935  27.157  1.00  0.00    -0.744 OA
ENDBRANCH  95  96
ENDBRANCH  63  88
ENDBRANCH  37  38
ENDBRANCH  30  32
ENDBRANCH  29  30
ENDBRANCH  28  29
ENDBRANCH  27  28
ENDBRANCH  26  27
ENDBRANCH  25  26
ENDBRANCH   1  25
TORSDOF 23
ENDMDL
MODEL 3
REMARK VINA RESULT:      -9.7      4.784      5.687
REMARK SMILES Cc1nc(CNC(=O)[C@H]2CCO[C@H]2C)sc1C(=O)OCCOCCOCCOC(=O)c1ccc(-c2c3nc(c(-c4c(F)cc(S(=O)(=O)[O-])cc4F)c4ccc([nH]4)c(-c4c(F)cc(S(=O)(=O)[O-])cc4F)c4nc(c(-c5c(F)cc(S(=O)(=O)[O-])cc5F)c5ccc2[nH]5)C=C4)C=C3)cc1
REMARK SMILES IDX 23 1 22 2 21 3 20 4 19 5 17 6 18 7 16 8 1 9 2 10 3 11 4 12
REMARK SMILES IDX 15 13 5 14 6 15 7 16 8 18 9 19 10 20 13 21 11 22 12 23 14 24
REMARK SMILES IDX 24 25 25 26 26 27 27 28 28 29 29 30 30 31 31 32 32 33 96 34
REMARK SMILES IDX 33 35 95 36 34 37 35 38 36 39 89 40 37 41 94 42 88 43 90 44
REMARK SMILES IDX 38 45 93 46 87 47 86 48 39 50 73 51 52 52 72 53 53 54 56 55
REMARK SMILES IDX 71 56 91 57 54 58 55 59 70 61 92 62 57 63 40 64 41 65 50 66
REMARK SMILES IDX 42 67 43 68 49 69 51 70 44 71 45 72 46 73 47 74 48 75 74 76
REMARK SMILES IDX 75 77 84 78 76 79 77 80 83 81 85 82 78 83 79 84 80 85 81 86
REMARK SMILES IDX 82 87 58 88 59 89 68 90 60 91 61 92 67 93 69 94 62 95 63 96
REMARK SMILES IDX 64 97 65 98 66 99
REMARK H PARENT 6 17 90 49 56 60
REMARK Flexibility Score: inf
ROOT
ATOM      1  C   UNL A   1      31.623  29.212  23.841  1.00  0.00     0.188 C 
ENDROOT
BRANCH   1   2
ATOM      2  O   UNL A   1      30.889  28.217  23.135  1.00  0.00    -0.376 OA
BRANCH   2   3
ATOM      3  C   UNL A   1      31.218  26.845  23.322  1.00  0.00     0.202 C 
BRANCH   3   4
ATOM      4  C   UNL A   1      30.339  26.053  24.292  1.00  0.00     0.261 C 
BRANCH   4   5
ATOM      5  O   UNL A   1      30.911  25.996  25.611  1.00  0.00    -0.459 OA
BRANCH   5   6
ATOM      6  C   UNL A   1      30.820  24.789  26.240  1.00  0.00     0.350 C 
ATOM      7  O   UNL A   1      29.853  24.431  26.902  1.00  0.00    -0.245 OA
BRANCH   6   8
ATOM      8  C   UNL A   1      31.963  23.967  25.916  1.00  0.00     0.135 A 
ATOM      9  C   UNL A   1      33.982  25.585  25.778  1.00  0.00     0.068 C 
ATOM     10  C   UNL A   1      33.297  24.266  25.677  1.00  0.00     0.063 A 
ATOM     11  N   UNL A   1      34.083  23.170  25.327  1.00  0.00    -0.244 NA
ATOM     12  C   UNL A   1      33.365  22.066  25.311  1.00  0.00     0.113 A 
ATOM     13  S   UNL A   1      31.718  22.274  25.744  1.00  0.00    -0.110 S 
BRANCH  12  14
ATOM     14  C   UNL A   1      33.862  20.683  24.992  1.00  0.00     0.183 C 
BRANCH  14  15
ATOM     15  N   UNL A   1      33.034  20.042  23.984  1.00  0.00    -0.349 N 
ATOM     16  C   UNL A   1      32.645  18.741  23.878  1.00  0.00     0.226 C 
ATOM     17  H   UNL A   1      32.705  20.637  23.272  1.00  0.00     0.163 HD
ATOM     18  O   UNL A   1      31.869  18.429  22.976  1.00  0.00    -0.275 OA
BRANCH  16  19
ATOM     19  C   UNL A   1      33.182  17.727  24.865  1.00  0.00     0.109 C 
ATOM     20  C   UNL A   1      32.229  16.589  25.177  1.00  0.00     0.044 C 
ATOM     21  C   UNL A   1      34.414  16.973  24.372  1.00  0.00     0.127 C 
ATOM     22  C   UNL A   1      33.165  15.547  25.746  1.00  0.00     0.161 C 
ATOM     23  O   UNL A   1      34.444  15.738  25.124  1.00  0.00    -0.378 OA
ATOM     24  C   UNL A   1      34.409  16.595  22.892  1.00  0.00     0.039 C 
ENDBRANCH  16  19
ENDBRANCH  14  15
ENDBRANCH  12  14
ENDBRANCH   6   8
ENDBRANCH   5   6
ENDBRANCH   4   5
ENDBRANCH   3   4
ENDBRANCH   2   3
ENDBRANCH   1   2
BRANCH   1  25
ATOM     25  C   UNL A   1      31.453  29.330  25.368  1.00  0.00     0.188 C 
BRANCH  25  26
ATOM     26  O   UNL A   1      31.939  30.544  25.923  1.00  0.00    -0.376 OA
BRANCH  26  27
ATOM     27  C   UNL A   1      32.524  30.436  27.214  1.00  0.00     0.202 C 
BRANCH  27  28
ATOM     28  C   UNL A   1      34.046  30.267  27.184  1.00  0.00     0.261 C 
BRANCH  28  29
ATOM     29  O   UNL A   1      34.790  31.458  27.485  1.00  0.00    -0.460 OA
BRANCH  29  30
ATOM     30  C   UNL A   1      35.029  31.714  28.791  1.00  0.00     0.338 C 
ATOM     31  O   UNL A   1      34.280  32.257  29.582  1.00  0.00    -0.246 OA
BRANCH  30  32
ATOM     32  C   UNL A   1      36.304  31.064  29.152  1.00  0.00     0.060 A 
ATOM     33  C   UNL A   1      36.277  29.883  29.902  1.00  0.00     0.016 A 
ATOM     34  C   UNL A   1      37.520  31.623  28.748  1.00  0.00     0.016 A 
ATOM     35  C   UNL A   1      37.475  29.267  30.269  1.00  0.00     0.010 A 
ATOM     36  C   UNL A   1      38.717  31.014  29.130  1.00  0.00     0.010 A 
ATOM     37  C   UNL A   1      38.702  29.846  29.912  1.00  0.00    -0.014 A 
BRANCH  37  38
ATOM     38  C   UNL A   1      39.969  29.326  30.481  1.00  0.00     0.031 A 
ATOM     39  C   UNL A   1      40.542  29.999  31.698  1.00  0.00     0.074 A 
ATOM     40  C   UNL A   1      40.609  28.284  29.921  1.00  0.00     0.049 A 
ATOM     41  N   UNL A   1      41.655  29.751  32.336  1.00  0.00    -0.248 NA
ATOM     42  C   UNL A   1      39.752  31.102  32.269  1.00  0.00     0.031 C 
ATOM     43  C   UNL A   1      40.150  27.537  28.751  1.00  0.00     0.029 A 
ATOM     44  N   UNL A   1      41.795  27.682  30.260  1.00  0.00    -0.354 N 
ATOM     45  C   UNL A   1      41.699  30.660  33.385  1.00  0.00     0.074 A 
ATOM     46  C   UNL A   1      40.514  31.484  33.282  1.00  0.00     0.031 C 
ATOM     47  C   UNL A   1      41.057  26.587  28.458  1.00  0.00     0.029 A 
ATOM     48  C   UNL A   1      42.168  26.674  29.404  1.00  0.00     0.049 A 
ATOM     49  H   UNL A   1      42.329  27.948  31.045  1.00  0.00     0.167 HD
ATOM     50  C   UNL A   1      42.637  30.792  34.353  1.00  0.00     0.037 A 
ATOM     51  C   UNL A   1      43.289  25.923  29.377  1.00  0.00     0.037 A 
ATOM     52  C   UNL A   1      43.824  29.985  34.448  1.00  0.00     0.049 A 
ATOM     53  C   UNL A   1      44.349  26.129  30.428  1.00  0.00     0.074 A 
ATOM     54  C   UNL A   1      44.830  30.042  35.397  1.00  0.00     0.029 A 
ATOM     55  N   UNL A   1      44.171  28.982  33.557  1.00  0.00    -0.354 N 
ATOM     56  N   UNL A   1      44.362  26.972  31.433  1.00  0.00    -0.248 NA
ATOM     57  C   UNL A   1      45.547  25.280  30.343  1.00  0.00     0.031 C 
ATOM     58  C   UNL A   1      45.803  29.095  35.059  1.00  0.00     0.029 A 
ATOM     59  C   UNL A   1      45.383  28.422  33.923  1.00  0.00     0.049 A 
ATOM     60  H   UNL A   1      43.635  28.707  32.779  1.00  0.00     0.167 HD
ATOM     61  C   UNL A   1      45.555  26.738  32.111  1.00  0.00     0.074 A 
ATOM     62  C   UNL A   1      46.234  25.670  31.408  1.00  0.00     0.031 C 
ATOM     63  C   UNL A   1      46.043  27.352  33.218  1.00  0.00     0.037 A 
BRANCH  50  64
ATOM     64  C   UNL A   1      42.418  31.866  35.379  1.00  0.00     0.058 A 
ATOM     65  C   UNL A   1      42.887  33.174  35.180  1.00  0.00     0.135 A 
ATOM     66  C   UNL A   1      41.717  31.591  36.563  1.00  0.00     0.135 A 
ATOM     67  F   UNL A   1      43.581  33.483  34.074  1.00  0.00    -0.206 F 
ATOM     68  C   UNL A   1      42.689  34.168  36.133  1.00  0.00     0.059 A 
ATOM     69  C   UNL A   1      41.487  32.575  37.520  1.00  0.00     0.059 A 
ATOM     70  F   UNL A   1      41.253  30.354  36.802  1.00  0.00    -0.206 F 
ATOM     71  C   UNL A   1      41.990  33.858  37.300  1.00  0.00     0.060 A 
BRANCH  71  72
ATOM     72  S   UNL A   1      41.742  35.156  38.530  1.00  0.00     0.124 S 
ATOM     73  O   UNL A   1      42.422  34.590  39.691  1.00  0.00    -0.237 OA
ATOM     74  O   UNL A   1      42.396  36.303  37.910  1.00  0.00    -0.237 OA
ATOM     75  O   UNL A   1      40.289  35.249  38.637  1.00  0.00    -0.744 OA
ENDBRANCH  71  72
ENDBRANCH  50  64
BRANCH  51  76
ATOM     76  C   UNL A   1      43.479  24.910  28.305  1.00  0.00     0.058 A 
ATOM     77  C   UNL A   1      43.079  23.578  28.489  1.00  0.00     0.135 A 
ATOM     78  C   UNL A   1      44.074  25.251  27.082  1.00  0.00     0.135 A 
ATOM     79  F   UNL A   1      42.517  23.201  29.648  1.00  0.00    -0.206 F 
ATOM     80  C   UNL A   1      43.276  22.616  27.504  1.00  0.00     0.059 A 
ATOM     81  C   UNL A   1      44.261  24.313  26.072  1.00  0.00     0.059 A 
ATOM     82  F   UNL A   1      44.467  26.515  26.855  1.00  0.00    -0.206 F 
ATOM     83  C   UNL A   1      43.868  22.993  26.297  1.00  0.00     0.060 A 
BRANCH  83  84
ATOM     84  S   UNL A   1      44.077  21.749  25.004  1.00  0.00     0.124 S 
ATOM     85  O   UNL A   1      43.896  22.547  23.797  1.00  0.00    -0.237 OA
ATOM     86  O   UNL A   1      45.432  21.269  25.256  1.00  0.00    -0.237 OA
ATOM     87  O   UNL A   1      43.017  20.788  25.294  1.00  0.00    -0.744 OA
ENDBRANCH  83  84
ENDBRANCH  51  76
BRANCH  63  88
ATOM     88  C   UNL A   1      47.357  26.865  33.762  1.00  0.00     0.058 A 
ATOM     89  C   UNL A   1      48.574  27.452  33.384  1.00  0.00     0.135 A 
ATOM     90  C   UNL A   1      47.392  25.840  34.722  1.00  0.00     0.135 A 
ATOM     91  F   UNL A   1      48.595  28.432  32.468  1.00  0.00    -0.206 F 
ATOM     92  C   UNL A   1      49.784  27.027  33.924  1.00  0.00     0.059 A 
ATOM     93  C   UNL A   1      48.588  25.414  35.292  1.00  0.00     0.059 A 
ATOM     94  F   UNL A   1      46.254  25.253  35.125  1.00  0.00    -0.206 F 
ATOM     95  C   UNL A   1      49.781  26.006  34.879  1.00  0.00     0.060 A 
BRANCH  95  96
ATOM     96  S   UNL A   1      51.352  25.488  35.603  1.00  0.00     0.124 S 
ATOM     97  O   UNL A   1      51.463  24.118  35.111  1.00  0.00    -0.237 OA
ATOM     98  O   UNL A   1      52.294  26.445  35.032  1.00  0.00    -0.237 OA
ATOM     99  O   UNL A   1      51.124  25.624  37.038  1.00  0.00    -0.744 OA
ENDBRANCH  95  96
ENDBRANCH  63  88
ENDBRANCH  37  38
ENDBRANCH  30  32
ENDBRANCH  29  30
ENDBRANCH  28  29
ENDBRANCH  27  28
ENDBRANCH  26  27
ENDBRANCH  25  26
ENDBRANCH   1  25
TORSDOF 23
ENDMDL
