MODEL 1
REMARK VINA RESULT:      -9.7      0.000      0.000
REMARK SMILES C/C(C(=O)NCc1cscc1C)=C(\C)C(=O)OCCOCCOCCOC(=O)c1ccc(-c2c3nc(c(-c4c(F)cc(S(=O)(=O)[O-])cc4F)c4ccc([nH]4)c(-c4c(F)cc(S(=O)(=O)[O-])cc4F)c4nc(c(-c5c(F)cc(S(=O)(=O)[O-])cc5F)c5ccc2[nH]5)C=C4)C=C3)cc1
REMARK SMILES IDX 21 1 20 2 19 3 18 4 17 5 15 6 16 7 13 8 1 9 2 10 14 11 3 12
REMARK SMILES IDX 4 13 5 14 6 16 7 17 8 18 11 19 9 20 10 21 12 22 22 23 23 24
REMARK SMILES IDX 24 25 25 26 26 27 27 28 28 29 29 30 30 31 94 32 31 33 93 34
REMARK SMILES IDX 32 35 33 36 34 37 87 38 35 39 92 40 86 41 88 42 36 43 91 44
REMARK SMILES IDX 85 45 84 46 37 48 71 49 50 50 70 51 51 52 54 53 69 54 89 55
REMARK SMILES IDX 52 56 53 57 68 59 90 60 55 61 38 62 39 63 48 64 40 65 41 66
REMARK SMILES IDX 47 67 49 68 42 69 43 70 44 71 45 72 46 73 72 74 73 75 82 76
REMARK SMILES IDX 74 77 75 78 81 79 83 80 76 81 77 82 78 83 79 84 80 85 56 86
REMARK SMILES IDX 57 87 66 88 58 89 59 90 65 91 67 92 60 93 61 94 62 95 63 96
REMARK SMILES IDX 64 97
REMARK H PARENT 5 15 88 47 54 58
REMARK Flexibility Score: inf
ROOT
ATOM      1  C   UNL A   1      38.722  23.875  26.605  1.00  0.00     0.188 C 
ENDROOT
BRANCH   1   2
ATOM      2  O   UNL A   1      37.540  23.932  25.811  1.00  0.00    -0.376 OA
BRANCH   2   3
ATOM      3  C   UNL A   1      36.869  22.689  25.652  1.00  0.00     0.202 C 
BRANCH   3   4
ATOM      4  C   UNL A   1      35.493  22.650  26.321  1.00  0.00     0.261 C 
BRANCH   4   5
ATOM      5  O   UNL A   1      34.448  23.111  25.455  1.00  0.00    -0.460 OA
BRANCH   5   6
ATOM      6  C   UNL A   1      33.758  22.227  24.697  1.00  0.00     0.334 C 
ATOM      7  O   UNL A   1      34.191  21.231  24.146  1.00  0.00    -0.247 OA
BRANCH   6   8
ATOM      8  C   UNL A   1      32.396  22.818  24.513  1.00  0.00     0.042 C 
ATOM      9  C   UNL A   1      30.627  24.127  23.388  1.00  0.00     0.051 C 
ATOM     10  C   UNL A   1      32.070  23.744  23.575  1.00  0.00     0.024 C 
ATOM     11  C   UNL A   1      31.398  22.196  25.459  1.00  0.00     0.053 C 
BRANCH  10  12
ATOM     12  C   UNL A   1      33.101  24.249  22.597  1.00  0.00     0.247 C 
ATOM     13  O   UNL A   1      33.321  23.636  21.553  1.00  0.00    -0.270 OA
ATOM     14  N   UNL A   1      33.768  25.422  22.772  1.00  0.00    -0.348 N 
ATOM     15  H   UNL A   1      34.400  25.641  22.049  1.00  0.00     0.164 HD
BRANCH  14  16
ATOM     16  C   UNL A   1      33.711  26.403  23.832  1.00  0.00     0.153 C 
BRANCH  16  17
ATOM     17  C   UNL A   1      32.632  27.433  23.696  1.00  0.00    -0.015 A 
ATOM     18  C   UNL A   1      31.969  27.803  22.542  1.00  0.00     0.070 A 
ATOM     19  C   UNL A   1      32.113  28.175  24.838  1.00  0.00    -0.035 A 
ATOM     20  S   UNL A   1      30.708  28.902  22.833  1.00  0.00    -0.152 S 
ATOM     21  C   UNL A   1      31.061  28.993  24.482  1.00  0.00     0.068 A 
ATOM     22  C   UNL A   1      32.614  28.094  26.240  1.00  0.00     0.045 C 
ENDBRANCH  16  17
ENDBRANCH  14  16
ENDBRANCH  10  12
ENDBRANCH   6   8
ENDBRANCH   5   6
ENDBRANCH   4   5
ENDBRANCH   3   4
ENDBRANCH   2   3
ENDBRANCH   1   2
BRANCH   1  23
ATOM     23  C   UNL A   1      39.512  22.560  26.445  1.00  0.00     0.188 C 
BRANCH  23  24
ATOM     24  O   UNL A   1      40.663  22.294  27.239  1.00  0.00    -0.376 OA
BRANCH  24  25
ATOM     25  C   UNL A   1      41.893  22.013  26.593  1.00  0.00     0.202 C 
BRANCH  25  26
ATOM     26  C   UNL A   1      42.424  23.030  25.575  1.00  0.00     0.261 C 
BRANCH  26  27
ATOM     27  O   UNL A   1      43.016  24.216  26.133  1.00  0.00    -0.460 OA
BRANCH  27  28
ATOM     28  C   UNL A   1      42.257  25.337  26.042  1.00  0.00     0.338 C 
ATOM     29  O   UNL A   1      41.581  25.686  25.089  1.00  0.00    -0.246 OA
BRANCH  28  30
ATOM     30  C   UNL A   1      42.226  26.050  27.339  1.00  0.00     0.060 A 
ATOM     31  C   UNL A   1      41.309  25.615  28.306  1.00  0.00     0.016 A 
ATOM     32  C   UNL A   1      43.003  27.186  27.574  1.00  0.00     0.016 A 
ATOM     33  C   UNL A   1      41.138  26.335  29.491  1.00  0.00     0.010 A 
ATOM     34  C   UNL A   1      42.814  27.921  28.754  1.00  0.00     0.010 A 
ATOM     35  C   UNL A   1      41.855  27.520  29.702  1.00  0.00    -0.014 A 
BRANCH  35  36
ATOM     36  C   UNL A   1      41.451  28.416  30.822  1.00  0.00     0.031 A 
ATOM     37  C   UNL A   1      42.294  28.423  32.072  1.00  0.00     0.074 A 
ATOM     38  C   UNL A   1      40.379  29.225  30.719  1.00  0.00     0.049 A 
ATOM     39  N   UNL A   1      42.211  29.192  33.125  1.00  0.00    -0.248 NA
ATOM     40  C   UNL A   1      43.369  27.419  32.146  1.00  0.00     0.031 C 
ATOM     41  C   UNL A   1      39.488  29.282  29.563  1.00  0.00     0.029 A 
ATOM     42  N   UNL A   1      39.860  30.160  31.586  1.00  0.00    -0.354 N 
ATOM     43  C   UNL A   1      43.198  28.748  33.998  1.00  0.00     0.074 A 
ATOM     44  C   UNL A   1      43.866  27.639  33.355  1.00  0.00     0.031 C 
ATOM     45  C   UNL A   1      38.552  30.223  29.780  1.00  0.00     0.029 A 
ATOM     46  C   UNL A   1      38.768  30.844  31.089  1.00  0.00     0.049 A 
ATOM     47  H   UNL A   1      40.236  30.328  32.481  1.00  0.00     0.167 HD
ATOM     48  C   UNL A   1      43.512  29.218  35.230  1.00  0.00     0.037 A 
ATOM     49  C   UNL A   1      38.057  31.870  31.617  1.00  0.00     0.037 A 
ATOM     50  C   UNL A   1      42.849  30.333  35.855  1.00  0.00     0.049 A 
ATOM     51  C   UNL A   1      38.492  32.414  32.964  1.00  0.00     0.074 A 
ATOM     52  C   UNL A   1      43.101  30.905  37.090  1.00  0.00     0.029 A 
ATOM     53  N   UNL A   1      41.797  31.043  35.293  1.00  0.00    -0.354 N 
ATOM     54  N   UNL A   1      39.522  32.073  33.707  1.00  0.00    -0.248 NA
ATOM     55  C   UNL A   1      37.681  33.497  33.536  1.00  0.00     0.031 C 
ATOM     56  C   UNL A   1      42.171  31.932  37.293  1.00  0.00     0.029 A 
ATOM     57  C   UNL A   1      41.371  32.028  36.166  1.00  0.00     0.049 A 
ATOM     58  H   UNL A   1      41.410  30.870  34.404  1.00  0.00     0.167 HD
ATOM     59  C   UNL A   1      39.499  32.928  34.806  1.00  0.00     0.074 A 
ATOM     60  C   UNL A   1      38.395  33.840  34.597  1.00  0.00     0.031 C 
ATOM     61  C   UNL A   1      40.292  32.948  35.909  1.00  0.00     0.037 A 
BRANCH  48  62
ATOM     62  C   UNL A   1      44.587  28.504  36.001  1.00  0.00     0.058 A 
ATOM     63  C   UNL A   1      44.312  27.384  36.802  1.00  0.00     0.135 A 
ATOM     64  C   UNL A   1      45.923  28.930  35.912  1.00  0.00     0.135 A 
ATOM     65  F   UNL A   1      43.051  26.944  36.940  1.00  0.00    -0.206 F 
ATOM     66  C   UNL A   1      45.319  26.725  37.502  1.00  0.00     0.059 A 
ATOM     67  C   UNL A   1      46.950  28.271  36.582  1.00  0.00     0.059 A 
ATOM     68  F   UNL A   1      46.243  29.998  35.163  1.00  0.00    -0.206 F 
ATOM     69  C   UNL A   1      46.636  27.177  37.386  1.00  0.00     0.060 A 
BRANCH  69  70
ATOM     70  S   UNL A   1      47.933  26.307  38.291  1.00  0.00     0.124 S 
ATOM     71  O   UNL A   1      48.105  25.109  37.475  1.00  0.00    -0.237 OA
ATOM     72  O   UNL A   1      49.036  27.263  38.252  1.00  0.00    -0.237 OA
ATOM     73  O   UNL A   1      47.344  26.090  39.609  1.00  0.00    -0.744 OA
ENDBRANCH  69  70
ENDBRANCH  48  62
BRANCH  49  74
ATOM     74  C   UNL A   1      36.954  32.536  30.837  1.00  0.00     0.058 A 
ATOM     75  C   UNL A   1      35.600  32.224  31.075  1.00  0.00     0.135 A 
ATOM     76  C   UNL A   1      37.201  33.523  29.870  1.00  0.00     0.135 A 
ATOM     77  F   UNL A   1      35.271  31.232  31.916  1.00  0.00    -0.206 F 
ATOM     78  C   UNL A   1      34.553  32.904  30.462  1.00  0.00     0.059 A 
ATOM     79  C   UNL A   1      36.170  34.232  29.251  1.00  0.00     0.059 A 
ATOM     80  F   UNL A   1      38.463  33.841  29.539  1.00  0.00    -0.206 F 
ATOM     81  C   UNL A   1      34.849  33.928  29.569  1.00  0.00     0.060 A 
BRANCH  81  82
ATOM     82  S   UNL A   1      33.476  34.863  28.862  1.00  0.00     0.124 S 
ATOM     83  O   UNL A   1      32.999  33.959  27.823  1.00  0.00    -0.237 OA
ATOM     84  O   UNL A   1      32.598  35.027  30.017  1.00  0.00    -0.237 OA
ATOM     85  O   UNL A   1      34.113  36.088  28.386  1.00  0.00    -0.744 OA
ENDBRANCH  81  82
ENDBRANCH  49  74
BRANCH  61  86
ATOM     86  C   UNL A   1      39.998  33.998  36.950  1.00  0.00     0.058 A 
ATOM     87  C   UNL A   1      40.568  35.280  36.878  1.00  0.00     0.135 A 
ATOM     88  C   UNL A   1      39.127  33.732  38.017  1.00  0.00     0.135 A 
ATOM     89  F   UNL A   1      41.405  35.593  35.874  1.00  0.00    -0.206 F 
ATOM     90  C   UNL A   1      40.334  36.239  37.857  1.00  0.00     0.059 A 
ATOM     91  C   UNL A   1      38.849  34.689  38.990  1.00  0.00     0.059 A 
ATOM     92  F   UNL A   1      38.533  32.532  38.125  1.00  0.00    -0.206 F 
ATOM     93  C   UNL A   1      39.477  35.931  38.914  1.00  0.00     0.060 A 
BRANCH  93  94
ATOM     94  S   UNL A   1      39.184  37.183  40.180  1.00  0.00     0.124 S 
ATOM     95  O   UNL A   1      38.387  36.439  41.149  1.00  0.00    -0.237 OA
ATOM     96  O   UNL A   1      40.538  37.527  40.604  1.00  0.00    -0.237 OA
ATOM     97  O   UNL A   1      38.474  38.236  39.458  1.00  0.00    -0.744 OA
ENDBRANCH  93  94
ENDBRANCH  61  86
ENDBRANCH  35  36
ENDBRANCH  28  30
ENDBRANCH  27  28
ENDBRANCH  26  27
ENDBRANCH  25  26
ENDBRANCH  24  25
ENDBRANCH  23  24
ENDBRANCH   1  23
TORSDOF 23
ENDMDL
MODEL 2
REMARK VINA RESULT:      -9.6      1.225      2.016
REMARK SMILES C/C(C(=O)NCc1cscc1C)=C(\C)C(=O)OCCOCCOCCOC(=O)c1ccc(-c2c3nc(c(-c4c(F)cc(S(=O)(=O)[O-])cc4F)c4ccc([nH]4)c(-c4c(F)cc(S(=O)(=O)[O-])cc4F)c4nc(c(-c5c(F)cc(S(=O)(=O)[O-])cc5F)c5ccc2[nH]5)C=C4)C=C3)cc1
REMARK SMILES IDX 21 1 20 2 19 3 18 4 17 5 15 6 16 7 13 8 1 9 2 10 14 11 3 12
REMARK SMILES IDX 4 13 5 14 6 16 7 17 8 18 11 19 9 20 10 21 12 22 22 23 23 24
REMARK SMILES IDX 24 25 25 26 26 27 27 28 28 29 29 30 30 31 94 32 31 33 93 34
REMARK SMILES IDX 32 35 33 36 34 37 87 38 35 39 92 40 86 41 88 42 36 43 91 44
REMARK SMILES IDX 85 45 84 46 37 48 71 49 50 50 70 51 51 52 54 53 69 54 89 55
REMARK SMILES IDX 52 56 53 57 68 59 90 60 55 61 38 62 39 63 48 64 40 65 41 66
REMARK SMILES IDX 47 67 49 68 42 69 43 70 44 71 45 72 46 73 72 74 73 75 82 76
REMARK SMILES IDX 74 77 75 78 81 79 83 80 76 81 77 82 78 83 79 84 80 85 56 86
REMARK SMILES IDX 57 87 66 88 58 89 59 90 65 91 67 92 60 93 61 94 62 95 63 96
REMARK SMILES IDX 64 97
REMARK H PARENT 5 15 88 47 54 58
REMARK Flexibility Score: inf
ROOT
ATOM      1  C   UNL A   1      38.996  21.068  25.745  1.00  0.00     0.188 C 
ENDROOT
BRANCH   1   2
ATOM      2  O   UNL A   1      38.489  22.399  25.760  1.00  0.00    -0.376 OA
BRANCH   2   3
ATOM      3  C   UNL A   1      37.071  22.498  25.763  1.00  0.00     0.202 C 
BRANCH   3   4
ATOM      4  C   UNL A   1      36.543  23.721  25.011  1.00  0.00     0.261 C 
BRANCH   4   5
ATOM      5  O   UNL A   1      35.218  23.523  24.500  1.00  0.00    -0.460 OA
BRANCH   5   6
ATOM      6  C   UNL A   1      34.175  24.187  25.051  1.00  0.00     0.334 C 
ATOM      7  O   UNL A   1      34.145  24.749  26.131  1.00  0.00    -0.247 OA
BRANCH   6   8
ATOM      8  C   UNL A   1      33.006  23.933  24.154  1.00  0.00     0.042 C 
ATOM      9  C   UNL A   1      30.619  23.737  23.543  1.00  0.00     0.051 C 
ATOM     10  C   UNL A   1      31.717  23.823  24.568  1.00  0.00     0.024 C 
ATOM     11  C   UNL A   1      33.428  23.887  22.705  1.00  0.00     0.053 C 
BRANCH  10  12
ATOM     12  C   UNL A   1      31.357  23.977  26.023  1.00  0.00     0.247 C 
ATOM     13  O   UNL A   1      31.497  23.036  26.802  1.00  0.00    -0.270 OA
ATOM     14  N   UNL A   1      30.947  25.160  26.558  1.00  0.00    -0.348 N 
ATOM     15  H   UNL A   1      30.762  25.125  27.524  1.00  0.00     0.164 HD
BRANCH  14  16
ATOM     16  C   UNL A   1      30.737  26.457  25.956  1.00  0.00     0.153 C 
BRANCH  16  17
ATOM     17  C   UNL A   1      31.945  27.341  25.897  1.00  0.00    -0.015 A 
ATOM     18  C   UNL A   1      32.636  27.885  26.962  1.00  0.00     0.070 A 
ATOM     19  C   UNL A   1      32.575  27.718  24.639  1.00  0.00    -0.035 A 
ATOM     20  S   UNL A   1      34.039  28.711  26.480  1.00  0.00    -0.152 S 
ATOM     21  C   UNL A   1      33.724  28.454  24.841  1.00  0.00     0.068 A 
ATOM     22  C   UNL A   1      32.086  27.372  23.272  1.00  0.00     0.045 C 
ENDBRANCH  16  17
ENDBRANCH  14  16
ENDBRANCH  10  12
ENDBRANCH   6   8
ENDBRANCH   5   6
ENDBRANCH   4   5
ENDBRANCH   3   4
ENDBRANCH   2   3
ENDBRANCH   1   2
BRANCH   1  23
ATOM     23  C   UNL A   1      40.352  20.915  26.466  1.00  0.00     0.188 C 
BRANCH  23  24
ATOM     24  O   UNL A   1      40.819  21.911  27.370  1.00  0.00    -0.376 OA
BRANCH  24  25
ATOM     25  C   UNL A   1      42.133  21.803  27.891  1.00  0.00     0.202 C 
BRANCH  25  26
ATOM     26  C   UNL A   1      42.747  23.037  28.565  1.00  0.00     0.261 C 
BRANCH  26  27
ATOM     27  O   UNL A   1      43.416  23.957  27.685  1.00  0.00    -0.460 OA
BRANCH  27  28
ATOM     28  C   UNL A   1      42.598  24.731  26.928  1.00  0.00     0.338 C 
ATOM     29  O   UNL A   1      42.275  24.536  25.768  1.00  0.00    -0.246 OA
BRANCH  28  30
ATOM     30  C   UNL A   1      42.000  25.809  27.747  1.00  0.00     0.060 A 
ATOM     31  C   UNL A   1      42.779  26.945  28.009  1.00  0.00     0.016 A 
ATOM     32  C   UNL A   1      40.741  25.674  28.337  1.00  0.00     0.016 A 
ATOM     33  C   UNL A   1      42.321  27.928  28.889  1.00  0.00     0.010 A 
ATOM     34  C   UNL A   1      40.292  26.652  29.238  1.00  0.00     0.010 A 
ATOM     35  C   UNL A   1      41.094  27.765  29.547  1.00  0.00    -0.014 A 
BRANCH  35  36
ATOM     36  C   UNL A   1      40.762  28.666  30.686  1.00  0.00     0.031 A 
ATOM     37  C   UNL A   1      41.626  28.607  31.920  1.00  0.00     0.074 A 
ATOM     38  C   UNL A   1      39.736  29.536  30.614  1.00  0.00     0.049 A 
ATOM     39  N   UNL A   1      41.605  29.364  32.985  1.00  0.00    -0.248 NA
ATOM     40  C   UNL A   1      42.643  27.542  31.962  1.00  0.00     0.031 C 
ATOM     41  C   UNL A   1      38.830  29.661  29.475  1.00  0.00     0.029 A 
ATOM     42  N   UNL A   1      39.287  30.487  31.502  1.00  0.00    -0.354 N 
ATOM     43  C   UNL A   1      42.581  28.852  33.835  1.00  0.00     0.074 A 
ATOM     44  C   UNL A   1      43.172  27.716  33.164  1.00  0.00     0.031 C 
ATOM     45  C   UNL A   1      37.953  30.650  29.721  1.00  0.00     0.029 A 
ATOM     46  C   UNL A   1      38.227  31.238  31.034  1.00  0.00     0.049 A 
ATOM     47  H   UNL A   1      39.687  30.620  32.392  1.00  0.00     0.167 HD
ATOM     48  C   UNL A   1      42.942  29.286  35.066  1.00  0.00     0.037 A 
ATOM     49  C   UNL A   1      37.585  32.296  31.589  1.00  0.00     0.037 A 
ATOM     50  C   UNL A   1      42.354  30.428  35.718  1.00  0.00     0.049 A 
ATOM     51  C   UNL A   1      38.074  32.794  32.935  1.00  0.00     0.074 A 
ATOM     52  C   UNL A   1      42.660  30.967  36.956  1.00  0.00     0.029 A 
ATOM     53  N   UNL A   1      41.335  31.204  35.185  1.00  0.00    -0.354 N 
ATOM     54  N   UNL A   1      39.095  32.385  33.654  1.00  0.00    -0.248 NA
ATOM     55  C   UNL A   1      37.335  33.913  33.537  1.00  0.00     0.031 C 
ATOM     56  C   UNL A   1      41.794  32.042  37.189  1.00  0.00     0.029 A 
ATOM     57  C   UNL A   1      40.981  32.200  36.079  1.00  0.00     0.049 A 
ATOM     58  H   UNL A   1      40.924  31.066  34.301  1.00  0.00     0.167 HD
ATOM     59  C   UNL A   1      39.140  33.224  34.765  1.00  0.00     0.074 A 
ATOM     60  C   UNL A   1      38.086  34.199  34.589  1.00  0.00     0.031 C 
ATOM     61  C   UNL A   1      39.952  33.183  35.853  1.00  0.00     0.037 A 
BRANCH  48  62
ATOM     62  C   UNL A   1      43.988  28.501  35.808  1.00  0.00     0.058 A 
ATOM     63  C   UNL A   1      45.353  28.821  35.736  1.00  0.00     0.135 A 
ATOM     64  C   UNL A   1      43.612  27.427  36.633  1.00  0.00     0.135 A 
ATOM     65  F   UNL A   1      45.771  29.825  34.949  1.00  0.00    -0.206 F 
ATOM     66  C   UNL A   1      46.309  28.093  36.438  1.00  0.00     0.059 A 
ATOM     67  C   UNL A   1      44.548  26.701  37.364  1.00  0.00     0.059 A 
ATOM     68  F   UNL A   1      42.321  27.075  36.737  1.00  0.00    -0.206 F 
ATOM     69  C   UNL A   1      45.897  27.034  37.249  1.00  0.00     0.060 A 
BRANCH  69  70
ATOM     70  S   UNL A   1      47.147  26.103  38.162  1.00  0.00     0.124 S 
ATOM     71  O   UNL A   1      48.329  26.937  37.970  1.00  0.00    -0.237 OA
ATOM     72  O   UNL A   1      46.598  26.086  39.515  1.00  0.00    -0.237 OA
ATOM     73  O   UNL A   1      47.173  24.811  37.484  1.00  0.00    -0.744 OA
ENDBRANCH  69  70
ENDBRANCH  48  62
BRANCH  49  74
ATOM     74  C   UNL A   1      36.508  33.034  30.838  1.00  0.00     0.058 A 
ATOM     75  C   UNL A   1      35.173  33.037  31.290  1.00  0.00     0.135 A 
ATOM     76  C   UNL A   1      36.772  33.787  29.684  1.00  0.00     0.135 A 
ATOM     77  F   UNL A   1      34.810  32.275  32.333  1.00  0.00    -0.206 F 
ATOM     78  C   UNL A   1      34.179  33.804  30.693  1.00  0.00     0.059 A 
ATOM     79  C   UNL A   1      35.798  34.579  29.073  1.00  0.00     0.059 A 
ATOM     80  F   UNL A   1      38.005  33.794  29.151  1.00  0.00    -0.206 F 
ATOM     81  C   UNL A   1      34.508  34.596  29.598  1.00  0.00     0.060 A 
BRANCH  81  82
ATOM     82  S   UNL A   1      33.227  35.659  28.901  1.00  0.00     0.124 S 
ATOM     83  O   UNL A   1      32.570  36.165  30.100  1.00  0.00    -0.237 OA
ATOM     84  O   UNL A   1      34.018  36.630  28.150  1.00  0.00    -0.237 OA
ATOM     85  O   UNL A   1      32.432  34.742  28.089  1.00  0.00    -0.744 OA
ENDBRANCH  81  82
ENDBRANCH  49  74
BRANCH  61  86
ATOM     86  C   UNL A   1      39.736  34.233  36.914  1.00  0.00     0.058 A 
ATOM     87  C   UNL A   1      40.302  35.514  36.801  1.00  0.00     0.135 A 
ATOM     88  C   UNL A   1      38.946  33.967  38.042  1.00  0.00     0.135 A 
ATOM     89  F   UNL A   1      41.063  35.826  35.738  1.00  0.00    -0.206 F 
ATOM     90  C   UNL A   1      40.141  36.472  37.794  1.00  0.00     0.059 A 
ATOM     91  C   UNL A   1      38.741  34.924  39.033  1.00  0.00     0.059 A 
ATOM     92  F   UNL A   1      38.360  32.768  38.192  1.00  0.00    -0.206 F 
ATOM     93  C   UNL A   1      39.363  36.166  38.911  1.00  0.00     0.060 A 
BRANCH  93  94
ATOM     94  S   UNL A   1      39.166  37.418  40.196  1.00  0.00     0.124 S 
ATOM     95  O   UNL A   1      38.653  36.620  41.305  1.00  0.00    -0.237 OA
ATOM     96  O   UNL A   1      40.525  37.924  40.356  1.00  0.00    -0.237 OA
ATOM     97  O   UNL A   1      38.217  38.359  39.608  1.00  0.00    -0.744 OA
ENDBRANCH  93  94
ENDBRANCH  61  86
ENDBRANCH  35  36
ENDBRANCH  28  30
ENDBRANCH  27  28
ENDBRANCH  26  27
ENDBRANCH  25  26
ENDBRANCH  24  25
ENDBRANCH  23  24
ENDBRANCH   1  23
TORSDOF 23
ENDMDL
MODEL 3
REMARK VINA RESULT:      -9.5      1.740      3.177
REMARK SMILES C/C(C(=O)NCc1cscc1C)=C(\C)C(=O)OCCOCCOCCOC(=O)c1ccc(-c2c3nc(c(-c4c(F)cc(S(=O)(=O)[O-])cc4F)c4ccc([nH]4)c(-c4c(F)cc(S(=O)(=O)[O-])cc4F)c4nc(c(-c5c(F)cc(S(=O)(=O)[O-])cc5F)c5ccc2[nH]5)C=C4)C=C3)cc1
REMARK SMILES IDX 21 1 20 2 19 3 18 4 17 5 15 6 16 7 13 8 1 9 2 10 14 11 3 12
REMARK SMILES IDX 4 13 5 14 6 16 7 17 8 18 11 19 9 20 10 21 12 22 22 23 23 24
REMARK SMILES IDX 24 25 25 26 26 27 27 28 28 29 29 30 30 31 94 32 31 33 93 34
REMARK SMILES IDX 32 35 33 36 34 37 87 38 35 39 92 40 86 41 88 42 36 43 91 44
REMARK SMILES IDX 85 45 84 46 37 48 71 49 50 50 70 51 51 52 54 53 69 54 89 55
REMARK SMILES IDX 52 56 53 57 68 59 90 60 55 61 38 62 39 63 48 64 40 65 41 66
REMARK SMILES IDX 47 67 49 68 42 69 43 70 44 71 45 72 46 73 72 74 73 75 82 76
REMARK SMILES IDX 74 77 75 78 81 79 83 80 76 81 77 82 78 83 79 84 80 85 56 86
REMARK SMILES IDX 57 87 66 88 58 89 59 90 65 91 67 92 60 93 61 94 62 95 63 96
REMARK SMILES IDX 64 97
REMARK H PARENT 5 15 88 47 54 58
REMARK Flexibility Score: inf
ROOT
ATOM      1  C   UNL A   1      35.767  23.218  23.590  1.00  0.00     0.188 C 
ENDROOT
BRANCH   1   2
ATOM      2  O   UNL A   1      34.968  24.133  24.334  1.00  0.00    -0.376 OA
BRANCH   2   3
ATOM      3  C   UNL A   1      34.069  24.910  23.555  1.00  0.00     0.202 C 
BRANCH   3   4
ATOM      4  C   UNL A   1      33.715  26.255  24.192  1.00  0.00     0.261 C 
BRANCH   4   5
ATOM      5  O   UNL A   1      32.929  26.110  25.382  1.00  0.00    -0.460 OA
BRANCH   5   6
ATOM      6  C   UNL A   1      32.128  27.122  25.791  1.00  0.00     0.334 C 
ATOM      7  O   UNL A   1      32.200  27.746  26.834  1.00  0.00    -0.247 OA
BRANCH   6   8
ATOM      8  C   UNL A   1      31.018  27.197  24.791  1.00  0.00     0.042 C 
ATOM      9  C   UNL A   1      28.818  26.655  23.802  1.00  0.00     0.051 C 
ATOM     10  C   UNL A   1      29.947  26.363  24.754  1.00  0.00     0.024 C 
ATOM     11  C   UNL A   1      31.196  28.374  23.863  1.00  0.00     0.053 C 
BRANCH  10  12
ATOM     12  C   UNL A   1      29.785  25.267  25.776  1.00  0.00     0.247 C 
ATOM     13  O   UNL A   1      29.180  25.479  26.825  1.00  0.00    -0.270 OA
ATOM     14  N   UNL A   1      30.217  23.994  25.565  1.00  0.00    -0.348 N 
ATOM     15  H   UNL A   1      30.033  23.374  26.306  1.00  0.00     0.164 HD
BRANCH  14  16
ATOM     16  C   UNL A   1      30.899  23.392  24.440  1.00  0.00     0.153 C 
BRANCH  16  17
ATOM     17  C   UNL A   1      31.936  22.369  24.791  1.00  0.00    -0.015 A 
ATOM     18  C   UNL A   1      32.540  22.177  26.018  1.00  0.00     0.070 A 
ATOM     19  C   UNL A   1      32.424  21.391  23.828  1.00  0.00    -0.035 A 
ATOM     20  S   UNL A   1      33.555  20.817  26.044  1.00  0.00    -0.152 S 
ATOM     21  C   UNL A   1      33.299  20.495  24.406  1.00  0.00     0.068 A 
ATOM     22  C   UNL A   1      32.050  21.315  22.386  1.00  0.00     0.045 C 
ENDBRANCH  16  17
ENDBRANCH  14  16
ENDBRANCH  10  12
ENDBRANCH   6   8
ENDBRANCH   5   6
ENDBRANCH   4   5
ENDBRANCH   3   4
ENDBRANCH   2   3
ENDBRANCH   1   2
BRANCH   1  23
ATOM     23  C   UNL A   1      37.022  22.737  24.347  1.00  0.00     0.188 C 
BRANCH  23  24
ATOM     24  O   UNL A   1      37.049  22.692  25.770  1.00  0.00    -0.376 OA
BRANCH  24  25
ATOM     25  C   UNL A   1      37.910  23.575  26.468  1.00  0.00     0.202 C 
BRANCH  25  26
ATOM     26  C   UNL A   1      39.321  23.802  25.910  1.00  0.00     0.261 C 
BRANCH  26  27
ATOM     27  O   UNL A   1      39.725  25.176  25.783  1.00  0.00    -0.460 OA
BRANCH  27  28
ATOM     28  C   UNL A   1      41.019  25.429  26.103  1.00  0.00     0.338 C 
ATOM     29  O   UNL A   1      41.999  25.207  25.411  1.00  0.00    -0.246 OA
BRANCH  28  30
ATOM     30  C   UNL A   1      41.104  26.168  27.383  1.00  0.00     0.060 A 
ATOM     31  C   UNL A   1      40.249  25.780  28.424  1.00  0.00     0.016 A 
ATOM     32  C   UNL A   1      41.927  27.287  27.534  1.00  0.00     0.016 A 
ATOM     33  C   UNL A   1      40.186  26.527  29.601  1.00  0.00     0.010 A 
ATOM     34  C   UNL A   1      41.845  28.050  28.709  1.00  0.00     0.010 A 
ATOM     35  C   UNL A   1      40.948  27.696  29.734  1.00  0.00    -0.014 A 
BRANCH  35  36
ATOM     36  C   UNL A   1      40.653  28.626  30.860  1.00  0.00     0.031 A 
ATOM     37  C   UNL A   1      41.538  28.575  32.079  1.00  0.00     0.074 A 
ATOM     38  C   UNL A   1      39.642  29.513  30.788  1.00  0.00     0.049 A 
ATOM     39  N   UNL A   1      41.550  29.353  33.129  1.00  0.00    -0.248 NA
ATOM     40  C   UNL A   1      42.536  27.492  32.124  1.00  0.00     0.031 C 
ATOM     41  C   UNL A   1      38.718  29.631  29.663  1.00  0.00     0.029 A 
ATOM     42  N   UNL A   1      39.226  30.489  31.665  1.00  0.00    -0.354 N 
ATOM     43  C   UNL A   1      42.531  28.840  33.971  1.00  0.00     0.074 A 
ATOM     44  C   UNL A   1      43.090  27.680  33.313  1.00  0.00     0.031 C 
ATOM     45  C   UNL A   1      37.864  30.641  29.905  1.00  0.00     0.029 A 
ATOM     46  C   UNL A   1      38.172  31.250  31.201  1.00  0.00     0.049 A 
ATOM     47  H   UNL A   1      39.644  30.632  32.545  1.00  0.00     0.167 HD
ATOM     48  C   UNL A   1      42.923  29.292  35.187  1.00  0.00     0.037 A 
ATOM     49  C   UNL A   1      37.559  32.330  31.745  1.00  0.00     0.037 A 
ATOM     50  C   UNL A   1      42.367  30.456  35.826  1.00  0.00     0.049 A 
ATOM     51  C   UNL A   1      38.081  32.846  33.072  1.00  0.00     0.074 A 
ATOM     52  C   UNL A   1      42.705  31.014  37.047  1.00  0.00     0.029 A 
ATOM     53  N   UNL A   1      41.353  31.241  35.295  1.00  0.00    -0.354 N 
ATOM     54  N   UNL A   1      39.107  32.432  33.782  1.00  0.00    -0.248 NA
ATOM     55  C   UNL A   1      37.374  33.990  33.664  1.00  0.00     0.031 C 
ATOM     56  C   UNL A   1      41.863  32.109  37.274  1.00  0.00     0.029 A 
ATOM     57  C   UNL A   1      41.033  32.260  36.176  1.00  0.00     0.049 A 
ATOM     58  H   UNL A   1      40.923  31.093  34.422  1.00  0.00     0.167 HD
ATOM     59  C   UNL A   1      39.188  33.292  34.874  1.00  0.00     0.074 A 
ATOM     60  C   UNL A   1      38.149  34.283  34.697  1.00  0.00     0.031 C 
ATOM     61  C   UNL A   1      40.019  33.258  35.949  1.00  0.00     0.037 A 
BRANCH  48  62
ATOM     62  C   UNL A   1      43.967  28.502  35.926  1.00  0.00     0.058 A 
ATOM     63  C   UNL A   1      45.339  28.769  35.792  1.00  0.00     0.135 A 
ATOM     64  C   UNL A   1      43.585  27.479  36.810  1.00  0.00     0.135 A 
ATOM     65  F   UNL A   1      45.763  29.723  34.946  1.00  0.00    -0.206 F 
ATOM     66  C   UNL A   1      46.295  28.038  36.491  1.00  0.00     0.059 A 
ATOM     67  C   UNL A   1      44.522  26.752  37.539  1.00  0.00     0.059 A 
ATOM     68  F   UNL A   1      42.287  27.179  36.975  1.00  0.00    -0.206 F 
ATOM     69  C   UNL A   1      45.876  27.030  37.363  1.00  0.00     0.060 A 
BRANCH  69  70
ATOM     70  S   UNL A   1      47.126  26.096  38.271  1.00  0.00     0.124 S 
ATOM     71  O   UNL A   1      47.557  25.131  37.266  1.00  0.00    -0.237 OA
ATOM     72  O   UNL A   1      48.100  27.129  38.614  1.00  0.00    -0.237 OA
ATOM     73  O   UNL A   1      46.385  25.541  39.399  1.00  0.00    -0.744 OA
ENDBRANCH  69  70
ENDBRANCH  48  62
BRANCH  49  74
ATOM     74  C   UNL A   1      36.482  33.074  30.999  1.00  0.00     0.058 A 
ATOM     75  C   UNL A   1      35.145  33.060  31.442  1.00  0.00     0.135 A 
ATOM     76  C   UNL A   1      36.749  33.847  29.859  1.00  0.00     0.135 A 
ATOM     77  F   UNL A   1      34.779  32.279  32.470  1.00  0.00    -0.206 F 
ATOM     78  C   UNL A   1      34.149  33.830  30.851  1.00  0.00     0.059 A 
ATOM     79  C   UNL A   1      35.774  34.642  29.254  1.00  0.00     0.059 A 
ATOM     80  F   UNL A   1      37.985  33.870  29.334  1.00  0.00    -0.206 F 
ATOM     81  C   UNL A   1      34.480  34.641  29.771  1.00  0.00     0.060 A 
BRANCH  81  82
ATOM     82  S   UNL A   1      33.197  35.708  29.082  1.00  0.00     0.124 S 
ATOM     83  O   UNL A   1      33.979  36.645  28.285  1.00  0.00    -0.237 OA
ATOM     84  O   UNL A   1      32.385  34.755  28.331  1.00  0.00    -0.237 OA
ATOM     85  O   UNL A   1      32.556  36.272  30.267  1.00  0.00    -0.744 OA
ENDBRANCH  81  82
ENDBRANCH  49  74
BRANCH  61  86
ATOM     86  C   UNL A   1      39.841  34.332  36.991  1.00  0.00     0.058 A 
ATOM     87  C   UNL A   1      39.098  34.100  38.161  1.00  0.00     0.135 A 
ATOM     88  C   UNL A   1      40.429  35.596  36.833  1.00  0.00     0.135 A 
ATOM     89  F   UNL A   1      38.518  32.906  38.368  1.00  0.00    -0.206 F 
ATOM     90  C   UNL A   1      38.895  35.099  39.106  1.00  0.00     0.059 A 
ATOM     91  C   UNL A   1      40.269  36.601  37.784  1.00  0.00     0.059 A 
ATOM     92  F   UNL A   1      41.170  35.868  35.746  1.00  0.00    -0.206 F 
ATOM     93  C   UNL A   1      39.480  36.350  38.906  1.00  0.00     0.060 A 
BRANCH  93  94
ATOM     94  S   UNL A   1      39.206  37.640  40.138  1.00  0.00     0.124 S 
ATOM     95  O   UNL A   1      38.784  36.855  41.294  1.00  0.00    -0.237 OA
ATOM     96  O   UNL A   1      40.522  38.262  40.241  1.00  0.00    -0.237 OA
ATOM     97  O   UNL A   1      38.171  38.473  39.532  1.00  0.00    -0.744 OA
ENDBRANCH  93  94
ENDBRANCH  61  86
ENDBRANCH  35  36
ENDBRANCH  28  30
ENDBRANCH  27  28
ENDBRANCH  26  27
ENDBRANCH  25  26
ENDBRANCH  24  25
ENDBRANCH  23  24
ENDBRANCH   1  23
TORSDOF 23
ENDMDL
