MODEL 1
REMARK VINA RESULT:     -12.3      0.000      0.000
REMARK SMILES O=C(CC[N@H+]1CCC[C@H](c2nccn2Cc2cscn2)C1)OCCOCCOCCOC(=O)c1ccc(-c2c3nc(c(-c4c(F)cc(S(=O)(=O)[O-])cc4F)c4ccc([nH]4)c(-c4c(F)cc(S(=O)(=O)[O-])cc4F)c4nc(c(-c5c(F)cc(S(=O)(=O)[O-])cc5F)c5ccc2[nH]5)C=C4)C=C3)cc1
REMARK SMILES IDX 26 1 25 2 24 3 23 4 22 5 2 6 1 7 3 8 4 9 5 10 6 11 21 12
REMARK SMILES IDX 7 14 9 15 8 16 10 17 11 18 14 19 12 20 13 21 15 22 16 23
REMARK SMILES IDX 17 24 20 25 18 26 19 27 27 28 28 29 29 30 30 31 31 32 32 33
REMARK SMILES IDX 33 34 34 35 35 36 99 37 36 38 98 39 37 40 38 41 39 42 92 43
REMARK SMILES IDX 40 44 97 45 91 46 93 47 41 48 96 49 90 50 89 51 42 53 76 54
REMARK SMILES IDX 55 55 75 56 56 57 59 58 74 59 94 60 57 61 58 62 73 64 95 65
REMARK SMILES IDX 60 66 43 67 44 68 53 69 45 70 46 71 52 72 54 73 47 74 48 75
REMARK SMILES IDX 49 76 50 77 51 78 77 79 78 80 87 81 79 82 80 83 86 84 88 85
REMARK SMILES IDX 81 86 82 87 83 88 84 89 85 90 61 91 62 92 71 93 63 94 64 95
REMARK SMILES IDX 70 96 72 97 65 98 66 99 67 100 68 101 69 102
REMARK H PARENT 5 13 93 52 59 63
REMARK Flexibility Score: inf
ROOT
ATOM      1  C   UNL A   1      38.913  28.155  28.727  1.00  0.00     0.188 C 
ENDROOT
BRANCH   1   2
ATOM      2  O   UNL A   1      40.262  27.485  28.391  1.00  0.00    -0.376 OA
BRANCH   2   3
ATOM      3  C   UNL A   1      40.651  25.959  27.947  1.00  0.00     0.202 C 
BRANCH   3   4
ATOM      4  C   UNL A   1      39.775  24.996  26.510  1.00  0.00     0.261 C 
BRANCH   4   5
ATOM      5  O   UNL A   1      38.147  24.079  26.644  1.00  0.00    -0.463 OA
BRANCH   5   6
ATOM      6  C   UNL A   1      36.833  23.536  25.688  1.00  0.00     0.311 C 
ATOM      7  O   UNL A   1      37.121  23.124  24.553  1.00  0.00    -0.252 OA
BRANCH   6   8
ATOM      8  C   UNL A   1      35.042  23.458  26.126  1.00  0.00     0.184 C 
BRANCH   8   9
ATOM      9  C   UNL A   1      33.474  24.198  25.709  1.00  0.00     0.274 C 
BRANCH   9  10
ATOM     10  N   UNL A   1      33.104  24.543  24.318  1.00  0.00    -0.334 N 
ATOM     11  C   UNL A   1      34.036  24.987  23.262  1.00  0.00     0.262 C 
ATOM     12  C   UNL A   1      31.921  23.922  23.766  1.00  0.00     0.273 C 
ATOM     13  H   UNL A   1      32.947  25.466  24.721  1.00  0.00     0.348 HD
ATOM     14  C   UNL A   1      33.374  25.972  22.240  1.00  0.00     0.062 C 
ATOM     15  C   UNL A   1      31.185  24.989  22.952  1.00  0.00     0.111 C 
ATOM     16  C   UNL A   1      31.974  25.572  21.793  1.00  0.00     0.023 C 
BRANCH  15  17
ATOM     17  C   UNL A   1      30.742  26.113  23.833  1.00  0.00     0.117 A 
ATOM     18  N   UNL A   1      30.413  25.864  25.093  1.00  0.00    -0.241 NA
ATOM     19  N   UNL A   1      31.161  27.447  23.653  1.00  0.00    -0.328 N 
ATOM     20  C   UNL A   1      31.107  26.771  25.806  1.00  0.00     0.131 A 
ATOM     21  C   UNL A   1      31.779  27.600  24.942  1.00  0.00     0.108 A 
BRANCH  19  22
ATOM     22  C   UNL A   1      30.527  28.615  22.415  1.00  0.00     0.180 C 
BRANCH  22  23
ATOM     23  C   UNL A   1      29.062  29.914  22.493  1.00  0.00     0.071 A 
ATOM     24  C   UNL A   1      28.180  30.489  21.524  1.00  0.00     0.092 A 
ATOM     25  N   UNL A   1      28.985  30.877  23.553  1.00  0.00    -0.248 NA
ATOM     26  S   UNL A   1      28.195  32.255  21.627  1.00  0.00    -0.130 S 
ATOM     27  C   UNL A   1      28.573  32.086  23.268  1.00  0.00     0.175 A 
ENDBRANCH  22  23
ENDBRANCH  19  22
ENDBRANCH  15  17
ENDBRANCH   9  10
ENDBRANCH   8   9
ENDBRANCH   6   8
ENDBRANCH   5   6
ENDBRANCH   4   5
ENDBRANCH   3   4
ENDBRANCH   2   3
ENDBRANCH   1   2
BRANCH   1  28
ATOM     28  C   UNL A   1      38.081  29.454  28.015  1.00  0.00     0.188 C 
BRANCH  28  29
ATOM     29  O   UNL A   1      36.706  29.577  28.444  1.00  0.00    -0.376 OA
BRANCH  29  30
ATOM     30  C   UNL A   1      35.674  30.095  27.568  1.00  0.00     0.202 C 
BRANCH  30  31
ATOM     31  C   UNL A   1      35.513  31.645  27.812  1.00  0.00     0.261 C 
BRANCH  31  32
ATOM     32  O   UNL A   1      34.515  31.874  28.784  1.00  0.00    -0.460 OA
BRANCH  32  33
ATOM     33  C   UNL A   1      34.993  32.877  29.558  1.00  0.00     0.338 C 
ATOM     34  O   UNL A   1      35.145  34.006  29.212  1.00  0.00    -0.246 OA
BRANCH  33  35
ATOM     35  C   UNL A   1      35.127  32.366  30.945  1.00  0.00     0.060 A 
ATOM     36  C   UNL A   1      34.998  33.401  31.846  1.00  0.00     0.016 A 
ATOM     37  C   UNL A   1      35.888  31.207  31.193  1.00  0.00     0.016 A 
ATOM     38  C   UNL A   1      36.090  33.570  32.634  1.00  0.00     0.010 A 
ATOM     39  C   UNL A   1      36.934  31.331  32.057  1.00  0.00     0.010 A 
ATOM     40  C   UNL A   1      37.101  32.591  32.599  1.00  0.00    -0.014 A 
BRANCH  40  41
ATOM     41  C   UNL A   1      38.376  33.028  33.089  1.00  0.00     0.031 A 
ATOM     42  C   UNL A   1      39.246  33.439  31.990  1.00  0.00     0.074 A 
ATOM     43  C   UNL A   1      38.730  32.932  34.379  1.00  0.00     0.049 A 
ATOM     44  N   UNL A   1      40.190  32.752  31.447  1.00  0.00    -0.248 NA
ATOM     45  C   UNL A   1      38.825  34.629  31.244  1.00  0.00     0.031 C 
ATOM     46  C   UNL A   1      37.890  32.779  35.568  1.00  0.00     0.029 A 
ATOM     47  N   UNL A   1      39.978  33.051  34.889  1.00  0.00    -0.354 N 
ATOM     48  C   UNL A   1      40.643  33.545  30.411  1.00  0.00     0.074 A 
ATOM     49  C   UNL A   1      39.645  34.563  30.198  1.00  0.00     0.031 C 
ATOM     50  C   UNL A   1      38.635  33.069  36.661  1.00  0.00     0.029 A 
ATOM     51  C   UNL A   1      40.014  33.287  36.250  1.00  0.00     0.049 A 
ATOM     52  H   UNL A   1      40.790  32.976  34.338  1.00  0.00     0.167 HD
ATOM     53  C   UNL A   1      41.932  33.473  29.999  1.00  0.00     0.037 A 
ATOM     54  C   UNL A   1      41.091  33.759  36.920  1.00  0.00     0.037 A 
ATOM     55  C   UNL A   1      42.565  32.247  30.412  1.00  0.00     0.049 A 
ATOM     56  C   UNL A   1      42.294  33.475  36.081  1.00  0.00     0.074 A 
ATOM     57  C   UNL A   1      42.309  30.908  30.179  1.00  0.00     0.029 A 
ATOM     58  N   UNL A   1      43.402  32.287  31.503  1.00  0.00    -0.354 N 
ATOM     59  N   UNL A   1      42.753  32.275  35.837  1.00  0.00    -0.248 NA
ATOM     60  C   UNL A   1      42.736  34.500  35.142  1.00  0.00     0.031 C 
ATOM     61  C   UNL A   1      42.648  30.239  31.392  1.00  0.00     0.029 A 
ATOM     62  C   UNL A   1      43.119  31.199  32.291  1.00  0.00     0.049 A 
ATOM     63  H   UNL A   1      44.083  32.974  31.687  1.00  0.00     0.167 HD
ATOM     64  C   UNL A   1      43.194  32.311  34.519  1.00  0.00     0.074 A 
ATOM     65  C   UNL A   1      43.251  33.729  34.179  1.00  0.00     0.031 C 
ATOM     66  C   UNL A   1      43.205  31.190  33.739  1.00  0.00     0.037 A 
BRANCH  53  67
ATOM     67  C   UNL A   1      42.683  34.696  29.566  1.00  0.00     0.058 A 
ATOM     68  C   UNL A   1      42.948  35.711  30.496  1.00  0.00     0.135 A 
ATOM     69  C   UNL A   1      42.926  35.017  28.208  1.00  0.00     0.135 A 
ATOM     70  F   UNL A   1      42.725  35.511  31.805  1.00  0.00    -0.206 F 
ATOM     71  C   UNL A   1      43.374  36.976  30.101  1.00  0.00     0.059 A 
ATOM     72  C   UNL A   1      43.416  36.244  27.799  1.00  0.00     0.059 A 
ATOM     73  F   UNL A   1      42.599  34.195  27.202  1.00  0.00    -0.206 F 
ATOM     74  C   UNL A   1      43.590  37.235  28.748  1.00  0.00     0.060 A 
BRANCH  74  75
ATOM     75  S   UNL A   1      44.011  38.898  28.213  1.00  0.00     0.124 S 
ATOM     76  O   UNL A   1      44.022  38.735  26.764  1.00  0.00    -0.237 OA
ATOM     77  O   UNL A   1      42.910  39.682  28.764  1.00  0.00    -0.237 OA
ATOM     78  O   UNL A   1      45.310  39.129  28.836  1.00  0.00    -0.744 OA
ENDBRANCH  74  75
ENDBRANCH  53  67
BRANCH  54  79
ATOM     79  C   UNL A   1      41.075  34.771  38.008  1.00  0.00     0.058 A 
ATOM     80  C   UNL A   1      40.602  36.073  37.773  1.00  0.00     0.135 A 
ATOM     81  C   UNL A   1      41.280  34.419  39.360  1.00  0.00     0.135 A 
ATOM     82  F   UNL A   1      40.352  36.482  36.520  1.00  0.00    -0.206 F 
ATOM     83  C   UNL A   1      40.308  36.957  38.815  1.00  0.00     0.059 A 
ATOM     84  C   UNL A   1      41.013  35.289  40.412  1.00  0.00     0.059 A 
ATOM     85  F   UNL A   1      41.655  33.181  39.713  1.00  0.00    -0.206 F 
ATOM     86  C   UNL A   1      40.503  36.549  40.135  1.00  0.00     0.060 A 
BRANCH  86  87
ATOM     87  S   UNL A   1      39.968  37.620  41.488  1.00  0.00     0.124 S 
ATOM     88  O   UNL A   1      39.133  38.591  40.790  1.00  0.00    -0.237 OA
ATOM     89  O   UNL A   1      39.269  36.685  42.362  1.00  0.00    -0.237 OA
ATOM     90  O   UNL A   1      41.223  38.145  42.021  1.00  0.00    -0.744 OA
ENDBRANCH  86  87
ENDBRANCH  54  79
BRANCH  66  91
ATOM     91  C   UNL A   1      43.042  29.854  34.418  1.00  0.00     0.058 A 
ATOM     92  C   UNL A   1      44.110  29.088  34.918  1.00  0.00     0.135 A 
ATOM     93  C   UNL A   1      41.743  29.405  34.706  1.00  0.00     0.135 A 
ATOM     94  F   UNL A   1      45.376  29.504  34.780  1.00  0.00    -0.206 F 
ATOM     95  C   UNL A   1      43.897  27.909  35.635  1.00  0.00     0.059 A 
ATOM     96  C   UNL A   1      41.507  28.248  35.446  1.00  0.00     0.059 A 
ATOM     97  F   UNL A   1      40.679  30.126  34.313  1.00  0.00    -0.206 F 
ATOM     98  C   UNL A   1      42.591  27.497  35.896  1.00  0.00     0.060 A 
BRANCH  98  99
ATOM     99  S   UNL A   1      42.316  26.017  36.896  1.00  0.00     0.124 S 
ATOM    100  O   UNL A   1      43.206  25.049  36.265  1.00  0.00    -0.237 OA
ATOM    101  O   UNL A   1      42.704  26.457  38.232  1.00  0.00    -0.237 OA
ATOM    102  O   UNL A   1      40.888  25.753  36.729  1.00  0.00    -0.744 OA
ENDBRANCH  98  99
ENDBRANCH  66  91
ENDBRANCH  40  41
ENDBRANCH  33  35
ENDBRANCH  32  33
ENDBRANCH  31  32
ENDBRANCH  30  31
ENDBRANCH  29  30
ENDBRANCH  28  29
ENDBRANCH   1  28
TORSDOF 25
ENDMDL
MODEL 2
REMARK VINA RESULT:     -11.9      1.180      2.083
REMARK SMILES O=C(CC[N@H+]1CCC[C@H](c2nccn2Cc2cscn2)C1)OCCOCCOCCOC(=O)c1ccc(-c2c3nc(c(-c4c(F)cc(S(=O)(=O)[O-])cc4F)c4ccc([nH]4)c(-c4c(F)cc(S(=O)(=O)[O-])cc4F)c4nc(c(-c5c(F)cc(S(=O)(=O)[O-])cc5F)c5ccc2[nH]5)C=C4)C=C3)cc1
REMARK SMILES IDX 26 1 25 2 24 3 23 4 22 5 2 6 1 7 3 8 4 9 5 10 6 11 21 12
REMARK SMILES IDX 7 14 9 15 8 16 10 17 11 18 14 19 12 20 13 21 15 22 16 23
REMARK SMILES IDX 17 24 20 25 18 26 19 27 27 28 28 29 29 30 30 31 31 32 32 33
REMARK SMILES IDX 33 34 34 35 35 36 99 37 36 38 98 39 37 40 38 41 39 42 92 43
REMARK SMILES IDX 40 44 97 45 91 46 93 47 41 48 96 49 90 50 89 51 42 53 76 54
REMARK SMILES IDX 55 55 75 56 56 57 59 58 74 59 94 60 57 61 58 62 73 64 95 65
REMARK SMILES IDX 60 66 43 67 44 68 53 69 45 70 46 71 52 72 54 73 47 74 48 75
REMARK SMILES IDX 49 76 50 77 51 78 77 79 78 80 87 81 79 82 80 83 86 84 88 85
REMARK SMILES IDX 81 86 82 87 83 88 84 89 85 90 61 91 62 92 71 93 63 94 64 95
REMARK SMILES IDX 70 96 72 97 65 98 66 99 67 100 68 101 69 102
REMARK H PARENT 5 13 93 52 59 63
REMARK Flexibility Score: inf
ROOT
ATOM      1  C   UNL A   1      38.627  28.222  29.601  1.00  0.00     0.188 C 
ENDROOT
BRANCH   1   2
ATOM      2  O   UNL A   1      39.799  27.218  29.636  1.00  0.00    -0.376 OA
BRANCH   2   3
ATOM      3  C   UNL A   1      40.141  25.896  28.733  1.00  0.00     0.202 C 
BRANCH   3   4
ATOM      4  C   UNL A   1      39.235  25.456  27.077  1.00  0.00     0.261 C 
BRANCH   4   5
ATOM      5  O   UNL A   1      38.078  24.006  26.817  1.00  0.00    -0.463 OA
BRANCH   5   6
ATOM      6  C   UNL A   1      37.161  23.225  25.598  1.00  0.00     0.311 C 
ATOM      7  O   UNL A   1      37.354  23.621  24.437  1.00  0.00    -0.252 OA
BRANCH   6   8
ATOM      8  C   UNL A   1      35.937  21.856  25.774  1.00  0.00     0.184 C 
BRANCH   8   9
ATOM      9  C   UNL A   1      34.206  21.570  26.093  1.00  0.00     0.274 C 
BRANCH   9  10
ATOM     10  N   UNL A   1      33.147  21.965  25.138  1.00  0.00    -0.334 N 
ATOM     11  C   UNL A   1      33.210  21.818  23.670  1.00  0.00     0.262 C 
ATOM     12  C   UNL A   1      31.784  21.984  25.618  1.00  0.00     0.273 C 
ATOM     13  H   UNL A   1      33.620  22.867  25.179  1.00  0.00     0.348 HD
ATOM     14  C   UNL A   1      32.418  22.936  22.911  1.00  0.00     0.062 C 
ATOM     15  C   UNL A   1      31.108  23.222  25.024  1.00  0.00     0.111 C 
ATOM     16  C   UNL A   1      31.055  23.260  23.507  1.00  0.00     0.023 C 
BRANCH  15  17
ATOM     17  C   UNL A   1      31.778  24.470  25.503  1.00  0.00     0.117 A 
ATOM     18  N   UNL A   1      32.788  24.382  26.357  1.00  0.00    -0.241 NA
ATOM     19  N   UNL A   1      31.833  25.657  24.745  1.00  0.00    -0.328 N 
ATOM     20  C   UNL A   1      33.754  25.146  25.814  1.00  0.00     0.131 A 
ATOM     21  C   UNL A   1      33.266  25.742  24.678  1.00  0.00     0.108 A 
BRANCH  19  22
ATOM     22  C   UNL A   1      30.490  26.861  24.535  1.00  0.00     0.180 C 
BRANCH  22  23
ATOM     23  C   UNL A   1      30.428  28.580  23.596  1.00  0.00     0.071 A 
ATOM     24  C   UNL A   1      30.383  29.948  24.012  1.00  0.00     0.092 A 
ATOM     25  N   UNL A   1      29.913  28.674  22.260  1.00  0.00    -0.248 NA
ATOM     26  S   UNL A   1      29.043  30.802  23.234  1.00  0.00    -0.130 S 
ATOM     27  C   UNL A   1      29.202  29.724  21.939  1.00  0.00     0.175 A 
ENDBRANCH  22  23
ENDBRANCH  19  22
ENDBRANCH  15  17
ENDBRANCH   9  10
ENDBRANCH   8   9
ENDBRANCH   6   8
ENDBRANCH   5   6
ENDBRANCH   4   5
ENDBRANCH   3   4
ENDBRANCH   2   3
ENDBRANCH   1   2
BRANCH   1  28
ATOM     28  C   UNL A   1      37.972  29.161  28.346  1.00  0.00     0.188 C 
BRANCH  28  29
ATOM     29  O   UNL A   1      36.531  29.268  28.384  1.00  0.00    -0.376 OA
BRANCH  29  30
ATOM     30  C   UNL A   1      35.792  30.007  27.379  1.00  0.00     0.202 C 
BRANCH  30  31
ATOM     31  C   UNL A   1      35.619  31.501  27.851  1.00  0.00     0.261 C 
BRANCH  31  32
ATOM     32  O   UNL A   1      34.664  31.567  28.889  1.00  0.00    -0.460 OA
BRANCH  32  33
ATOM     33  C   UNL A   1      35.125  32.515  29.739  1.00  0.00     0.338 C 
ATOM     34  O   UNL A   1      35.258  33.670  29.481  1.00  0.00    -0.246 OA
BRANCH  33  35
ATOM     35  C   UNL A   1      35.268  31.900  31.082  1.00  0.00     0.060 A 
ATOM     36  C   UNL A   1      34.923  32.810  32.058  1.00  0.00     0.016 A 
ATOM     37  C   UNL A   1      36.194  30.858  31.279  1.00  0.00     0.016 A 
ATOM     38  C   UNL A   1      35.930  33.073  32.930  1.00  0.00     0.010 A 
ATOM     39  C   UNL A   1      37.158  31.062  32.220  1.00  0.00     0.010 A 
ATOM     40  C   UNL A   1      37.087  32.274  32.879  1.00  0.00    -0.014 A 
BRANCH  40  41
ATOM     41  C   UNL A   1      38.246  32.858  33.491  1.00  0.00     0.031 A 
ATOM     42  C   UNL A   1      39.198  33.313  32.481  1.00  0.00     0.074 A 
ATOM     43  C   UNL A   1      38.451  32.848  34.816  1.00  0.00     0.049 A 
ATOM     44  N   UNL A   1      40.262  32.707  32.085  1.00  0.00    -0.248 NA
ATOM     45  C   UNL A   1      38.754  34.425  31.632  1.00  0.00     0.031 C 
ATOM     46  C   UNL A   1      37.493  32.656  35.906  1.00  0.00     0.029 A 
ATOM     47  N   UNL A   1      39.611  33.114  35.460  1.00  0.00    -0.354 N 
ATOM     48  C   UNL A   1      40.756  33.501  31.070  1.00  0.00     0.074 A 
ATOM     49  C   UNL A   1      39.697  34.403  30.692  1.00  0.00     0.031 C 
ATOM     50  C   UNL A   1      38.070  33.061  37.062  1.00  0.00     0.029 A 
ATOM     51  C   UNL A   1      39.460  33.404  36.802  1.00  0.00     0.049 A 
ATOM     52  H   UNL A   1      40.486  33.102  35.011  1.00  0.00     0.167 HD
ATOM     53  C   UNL A   1      42.086  33.547  30.813  1.00  0.00     0.037 A 
ATOM     54  C   UNL A   1      40.398  34.009  37.568  1.00  0.00     0.037 A 
ATOM     55  C   UNL A   1      42.781  32.408  31.358  1.00  0.00     0.049 A 
ATOM     56  C   UNL A   1      41.715  33.818  36.889  1.00  0.00     0.074 A 
ATOM     57  C   UNL A   1      42.686  31.042  31.164  1.00  0.00     0.029 A 
ATOM     58  N   UNL A   1      43.473  32.576  32.534  1.00  0.00    -0.354 N 
ATOM     59  N   UNL A   1      42.314  32.663  36.759  1.00  0.00    -0.248 NA
ATOM     60  C   UNL A   1      42.164  34.846  35.957  1.00  0.00     0.031 C 
ATOM     61  C   UNL A   1      42.942  30.459  32.439  1.00  0.00     0.029 A 
ATOM     62  C   UNL A   1      43.205  31.495  33.338  1.00  0.00     0.049 A 
ATOM     63  H   UNL A   1      44.057  33.336  32.761  1.00  0.00     0.167 HD
ATOM     64  C   UNL A   1      42.904  32.694  35.501  1.00  0.00     0.074 A 
ATOM     65  C   UNL A   1      42.863  34.096  35.099  1.00  0.00     0.031 C 
ATOM     66  C   UNL A   1      43.118  31.551  34.784  1.00  0.00     0.037 A 
BRANCH  53  67
ATOM     67  C   UNL A   1      42.761  34.822  30.409  1.00  0.00     0.058 A 
ATOM     68  C   UNL A   1      43.305  34.939  29.121  1.00  0.00     0.135 A 
ATOM     69  C   UNL A   1      43.117  35.838  31.330  1.00  0.00     0.135 A 
ATOM     70  F   UNL A   1      43.047  34.011  28.186  1.00  0.00    -0.206 F 
ATOM     71  C   UNL A   1      44.186  35.965  28.786  1.00  0.00     0.059 A 
ATOM     72  C   UNL A   1      43.934  36.904  30.998  1.00  0.00     0.059 A 
ATOM     73  F   UNL A   1      42.779  35.789  32.625  1.00  0.00    -0.206 F 
ATOM     74  C   UNL A   1      44.503  36.932  29.738  1.00  0.00     0.060 A 
BRANCH  74  75
ATOM     75  S   UNL A   1      45.738  38.183  29.362  1.00  0.00     0.124 S 
ATOM     76  O   UNL A   1      45.852  38.042  27.915  1.00  0.00    -0.237 OA
ATOM     77  O   UNL A   1      45.092  39.401  29.840  1.00  0.00    -0.237 OA
ATOM     78  O   UNL A   1      46.897  37.750  30.135  1.00  0.00    -0.744 OA
ENDBRANCH  74  75
ENDBRANCH  53  67
BRANCH  54  79
ATOM     79  C   UNL A   1      40.154  35.055  38.595  1.00  0.00     0.058 A 
ATOM     80  C   UNL A   1      40.522  34.846  39.935  1.00  0.00     0.135 A 
ATOM     81  C   UNL A   1      39.794  36.375  38.247  1.00  0.00     0.135 A 
ATOM     82  F   UNL A   1      40.907  33.629  40.346  1.00  0.00    -0.206 F 
ATOM     83  C   UNL A   1      40.571  35.891  40.864  1.00  0.00     0.059 A 
ATOM     84  C   UNL A   1      39.817  37.426  39.160  1.00  0.00     0.059 A 
ATOM     85  F   UNL A   1      39.499  36.712  36.984  1.00  0.00    -0.206 F 
ATOM     86  C   UNL A   1      40.231  37.182  40.461  1.00  0.00     0.060 A 
BRANCH  86  87
ATOM     87  S   UNL A   1      40.454  38.561  41.606  1.00  0.00     0.124 S 
ATOM     88  O   UNL A   1      39.828  39.660  40.879  1.00  0.00    -0.237 OA
ATOM     89  O   UNL A   1      39.745  38.093  42.792  1.00  0.00    -0.237 OA
ATOM     90  O   UNL A   1      41.905  38.653  41.749  1.00  0.00    -0.744 OA
ENDBRANCH  86  87
ENDBRANCH  54  79
BRANCH  66  91
ATOM     91  C   UNL A   1      43.005  30.232  35.506  1.00  0.00     0.058 A 
ATOM     92  C   UNL A   1      41.803  29.519  35.661  1.00  0.00     0.135 A 
ATOM     93  C   UNL A   1      44.185  29.594  35.923  1.00  0.00     0.135 A 
ATOM     94  F   UNL A   1      40.649  30.010  35.190  1.00  0.00    -0.206 F 
ATOM     95  C   UNL A   1      41.771  28.250  36.242  1.00  0.00     0.059 A 
ATOM     96  C   UNL A   1      44.180  28.317  36.478  1.00  0.00     0.059 A 
ATOM     97  F   UNL A   1      45.374  30.195  35.743  1.00  0.00    -0.206 F 
ATOM     98  C   UNL A   1      42.965  27.655  36.647  1.00  0.00     0.060 A 
BRANCH  98  99
ATOM     99  S   UNL A   1      42.931  25.979  37.322  1.00  0.00     0.124 S 
ATOM    100  O   UNL A   1      43.797  25.257  36.396  1.00  0.00    -0.237 OA
ATOM    101  O   UNL A   1      43.460  26.165  38.669  1.00  0.00    -0.237 OA
ATOM    102  O   UNL A   1      41.517  25.616  37.264  1.00  0.00    -0.744 OA
ENDBRANCH  98  99
ENDBRANCH  66  91
ENDBRANCH  40  41
ENDBRANCH  33  35
ENDBRANCH  32  33
ENDBRANCH  31  32
ENDBRANCH  30  31
ENDBRANCH  29  30
ENDBRANCH  28  29
ENDBRANCH   1  28
TORSDOF 25
ENDMDL
MODEL 3
REMARK VINA RESULT:     -11.8      3.575      7.076
REMARK SMILES O=C(CC[N@H+]1CCC[C@H](c2nccn2Cc2cscn2)C1)OCCOCCOCCOC(=O)c1ccc(-c2c3nc(c(-c4c(F)cc(S(=O)(=O)[O-])cc4F)c4ccc([nH]4)c(-c4c(F)cc(S(=O)(=O)[O-])cc4F)c4nc(c(-c5c(F)cc(S(=O)(=O)[O-])cc5F)c5ccc2[nH]5)C=C4)C=C3)cc1
REMARK SMILES IDX 26 1 25 2 24 3 23 4 22 5 2 6 1 7 3 8 4 9 5 10 6 11 21 12
REMARK SMILES IDX 7 14 9 15 8 16 10 17 11 18 14 19 12 20 13 21 15 22 16 23
REMARK SMILES IDX 17 24 20 25 18 26 19 27 27 28 28 29 29 30 30 31 31 32 32 33
REMARK SMILES IDX 33 34 34 35 35 36 99 37 36 38 98 39 37 40 38 41 39 42 92 43
REMARK SMILES IDX 40 44 97 45 91 46 93 47 41 48 96 49 90 50 89 51 42 53 76 54
REMARK SMILES IDX 55 55 75 56 56 57 59 58 74 59 94 60 57 61 58 62 73 64 95 65
REMARK SMILES IDX 60 66 43 67 44 68 53 69 45 70 46 71 52 72 54 73 47 74 48 75
REMARK SMILES IDX 49 76 50 77 51 78 77 79 78 80 87 81 79 82 80 83 86 84 88 85
REMARK SMILES IDX 81 86 82 87 83 88 84 89 85 90 61 91 62 92 71 93 63 94 64 95
REMARK SMILES IDX 70 96 72 97 65 98 66 99 67 100 68 101 69 102
REMARK H PARENT 5 13 93 52 59 63
REMARK Flexibility Score: inf
ROOT
ATOM      1  C   UNL A   1      44.110  23.101  24.259  1.00  0.00     0.188 C 
ENDROOT
BRANCH   1   2
ATOM      2  O   UNL A   1      42.890  22.302  24.762  1.00  0.00    -0.376 OA
BRANCH   2   3
ATOM      3  C   UNL A   1      42.628  21.441  26.130  1.00  0.00     0.202 C 
BRANCH   3   4
ATOM      4  C   UNL A   1      40.884  20.806  26.688  1.00  0.00     0.261 C 
BRANCH   4   5
ATOM      5  O   UNL A   1      39.237  21.484  26.107  1.00  0.00    -0.463 OA
BRANCH   5   6
ATOM      6  C   UNL A   1      38.348  22.946  26.014  1.00  0.00     0.311 C 
ATOM      7  O   UNL A   1      38.913  23.954  26.468  1.00  0.00    -0.252 OA
BRANCH   6   8
ATOM      8  C   UNL A   1      36.668  23.231  25.308  1.00  0.00     0.184 C 
BRANCH   8   9
ATOM      9  C   UNL A   1      34.940  23.061  25.715  1.00  0.00     0.274 C 
BRANCH   9  10
ATOM     10  N   UNL A   1      33.871  23.152  24.696  1.00  0.00    -0.334 N 
ATOM     11  C   UNL A   1      34.070  23.434  23.260  1.00  0.00     0.262 C 
ATOM     12  C   UNL A   1      32.651  22.415  24.936  1.00  0.00     0.273 C 
ATOM     13  H   UNL A   1      33.841  24.127  24.996  1.00  0.00     0.348 HD
ATOM     14  C   UNL A   1      32.871  24.212  22.620  1.00  0.00     0.062 C 
ATOM     15  C   UNL A   1      31.486  23.307  24.499  1.00  0.00     0.111 C 
ATOM     16  C   UNL A   1      31.495  23.704  23.034  1.00  0.00     0.023 C 
BRANCH  15  17
ATOM     17  C   UNL A   1      31.437  24.553  25.324  1.00  0.00     0.117 A 
ATOM     18  N   UNL A   1      32.158  24.630  26.434  1.00  0.00    -0.241 NA
ATOM     19  N   UNL A   1      31.165  25.826  24.784  1.00  0.00    -0.328 N 
ATOM     20  C   UNL A   1      32.812  25.802  26.328  1.00  0.00     0.131 A 
ATOM     21  C   UNL A   1      32.402  26.441  25.185  1.00  0.00     0.108 A 
BRANCH  19  22
ATOM     22  C   UNL A   1      29.531  26.471  24.321  1.00  0.00     0.180 C 
BRANCH  22  23
ATOM     23  C   UNL A   1      29.008  27.919  23.110  1.00  0.00     0.071 A 
ATOM     24  C   UNL A   1      29.715  28.960  22.428  1.00  0.00     0.092 A 
ATOM     25  N   UNL A   1      27.672  28.443  23.117  1.00  0.00    -0.248 NA
ATOM     26  S   UNL A   1      28.980  30.538  22.748  1.00  0.00    -0.130 S 
ATOM     27  C   UNL A   1      27.507  29.730  22.953  1.00  0.00     0.175 A 
ENDBRANCH  22  23
ENDBRANCH  19  22
ENDBRANCH  15  17
ENDBRANCH   9  10
ENDBRANCH   8   9
ENDBRANCH   6   8
ENDBRANCH   5   6
ENDBRANCH   4   5
ENDBRANCH   3   4
ENDBRANCH   2   3
ENDBRANCH   1   2
BRANCH   1  28
ATOM     28  C   UNL A   1      45.763  23.013  24.640  1.00  0.00     0.188 C 
BRANCH  28  29
ATOM     29  O   UNL A   1      46.593  23.908  23.866  1.00  0.00    -0.376 OA
BRANCH  29  30
ATOM     30  C   UNL A   1      47.589  24.758  24.488  1.00  0.00     0.202 C 
BRANCH  30  31
ATOM     31  C   UNL A   1      46.870  25.824  25.400  1.00  0.00     0.261 C 
BRANCH  31  32
ATOM     32  O   UNL A   1      46.059  26.663  24.605  1.00  0.00    -0.460 OA
BRANCH  32  33
ATOM     33  C   UNL A   1      45.966  27.826  25.293  1.00  0.00     0.338 C 
ATOM     34  O   UNL A   1      46.426  28.870  24.952  1.00  0.00    -0.246 OA
BRANCH  33  35
ATOM     35  C   UNL A   1      45.056  27.609  26.445  1.00  0.00     0.060 A 
ATOM     36  C   UNL A   1      43.753  27.867  26.073  1.00  0.00     0.016 A 
ATOM     37  C   UNL A   1      45.538  27.769  27.758  1.00  0.00     0.016 A 
ATOM     38  C   UNL A   1      43.171  28.854  26.799  1.00  0.00     0.010 A 
ATOM     39  C   UNL A   1      44.905  28.689  28.538  1.00  0.00     0.010 A 
ATOM     40  C   UNL A   1      43.845  29.340  27.935  1.00  0.00    -0.014 A 
BRANCH  40  41
ATOM     41  C   UNL A   1      43.414  30.632  28.382  1.00  0.00     0.031 A 
ATOM     42  C   UNL A   1      44.314  31.679  27.904  1.00  0.00     0.074 A 
ATOM     43  C   UNL A   1      42.391  30.803  29.233  1.00  0.00     0.049 A 
ATOM     44  N   UNL A   1      45.254  32.258  28.567  1.00  0.00    -0.248 NA
ATOM     45  C   UNL A   1      44.341  31.893  26.454  1.00  0.00     0.031 C 
ATOM     46  C   UNL A   1      41.297  29.892  29.571  1.00  0.00     0.029 A 
ATOM     47  N   UNL A   1      42.086  31.928  29.920  1.00  0.00    -0.354 N 
ATOM     48  C   UNL A   1      45.856  33.097  27.650  1.00  0.00     0.074 A 
ATOM     49  C   UNL A   1      45.410  32.679  26.344  1.00  0.00     0.031 C 
ATOM     50  C   UNL A   1      40.327  30.597  30.197  1.00  0.00     0.029 A 
ATOM     51  C   UNL A   1      40.797  31.956  30.417  1.00  0.00     0.049 A 
ATOM     52  H   UNL A   1      42.727  32.662  30.055  1.00  0.00     0.167 HD
ATOM     53  C   UNL A   1      46.449  34.247  28.052  1.00  0.00     0.037 A 
ATOM     54  C   UNL A   1      40.161  33.074  30.841  1.00  0.00     0.037 A 
ATOM     55  C   UNL A   1      46.761  34.232  29.459  1.00  0.00     0.049 A 
ATOM     56  C   UNL A   1      41.212  34.087  31.162  1.00  0.00     0.074 A 
ATOM     57  C   UNL A   1      47.550  33.425  30.259  1.00  0.00     0.029 A 
ATOM     58  N   UNL A   1      45.924  34.909  30.314  1.00  0.00    -0.354 N 
ATOM     59  N   UNL A   1      42.057  33.980  32.154  1.00  0.00    -0.248 NA
ATOM     60  C   UNL A   1      41.619  35.012  30.111  1.00  0.00     0.031 C 
ATOM     61  C   UNL A   1      46.860  33.333  31.503  1.00  0.00     0.029 A 
ATOM     62  C   UNL A   1      45.702  34.109  31.408  1.00  0.00     0.049 A 
ATOM     63  H   UNL A   1      45.549  35.808  30.168  1.00  0.00     0.167 HD
ATOM     64  C   UNL A   1      43.255  34.494  31.673  1.00  0.00     0.074 A 
ATOM     65  C   UNL A   1      42.898  35.204  30.450  1.00  0.00     0.031 C 
ATOM     66  C   UNL A   1      44.460  34.067  32.155  1.00  0.00     0.037 A 
BRANCH  53  67
ATOM     67  C   UNL A   1      46.372  35.497  27.228  1.00  0.00     0.058 A 
ATOM     68  C   UNL A   1      47.548  36.048  26.697  1.00  0.00     0.135 A 
ATOM     69  C   UNL A   1      45.215  36.310  27.158  1.00  0.00     0.135 A 
ATOM     70  F   UNL A   1      48.702  35.364  26.740  1.00  0.00    -0.206 F 
ATOM     71  C   UNL A   1      47.583  37.341  26.180  1.00  0.00     0.059 A 
ATOM     72  C   UNL A   1      45.213  37.570  26.585  1.00  0.00     0.059 A 
ATOM     73  F   UNL A   1      44.057  35.969  27.737  1.00  0.00    -0.206 F 
ATOM     74  C   UNL A   1      46.412  38.096  26.143  1.00  0.00     0.060 A 
BRANCH  74  75
ATOM     75  S   UNL A   1      46.472  39.809  25.603  1.00  0.00     0.124 S 
ATOM     76  O   UNL A   1      47.370  40.389  26.594  1.00  0.00    -0.237 OA
ATOM     77  O   UNL A   1      47.003  39.683  24.250  1.00  0.00    -0.237 OA
ATOM     78  O   UNL A   1      45.077  40.233  25.685  1.00  0.00    -0.744 OA
ENDBRANCH  74  75
ENDBRANCH  53  67
BRANCH  54  79
ATOM     79  C   UNL A   1      38.740  33.425  30.591  1.00  0.00     0.058 A 
ATOM     80  C   UNL A   1      38.349  34.027  29.383  1.00  0.00     0.135 A 
ATOM     81  C   UNL A   1      37.696  32.948  31.414  1.00  0.00     0.135 A 
ATOM     82  F   UNL A   1      39.276  34.480  28.526  1.00  0.00    -0.206 F 
ATOM     83  C   UNL A   1      37.009  34.113  28.994  1.00  0.00     0.059 A 
ATOM     84  C   UNL A   1      36.354  33.042  31.056  1.00  0.00     0.059 A 
ATOM     85  F   UNL A   1      37.947  32.288  32.553  1.00  0.00    -0.206 F 
ATOM     86  C   UNL A   1      36.018  33.602  29.833  1.00  0.00     0.060 A 
BRANCH  86  87
ATOM     87  S   UNL A   1      34.304  33.558  29.265  1.00  0.00     0.124 S 
ATOM     88  O   UNL A   1      34.097  32.130  29.045  1.00  0.00    -0.237 OA
ATOM     89  O   UNL A   1      33.590  34.140  30.395  1.00  0.00    -0.237 OA
ATOM     90  O   UNL A   1      34.325  34.379  28.057  1.00  0.00    -0.744 OA
ENDBRANCH  86  87
ENDBRANCH  54  79
BRANCH  66  91
ATOM     91  C   UNL A   1      44.468  33.271  33.435  1.00  0.00     0.058 A 
ATOM     92  C   UNL A   1      44.509  33.844  34.719  1.00  0.00     0.135 A 
ATOM     93  C   UNL A   1      44.274  31.883  33.361  1.00  0.00     0.135 A 
ATOM     94  F   UNL A   1      44.583  35.173  34.875  1.00  0.00    -0.206 F 
ATOM     95  C   UNL A   1      44.405  33.068  35.874  1.00  0.00     0.059 A 
ATOM     96  C   UNL A   1      44.137  31.092  34.500  1.00  0.00     0.059 A 
ATOM     97  F   UNL A   1      44.160  31.282  32.164  1.00  0.00    -0.206 F 
ATOM     98  C   UNL A   1      44.218  31.691  35.756  1.00  0.00     0.060 A 
BRANCH  98  99
ATOM     99  S   UNL A   1      43.998  30.699  37.250  1.00  0.00     0.124 S 
ATOM    100  O   UNL A   1      44.863  31.384  38.205  1.00  0.00    -0.237 OA
ATOM    101  O   UNL A   1      42.564  30.810  37.500  1.00  0.00    -0.237 OA
ATOM    102  O   UNL A   1      44.447  29.368  36.845  1.00  0.00    -0.744 OA
ENDBRANCH  98  99
ENDBRANCH  66  91
ENDBRANCH  40  41
ENDBRANCH  33  35
ENDBRANCH  32  33
ENDBRANCH  31  32
ENDBRANCH  30  31
ENDBRANCH  29  30
ENDBRANCH  28  29
ENDBRANCH   1  28
TORSDOF 25
ENDMDL
