MODEL 1
REMARK VINA RESULT:     -11.2      0.000      0.000
REMARK SMILES C[NH+]1CCN(C(=O)c2ccc3c(c2)N(CC(=O)OCCOCCOCCOC(=O)c2ccc(-c4c5nc(c(-c6c(F)cc(S(=O)(=O)[O-])cc6F)c6ccc([nH]6)c(-c6c(F)cc(S(=O)(=O)[O-])cc6F)c6nc(c(-c7c(F)cc(S(=O)(=O)[O-])cc7F)c7ccc4[nH]7)C=C6)C=C5)cc2)C(=O)CO3)CC1
REMARK SMILES IDX 23 1 22 2 21 3 20 4 19 5 18 6 16 7 17 8 15 9 14 10 8 11 9 12
REMARK SMILES IDX 13 13 10 14 12 15 11 16 99 17 96 18 98 19 97 20 6 21 1 22
REMARK SMILES IDX 2 23 3 24 101 25 4 27 100 28 5 29 7 30 24 31 25 32 26 33
REMARK SMILES IDX 27 34 28 35 29 36 30 37 31 38 95 39 32 40 94 41 33 42 34 43
REMARK SMILES IDX 35 44 88 45 36 46 93 47 87 48 89 49 37 50 92 51 86 52 85 53
REMARK SMILES IDX 38 55 72 56 51 57 71 58 52 59 55 60 70 61 90 62 53 63 54 64
REMARK SMILES IDX 69 66 91 67 56 68 39 69 40 70 49 71 41 72 42 73 48 74 50 75
REMARK SMILES IDX 43 76 44 77 45 78 46 79 47 80 73 81 74 82 83 83 75 84 76 85
REMARK SMILES IDX 82 86 84 87 77 88 78 89 79 90 80 91 81 92 57 93 58 94 67 95
REMARK SMILES IDX 59 96 60 97 66 98 68 99 61 100 62 101 63 102 64 103 65 104
REMARK H PARENT 2 26 89 54 55 65
REMARK Flexibility Score: inf
ROOT
ATOM      1  C   UNL A   1      32.982  30.852  26.912  1.00  0.00     0.188 C 
ENDROOT
BRANCH   1   2
ATOM      2  C   UNL A   1      32.157  29.793  26.231  1.00  0.00     0.188 C 
BRANCH   2   3
ATOM      3  O   UNL A   1      32.874  28.836  25.491  1.00  0.00    -0.376 OA
BRANCH   3   4
ATOM      4  C   UNL A   1      33.137  29.154  24.124  1.00  0.00     0.202 C 
BRANCH   4   5
ATOM      5  C   UNL A   1      34.115  28.240  23.333  1.00  0.00     0.261 C 
BRANCH   5   6
ATOM      6  O   UNL A   1      33.625  27.664  22.064  1.00  0.00    -0.462 OA
BRANCH   6   7
ATOM      7  C   UNL A   1      33.624  26.293  21.999  1.00  0.00     0.326 C 
ATOM      8  O   UNL A   1      33.276  25.690  20.981  1.00  0.00    -0.250 OA
BRANCH   7   9
ATOM      9  C   UNL A   1      34.160  25.460  23.243  1.00  0.00     0.248 C 
BRANCH   9  10
ATOM     10  N   UNL A   1      33.439  24.836  24.364  1.00  0.00    -0.295 N 
ATOM     11  C   UNL A   1      29.764  26.157  24.658  1.00  0.00     0.042 A 
ATOM     12  C   UNL A   1      29.384  25.353  25.732  1.00  0.00     0.018 A 
ATOM     13  C   UNL A   1      31.215  26.208  24.520  1.00  0.00     0.044 A 
ATOM     14  C   UNL A   1      30.324  24.546  26.425  1.00  0.00     0.049 A 
ATOM     15  C   UNL A   1      32.145  25.212  24.976  1.00  0.00     0.087 A 
ATOM     16  C   UNL A   1      31.663  24.421  26.011  1.00  0.00     0.143 A 
ATOM     17  O   UNL A   1      32.401  23.466  26.657  1.00  0.00    -0.482 OA
ATOM     18  C   UNL A   1      34.214  23.854  24.988  1.00  0.00     0.265 C 
ATOM     19  C   UNL A   1      33.792  23.539  26.405  1.00  0.00     0.330 C 
ATOM     20  O   UNL A   1      35.235  23.374  24.492  1.00  0.00    -0.270 OA
BRANCH  11  21
ATOM     21  C   UNL A   1      28.588  27.029  23.963  1.00  0.00     0.254 C 
ATOM     22  C   UNL A   1      28.755  32.576  23.112  1.00  0.00     0.332 C 
ATOM     23  N   UNL A   1      28.528  31.252  22.485  1.00  0.00    -0.334 N 
ATOM     24  C   UNL A   1      27.382  30.555  23.113  1.00  0.00     0.283 C 
ATOM     25  C   UNL A   1      29.755  30.447  22.569  1.00  0.00     0.283 C 
ATOM     26  H   UNL A   1      28.293  31.391  21.502  1.00  0.00     0.347 HD
ATOM     27  C   UNL A   1      27.282  28.977  22.893  1.00  0.00     0.181 C 
ATOM     28  C   UNL A   1      29.565  28.936  22.193  1.00  0.00     0.181 C 
ATOM     29  N   UNL A   1      28.580  28.230  23.068  1.00  0.00    -0.327 N 
ATOM     30  O   UNL A   1      27.474  26.559  24.246  1.00  0.00    -0.269 OA
ENDBRANCH  11  21
ENDBRANCH   9  10
ENDBRANCH   7   9
ENDBRANCH   6   7
ENDBRANCH   5   6
ENDBRANCH   4   5
ENDBRANCH   3   4
ENDBRANCH   2   3
ENDBRANCH   1   2
BRANCH   1  31
ATOM     31  O   UNL A   1      34.097  30.579  27.717  1.00  0.00    -0.376 OA
BRANCH  31  32
ATOM     32  C   UNL A   1      34.712  31.826  28.044  1.00  0.00     0.202 C 
BRANCH  32  33
ATOM     33  C   UNL A   1      34.884  32.260  29.543  1.00  0.00     0.261 C 
BRANCH  33  34
ATOM     34  O   UNL A   1      36.053  31.937  30.518  1.00  0.00    -0.460 OA
BRANCH  34  35
ATOM     35  C   UNL A   1      36.597  30.792  31.059  1.00  0.00     0.338 C 
ATOM     36  O   UNL A   1      36.177  30.226  32.062  1.00  0.00    -0.246 OA
BRANCH  35  37
ATOM     37  C   UNL A   1      37.925  30.263  30.517  1.00  0.00     0.060 A 
ATOM     38  C   UNL A   1      38.153  30.248  29.139  1.00  0.00     0.016 A 
ATOM     39  C   UNL A   1      38.878  29.625  31.284  1.00  0.00     0.016 A 
ATOM     40  C   UNL A   1      39.262  29.582  28.590  1.00  0.00     0.010 A 
ATOM     41  C   UNL A   1      40.031  29.021  30.782  1.00  0.00     0.010 A 
ATOM     42  C   UNL A   1      40.256  29.025  29.417  1.00  0.00    -0.014 A 
BRANCH  42  43
ATOM     43  C   UNL A   1      41.641  28.788  28.934  1.00  0.00     0.031 A 
ATOM     44  C   UNL A   1      42.680  29.875  28.820  1.00  0.00     0.074 A 
ATOM     45  C   UNL A   1      41.846  27.574  28.383  1.00  0.00     0.049 A 
ATOM     46  N   UNL A   1      43.898  29.796  28.347  1.00  0.00    -0.248 NA
ATOM     47  C   UNL A   1      42.288  31.239  29.214  1.00  0.00     0.031 C 
ATOM     48  C   UNL A   1      40.806  26.546  28.220  1.00  0.00     0.029 A 
ATOM     49  N   UNL A   1      42.960  26.984  27.856  1.00  0.00    -0.354 N 
ATOM     50  C   UNL A   1      44.404  31.095  28.347  1.00  0.00     0.074 A 
ATOM     51  C   UNL A   1      43.344  31.950  28.835  1.00  0.00     0.031 C 
ATOM     52  C   UNL A   1      41.351  25.425  27.741  1.00  0.00     0.029 A 
ATOM     53  C   UNL A   1      42.760  25.672  27.498  1.00  0.00     0.049 A 
ATOM     54  H   UNL A   1      43.820  27.452  27.745  1.00  0.00     0.167 HD
ATOM     55  C   UNL A   1      45.643  31.512  27.979  1.00  0.00     0.037 A 
ATOM     56  C   UNL A   1      43.624  24.752  27.039  1.00  0.00     0.037 A 
ATOM     57  C   UNL A   1      46.673  30.595  27.542  1.00  0.00     0.049 A 
ATOM     58  C   UNL A   1      45.042  25.183  26.867  1.00  0.00     0.074 A 
ATOM     59  C   UNL A   1      48.007  30.849  27.271  1.00  0.00     0.029 A 
ATOM     60  N   UNL A   1      46.477  29.234  27.327  1.00  0.00    -0.354 N 
ATOM     61  N   UNL A   1      45.543  26.391  26.990  1.00  0.00    -0.248 NA
ATOM     62  C   UNL A   1      46.013  24.148  26.515  1.00  0.00     0.031 C 
ATOM     63  C   UNL A   1      48.608  29.648  26.874  1.00  0.00     0.029 A 
ATOM     64  C   UNL A   1      47.662  28.636  26.935  1.00  0.00     0.049 A 
ATOM     65  H   UNL A   1      45.619  28.765  27.438  1.00  0.00     0.167 HD
ATOM     66  C   UNL A   1      46.893  26.267  26.723  1.00  0.00     0.074 A 
ATOM     67  C   UNL A   1      47.135  24.855  26.472  1.00  0.00     0.031 C 
ATOM     68  C   UNL A   1      47.847  27.230  26.674  1.00  0.00     0.037 A 
BRANCH  55  69
ATOM     69  C   UNL A   1      45.980  32.986  28.063  1.00  0.00     0.058 A 
ATOM     70  C   UNL A   1      46.528  33.557  29.224  1.00  0.00     0.135 A 
ATOM     71  C   UNL A   1      45.838  33.829  26.943  1.00  0.00     0.135 A 
ATOM     72  F   UNL A   1      46.693  32.813  30.328  1.00  0.00    -0.206 F 
ATOM     73  C   UNL A   1      46.897  34.900  29.283  1.00  0.00     0.059 A 
ATOM     74  C   UNL A   1      46.229  35.170  26.971  1.00  0.00     0.059 A 
ATOM     75  F   UNL A   1      45.327  33.351  25.798  1.00  0.00    -0.206 F 
ATOM     76  C   UNL A   1      46.748  35.700  28.151  1.00  0.00     0.060 A 
BRANCH  76  77
ATOM     77  S   UNL A   1      47.275  37.427  28.235  1.00  0.00     0.124 S 
ATOM     78  O   UNL A   1      46.137  38.110  27.629  1.00  0.00    -0.237 OA
ATOM     79  O   UNL A   1      47.445  37.633  29.670  1.00  0.00    -0.237 OA
ATOM     80  O   UNL A   1      48.507  37.448  27.452  1.00  0.00    -0.744 OA
ENDBRANCH  76  77
ENDBRANCH  55  69
BRANCH  56  81
ATOM     81  C   UNL A   1      43.157  23.357  26.841  1.00  0.00     0.058 A 
ATOM     82  C   UNL A   1      43.015  22.834  25.547  1.00  0.00     0.135 A 
ATOM     83  C   UNL A   1      43.000  22.476  27.923  1.00  0.00     0.135 A 
ATOM     84  F   UNL A   1      43.180  23.632  24.481  1.00  0.00    -0.206 F 
ATOM     85  C   UNL A   1      42.731  21.491  25.331  1.00  0.00     0.059 A 
ATOM     86  C   UNL A   1      42.742  21.121  27.731  1.00  0.00     0.059 A 
ATOM     87  F   UNL A   1      43.180  22.915  29.179  1.00  0.00    -0.206 F 
ATOM     88  C   UNL A   1      42.604  20.639  26.430  1.00  0.00     0.060 A 
BRANCH  88  89
ATOM     89  S   UNL A   1      42.326  18.879  26.135  1.00  0.00     0.124 S 
ATOM     90  O   UNL A   1      43.282  18.609  25.067  1.00  0.00    -0.237 OA
ATOM     91  O   UNL A   1      42.637  18.293  27.435  1.00  0.00    -0.237 OA
ATOM     92  O   UNL A   1      40.917  18.824  25.753  1.00  0.00    -0.744 OA
ENDBRANCH  88  89
ENDBRANCH  56  81
BRANCH  68  93
ATOM     93  C   UNL A   1      49.223  26.761  26.323  1.00  0.00     0.058 A 
ATOM     94  C   UNL A   1      49.732  26.915  25.025  1.00  0.00     0.135 A 
ATOM     95  C   UNL A   1      50.032  26.148  27.291  1.00  0.00     0.135 A 
ATOM     96  F   UNL A   1      48.984  27.484  24.068  1.00  0.00    -0.206 F 
ATOM     97  C   UNL A   1      50.990  26.438  24.686  1.00  0.00     0.059 A 
ATOM     98  C   UNL A   1      51.304  25.687  26.979  1.00  0.00     0.059 A 
ATOM     99  F   UNL A   1      49.584  25.986  28.545  1.00  0.00    -0.206 F 
ATOM    100  C   UNL A   1      51.766  25.821  25.670  1.00  0.00     0.060 A 
BRANCH 100 101
ATOM    101  S   UNL A   1      53.398  25.204  25.216  1.00  0.00     0.124 S 
ATOM    102  O   UNL A   1      54.255  25.939  26.140  1.00  0.00    -0.237 OA
ATOM    103  O   UNL A   1      53.272  23.772  25.470  1.00  0.00    -0.237 OA
ATOM    104  O   UNL A   1      53.521  25.576  23.810  1.00  0.00    -0.744 OA
ENDBRANCH 100 101
ENDBRANCH  68  93
ENDBRANCH  42  43
ENDBRANCH  35  37
ENDBRANCH  34  35
ENDBRANCH  33  34
ENDBRANCH  32  33
ENDBRANCH  31  32
ENDBRANCH   1  31
TORSDOF 22
ENDMDL
MODEL 2
REMARK VINA RESULT:     -11.1      6.184     11.928
REMARK SMILES C[NH+]1CCN(C(=O)c2ccc3c(c2)N(CC(=O)OCCOCCOCCOC(=O)c2ccc(-c4c5nc(c(-c6c(F)cc(S(=O)(=O)[O-])cc6F)c6ccc([nH]6)c(-c6c(F)cc(S(=O)(=O)[O-])cc6F)c6nc(c(-c7c(F)cc(S(=O)(=O)[O-])cc7F)c7ccc4[nH]7)C=C6)C=C5)cc2)C(=O)CO3)CC1
REMARK SMILES IDX 23 1 22 2 21 3 20 4 19 5 18 6 16 7 17 8 15 9 14 10 8 11 9 12
REMARK SMILES IDX 13 13 10 14 12 15 11 16 99 17 96 18 98 19 97 20 6 21 1 22
REMARK SMILES IDX 2 23 3 24 101 25 4 27 100 28 5 29 7 30 24 31 25 32 26 33
REMARK SMILES IDX 27 34 28 35 29 36 30 37 31 38 95 39 32 40 94 41 33 42 34 43
REMARK SMILES IDX 35 44 88 45 36 46 93 47 87 48 89 49 37 50 92 51 86 52 85 53
REMARK SMILES IDX 38 55 72 56 51 57 71 58 52 59 55 60 70 61 90 62 53 63 54 64
REMARK SMILES IDX 69 66 91 67 56 68 39 69 40 70 49 71 41 72 42 73 48 74 50 75
REMARK SMILES IDX 43 76 44 77 45 78 46 79 47 80 73 81 74 82 83 83 75 84 76 85
REMARK SMILES IDX 82 86 84 87 77 88 78 89 79 90 80 91 81 92 57 93 58 94 67 95
REMARK SMILES IDX 59 96 60 97 66 98 68 99 61 100 62 101 63 102 64 103 65 104
REMARK H PARENT 2 26 89 54 55 65
REMARK Flexibility Score: inf
ROOT
ATOM      1  C   UNL A   1      37.296  22.704  25.871  1.00  0.00     0.188 C 
ENDROOT
BRANCH   1   2
ATOM      2  C   UNL A   1      36.139  23.656  26.017  1.00  0.00     0.188 C 
BRANCH   2   3
ATOM      3  O   UNL A   1      35.548  24.094  24.819  1.00  0.00    -0.376 OA
BRANCH   3   4
ATOM      4  C   UNL A   1      34.594  25.151  24.928  1.00  0.00     0.202 C 
BRANCH   4   5
ATOM      5  C   UNL A   1      34.206  25.925  23.637  1.00  0.00     0.261 C 
BRANCH   5   6
ATOM      6  O   UNL A   1      34.065  25.139  22.394  1.00  0.00    -0.462 OA
BRANCH   6   7
ATOM      7  C   UNL A   1      32.896  25.334  21.702  1.00  0.00     0.326 C 
ATOM      8  O   UNL A   1      32.885  25.522  20.483  1.00  0.00    -0.250 OA
BRANCH   7   9
ATOM      9  C   UNL A   1      31.512  25.240  22.480  1.00  0.00     0.248 C 
BRANCH   9  10
ATOM     10  N   UNL A   1      31.221  24.966  23.896  1.00  0.00    -0.295 N 
ATOM     11  C   UNL A   1      32.792  21.580  25.081  1.00  0.00     0.042 A 
ATOM     12  C   UNL A   1      32.386  21.665  26.413  1.00  0.00     0.018 A 
ATOM     13  C   UNL A   1      32.044  22.504  24.237  1.00  0.00     0.044 A 
ATOM     14  C   UNL A   1      31.509  22.689  26.858  1.00  0.00     0.049 A 
ATOM     15  C   UNL A   1      31.403  23.717  24.668  1.00  0.00     0.087 A 
ATOM     16  C   UNL A   1      31.084  23.736  26.019  1.00  0.00     0.143 A 
ATOM     17  O   UNL A   1      30.398  24.750  26.632  1.00  0.00    -0.482 OA
ATOM     18  C   UNL A   1      30.538  26.028  24.494  1.00  0.00     0.265 C 
ATOM     19  C   UNL A   1      29.767  25.648  25.737  1.00  0.00     0.330 C 
ATOM     20  O   UNL A   1      30.452  27.151  23.995  1.00  0.00    -0.270 OA
BRANCH  11  21
ATOM     21  C   UNL A   1      33.791  20.359  24.713  1.00  0.00     0.254 C 
ATOM     22  C   UNL A   1      32.733  14.926  25.659  1.00  0.00     0.332 C 
ATOM     23  N   UNL A   1      33.139  15.931  24.648  1.00  0.00    -0.334 N 
ATOM     24  C   UNL A   1      34.402  16.600  25.038  1.00  0.00     0.283 C 
ATOM     25  C   UNL A   1      32.056  16.907  24.457  1.00  0.00     0.283 C 
ATOM     26  H   UNL A   1      33.312  15.455  23.762  1.00  0.00     0.347 HD
ATOM     27  C   UNL A   1      34.738  17.991  24.332  1.00  0.00     0.181 C 
ATOM     28  C   UNL A   1      32.464  18.172  23.625  1.00  0.00     0.181 C 
ATOM     29  N   UNL A   1      33.579  18.952  24.245  1.00  0.00    -0.327 N 
ATOM     30  O   UNL A   1      34.975  20.710  24.847  1.00  0.00    -0.269 OA
ENDBRANCH  11  21
ENDBRANCH   9  10
ENDBRANCH   7   9
ENDBRANCH   6   7
ENDBRANCH   5   6
ENDBRANCH   4   5
ENDBRANCH   3   4
ENDBRANCH   2   3
ENDBRANCH   1   2
BRANCH   1  31
ATOM     31  O   UNL A   1      38.612  23.106  25.606  1.00  0.00    -0.376 OA
BRANCH  31  32
ATOM     32  C   UNL A   1      39.467  22.434  26.533  1.00  0.00     0.202 C 
BRANCH  32  33
ATOM     33  C   UNL A   1      40.982  22.201  26.195  1.00  0.00     0.261 C 
BRANCH  33  34
ATOM     34  O   UNL A   1      42.169  23.200  26.321  1.00  0.00    -0.460 OA
BRANCH  34  35
ATOM     35  C   UNL A   1      42.359  24.540  26.065  1.00  0.00     0.338 C 
ATOM     36  O   UNL A   1      42.907  24.989  25.064  1.00  0.00    -0.246 OA
BRANCH  35  37
ATOM     37  C   UNL A   1      42.054  25.564  27.158  1.00  0.00     0.060 A 
ATOM     38  C   UNL A   1      40.990  25.343  28.035  1.00  0.00     0.016 A 
ATOM     39  C   UNL A   1      42.651  26.805  27.249  1.00  0.00     0.016 A 
ATOM     40  C   UNL A   1      40.545  26.348  28.911  1.00  0.00     0.010 A 
ATOM     41  C   UNL A   1      42.289  27.799  28.159  1.00  0.00     0.010 A 
ATOM     42  C   UNL A   1      41.243  27.564  29.034  1.00  0.00    -0.014 A 
BRANCH  42  43
ATOM     43  C   UNL A   1      41.146  28.408  30.253  1.00  0.00     0.031 A 
ATOM     44  C   UNL A   1      42.017  28.216  31.469  1.00  0.00     0.074 A 
ATOM     45  C   UNL A   1      40.069  29.219  30.294  1.00  0.00     0.049 A 
ATOM     46  N   UNL A   1      41.974  28.849  32.614  1.00  0.00    -0.248 NA
ATOM     47  C   UNL A   1      43.013  27.132  31.432  1.00  0.00     0.031 C 
ATOM     48  C   UNL A   1      39.027  29.273  29.257  1.00  0.00     0.029 A 
ATOM     49  N   UNL A   1      39.649  30.138  31.213  1.00  0.00    -0.354 N 
ATOM     50  C   UNL A   1      42.900  28.221  33.445  1.00  0.00     0.074 A 
ATOM     51  C   UNL A   1      43.466  27.130  32.682  1.00  0.00     0.031 C 
ATOM     52  C   UNL A   1      38.158  30.246  29.541  1.00  0.00     0.029 A 
ATOM     53  C   UNL A   1      38.537  30.839  30.810  1.00  0.00     0.049 A 
ATOM     54  H   UNL A   1      40.098  30.283  32.078  1.00  0.00     0.167 HD
ATOM     55  C   UNL A   1      43.238  28.545  34.720  1.00  0.00     0.037 A 
ATOM     56  C   UNL A   1      37.897  31.867  31.389  1.00  0.00     0.037 A 
ATOM     57  C   UNL A   1      42.665  29.679  35.411  1.00  0.00     0.049 A 
ATOM     58  C   UNL A   1      38.442  32.356  32.688  1.00  0.00     0.074 A 
ATOM     59  C   UNL A   1      43.005  30.212  36.643  1.00  0.00     0.029 A 
ATOM     60  N   UNL A   1      41.632  30.467  34.911  1.00  0.00    -0.354 N 
ATOM     61  N   UNL A   1      39.404  31.832  33.413  1.00  0.00    -0.248 NA
ATOM     62  C   UNL A   1      37.844  33.569  33.246  1.00  0.00     0.031 C 
ATOM     63  C   UNL A   1      42.166  31.304  36.894  1.00  0.00     0.029 A 
ATOM     64  C   UNL A   1      41.329  31.481  35.803  1.00  0.00     0.049 A 
ATOM     65  H   UNL A   1      41.183  30.323  34.047  1.00  0.00     0.167 HD
ATOM     66  C   UNL A   1      39.526  32.648  34.523  1.00  0.00     0.074 A 
ATOM     67  C   UNL A   1      38.564  33.724  34.350  1.00  0.00     0.031 C 
ATOM     68  C   UNL A   1      40.345  32.515  35.595  1.00  0.00     0.037 A 
BRANCH  55  69
ATOM     69  C   UNL A   1      44.282  27.717  35.439  1.00  0.00     0.058 A 
ATOM     70  C   UNL A   1      45.641  28.079  35.447  1.00  0.00     0.135 A 
ATOM     71  C   UNL A   1      43.918  26.594  36.206  1.00  0.00     0.135 A 
ATOM     72  F   UNL A   1      46.060  29.140  34.739  1.00  0.00    -0.206 F 
ATOM     73  C   UNL A   1      46.594  27.354  36.159  1.00  0.00     0.059 A 
ATOM     74  C   UNL A   1      44.852  25.870  36.952  1.00  0.00     0.059 A 
ATOM     75  F   UNL A   1      42.638  26.193  36.251  1.00  0.00    -0.206 F 
ATOM     76  C   UNL A   1      46.191  26.252  36.913  1.00  0.00     0.060 A 
BRANCH  76  77
ATOM     77  S   UNL A   1      47.437  25.353  37.866  1.00  0.00     0.124 S 
ATOM     78  O   UNL A   1      48.327  26.433  38.278  1.00  0.00    -0.237 OA
ATOM     79  O   UNL A   1      46.641  24.751  38.932  1.00  0.00    -0.237 OA
ATOM     80  O   UNL A   1      47.996  24.414  36.899  1.00  0.00    -0.744 OA
ENDBRANCH  76  77
ENDBRANCH  55  69
BRANCH  56  81
ATOM     81  C   UNL A   1      36.777  32.521  30.667  1.00  0.00     0.058 A 
ATOM     82  C   UNL A   1      35.451  32.308  31.074  1.00  0.00     0.135 A 
ATOM     83  C   UNL A   1      37.009  33.484  29.673  1.00  0.00     0.135 A 
ATOM     84  F   UNL A   1      35.183  31.415  32.038  1.00  0.00    -0.206 F 
ATOM     85  C   UNL A   1      34.396  33.023  30.521  1.00  0.00     0.059 A 
ATOM     86  C   UNL A   1      35.971  34.232  29.123  1.00  0.00     0.059 A 
ATOM     87  F   UNL A   1      38.265  33.764  29.287  1.00  0.00    -0.206 F 
ATOM     88  C   UNL A   1      34.666  33.990  29.550  1.00  0.00     0.060 A 
BRANCH  88  89
ATOM     89  S   UNL A   1      33.298  34.976  28.905  1.00  0.00     0.124 S 
ATOM     90  O   UNL A   1      32.696  34.050  27.953  1.00  0.00    -0.237 OA
ATOM     91  O   UNL A   1      32.519  35.251  30.108  1.00  0.00    -0.237 OA
ATOM     92  O   UNL A   1      33.967  36.136  28.323  1.00  0.00    -0.744 OA
ENDBRANCH  88  89
ENDBRANCH  56  81
BRANCH  68  93
ATOM     93  C   UNL A   1      40.206  33.566  36.650  1.00  0.00     0.058 A 
ATOM     94  C   UNL A   1      39.335  33.392  37.736  1.00  0.00     0.135 A 
ATOM     95  C   UNL A   1      40.944  34.756  36.568  1.00  0.00     0.135 A 
ATOM     96  F   UNL A   1      38.603  32.273  37.843  1.00  0.00    -0.206 F 
ATOM     97  C   UNL A   1      39.169  34.385  38.690  1.00  0.00     0.059 A 
ATOM     98  C   UNL A   1      40.812  35.753  37.526  1.00  0.00     0.059 A 
ATOM     99  F   UNL A   1      41.791  34.960  35.548  1.00  0.00    -0.206 F 
ATOM    100  C   UNL A   1      39.909  35.564  38.573  1.00  0.00     0.060 A 
BRANCH 100 101
ATOM    101  S   UNL A   1      39.683  36.849  39.818  1.00  0.00     0.124 S 
ATOM    102  O   UNL A   1      38.941  36.129  40.847  1.00  0.00    -0.237 OA
ATOM    103  O   UNL A   1      41.058  37.202  40.156  1.00  0.00    -0.237 OA
ATOM    104  O   UNL A   1      38.934  37.880  39.106  1.00  0.00    -0.744 OA
ENDBRANCH 100 101
ENDBRANCH  68  93
ENDBRANCH  42  43
ENDBRANCH  35  37
ENDBRANCH  34  35
ENDBRANCH  33  34
ENDBRANCH  32  33
ENDBRANCH  31  32
ENDBRANCH   1  31
TORSDOF 22
ENDMDL
MODEL 3
REMARK VINA RESULT:     -10.1      5.935      8.110
REMARK SMILES C[NH+]1CCN(C(=O)c2ccc3c(c2)N(CC(=O)OCCOCCOCCOC(=O)c2ccc(-c4c5nc(c(-c6c(F)cc(S(=O)(=O)[O-])cc6F)c6ccc([nH]6)c(-c6c(F)cc(S(=O)(=O)[O-])cc6F)c6nc(c(-c7c(F)cc(S(=O)(=O)[O-])cc7F)c7ccc4[nH]7)C=C6)C=C5)cc2)C(=O)CO3)CC1
REMARK SMILES IDX 23 1 22 2 21 3 20 4 19 5 18 6 16 7 17 8 15 9 14 10 8 11 9 12
REMARK SMILES IDX 13 13 10 14 12 15 11 16 99 17 96 18 98 19 97 20 6 21 1 22
REMARK SMILES IDX 2 23 3 24 101 25 4 27 100 28 5 29 7 30 24 31 25 32 26 33
REMARK SMILES IDX 27 34 28 35 29 36 30 37 31 38 95 39 32 40 94 41 33 42 34 43
REMARK SMILES IDX 35 44 88 45 36 46 93 47 87 48 89 49 37 50 92 51 86 52 85 53
REMARK SMILES IDX 38 55 72 56 51 57 71 58 52 59 55 60 70 61 90 62 53 63 54 64
REMARK SMILES IDX 69 66 91 67 56 68 39 69 40 70 49 71 41 72 42 73 48 74 50 75
REMARK SMILES IDX 43 76 44 77 45 78 46 79 47 80 73 81 74 82 83 83 75 84 76 85
REMARK SMILES IDX 82 86 84 87 77 88 78 89 79 90 80 91 81 92 57 93 58 94 67 95
REMARK SMILES IDX 59 96 60 97 66 98 68 99 61 100 62 101 63 102 64 103 65 104
REMARK H PARENT 2 26 89 54 55 65
REMARK Flexibility Score: inf
ROOT
ATOM      1  C   UNL A   1      33.338  28.439  26.760  1.00  0.00     0.188 C 
ENDROOT
BRANCH   1   2
ATOM      2  C   UNL A   1      33.719  27.145  26.094  1.00  0.00     0.188 C 
BRANCH   2   3
ATOM      3  O   UNL A   1      34.263  27.256  24.802  1.00  0.00    -0.376 OA
BRANCH   3   4
ATOM      4  C   UNL A   1      33.603  28.151  23.907  1.00  0.00     0.202 C 
BRANCH   4   5
ATOM      5  C   UNL A   1      33.592  27.801  22.393  1.00  0.00     0.261 C 
BRANCH   5   6
ATOM      6  O   UNL A   1      32.555  26.857  21.925  1.00  0.00    -0.462 OA
BRANCH   6   7
ATOM      7  C   UNL A   1      33.023  25.673  21.413  1.00  0.00     0.326 C 
ATOM      8  O   UNL A   1      33.214  25.516  20.205  1.00  0.00    -0.250 OA
BRANCH   7   9
ATOM      9  C   UNL A   1      33.402  24.495  22.413  1.00  0.00     0.248 C 
BRANCH   9  10
ATOM     10  N   UNL A   1      32.834  24.122  23.717  1.00  0.00    -0.295 N 
ATOM     11  C   UNL A   1      29.526  26.072  24.487  1.00  0.00     0.042 A 
ATOM     12  C   UNL A   1      29.252  25.459  25.709  1.00  0.00     0.018 A 
ATOM     13  C   UNL A   1      30.912  25.860  24.085  1.00  0.00     0.044 A 
ATOM     14  C   UNL A   1      30.181  24.579  26.323  1.00  0.00     0.049 A 
ATOM     15  C   UNL A   1      31.757  24.773  24.496  1.00  0.00     0.087 A 
ATOM     16  C   UNL A   1      31.379  24.187  25.697  1.00  0.00     0.143 A 
ATOM     17  O   UNL A   1      32.081  23.192  26.322  1.00  0.00    -0.482 OA
ATOM     18  C   UNL A   1      33.564  23.091  24.318  1.00  0.00     0.265 C 
ATOM     19  C   UNL A   1      33.390  23.000  25.817  1.00  0.00     0.330 C 
ATOM     20  O   UNL A   1      34.383  22.395  23.716  1.00  0.00    -0.270 OA
BRANCH  11  21
ATOM     21  C   UNL A   1      28.378  27.055  23.903  1.00  0.00     0.254 C 
ATOM     22  C   UNL A   1      28.862  32.623  23.365  1.00  0.00     0.332 C 
ATOM     23  N   UNL A   1      28.520  31.356  22.675  1.00  0.00    -0.334 N 
ATOM     24  C   UNL A   1      27.363  30.693  23.320  1.00  0.00     0.283 C 
ATOM     25  C   UNL A   1      29.696  30.473  22.650  1.00  0.00     0.283 C 
ATOM     26  H   UNL A   1      28.249  31.568  21.715  1.00  0.00     0.347 HD
ATOM     27  C   UNL A   1      27.150  29.141  23.015  1.00  0.00     0.181 C 
ATOM     28  C   UNL A   1      29.391  29.002  22.199  1.00  0.00     0.181 C 
ATOM     29  N   UNL A   1      28.404  28.306  23.081  1.00  0.00    -0.327 N 
ATOM     30  O   UNL A   1      27.250  26.638  24.215  1.00  0.00    -0.269 OA
ENDBRANCH  11  21
ENDBRANCH   9  10
ENDBRANCH   7   9
ENDBRANCH   6   7
ENDBRANCH   5   6
ENDBRANCH   4   5
ENDBRANCH   3   4
ENDBRANCH   2   3
ENDBRANCH   1   2
BRANCH   1  31
ATOM     31  O   UNL A   1      34.134  29.097  27.707  1.00  0.00    -0.376 OA
BRANCH  31  32
ATOM     32  C   UNL A   1      34.317  30.442  27.262  1.00  0.00     0.202 C 
BRANCH  32  33
ATOM     33  C   UNL A   1      33.117  31.455  27.272  1.00  0.00     0.261 C 
BRANCH  33  34
ATOM     34  O   UNL A   1      33.152  32.997  27.480  1.00  0.00    -0.460 OA
BRANCH  34  35
ATOM     35  C   UNL A   1      33.442  33.843  28.528  1.00  0.00     0.338 C 
ATOM     36  O   UNL A   1      32.943  34.952  28.690  1.00  0.00    -0.246 OA
BRANCH  35  37
ATOM     37  C   UNL A   1      34.594  33.501  29.473  1.00  0.00     0.060 A 
ATOM     38  C   UNL A   1      34.359  32.686  30.583  1.00  0.00     0.016 A 
ATOM     39  C   UNL A   1      35.844  34.081  29.415  1.00  0.00     0.016 A 
ATOM     40  C   UNL A   1      35.330  32.520  31.585  1.00  0.00     0.010 A 
ATOM     41  C   UNL A   1      36.861  33.877  30.349  1.00  0.00     0.010 A 
ATOM     42  C   UNL A   1      36.623  33.056  31.438  1.00  0.00    -0.014 A 
BRANCH  42  43
ATOM     43  C   UNL A   1      37.794  32.502  32.166  1.00  0.00     0.031 A 
ATOM     44  C   UNL A   1      38.203  32.949  33.546  1.00  0.00     0.074 A 
ATOM     45  C   UNL A   1      38.609  31.729  31.418  1.00  0.00     0.049 A 
ATOM     46  N   UNL A   1      39.245  32.583  34.249  1.00  0.00    -0.248 NA
ATOM     47  C   UNL A   1      37.390  33.989  34.197  1.00  0.00     0.031 C 
ATOM     48  C   UNL A   1      38.416  31.457  29.985  1.00  0.00     0.029 A 
ATOM     49  N   UNL A   1      39.748  31.038  31.722  1.00  0.00    -0.354 N 
ATOM     50  C   UNL A   1      39.239  33.371  35.399  1.00  0.00     0.074 A 
ATOM     51  C   UNL A   1      38.106  34.262  35.282  1.00  0.00     0.031 C 
ATOM     52  C   UNL A   1      39.329  30.577  29.567  1.00  0.00     0.029 A 
ATOM     53  C   UNL A   1      40.213  30.275  30.677  1.00  0.00     0.049 A 
ATOM     54  H   UNL A   1      40.191  31.082  32.600  1.00  0.00     0.167 HD
ATOM     55  C   UNL A   1      40.102  33.332  36.447  1.00  0.00     0.037 A 
ATOM     56  C   UNL A   1      41.234  29.405  30.620  1.00  0.00     0.037 A 
ATOM     57  C   UNL A   1      41.191  32.382  36.521  1.00  0.00     0.049 A 
ATOM     58  C   UNL A   1      42.025  29.209  31.869  1.00  0.00     0.074 A 
ATOM     59  C   UNL A   1      42.057  32.131  37.571  1.00  0.00     0.029 A 
ATOM     60  N   UNL A   1      41.550  31.513  35.495  1.00  0.00    -0.354 N 
ATOM     61  N   UNL A   1      41.933  29.871  33.000  1.00  0.00    -0.248 NA
ATOM     62  C   UNL A   1      43.037  28.153  31.856  1.00  0.00     0.031 C 
ATOM     63  C   UNL A   1      42.949  31.127  37.172  1.00  0.00     0.029 A 
ATOM     64  C   UNL A   1      42.616  30.723  35.889  1.00  0.00     0.049 A 
ATOM     65  H   UNL A   1      41.109  31.468  34.617  1.00  0.00     0.167 HD
ATOM     66  C   UNL A   1      42.884  29.318  33.837  1.00  0.00     0.074 A 
ATOM     67  C   UNL A   1      43.511  28.239  33.092  1.00  0.00     0.031 C 
ATOM     68  C   UNL A   1      43.221  29.676  35.101  1.00  0.00     0.037 A 
BRANCH  55  69
ATOM     69  C   UNL A   1      39.902  34.289  37.603  1.00  0.00     0.058 A 
ATOM     70  C   UNL A   1      39.406  33.858  38.846  1.00  0.00     0.135 A 
ATOM     71  C   UNL A   1      40.290  35.639  37.506  1.00  0.00     0.135 A 
ATOM     72  F   UNL A   1      39.019  32.584  39.012  1.00  0.00    -0.206 F 
ATOM     73  C   UNL A   1      39.280  34.724  39.931  1.00  0.00     0.059 A 
ATOM     74  C   UNL A   1      40.200  36.517  38.588  1.00  0.00     0.059 A 
ATOM     75  F   UNL A   1      40.779  36.120  36.351  1.00  0.00    -0.206 F 
ATOM     76  C   UNL A   1      39.683  36.052  39.796  1.00  0.00     0.060 A 
BRANCH  76  77
ATOM     77  S   UNL A   1      39.553  37.147  41.229  1.00  0.00     0.124 S 
ATOM     78  O   UNL A   1      38.635  36.401  42.084  1.00  0.00    -0.237 OA
ATOM     79  O   UNL A   1      40.934  37.216  41.696  1.00  0.00    -0.237 OA
ATOM     80  O   UNL A   1      39.021  38.384  40.667  1.00  0.00    -0.744 OA
ENDBRANCH  76  77
ENDBRANCH  55  69
BRANCH  56  81
ATOM     81  C   UNL A   1      41.445  28.618  29.379  1.00  0.00     0.058 A 
ATOM     82  C   UNL A   1      42.481  28.954  28.494  1.00  0.00     0.135 A 
ATOM     83  C   UNL A   1      40.733  27.434  29.132  1.00  0.00     0.135 A 
ATOM     84  F   UNL A   1      43.205  30.063  28.703  1.00  0.00    -0.206 F 
ATOM     85  C   UNL A   1      42.801  28.148  27.409  1.00  0.00     0.059 A 
ATOM     86  C   UNL A   1      41.052  26.597  28.067  1.00  0.00     0.059 A 
ATOM     87  F   UNL A   1      39.768  27.040  29.980  1.00  0.00    -0.206 F 
ATOM     88  C   UNL A   1      42.086  26.965  27.207  1.00  0.00     0.060 A 
BRANCH  88  89
ATOM     89  S   UNL A   1      42.571  25.881  25.846  1.00  0.00     0.124 S 
ATOM     90  O   UNL A   1      43.756  26.563  25.339  1.00  0.00    -0.237 OA
ATOM     91  O   UNL A   1      42.808  24.613  26.529  1.00  0.00    -0.237 OA
ATOM     92  O   UNL A   1      41.404  25.903  24.969  1.00  0.00    -0.744 OA
ENDBRANCH  88  89
ENDBRANCH  56  81
BRANCH  68  93
ATOM     93  C   UNL A   1      44.325  28.884  35.726  1.00  0.00     0.058 A 
ATOM     94  C   UNL A   1      44.053  27.740  36.490  1.00  0.00     0.135 A 
ATOM     95  C   UNL A   1      45.661  29.279  35.565  1.00  0.00     0.135 A 
ATOM     96  F   UNL A   1      42.787  27.338  36.679  1.00  0.00    -0.206 F 
ATOM     97  C   UNL A   1      45.072  27.031  37.110  1.00  0.00     0.059 A 
ATOM     98  C   UNL A   1      46.698  28.569  36.155  1.00  0.00     0.059 A 
ATOM     99  F   UNL A   1      45.964  30.365  34.838  1.00  0.00    -0.206 F 
ATOM    100  C   UNL A   1      46.390  27.457  36.940  1.00  0.00     0.060 A 
BRANCH 100 101
ATOM    101  S   UNL A   1      47.706  26.530  37.753  1.00  0.00     0.124 S 
ATOM    102  O   UNL A   1      47.651  25.260  37.037  1.00  0.00    -0.237 OA
ATOM    103  O   UNL A   1      48.879  27.357  37.492  1.00  0.00    -0.237 OA
ATOM    104  O   UNL A   1      47.276  26.486  39.148  1.00  0.00    -0.744 OA
ENDBRANCH 100 101
ENDBRANCH  68  93
ENDBRANCH  42  43
ENDBRANCH  35  37
ENDBRANCH  34  35
ENDBRANCH  33  34
ENDBRANCH  32  33
ENDBRANCH  31  32
ENDBRANCH   1  31
TORSDOF 22
ENDMDL
