MODEL 1
REMARK VINA RESULT:     -10.3      0.000      0.000
REMARK SMILES O=C(OCCOCCOCCOC(=O)c1ccc(-c2c(F)cccc2F)cn1)c1ccc(-c2c3nc(c(-c4c(F)cc(S(=O)(=O)[O-])cc4F)c4ccc([nH]4)c(-c4c(F)cc(S(=O)(=O)[O-])cc4F)c4nc(c(-c5c(F)cc(S(=O)(=O)[O-])cc5F)c5ccc2[nH]5)C=C4)C=C3)cc1
REMARK SMILES IDX 7 1 6 2 5 3 4 4 3 5 2 6 1 7 29 8 30 9 94 10 31 11 93 12
REMARK SMILES IDX 32 13 33 14 34 15 87 16 35 17 92 18 86 19 88 20 36 21 91 22
REMARK SMILES IDX 85 23 84 24 37 26 71 27 50 28 70 29 51 30 54 31 69 32 89 33
REMARK SMILES IDX 52 34 53 35 68 37 90 38 55 39 38 40 39 41 48 42 40 43 41 44
REMARK SMILES IDX 47 45 49 46 42 47 43 48 44 49 45 50 46 51 72 52 73 53 82 54
REMARK SMILES IDX 74 55 75 56 81 57 83 58 76 59 77 60 78 61 79 62 80 63 56 64
REMARK SMILES IDX 57 65 66 66 58 67 59 68 65 69 67 70 60 71 61 72 62 73 63 74
REMARK SMILES IDX 64 75 8 76 9 77 10 78 11 79 12 80 13 81 14 82 15 83 16 84
REMARK SMILES IDX 28 85 17 86 27 87 18 88 19 89 20 90 25 91 21 92 22 93 24 94
REMARK SMILES IDX 26 95 23 96
REMARK H PARENT 88 25 54 36
REMARK Flexibility Score: inf
ROOT
ATOM      1  C   UNL A   1      46.104  20.763  24.944  1.00  0.00     0.188 C 
ENDROOT
BRANCH   1   2
ATOM      2  O   UNL A   1      45.799  21.887  25.780  1.00  0.00    -0.376 OA
BRANCH   2   3
ATOM      3  C   UNL A   1      44.497  22.436  25.569  1.00  0.00     0.202 C 
BRANCH   3   4
ATOM      4  C   UNL A   1      43.833  23.006  26.828  1.00  0.00     0.261 C 
BRANCH   4   5
ATOM      5  O   UNL A   1      42.578  23.639  26.533  1.00  0.00    -0.460 OA
BRANCH   5   6
ATOM      6  C   UNL A   1      42.348  24.950  26.267  1.00  0.00     0.338 C 
ATOM      7  O   UNL A   1      42.314  25.308  25.090  1.00  0.00    -0.246 OA
BRANCH   6   8
ATOM      8  C   UNL A   1      42.082  25.978  27.323  1.00  0.00     0.060 A 
ATOM      9  C   UNL A   1      42.752  27.196  27.446  1.00  0.00     0.016 A 
ATOM     10  C   UNL A   1      41.043  25.709  28.232  1.00  0.00     0.016 A 
ATOM     11  C   UNL A   1      42.513  28.048  28.519  1.00  0.00     0.010 A 
ATOM     12  C   UNL A   1      40.744  26.598  29.271  1.00  0.00     0.010 A 
ATOM     13  C   UNL A   1      41.515  27.752  29.446  1.00  0.00    -0.014 A 
BRANCH  13  14
ATOM     14  C   UNL A   1      41.371  28.616  30.638  1.00  0.00     0.031 A 
ATOM     15  C   UNL A   1      40.289  29.654  30.653  1.00  0.00     0.074 A 
ATOM     16  C   UNL A   1      42.117  28.382  31.734  1.00  0.00     0.049 A 
ATOM     17  N   UNL A   1      39.991  30.524  31.581  1.00  0.00    -0.248 NA
ATOM     18  C   UNL A   1      39.405  29.704  29.475  1.00  0.00     0.031 C 
ATOM     19  C   UNL A   1      43.105  27.311  31.863  1.00  0.00     0.029 A 
ATOM     20  N   UNL A   1      42.143  29.005  32.953  1.00  0.00    -0.354 N 
ATOM     21  C   UNL A   1      38.890  31.222  31.102  1.00  0.00     0.074 A 
ATOM     22  C   UNL A   1      38.586  30.696  29.790  1.00  0.00     0.031 C 
ATOM     23  C   UNL A   1      43.636  27.347  33.093  1.00  0.00     0.029 A 
ATOM     24  C   UNL A   1      43.068  28.475  33.821  1.00  0.00     0.049 A 
ATOM     25  H   UNL A   1      41.556  29.760  33.187  1.00  0.00     0.167 HD
ATOM     26  C   UNL A   1      38.191  32.207  31.712  1.00  0.00     0.037 A 
ATOM     27  C   UNL A   1      43.437  28.870  35.054  1.00  0.00     0.037 A 
ATOM     28  C   UNL A   1      38.515  32.721  33.015  1.00  0.00     0.049 A 
ATOM     29  C   UNL A   1      42.732  30.048  35.661  1.00  0.00     0.074 A 
ATOM     30  C   UNL A   1      37.928  33.765  33.702  1.00  0.00     0.029 A 
ATOM     31  N   UNL A   1      39.521  32.217  33.829  1.00  0.00    -0.354 N 
ATOM     32  N   UNL A   1      41.740  30.752  35.168  1.00  0.00    -0.248 NA
ATOM     33  C   UNL A   1      43.192  30.494  36.982  1.00  0.00     0.031 C 
ATOM     34  C   UNL A   1      38.602  33.915  34.920  1.00  0.00     0.029 A 
ATOM     35  C   UNL A   1      39.584  32.938  35.006  1.00  0.00     0.049 A 
ATOM     36  H   UNL A   1      40.105  31.458  33.601  1.00  0.00     0.167 HD
ATOM     37  C   UNL A   1      41.446  31.715  36.121  1.00  0.00     0.074 A 
ATOM     38  C   UNL A   1      42.358  31.497  37.227  1.00  0.00     0.031 C 
ATOM     39  C   UNL A   1      40.507  32.692  36.087  1.00  0.00     0.037 A 
BRANCH  26  40
ATOM     40  C   UNL A   1      37.049  32.807  30.947  1.00  0.00     0.058 A 
ATOM     41  C   UNL A   1      35.725  32.461  31.260  1.00  0.00     0.135 A 
ATOM     42  C   UNL A   1      37.258  33.746  29.925  1.00  0.00     0.135 A 
ATOM     43  F   UNL A   1      35.471  31.577  32.237  1.00  0.00    -0.206 F 
ATOM     44  C   UNL A   1      34.645  33.031  30.593  1.00  0.00     0.059 A 
ATOM     45  C   UNL A   1      36.192  34.343  29.258  1.00  0.00     0.059 A 
ATOM     46  F   UNL A   1      38.503  34.133  29.607  1.00  0.00    -0.206 F 
ATOM     47  C   UNL A   1      34.889  33.983  29.605  1.00  0.00     0.060 A 
BRANCH  47  48
ATOM     48  S   UNL A   1      33.516  34.792  28.754  1.00  0.00     0.124 S 
ATOM     49  O   UNL A   1      34.154  36.010  28.264  1.00  0.00    -0.237 OA
ATOM     50  O   UNL A   1      33.158  33.810  27.736  1.00  0.00    -0.237 OA
ATOM     51  O   UNL A   1      32.527  34.985  29.810  1.00  0.00    -0.744 OA
ENDBRANCH  47  48
ENDBRANCH  26  40
BRANCH  27  52
ATOM     52  C   UNL A   1      44.540  28.167  35.760  1.00  0.00     0.058 A 
ATOM     53  C   UNL A   1      45.873  28.593  35.621  1.00  0.00     0.135 A 
ATOM     54  C   UNL A   1      44.298  27.041  36.559  1.00  0.00     0.135 A 
ATOM     55  F   UNL A   1      46.163  29.656  34.855  1.00  0.00    -0.206 F 
ATOM     56  C   UNL A   1      46.926  27.922  36.233  1.00  0.00     0.059 A 
ATOM     57  C   UNL A   1      45.332  26.367  37.201  1.00  0.00     0.059 A 
ATOM     58  F   UNL A   1      43.043  26.597  36.727  1.00  0.00    -0.206 F 
ATOM     59  C   UNL A   1      46.644  26.813  37.028  1.00  0.00     0.060 A 
BRANCH  59  60
ATOM     60  S   UNL A   1      47.983  25.900  37.825  1.00  0.00     0.124 S 
ATOM     61  O   UNL A   1      47.427  25.663  39.152  1.00  0.00    -0.237 OA
ATOM     62  O   UNL A   1      48.105  24.729  36.963  1.00  0.00    -0.237 OA
ATOM     63  O   UNL A   1      49.104  26.833  37.766  1.00  0.00    -0.744 OA
ENDBRANCH  59  60
ENDBRANCH  27  52
BRANCH  39  64
ATOM     64  C   UNL A   1      40.413  33.588  37.285  1.00  0.00     0.058 A 
ATOM     65  C   UNL A   1      39.435  33.361  38.265  1.00  0.00     0.135 A 
ATOM     66  C   UNL A   1      41.241  34.711  37.420  1.00  0.00     0.135 A 
ATOM     67  F   UNL A   1      38.615  32.301  38.171  1.00  0.00    -0.206 F 
ATOM     68  C   UNL A   1      39.271  34.228  39.339  1.00  0.00     0.059 A 
ATOM     69  C   UNL A   1      41.108  35.580  38.496  1.00  0.00     0.059 A 
ATOM     70  F   UNL A   1      42.197  34.959  36.510  1.00  0.00    -0.206 F 
ATOM     71  C   UNL A   1      40.115  35.332  39.447  1.00  0.00     0.060 A 
BRANCH  71  72
ATOM     72  S   UNL A   1      39.916  36.501  40.808  1.00  0.00     0.124 S 
ATOM     73  O   UNL A   1      40.285  35.678  41.955  1.00  0.00    -0.237 OA
ATOM     74  O   UNL A   1      40.859  37.557  40.453  1.00  0.00    -0.237 OA
ATOM     75  O   UNL A   1      38.507  36.875  40.730  1.00  0.00    -0.744 OA
ENDBRANCH  71  72
ENDBRANCH  39  64
ENDBRANCH  13  14
ENDBRANCH   6   8
ENDBRANCH   5   6
ENDBRANCH   4   5
ENDBRANCH   3   4
ENDBRANCH   2   3
ENDBRANCH   1   2
BRANCH   1  76
ATOM     76  C   UNL A   1      44.841  19.968  24.595  1.00  0.00     0.188 C 
BRANCH  76  77
ATOM     77  O   UNL A   1      44.713  18.715  25.278  1.00  0.00    -0.376 OA
BRANCH  77  78
ATOM     78  C   UNL A   1      43.403  18.363  25.717  1.00  0.00     0.202 C 
BRANCH  78  79
ATOM     79  C   UNL A   1      42.678  19.384  26.598  1.00  0.00     0.261 C 
BRANCH  79  80
ATOM     80  O   UNL A   1      41.624  20.101  25.937  1.00  0.00    -0.459 OA
BRANCH  80  81
ATOM     81  C   UNL A   1      40.708  20.649  26.780  1.00  0.00     0.356 C 
ATOM     82  O   UNL A   1      40.787  20.704  27.999  1.00  0.00    -0.244 OA
BRANCH  81  83
ATOM     83  C   UNL A   1      39.484  21.078  26.061  1.00  0.00     0.148 A 
ATOM     84  C   UNL A   1      38.769  20.085  25.411  1.00  0.00     0.037 A 
ATOM     85  N   UNL A   1      39.050  22.360  26.194  1.00  0.00    -0.249 NA
ATOM     86  C   UNL A   1      37.519  20.404  24.896  1.00  0.00     0.013 A 
ATOM     87  C   UNL A   1      37.814  22.627  25.683  1.00  0.00     0.121 A 
ATOM     88  C   UNL A   1      36.987  21.694  25.046  1.00  0.00     0.006 A 
BRANCH  88  89
ATOM     89  C   UNL A   1      35.632  21.997  24.551  1.00  0.00     0.055 A 
ATOM     90  C   UNL A   1      34.496  21.478  25.197  1.00  0.00     0.134 A 
ATOM     91  C   UNL A   1      35.396  22.763  23.403  1.00  0.00     0.134 A 
ATOM     92  F   UNL A   1      34.632  20.781  26.337  1.00  0.00    -0.206 F 
ATOM     93  C   UNL A   1      33.204  21.664  24.707  1.00  0.00     0.040 A 
ATOM     94  C   UNL A   1      34.106  22.957  22.895  1.00  0.00     0.040 A 
ATOM     95  F   UNL A   1      36.419  23.334  22.749  1.00  0.00    -0.206 F 
ATOM     96  C   UNL A   1      33.007  22.397  23.543  1.00  0.00     0.006 A 
ENDBRANCH  88  89
ENDBRANCH  81  83
ENDBRANCH  80  81
ENDBRANCH  79  80
ENDBRANCH  78  79
ENDBRANCH  77  78
ENDBRANCH  76  77
ENDBRANCH   1  76
TORSDOF 21
ENDMDL
MODEL 2
REMARK VINA RESULT:     -10.0      3.074      4.371
REMARK SMILES O=C(OCCOCCOCCOC(=O)c1ccc(-c2c(F)cccc2F)cn1)c1ccc(-c2c3nc(c(-c4c(F)cc(S(=O)(=O)[O-])cc4F)c4ccc([nH]4)c(-c4c(F)cc(S(=O)(=O)[O-])cc4F)c4nc(c(-c5c(F)cc(S(=O)(=O)[O-])cc5F)c5ccc2[nH]5)C=C4)C=C3)cc1
REMARK SMILES IDX 7 1 6 2 5 3 4 4 3 5 2 6 1 7 29 8 30 9 94 10 31 11 93 12
REMARK SMILES IDX 32 13 33 14 34 15 87 16 35 17 92 18 86 19 88 20 36 21 91 22
REMARK SMILES IDX 85 23 84 24 37 26 71 27 50 28 70 29 51 30 54 31 69 32 89 33
REMARK SMILES IDX 52 34 53 35 68 37 90 38 55 39 38 40 39 41 48 42 40 43 41 44
REMARK SMILES IDX 47 45 49 46 42 47 43 48 44 49 45 50 46 51 72 52 73 53 82 54
REMARK SMILES IDX 74 55 75 56 81 57 83 58 76 59 77 60 78 61 79 62 80 63 56 64
REMARK SMILES IDX 57 65 66 66 58 67 59 68 65 69 67 70 60 71 61 72 62 73 63 74
REMARK SMILES IDX 64 75 8 76 9 77 10 78 11 79 12 80 13 81 14 82 15 83 16 84
REMARK SMILES IDX 28 85 17 86 27 87 18 88 19 89 20 90 25 91 21 92 22 93 24 94
REMARK SMILES IDX 26 95 23 96
REMARK H PARENT 88 25 54 36
REMARK Flexibility Score: inf
ROOT
ATOM      1  C   UNL A   1      38.206  21.684  25.653  1.00  0.00     0.188 C 
ENDROOT
BRANCH   1   2
ATOM      2  O   UNL A   1      38.746  22.905  26.174  1.00  0.00    -0.376 OA
BRANCH   2   3
ATOM      3  C   UNL A   1      39.931  22.734  26.954  1.00  0.00     0.202 C 
BRANCH   3   4
ATOM      4  C   UNL A   1      41.233  22.728  26.144  1.00  0.00     0.261 C 
BRANCH   4   5
ATOM      5  O   UNL A   1      42.010  23.914  26.369  1.00  0.00    -0.460 OA
BRANCH   5   6
ATOM      6  C   UNL A   1      41.576  25.200  26.411  1.00  0.00     0.338 C 
ATOM      7  O   UNL A   1      41.201  25.722  25.362  1.00  0.00    -0.246 OA
BRANCH   6   8
ATOM      8  C   UNL A   1      41.480  26.004  27.670  1.00  0.00     0.060 A 
ATOM      9  C   UNL A   1      40.501  25.845  28.653  1.00  0.00     0.016 A 
ATOM     10  C   UNL A   1      42.483  26.963  27.896  1.00  0.00     0.016 A 
ATOM     11  C   UNL A   1      40.425  26.706  29.743  1.00  0.00     0.010 A 
ATOM     12  C   UNL A   1      42.457  27.783  29.031  1.00  0.00     0.010 A 
ATOM     13  C   UNL A   1      41.395  27.688  29.936  1.00  0.00    -0.014 A 
BRANCH  13  14
ATOM     14  C   UNL A   1      41.216  28.660  31.036  1.00  0.00     0.031 A 
ATOM     15  C   UNL A   1      40.131  29.689  30.924  1.00  0.00     0.074 A 
ATOM     16  C   UNL A   1      41.933  28.536  32.169  1.00  0.00     0.049 A 
ATOM     17  N   UNL A   1      39.805  30.641  31.757  1.00  0.00    -0.248 NA
ATOM     18  C   UNL A   1      39.279  29.622  29.724  1.00  0.00     0.031 C 
ATOM     19  C   UNL A   1      42.921  27.488  32.425  1.00  0.00     0.029 A 
ATOM     20  N   UNL A   1      41.925  29.272  33.324  1.00  0.00    -0.354 N 
ATOM     21  C   UNL A   1      38.715  31.284  31.185  1.00  0.00     0.074 A 
ATOM     22  C   UNL A   1      38.448  30.634  29.922  1.00  0.00     0.031 C 
ATOM     23  C   UNL A   1      43.418  27.643  33.660  1.00  0.00     0.029 A 
ATOM     24  C   UNL A   1      42.827  28.831  34.262  1.00  0.00     0.049 A 
ATOM     25  H   UNL A   1      41.329  30.042  33.469  1.00  0.00     0.167 HD
ATOM     26  C   UNL A   1      37.997  32.318  31.680  1.00  0.00     0.037 A 
ATOM     27  C   UNL A   1      43.162  29.344  35.461  1.00  0.00     0.037 A 
ATOM     28  C   UNL A   1      38.284  32.955  32.936  1.00  0.00     0.049 A 
ATOM     29  C   UNL A   1      42.436  30.570  35.935  1.00  0.00     0.074 A 
ATOM     30  C   UNL A   1      37.675  34.057  33.506  1.00  0.00     0.029 A 
ATOM     31  N   UNL A   1      39.269  32.537  33.821  1.00  0.00    -0.354 N 
ATOM     32  N   UNL A   1      41.456  31.218  35.351  1.00  0.00    -0.248 NA
ATOM     33  C   UNL A   1      42.859  31.142  37.219  1.00  0.00     0.031 C 
ATOM     34  C   UNL A   1      38.316  34.325  34.721  1.00  0.00     0.029 A 
ATOM     35  C   UNL A   1      39.297  33.367  34.926  1.00  0.00     0.049 A 
ATOM     36  H   UNL A   1      39.861  31.763  33.681  1.00  0.00     0.167 HD
ATOM     37  C   UNL A   1      41.133  32.266  36.200  1.00  0.00     0.074 A 
ATOM     38  C   UNL A   1      42.016  32.159  37.346  1.00  0.00     0.031 C 
ATOM     39  C   UNL A   1      40.192  33.229  36.049  1.00  0.00     0.037 A 
BRANCH  26  40
ATOM     40  C   UNL A   1      36.873  32.836  30.831  1.00  0.00     0.058 A 
ATOM     41  C   UNL A   1      35.546  32.483  31.117  1.00  0.00     0.135 A 
ATOM     42  C   UNL A   1      37.103  33.706  29.754  1.00  0.00     0.135 A 
ATOM     43  F   UNL A   1      35.271  31.664  32.145  1.00  0.00    -0.206 F 
ATOM     44  C   UNL A   1      34.481  32.979  30.371  1.00  0.00     0.059 A 
ATOM     45  C   UNL A   1      36.052  34.230  29.006  1.00  0.00     0.059 A 
ATOM     46  F   UNL A   1      38.352  34.099  29.457  1.00  0.00    -0.206 F 
ATOM     47  C   UNL A   1      34.744  33.865  29.328  1.00  0.00     0.060 A 
BRANCH  47  48
ATOM     48  S   UNL A   1      33.389  34.580  28.371  1.00  0.00     0.124 S 
ATOM     49  O   UNL A   1      32.900  33.413  27.644  1.00  0.00    -0.237 OA
ATOM     50  O   UNL A   1      32.507  35.093  29.414  1.00  0.00    -0.237 OA
ATOM     51  O   UNL A   1      34.047  35.595  27.554  1.00  0.00    -0.744 OA
ENDBRANCH  47  48
ENDBRANCH  26  40
BRANCH  27  52
ATOM     52  C   UNL A   1      44.248  28.717  36.260  1.00  0.00     0.058 A 
ATOM     53  C   UNL A   1      45.561  29.215  36.206  1.00  0.00     0.135 A 
ATOM     54  C   UNL A   1      44.010  27.595  37.066  1.00  0.00     0.135 A 
ATOM     55  F   UNL A   1      45.848  30.278  35.438  1.00  0.00    -0.206 F 
ATOM     56  C   UNL A   1      46.603  28.616  36.906  1.00  0.00     0.059 A 
ATOM     57  C   UNL A   1      45.031  26.992  37.795  1.00  0.00     0.059 A 
ATOM     58  F   UNL A   1      42.773  27.084  37.154  1.00  0.00    -0.206 F 
ATOM     59  C   UNL A   1      46.326  27.508  37.705  1.00  0.00     0.060 A 
BRANCH  59  60
ATOM     60  S   UNL A   1      47.651  26.687  38.615  1.00  0.00     0.124 S 
ATOM     61  O   UNL A   1      48.594  26.377  37.546  1.00  0.00    -0.237 OA
ATOM     62  O   UNL A   1      48.064  27.727  39.552  1.00  0.00    -0.237 OA
ATOM     63  O   UNL A   1      46.980  25.539  39.218  1.00  0.00    -0.744 OA
ENDBRANCH  59  60
ENDBRANCH  27  52
BRANCH  39  64
ATOM     64  C   UNL A   1      40.063  34.234  37.153  1.00  0.00     0.058 A 
ATOM     65  C   UNL A   1      39.156  34.022  38.203  1.00  0.00     0.135 A 
ATOM     66  C   UNL A   1      40.782  35.438  37.129  1.00  0.00     0.135 A 
ATOM     67  F   UNL A   1      38.442  32.886  38.261  1.00  0.00    -0.206 F 
ATOM     68  C   UNL A   1      38.955  34.979  39.191  1.00  0.00     0.059 A 
ATOM     69  C   UNL A   1      40.611  36.399  38.117  1.00  0.00     0.059 A 
ATOM     70  F   UNL A   1      41.667  35.677  36.149  1.00  0.00    -0.206 F 
ATOM     71  C   UNL A   1      39.690  36.162  39.140  1.00  0.00     0.060 A 
BRANCH  71  72
ATOM     72  S   UNL A   1      39.436  37.445  40.385  1.00  0.00     0.124 S 
ATOM     73  O   UNL A   1      38.486  38.323  39.710  1.00  0.00    -0.237 OA
ATOM     74  O   UNL A   1      38.907  36.684  41.513  1.00  0.00    -0.237 OA
ATOM     75  O   UNL A   1      40.773  37.996  40.581  1.00  0.00    -0.744 OA
ENDBRANCH  71  72
ENDBRANCH  39  64
ENDBRANCH  13  14
ENDBRANCH   6   8
ENDBRANCH   5   6
ENDBRANCH   4   5
ENDBRANCH   3   4
ENDBRANCH   2   3
ENDBRANCH   1   2
BRANCH   1  76
ATOM     76  C   UNL A   1      36.809  21.900  25.060  1.00  0.00     0.188 C 
BRANCH  76  77
ATOM     77  O   UNL A   1      35.902  20.807  25.247  1.00  0.00    -0.376 OA
BRANCH  77  78
ATOM     78  C   UNL A   1      34.566  21.147  25.609  1.00  0.00     0.202 C 
BRANCH  78  79
ATOM     79  C   UNL A   1      34.392  22.356  26.532  1.00  0.00     0.261 C 
BRANCH  79  80
ATOM     80  O   UNL A   1      33.337  23.252  26.149  1.00  0.00    -0.459 OA
BRANCH  80  81
ATOM     81  C   UNL A   1      33.766  24.380  25.519  1.00  0.00     0.356 C 
ATOM     82  O   UNL A   1      34.915  24.793  25.475  1.00  0.00    -0.244 OA
BRANCH  81  83
ATOM     83  C   UNL A   1      32.635  25.169  24.973  1.00  0.00     0.148 A 
ATOM     84  C   UNL A   1      32.092  26.131  25.811  1.00  0.00     0.037 A 
ATOM     85  N   UNL A   1      32.292  25.023  23.666  1.00  0.00    -0.249 NA
ATOM     86  C   UNL A   1      31.171  27.024  25.278  1.00  0.00     0.013 A 
ATOM     87  C   UNL A   1      31.392  25.926  23.181  1.00  0.00     0.121 A 
ATOM     88  C   UNL A   1      30.813  26.963  23.922  1.00  0.00     0.006 A 
BRANCH  88  89
ATOM     89  C   UNL A   1      29.884  27.959  23.358  1.00  0.00     0.055 A 
ATOM     90  C   UNL A   1      28.493  27.795  23.476  1.00  0.00     0.134 A 
ATOM     91  C   UNL A   1      30.317  29.081  22.641  1.00  0.00     0.134 A 
ATOM     92  F   UNL A   1      27.996  26.777  24.197  1.00  0.00    -0.206 F 
ATOM     93  C   UNL A   1      27.582  28.664  22.876  1.00  0.00     0.040 A 
ATOM     94  C   UNL A   1      29.417  29.961  22.029  1.00  0.00     0.040 A 
ATOM     95  F   UNL A   1      31.628  29.340  22.516  1.00  0.00    -0.206 F 
ATOM     96  C   UNL A   1      28.044  29.746  22.138  1.00  0.00     0.006 A 
ENDBRANCH  88  89
ENDBRANCH  81  83
ENDBRANCH  80  81
ENDBRANCH  79  80
ENDBRANCH  78  79
ENDBRANCH  77  78
ENDBRANCH  76  77
ENDBRANCH   1  76
TORSDOF 21
ENDMDL
MODEL 3
REMARK VINA RESULT:      -9.9      3.210      9.299
REMARK SMILES O=C(OCCOCCOCCOC(=O)c1ccc(-c2c(F)cccc2F)cn1)c1ccc(-c2c3nc(c(-c4c(F)cc(S(=O)(=O)[O-])cc4F)c4ccc([nH]4)c(-c4c(F)cc(S(=O)(=O)[O-])cc4F)c4nc(c(-c5c(F)cc(S(=O)(=O)[O-])cc5F)c5ccc2[nH]5)C=C4)C=C3)cc1
REMARK SMILES IDX 7 1 6 2 5 3 4 4 3 5 2 6 1 7 29 8 30 9 94 10 31 11 93 12
REMARK SMILES IDX 32 13 33 14 34 15 87 16 35 17 92 18 86 19 88 20 36 21 91 22
REMARK SMILES IDX 85 23 84 24 37 26 71 27 50 28 70 29 51 30 54 31 69 32 89 33
REMARK SMILES IDX 52 34 53 35 68 37 90 38 55 39 38 40 39 41 48 42 40 43 41 44
REMARK SMILES IDX 47 45 49 46 42 47 43 48 44 49 45 50 46 51 72 52 73 53 82 54
REMARK SMILES IDX 74 55 75 56 81 57 83 58 76 59 77 60 78 61 79 62 80 63 56 64
REMARK SMILES IDX 57 65 66 66 58 67 59 68 65 69 67 70 60 71 61 72 62 73 63 74
REMARK SMILES IDX 64 75 8 76 9 77 10 78 11 79 12 80 13 81 14 82 15 83 16 84
REMARK SMILES IDX 28 85 17 86 27 87 18 88 19 89 20 90 25 91 21 92 22 93 24 94
REMARK SMILES IDX 26 95 23 96
REMARK H PARENT 88 25 54 36
REMARK Flexibility Score: inf
ROOT
ATOM      1  C   UNL A   1      36.862  21.104  24.682  1.00  0.00     0.188 C 
ENDROOT
BRANCH   1   2
ATOM      2  O   UNL A   1      37.525  21.428  25.912  1.00  0.00    -0.376 OA
BRANCH   2   3
ATOM      3  C   UNL A   1      38.908  21.758  25.761  1.00  0.00     0.202 C 
BRANCH   3   4
ATOM      4  C   UNL A   1      39.339  23.042  26.482  1.00  0.00     0.261 C 
BRANCH   4   5
ATOM      5  O   UNL A   1      40.768  23.168  26.542  1.00  0.00    -0.460 OA
BRANCH   5   6
ATOM      6  C   UNL A   1      41.506  24.308  26.539  1.00  0.00     0.338 C 
ATOM      7  O   UNL A   1      42.381  24.433  25.683  1.00  0.00    -0.246 OA
BRANCH   6   8
ATOM      8  C   UNL A   1      41.282  25.445  27.487  1.00  0.00     0.060 A 
ATOM      9  C   UNL A   1      42.086  26.582  27.582  1.00  0.00     0.016 A 
ATOM     10  C   UNL A   1      40.146  25.377  28.312  1.00  0.00     0.016 A 
ATOM     11  C   UNL A   1      41.866  27.543  28.563  1.00  0.00     0.010 A 
ATOM     12  C   UNL A   1      39.873  26.379  29.251  1.00  0.00     0.010 A 
ATOM     13  C   UNL A   1      40.765  27.445  29.413  1.00  0.00    -0.014 A 
BRANCH  13  14
ATOM     14  C   UNL A   1      40.629  28.417  30.519  1.00  0.00     0.031 A 
ATOM     15  C   UNL A   1      41.594  28.348  31.665  1.00  0.00     0.074 A 
ATOM     16  C   UNL A   1      39.737  29.421  30.429  1.00  0.00     0.049 A 
ATOM     17  N   UNL A   1      41.652  29.087  32.741  1.00  0.00    -0.248 NA
ATOM     18  C   UNL A   1      42.652  27.327  31.578  1.00  0.00     0.031 C 
ATOM     19  C   UNL A   1      38.844  29.649  29.293  1.00  0.00     0.029 A 
ATOM     20  N   UNL A   1      39.451  30.451  31.286  1.00  0.00    -0.354 N 
ATOM     21  C   UNL A   1      42.748  28.622  33.456  1.00  0.00     0.074 A 
ATOM     22  C   UNL A   1      43.313  27.521  32.709  1.00  0.00     0.031 C 
ATOM     23  C   UNL A   1      38.115  30.752  29.520  1.00  0.00     0.029 A 
ATOM     24  C   UNL A   1      38.449  31.276  30.838  1.00  0.00     0.049 A 
ATOM     25  H   UNL A   1      39.920  30.587  32.141  1.00  0.00     0.167 HD
ATOM     26  C   UNL A   1      43.243  29.084  34.628  1.00  0.00     0.037 A 
ATOM     27  C   UNL A   1      37.846  32.322  31.433  1.00  0.00     0.037 A 
ATOM     28  C   UNL A   1      42.662  30.177  35.359  1.00  0.00     0.049 A 
ATOM     29  C   UNL A   1      38.329  32.739  32.792  1.00  0.00     0.074 A 
ATOM     30  C   UNL A   1      43.028  30.685  36.591  1.00  0.00     0.029 A 
ATOM     31  N   UNL A   1      41.585  30.934  34.915  1.00  0.00    -0.354 N 
ATOM     32  N   UNL A   1      39.320  32.243  33.496  1.00  0.00    -0.248 NA
ATOM     33  C   UNL A   1      37.618  33.845  33.445  1.00  0.00     0.031 C 
ATOM     34  C   UNL A   1      42.151  31.729  36.907  1.00  0.00     0.029 A 
ATOM     35  C   UNL A   1      41.263  31.895  35.854  1.00  0.00     0.049 A 
ATOM     36  H   UNL A   1      41.120  30.804  34.057  1.00  0.00     0.167 HD
ATOM     37  C   UNL A   1      39.362  32.984  34.668  1.00  0.00     0.074 A 
ATOM     38  C   UNL A   1      38.303  33.970  34.574  1.00  0.00     0.031 C 
ATOM     39  C   UNL A   1      40.200  32.862  35.726  1.00  0.00     0.037 A 
BRANCH  26  40
ATOM     40  C   UNL A   1      44.436  28.372  35.193  1.00  0.00     0.058 A 
ATOM     41  C   UNL A   1      44.271  27.216  35.971  1.00  0.00     0.135 A 
ATOM     42  C   UNL A   1      45.746  28.813  34.943  1.00  0.00     0.135 A 
ATOM     43  F   UNL A   1      43.041  26.745  36.229  1.00  0.00    -0.206 F 
ATOM     44  C   UNL A   1      45.361  26.514  36.475  1.00  0.00     0.059 A 
ATOM     45  C   UNL A   1      46.851  28.116  35.422  1.00  0.00     0.059 A 
ATOM     46  F   UNL A   1      45.959  29.897  34.180  1.00  0.00    -0.206 F 
ATOM     47  C   UNL A   1      46.647  26.963  36.182  1.00  0.00     0.060 A 
BRANCH  47  48
ATOM     48  S   UNL A   1      48.092  26.050  36.766  1.00  0.00     0.124 S 
ATOM     49  O   UNL A   1      49.137  27.063  36.665  1.00  0.00    -0.237 OA
ATOM     50  O   UNL A   1      47.698  25.679  38.122  1.00  0.00    -0.237 OA
ATOM     51  O   UNL A   1      48.200  24.942  35.823  1.00  0.00    -0.744 OA
ENDBRANCH  47  48
ENDBRANCH  26  40
BRANCH  27  52
ATOM     52  C   UNL A   1      36.710  33.007  30.761  1.00  0.00     0.058 A 
ATOM     53  C   UNL A   1      36.932  33.889  29.690  1.00  0.00     0.135 A 
ATOM     54  C   UNL A   1      35.388  32.825  31.191  1.00  0.00     0.135 A 
ATOM     55  F   UNL A   1      38.180  34.112  29.248  1.00  0.00    -0.206 F 
ATOM     56  C   UNL A   1      35.891  34.579  29.078  1.00  0.00     0.059 A 
ATOM     57  C   UNL A   1      34.326  33.486  30.580  1.00  0.00     0.059 A 
ATOM     58  F   UNL A   1      35.123  31.991  32.208  1.00  0.00    -0.206 F 
ATOM     59  C   UNL A   1      34.589  34.364  29.526  1.00  0.00     0.060 A 
BRANCH  59  60
ATOM     60  S   UNL A   1      33.209  35.254  28.774  1.00  0.00     0.124 S 
ATOM     61  O   UNL A   1      33.905  36.265  27.987  1.00  0.00    -0.237 OA
ATOM     62  O   UNL A   1      32.545  34.197  28.018  1.00  0.00    -0.237 OA
ATOM     63  O   UNL A   1      32.466  35.752  29.928  1.00  0.00    -0.744 OA
ENDBRANCH  59  60
ENDBRANCH  27  52
BRANCH  39  64
ATOM     64  C   UNL A   1      40.011  33.825  36.858  1.00  0.00     0.058 A 
ATOM     65  C   UNL A   1      39.101  33.541  37.888  1.00  0.00     0.135 A 
ATOM     66  C   UNL A   1      40.676  35.060  36.882  1.00  0.00     0.135 A 
ATOM     67  F   UNL A   1      38.437  32.373  37.900  1.00  0.00    -0.206 F 
ATOM     68  C   UNL A   1      38.844  34.456  38.901  1.00  0.00     0.059 A 
ATOM     69  C   UNL A   1      40.449  35.981  37.897  1.00  0.00     0.059 A 
ATOM     70  F   UNL A   1      41.563  35.368  35.923  1.00  0.00    -0.206 F 
ATOM     71  C   UNL A   1      39.526  35.672  38.898  1.00  0.00     0.060 A 
BRANCH  71  72
ATOM     72  S   UNL A   1      39.199  36.902  40.178  1.00  0.00     0.124 S 
ATOM     73  O   UNL A   1      38.299  36.170  41.063  1.00  0.00    -0.237 OA
ATOM     74  O   UNL A   1      40.534  37.166  40.706  1.00  0.00    -0.237 OA
ATOM     75  O   UNL A   1      38.594  38.006  39.440  1.00  0.00    -0.744 OA
ENDBRANCH  71  72
ENDBRANCH  39  64
ENDBRANCH  13  14
ENDBRANCH   6   8
ENDBRANCH   5   6
ENDBRANCH   4   5
ENDBRANCH   3   4
ENDBRANCH   2   3
ENDBRANCH   1   2
BRANCH   1  76
ATOM     76  C   UNL A   1      36.545  22.365  23.871  1.00  0.00     0.188 C 
BRANCH  76  77
ATOM     77  O   UNL A   1      35.163  22.744  23.867  1.00  0.00    -0.376 OA
BRANCH  77  78
ATOM     78  C   UNL A   1      34.797  23.816  24.732  1.00  0.00     0.202 C 
BRANCH  78  79
ATOM     79  C   UNL A   1      33.655  23.546  25.714  1.00  0.00     0.261 C 
BRANCH  79  80
ATOM     80  O   UNL A   1      32.836  22.414  25.381  1.00  0.00    -0.459 OA
BRANCH  80  81
ATOM     81  C   UNL A   1      31.500  22.637  25.503  1.00  0.00     0.356 C 
ATOM     82  O   UNL A   1      30.660  21.826  25.866  1.00  0.00    -0.244 OA
BRANCH  81  83
ATOM     83  C   UNL A   1      31.118  23.982  25.008  1.00  0.00     0.148 A 
ATOM     84  C   UNL A   1      30.970  24.117  23.637  1.00  0.00     0.037 A 
ATOM     85  N   UNL A   1      30.794  24.952  25.904  1.00  0.00    -0.249 NA
ATOM     86  C   UNL A   1      30.424  25.296  23.146  1.00  0.00     0.013 A 
ATOM     87  C   UNL A   1      30.251  26.090  25.380  1.00  0.00     0.121 A 
ATOM     88  C   UNL A   1      30.016  26.317  24.019  1.00  0.00     0.006 A 
BRANCH  88  89
ATOM     89  C   UNL A   1      29.378  27.534  23.485  1.00  0.00     0.055 A 
ATOM     90  C   UNL A   1      27.983  27.700  23.541  1.00  0.00     0.134 A 
ATOM     91  C   UNL A   1      30.099  28.557  22.858  1.00  0.00     0.134 A 
ATOM     92  F   UNL A   1      27.224  26.793  24.177  1.00  0.00    -0.206 F 
ATOM     93  C   UNL A   1      27.334  28.791  22.965  1.00  0.00     0.040 A 
ATOM     94  C   UNL A   1      29.464  29.658  22.271  1.00  0.00     0.040 A 
ATOM     95  F   UNL A   1      31.439  28.502  22.798  1.00  0.00    -0.206 F 
ATOM     96  C   UNL A   1      28.076  29.770  22.316  1.00  0.00     0.006 A 
ENDBRANCH  88  89
ENDBRANCH  81  83
ENDBRANCH  80  81
ENDBRANCH  79  80
ENDBRANCH  78  79
ENDBRANCH  77  78
ENDBRANCH  76  77
ENDBRANCH   1  76
TORSDOF 21
ENDMDL
