MODEL 1
REMARK VINA RESULT:      -9.0      0.000      0.000
REMARK SMILES NS(=O)(=O)c1ccc(-n2nc(C(=O)OCCOCCOCCOC(=O)c3ccc(-c4c5nc(c(-c6c(F)cc(S(=O)(=O)[O-])cc6F)c6ccc([nH]6)c(-c6c(F)cc(S(=O)(=O)[O-])cc6F)c6nc(c(-c7c(F)cc(S(=O)(=O)[O-])cc7F)c7ccc4[nH]7)C=C6)C=C5)cc3)cc2-c2cc3ccccc3s2)cc1
REMARK SMILES IDX 18 1 17 2 16 3 15 4 14 5 12 6 13 7 11 8 9 9 10 10 93 11
REMARK SMILES IDX 92 12 8 13 5 14 6 15 104 16 7 17 103 18 2 19 3 20 4 21 1 22
REMARK SMILES IDX 94 25 95 26 102 27 96 28 101 29 97 30 100 31 98 32 99 33
REMARK SMILES IDX 19 34 20 35 21 36 22 37 23 38 24 39 25 40 26 41 27 42 91 43
REMARK SMILES IDX 28 44 90 45 29 46 30 47 31 48 84 49 32 50 89 51 83 52 85 53
REMARK SMILES IDX 33 54 88 55 82 56 81 57 34 59 68 60 47 61 67 62 48 63 51 64
REMARK SMILES IDX 66 65 86 66 49 67 50 68 65 70 87 71 52 72 35 73 36 74 45 75
REMARK SMILES IDX 37 76 38 77 44 78 46 79 39 80 40 81 41 82 42 83 43 84 69 85
REMARK SMILES IDX 70 86 79 87 71 88 72 89 78 90 80 91 73 92 74 93 75 94 76 95
REMARK SMILES IDX 77 96 53 97 54 98 63 99 55 100 56 101 62 102 64 103 57 104
REMARK SMILES IDX 58 105 59 106 60 107 61 108
REMARK H PARENT 1 23 1 24 85 58 51 69
REMARK Flexibility Score: inf
ROOT
ATOM      1  C   UNL A   1      39.776  35.963  37.648  1.00  0.00     0.188 C 
ENDROOT
BRANCH   1   2
ATOM      2  O   UNL A   1      39.492  35.080  38.728  1.00  0.00    -0.376 OA
BRANCH   2   3
ATOM      3  C   UNL A   1      38.343  34.247  38.708  1.00  0.00     0.202 C 
BRANCH   3   4
ATOM      4  C   UNL A   1      38.483  32.714  38.724  1.00  0.00     0.261 C 
BRANCH   4   5
ATOM      5  O   UNL A   1      39.088  32.142  37.561  1.00  0.00    -0.458 OA
BRANCH   5   6
ATOM      6  C   UNL A   1      38.268  31.454  36.711  1.00  0.00     0.358 C 
ATOM      7  O   UNL A   1      37.779  30.359  36.959  1.00  0.00    -0.244 OA
BRANCH   6   8
ATOM      8  C   UNL A   1      38.034  32.208  35.469  1.00  0.00     0.171 A 
ATOM      9  N   UNL A   1      37.002  33.202  33.877  1.00  0.00    -0.231 N 
ATOM     10  N   UNL A   1      36.923  32.919  35.206  1.00  0.00    -0.160 NA
ATOM     11  C   UNL A   1      38.141  32.670  33.316  1.00  0.00     0.085 A 
ATOM     12  C   UNL A   1      38.934  32.318  34.393  1.00  0.00     0.068 A 
BRANCH   9  13
ATOM     13  C   UNL A   1      35.929  33.872  33.262  1.00  0.00     0.065 A 
ATOM     14  C   UNL A   1      33.938  35.258  31.926  1.00  0.00     0.082 A 
ATOM     15  C   UNL A   1      34.437  35.751  33.139  1.00  0.00     0.024 A 
ATOM     16  C   UNL A   1      34.419  34.064  31.381  1.00  0.00     0.024 A 
ATOM     17  C   UNL A   1      35.420  35.042  33.826  1.00  0.00     0.030 A 
ATOM     18  C   UNL A   1      35.447  33.385  32.036  1.00  0.00     0.030 A 
BRANCH  14  19
ATOM     19  S   UNL A   1      32.673  36.148  31.073  1.00  0.00     0.238 S 
ATOM     20  O   UNL A   1      31.576  36.398  31.956  1.00  0.00    -0.207 OA
ATOM     21  O   UNL A   1      32.512  35.559  29.752  1.00  0.00    -0.207 OA
BRANCH  19  22
ATOM     22  N   UNL A   1      33.379  37.653  30.810  1.00  0.00    -0.225 NA
ATOM     23  H   UNL A   1      34.256  37.535  30.303  1.00  0.00     0.137 HD
ATOM     24  H   UNL A   1      33.562  38.105  31.706  1.00  0.00     0.137 HD
ENDBRANCH  19  22
ENDBRANCH  14  19
ENDBRANCH   9  13
BRANCH  11  25
ATOM     25  C   UNL A   1      38.450  32.319  31.953  1.00  0.00     0.054 A 
ATOM     26  C   UNL A   1      38.771  33.194  30.916  1.00  0.00     0.031 A 
ATOM     27  S   UNL A   1      39.646  31.039  31.792  1.00  0.00    -0.134 S 
ATOM     28  C   UNL A   1      40.218  33.378  30.967  1.00  0.00    -0.007 A 
ATOM     29  C   UNL A   1      40.822  32.316  31.659  1.00  0.00     0.035 A 
ATOM     30  C   UNL A   1      41.025  34.481  30.614  1.00  0.00     0.009 A 
ATOM     31  C   UNL A   1      42.126  32.390  32.169  1.00  0.00     0.019 A 
ATOM     32  C   UNL A   1      42.321  34.575  31.138  1.00  0.00     0.001 A 
ATOM     33  C   UNL A   1      42.842  33.566  31.945  1.00  0.00     0.001 A 
ENDBRANCH  11  25
ENDBRANCH   6   8
ENDBRANCH   5   6
ENDBRANCH   4   5
ENDBRANCH   3   4
ENDBRANCH   2   3
ENDBRANCH   1   2
BRANCH   1  34
ATOM     34  C   UNL A   1      39.716  35.476  36.181  1.00  0.00     0.188 C 
BRANCH  34  35
ATOM     35  O   UNL A   1      40.975  35.261  35.572  1.00  0.00    -0.376 OA
BRANCH  35  36
ATOM     36  C   UNL A   1      41.937  34.433  36.213  1.00  0.00     0.202 C 
BRANCH  36  37
ATOM     37  C   UNL A   1      43.118  35.048  36.964  1.00  0.00     0.261 C 
BRANCH  37  38
ATOM     38  O   UNL A   1      43.218  36.452  36.863  1.00  0.00    -0.460 OA
BRANCH  38  39
ATOM     39  C   UNL A   1      44.436  36.911  36.515  1.00  0.00     0.338 C 
ATOM     40  O   UNL A   1      45.489  36.727  37.100  1.00  0.00    -0.246 OA
BRANCH  39  41
ATOM     41  C   UNL A   1      44.277  37.695  35.290  1.00  0.00     0.060 A 
ATOM     42  C   UNL A   1      43.219  37.343  34.449  1.00  0.00     0.016 A 
ATOM     43  C   UNL A   1      45.381  38.439  34.858  1.00  0.00     0.016 A 
ATOM     44  C   UNL A   1      43.425  37.454  33.098  1.00  0.00     0.010 A 
ATOM     45  C   UNL A   1      45.608  38.501  33.515  1.00  0.00     0.010 A 
ATOM     46  C   UNL A   1      44.675  37.904  32.669  1.00  0.00    -0.014 A 
BRANCH  46  47
ATOM     47  C   UNL A   1      45.025  37.737  31.281  1.00  0.00     0.031 A 
ATOM     48  C   UNL A   1      44.156  38.534  30.398  1.00  0.00     0.074 A 
ATOM     49  C   UNL A   1      46.130  37.047  30.939  1.00  0.00     0.049 A 
ATOM     50  N   UNL A   1      43.223  38.115  29.611  1.00  0.00    -0.248 NA
ATOM     51  C   UNL A   1      44.149  39.994  30.611  1.00  0.00     0.031 C 
ATOM     52  C   UNL A   1      47.167  36.517  31.836  1.00  0.00     0.029 A 
ATOM     53  N   UNL A   1      46.635  36.780  29.708  1.00  0.00    -0.354 N 
ATOM     54  C   UNL A   1      42.721  39.271  29.024  1.00  0.00     0.074 A 
ATOM     55  C   UNL A   1      43.087  40.351  29.891  1.00  0.00     0.031 C 
ATOM     56  C   UNL A   1      48.270  36.217  31.114  1.00  0.00     0.029 A 
ATOM     57  C   UNL A   1      47.977  36.420  29.706  1.00  0.00     0.049 A 
ATOM     58  H   UNL A   1      46.096  36.838  28.886  1.00  0.00     0.167 HD
ATOM     59  C   UNL A   1      42.408  39.292  27.700  1.00  0.00     0.037 A 
ATOM     60  C   UNL A   1      48.791  36.400  28.619  1.00  0.00     0.037 A 
ATOM     61  C   UNL A   1      42.260  37.946  27.196  1.00  0.00     0.049 A 
ATOM     62  C   UNL A   1      47.908  36.389  27.421  1.00  0.00     0.074 A 
ATOM     63  C   UNL A   1      41.429  36.879  27.471  1.00  0.00     0.029 A 
ATOM     64  N   UNL A   1      43.335  37.440  26.507  1.00  0.00    -0.354 N 
ATOM     65  N   UNL A   1      47.113  35.401  27.109  1.00  0.00    -0.248 NA
ATOM     66  C   UNL A   1      47.581  37.664  26.795  1.00  0.00     0.031 C 
ATOM     67  C   UNL A   1      42.217  35.713  27.246  1.00  0.00     0.029 A 
ATOM     68  C   UNL A   1      43.479  36.110  26.798  1.00  0.00     0.049 A 
ATOM     69  H   UNL A   1      43.913  37.953  25.899  1.00  0.00     0.167 HD
ATOM     70  C   UNL A   1      45.970  36.004  26.603  1.00  0.00     0.074 A 
ATOM     71  C   UNL A   1      46.366  37.380  26.317  1.00  0.00     0.031 C 
ATOM     72  C   UNL A   1      44.749  35.411  26.748  1.00  0.00     0.037 A 
BRANCH  59  73
ATOM     73  C   UNL A   1      42.720  40.461  26.777  1.00  0.00     0.058 A 
ATOM     74  C   UNL A   1      41.691  40.937  25.939  1.00  0.00     0.135 A 
ATOM     75  C   UNL A   1      44.017  40.930  26.457  1.00  0.00     0.135 A 
ATOM     76  F   UNL A   1      40.414  40.581  26.155  1.00  0.00    -0.206 F 
ATOM     77  C   UNL A   1      41.945  41.714  24.808  1.00  0.00     0.059 A 
ATOM     78  C   UNL A   1      44.284  41.747  25.367  1.00  0.00     0.059 A 
ATOM     79  F   UNL A   1      45.119  40.565  27.119  1.00  0.00    -0.206 F 
ATOM     80  C   UNL A   1      43.251  42.091  24.519  1.00  0.00     0.060 A 
BRANCH  80  81
ATOM     81  S   UNL A   1      43.607  42.983  22.999  1.00  0.00     0.124 S 
ATOM     82  O   UNL A   1      42.802  44.185  23.175  1.00  0.00    -0.237 OA
ATOM     83  O   UNL A   1      45.054  43.157  23.086  1.00  0.00    -0.237 OA
ATOM     84  O   UNL A   1      43.155  42.065  21.957  1.00  0.00    -0.744 OA
ENDBRANCH  80  81
ENDBRANCH  59  73
BRANCH  60  85
ATOM     85  C   UNL A   1      50.233  36.764  28.550  1.00  0.00     0.058 A 
ATOM     86  C   UNL A   1      50.672  38.069  28.842  1.00  0.00     0.135 A 
ATOM     87  C   UNL A   1      51.240  35.780  28.462  1.00  0.00     0.135 A 
ATOM     88  F   UNL A   1      49.782  39.065  28.969  1.00  0.00    -0.206 F 
ATOM     89  C   UNL A   1      52.020  38.371  29.074  1.00  0.00     0.059 A 
ATOM     90  C   UNL A   1      52.589  36.059  28.676  1.00  0.00     0.059 A 
ATOM     91  F   UNL A   1      50.932  34.491  28.252  1.00  0.00    -0.206 F 
ATOM     92  C   UNL A   1      52.971  37.353  29.006  1.00  0.00     0.060 A 
BRANCH  92  93
ATOM     93  S   UNL A   1      54.687  37.702  29.456  1.00  0.00     0.124 S 
ATOM     94  O   UNL A   1      54.683  37.436  30.890  1.00  0.00    -0.237 OA
ATOM     95  O   UNL A   1      55.423  36.750  28.632  1.00  0.00    -0.237 OA
ATOM     96  O   UNL A   1      54.857  39.105  29.083  1.00  0.00    -0.744 OA
ENDBRANCH  92  93
ENDBRANCH  60  85
BRANCH  72  97
ATOM     97  C   UNL A   1      44.720  33.939  27.068  1.00  0.00     0.058 A 
ATOM     98  C   UNL A   1      44.811  33.395  28.361  1.00  0.00     0.135 A 
ATOM     99  C   UNL A   1      44.450  33.052  26.015  1.00  0.00     0.135 A 
ATOM    100  F   UNL A   1      44.971  34.187  29.432  1.00  0.00    -0.206 F 
ATOM    101  C   UNL A   1      44.674  32.024  28.591  1.00  0.00     0.059 A 
ATOM    102  C   UNL A   1      44.278  31.688  26.225  1.00  0.00     0.059 A 
ATOM    103  F   UNL A   1      44.296  33.519  24.766  1.00  0.00    -0.206 F 
ATOM    104  C   UNL A   1      44.405  31.178  27.514  1.00  0.00     0.060 A 
BRANCH 104 105
ATOM    105  S   UNL A   1      44.148  29.417  27.818  1.00  0.00     0.124 S 
ATOM    106  O   UNL A   1      45.415  29.020  28.424  1.00  0.00    -0.237 OA
ATOM    107  O   UNL A   1      42.991  29.413  28.708  1.00  0.00    -0.237 OA
ATOM    108  O   UNL A   1      43.897  28.872  26.485  1.00  0.00    -0.744 OA
ENDBRANCH 104 105
ENDBRANCH  72  97
ENDBRANCH  46  47
ENDBRANCH  39  41
ENDBRANCH  38  39
ENDBRANCH  37  38
ENDBRANCH  36  37
ENDBRANCH  35  36
ENDBRANCH  34  35
ENDBRANCH   1  34
TORSDOF 24
ENDMDL
MODEL 2
REMARK VINA RESULT:      -8.3      7.636     12.657
REMARK SMILES NS(=O)(=O)c1ccc(-n2nc(C(=O)OCCOCCOCCOC(=O)c3ccc(-c4c5nc(c(-c6c(F)cc(S(=O)(=O)[O-])cc6F)c6ccc([nH]6)c(-c6c(F)cc(S(=O)(=O)[O-])cc6F)c6nc(c(-c7c(F)cc(S(=O)(=O)[O-])cc7F)c7ccc4[nH]7)C=C6)C=C5)cc3)cc2-c2cc3ccccc3s2)cc1
REMARK SMILES IDX 18 1 17 2 16 3 15 4 14 5 12 6 13 7 11 8 9 9 10 10 93 11
REMARK SMILES IDX 92 12 8 13 5 14 6 15 104 16 7 17 103 18 2 19 3 20 4 21 1 22
REMARK SMILES IDX 94 25 95 26 102 27 96 28 101 29 97 30 100 31 98 32 99 33
REMARK SMILES IDX 19 34 20 35 21 36 22 37 23 38 24 39 25 40 26 41 27 42 91 43
REMARK SMILES IDX 28 44 90 45 29 46 30 47 31 48 84 49 32 50 89 51 83 52 85 53
REMARK SMILES IDX 33 54 88 55 82 56 81 57 34 59 68 60 47 61 67 62 48 63 51 64
REMARK SMILES IDX 66 65 86 66 49 67 50 68 65 70 87 71 52 72 35 73 36 74 45 75
REMARK SMILES IDX 37 76 38 77 44 78 46 79 39 80 40 81 41 82 42 83 43 84 69 85
REMARK SMILES IDX 70 86 79 87 71 88 72 89 78 90 80 91 73 92 74 93 75 94 76 95
REMARK SMILES IDX 77 96 53 97 54 98 63 99 55 100 56 101 62 102 64 103 57 104
REMARK SMILES IDX 58 105 59 106 60 107 61 108
REMARK H PARENT 1 23 1 24 85 58 51 69
REMARK Flexibility Score: inf
ROOT
ATOM      1  C   UNL A   1      36.519  32.675  31.136  1.00  0.00     0.188 C 
ENDROOT
BRANCH   1   2
ATOM      2  O   UNL A   1      37.448  32.870  30.076  1.00  0.00    -0.376 OA
BRANCH   2   3
ATOM      3  C   UNL A   1      37.444  32.025  28.936  1.00  0.00     0.202 C 
BRANCH   3   4
ATOM      4  C   UNL A   1      36.473  30.833  28.844  1.00  0.00     0.261 C 
BRANCH   4   5
ATOM      5  O   UNL A   1      35.816  30.675  27.583  1.00  0.00    -0.458 OA
BRANCH   5   6
ATOM      6  C   UNL A   1      34.467  30.894  27.555  1.00  0.00     0.358 C 
ATOM      7  O   UNL A   1      33.914  31.859  28.067  1.00  0.00    -0.244 OA
BRANCH   6   8
ATOM      8  C   UNL A   1      33.770  29.832  26.814  1.00  0.00     0.171 A 
ATOM      9  N   UNL A   1      33.256  27.886  26.082  1.00  0.00    -0.231 N 
ATOM     10  N   UNL A   1      33.759  28.535  27.168  1.00  0.00    -0.160 NA
ATOM     11  C   UNL A   1      32.965  28.763  25.062  1.00  0.00     0.085 A 
ATOM     12  C   UNL A   1      32.998  30.013  25.651  1.00  0.00     0.068 A 
BRANCH   9  13
ATOM     13  C   UNL A   1      33.198  26.480  26.099  1.00  0.00     0.065 A 
ATOM     14  C   UNL A   1      33.058  23.719  25.949  1.00  0.00     0.082 A 
ATOM     15  C   UNL A   1      31.961  24.447  26.427  1.00  0.00     0.024 A 
ATOM     16  C   UNL A   1      34.236  24.363  25.557  1.00  0.00     0.024 A 
ATOM     17  C   UNL A   1      32.038  25.834  26.528  1.00  0.00     0.030 A 
ATOM     18  C   UNL A   1      34.293  25.756  25.599  1.00  0.00     0.030 A 
BRANCH  14  19
ATOM     19  S   UNL A   1      32.964  21.958  25.847  1.00  0.00     0.238 S 
ATOM     20  O   UNL A   1      34.094  21.452  25.129  1.00  0.00    -0.207 OA
ATOM     21  O   UNL A   1      31.592  21.592  25.530  1.00  0.00    -0.207 OA
BRANCH  19  22
ATOM     22  N   UNL A   1      33.201  21.472  27.441  1.00  0.00    -0.225 NA
ATOM     23  H   UNL A   1      32.728  20.582  27.600  1.00  0.00     0.137 HD
ATOM     24  H   UNL A   1      32.821  22.177  28.073  1.00  0.00     0.137 HD
ENDBRANCH  19  22
ENDBRANCH  14  19
ENDBRANCH   9  13
BRANCH  11  25
ATOM     25  C   UNL A   1      32.847  28.556  23.640  1.00  0.00     0.054 A 
ATOM     26  C   UNL A   1      33.119  27.382  22.940  1.00  0.00     0.031 A 
ATOM     27  S   UNL A   1      31.317  29.092  22.959  1.00  0.00    -0.134 S 
ATOM     28  C   UNL A   1      31.880  26.610  22.935  1.00  0.00    -0.007 A 
ATOM     29  C   UNL A   1      30.781  27.450  23.173  1.00  0.00     0.035 A 
ATOM     30  C   UNL A   1      31.656  25.217  22.914  1.00  0.00     0.009 A 
ATOM     31  C   UNL A   1      29.528  26.962  23.573  1.00  0.00     0.019 A 
ATOM     32  C   UNL A   1      30.415  24.718  23.333  1.00  0.00     0.001 A 
ATOM     33  C   UNL A   1      29.386  25.580  23.705  1.00  0.00     0.001 A 
ENDBRANCH  11  25
ENDBRANCH   6   8
ENDBRANCH   5   6
ENDBRANCH   4   5
ENDBRANCH   3   4
ENDBRANCH   2   3
ENDBRANCH   1   2
BRANCH   1  34
ATOM     34  C   UNL A   1      36.982  32.666  32.613  1.00  0.00     0.188 C 
BRANCH  34  35
ATOM     35  O   UNL A   1      36.963  31.396  33.236  1.00  0.00    -0.376 OA
BRANCH  35  36
ATOM     36  C   UNL A   1      37.327  30.240  32.493  1.00  0.00     0.202 C 
BRANCH  36  37
ATOM     37  C   UNL A   1      38.698  29.590  32.683  1.00  0.00     0.261 C 
BRANCH  37  38
ATOM     38  O   UNL A   1      39.641  30.385  33.370  1.00  0.00    -0.460 OA
BRANCH  38  39
ATOM     39  C   UNL A   1      39.897  29.996  34.634  1.00  0.00     0.338 C 
ATOM     40  O   UNL A   1      39.134  30.025  35.583  1.00  0.00    -0.246 OA
BRANCH  39  41
ATOM     41  C   UNL A   1      41.283  29.530  34.678  1.00  0.00     0.060 A 
ATOM     42  C   UNL A   1      42.279  30.508  34.622  1.00  0.00     0.016 A 
ATOM     43  C   UNL A   1      41.517  28.184  34.374  1.00  0.00     0.016 A 
ATOM     44  C   UNL A   1      43.429  30.197  33.944  1.00  0.00     0.010 A 
ATOM     45  C   UNL A   1      42.636  27.890  33.654  1.00  0.00     0.010 A 
ATOM     46  C   UNL A   1      43.513  28.932  33.358  1.00  0.00    -0.014 A 
BRANCH  46  47
ATOM     47  C   UNL A   1      44.555  28.691  32.392  1.00  0.00     0.031 A 
ATOM     48  C   UNL A   1      45.877  28.573  33.031  1.00  0.00     0.074 A 
ATOM     49  C   UNL A   1      44.242  28.452  31.104  1.00  0.00     0.049 A 
ATOM     50  N   UNL A   1      46.851  29.419  33.005  1.00  0.00    -0.248 NA
ATOM     51  C   UNL A   1      46.039  27.503  34.034  1.00  0.00     0.031 C 
ATOM     52  C   UNL A   1      42.902  28.261  30.529  1.00  0.00     0.029 A 
ATOM     53  N   UNL A   1      45.058  28.200  30.050  1.00  0.00    -0.354 N 
ATOM     54  C   UNL A   1      47.848  28.821  33.768  1.00  0.00     0.074 A 
ATOM     55  C   UNL A   1      47.191  27.857  34.600  1.00  0.00     0.031 C 
ATOM     56  C   UNL A   1      43.019  27.694  29.307  1.00  0.00     0.029 A 
ATOM     57  C   UNL A   1      44.427  27.593  28.970  1.00  0.00     0.049 A 
ATOM     58  H   UNL A   1      46.016  28.427  30.050  1.00  0.00     0.167 HD
ATOM     59  C   UNL A   1      49.148  28.878  33.370  1.00  0.00     0.037 A 
ATOM     60  C   UNL A   1      45.050  26.967  27.938  1.00  0.00     0.037 A 
ATOM     61  C   UNL A   1      49.333  29.934  32.402  1.00  0.00     0.049 A 
ATOM     62  C   UNL A   1      46.463  27.434  27.942  1.00  0.00     0.074 A 
ATOM     63  C   UNL A   1      49.175  31.305  32.401  1.00  0.00     0.029 A 
ATOM     64  N   UNL A   1      49.381  29.543  31.086  1.00  0.00    -0.354 N 
ATOM     65  N   UNL A   1      46.827  28.663  27.696  1.00  0.00    -0.248 NA
ATOM     66  C   UNL A   1      47.451  26.629  28.648  1.00  0.00     0.031 C 
ATOM     67  C   UNL A   1      48.775  31.643  31.075  1.00  0.00     0.029 A 
ATOM     68  C   UNL A   1      48.750  30.476  30.308  1.00  0.00     0.049 A 
ATOM     69  H   UNL A   1      49.805  28.720  30.753  1.00  0.00     0.167 HD
ATOM     70  C   UNL A   1      47.882  28.908  28.564  1.00  0.00     0.074 A 
ATOM     71  C   UNL A   1      48.300  27.588  29.027  1.00  0.00     0.031 C 
ATOM     72  C   UNL A   1      48.111  30.166  29.044  1.00  0.00     0.037 A 
BRANCH  59  73
ATOM     73  C   UNL A   1      50.112  27.706  33.466  1.00  0.00     0.058 A 
ATOM     74  C   UNL A   1      51.358  27.920  34.093  1.00  0.00     0.135 A 
ATOM     75  C   UNL A   1      50.013  26.498  32.733  1.00  0.00     0.135 A 
ATOM     76  F   UNL A   1      51.568  29.019  34.836  1.00  0.00    -0.206 F 
ATOM     77  C   UNL A   1      52.448  27.070  33.905  1.00  0.00     0.059 A 
ATOM     78  C   UNL A   1      51.070  25.613  32.577  1.00  0.00     0.059 A 
ATOM     79  F   UNL A   1      48.924  26.137  32.048  1.00  0.00    -0.206 F 
ATOM     80  C   UNL A   1      52.298  25.931  33.122  1.00  0.00     0.060 A 
BRANCH  80  81
ATOM     81  S   UNL A   1      53.724  24.896  32.768  1.00  0.00     0.124 S 
ATOM     82  O   UNL A   1      54.571  25.168  33.923  1.00  0.00    -0.237 OA
ATOM     83  O   UNL A   1      53.123  23.568  32.708  1.00  0.00    -0.237 OA
ATOM     84  O   UNL A   1      54.208  25.417  31.492  1.00  0.00    -0.744 OA
ENDBRANCH  80  81
ENDBRANCH  59  73
BRANCH  60  85
ATOM     85  C   UNL A   1      44.610  25.745  27.211  1.00  0.00     0.058 A 
ATOM     86  C   UNL A   1      44.464  25.740  25.812  1.00  0.00     0.135 A 
ATOM     87  C   UNL A   1      44.585  24.482  27.838  1.00  0.00     0.135 A 
ATOM     88  F   UNL A   1      44.500  26.894  25.128  1.00  0.00    -0.206 F 
ATOM     89  C   UNL A   1      44.344  24.555  25.076  1.00  0.00     0.059 A 
ATOM     90  C   UNL A   1      44.454  23.289  27.128  1.00  0.00     0.059 A 
ATOM     91  F   UNL A   1      44.779  24.360  29.160  1.00  0.00    -0.206 F 
ATOM     92  C   UNL A   1      44.358  23.330  25.743  1.00  0.00     0.060 A 
BRANCH  92  93
ATOM     93  S   UNL A   1      44.361  21.793  24.791  1.00  0.00     0.124 S 
ATOM     94  O   UNL A   1      43.112  21.171  25.217  1.00  0.00    -0.237 OA
ATOM     95  O   UNL A   1      44.395  22.279  23.417  1.00  0.00    -0.237 OA
ATOM     96  O   UNL A   1      45.577  21.118  25.240  1.00  0.00    -0.744 OA
ENDBRANCH  92  93
ENDBRANCH  60  85
BRANCH  72  97
ATOM     97  C   UNL A   1      47.490  31.321  28.302  1.00  0.00     0.058 A 
ATOM     98  C   UNL A   1      48.075  31.981  27.207  1.00  0.00     0.135 A 
ATOM     99  C   UNL A   1      46.177  31.679  28.641  1.00  0.00     0.135 A 
ATOM    100  F   UNL A   1      49.289  31.631  26.759  1.00  0.00    -0.206 F 
ATOM    101  C   UNL A   1      47.394  32.978  26.504  1.00  0.00     0.059 A 
ATOM    102  C   UNL A   1      45.469  32.645  27.936  1.00  0.00     0.059 A 
ATOM    103  F   UNL A   1      45.546  31.043  29.641  1.00  0.00    -0.206 F 
ATOM    104  C   UNL A   1      46.088  33.301  26.876  1.00  0.00     0.060 A 
BRANCH 104 105
ATOM    105  S   UNL A   1      45.177  34.532  25.919  1.00  0.00     0.124 S 
ATOM    106  O   UNL A   1      44.001  34.760  26.752  1.00  0.00    -0.237 OA
ATOM    107  O   UNL A   1      46.124  35.640  25.843  1.00  0.00    -0.237 OA
ATOM    108  O   UNL A   1      44.920  33.858  24.648  1.00  0.00    -0.744 OA
ENDBRANCH 104 105
ENDBRANCH  72  97
ENDBRANCH  46  47
ENDBRANCH  39  41
ENDBRANCH  38  39
ENDBRANCH  37  38
ENDBRANCH  36  37
ENDBRANCH  35  36
ENDBRANCH  34  35
ENDBRANCH   1  34
TORSDOF 24
ENDMDL
MODEL 3
REMARK VINA RESULT:      -8.1      6.381     10.675
REMARK SMILES NS(=O)(=O)c1ccc(-n2nc(C(=O)OCCOCCOCCOC(=O)c3ccc(-c4c5nc(c(-c6c(F)cc(S(=O)(=O)[O-])cc6F)c6ccc([nH]6)c(-c6c(F)cc(S(=O)(=O)[O-])cc6F)c6nc(c(-c7c(F)cc(S(=O)(=O)[O-])cc7F)c7ccc4[nH]7)C=C6)C=C5)cc3)cc2-c2cc3ccccc3s2)cc1
REMARK SMILES IDX 18 1 17 2 16 3 15 4 14 5 12 6 13 7 11 8 9 9 10 10 93 11
REMARK SMILES IDX 92 12 8 13 5 14 6 15 104 16 7 17 103 18 2 19 3 20 4 21 1 22
REMARK SMILES IDX 94 25 95 26 102 27 96 28 101 29 97 30 100 31 98 32 99 33
REMARK SMILES IDX 19 34 20 35 21 36 22 37 23 38 24 39 25 40 26 41 27 42 91 43
REMARK SMILES IDX 28 44 90 45 29 46 30 47 31 48 84 49 32 50 89 51 83 52 85 53
REMARK SMILES IDX 33 54 88 55 82 56 81 57 34 59 68 60 47 61 67 62 48 63 51 64
REMARK SMILES IDX 66 65 86 66 49 67 50 68 65 70 87 71 52 72 35 73 36 74 45 75
REMARK SMILES IDX 37 76 38 77 44 78 46 79 39 80 40 81 41 82 42 83 43 84 69 85
REMARK SMILES IDX 70 86 79 87 71 88 72 89 78 90 80 91 73 92 74 93 75 94 76 95
REMARK SMILES IDX 77 96 53 97 54 98 63 99 55 100 56 101 62 102 64 103 57 104
REMARK SMILES IDX 58 105 59 106 60 107 61 108
REMARK H PARENT 1 23 1 24 85 58 51 69
REMARK Flexibility Score: inf
ROOT
ATOM      1  C   UNL A   1      46.140  32.678  32.015  1.00  0.00     0.188 C 
ENDROOT
BRANCH   1   2
ATOM      2  O   UNL A   1      45.290  31.958  32.900  1.00  0.00    -0.376 OA
BRANCH   2   3
ATOM      3  C   UNL A   1      44.459  32.637  33.829  1.00  0.00     0.202 C 
BRANCH   3   4
ATOM      4  C   UNL A   1      43.116  32.030  34.273  1.00  0.00     0.261 C 
BRANCH   4   5
ATOM      5  O   UNL A   1      41.986  32.395  33.474  1.00  0.00    -0.458 OA
BRANCH   5   6
ATOM      6  C   UNL A   1      40.955  33.027  34.112  1.00  0.00     0.358 C 
ATOM      7  O   UNL A   1      41.070  33.651  35.160  1.00  0.00    -0.244 OA
BRANCH   6   8
ATOM      8  C   UNL A   1      39.696  32.877  33.367  1.00  0.00     0.171 A 
ATOM      9  N   UNL A   1      37.683  33.216  32.718  1.00  0.00    -0.231 N 
ATOM     10  N   UNL A   1      38.783  33.852  33.206  1.00  0.00    -0.160 NA
ATOM     11  C   UNL A   1      37.901  31.864  32.583  1.00  0.00     0.085 A 
ATOM     12  C   UNL A   1      39.271  31.715  32.697  1.00  0.00     0.068 A 
BRANCH   9  13
ATOM     13  C   UNL A   1      36.503  33.957  32.523  1.00  0.00     0.065 A 
ATOM     14  C   UNL A   1      34.087  35.278  32.221  1.00  0.00     0.082 A 
ATOM     15  C   UNL A   1      34.672  34.635  31.122  1.00  0.00     0.024 A 
ATOM     16  C   UNL A   1      34.712  35.278  33.472  1.00  0.00     0.024 A 
ATOM     17  C   UNL A   1      35.900  33.992  31.265  1.00  0.00     0.030 A 
ATOM     18  C   UNL A   1      35.911  34.583  33.632  1.00  0.00     0.030 A 
BRANCH  14  19
ATOM     19  S   UNL A   1      32.543  36.113  32.027  1.00  0.00     0.238 S 
ATOM     20  O   UNL A   1      32.674  37.477  32.442  1.00  0.00    -0.207 OA
ATOM     21  O   UNL A   1      31.486  35.235  32.504  1.00  0.00    -0.207 OA
BRANCH  19  22
ATOM     22  N   UNL A   1      32.353  36.178  30.356  1.00  0.00    -0.225 NA
ATOM     23  H   UNL A   1      31.417  35.858  30.107  1.00  0.00     0.137 HD
ATOM     24  H   UNL A   1      33.047  35.578  29.910  1.00  0.00     0.137 HD
ENDBRANCH  19  22
ENDBRANCH  14  19
ENDBRANCH   9  13
BRANCH  11  25
ATOM     25  C   UNL A   1      36.980  30.755  32.543  1.00  0.00     0.054 A 
ATOM     26  C   UNL A   1      35.988  30.527  31.592  1.00  0.00     0.031 A 
ATOM     27  S   UNL A   1      37.742  29.181  32.725  1.00  0.00    -0.134 S 
ATOM     28  C   UNL A   1      36.615  29.762  30.518  1.00  0.00    -0.007 A 
ATOM     29  C   UNL A   1      37.776  29.127  30.985  1.00  0.00     0.035 A 
ATOM     30  C   UNL A   1      36.351  29.722  29.132  1.00  0.00     0.009 A 
ATOM     31  C   UNL A   1      38.763  28.627  30.124  1.00  0.00     0.019 A 
ATOM     32  C   UNL A   1      37.340  29.246  28.262  1.00  0.00     0.001 A 
ATOM     33  C   UNL A   1      38.547  28.753  28.751  1.00  0.00     0.001 A 
ENDBRANCH  11  25
ENDBRANCH   6   8
ENDBRANCH   5   6
ENDBRANCH   4   5
ENDBRANCH   3   4
ENDBRANCH   2   3
ENDBRANCH   1   2
BRANCH   1  34
ATOM     34  C   UNL A   1      46.790  34.016  32.442  1.00  0.00     0.188 C 
BRANCH  34  35
ATOM     35  O   UNL A   1      46.345  35.151  31.724  1.00  0.00    -0.376 OA
BRANCH  35  36
ATOM     36  C   UNL A   1      45.073  35.130  31.088  1.00  0.00     0.202 C 
BRANCH  36  37
ATOM     37  C   UNL A   1      44.902  35.670  29.667  1.00  0.00     0.261 C 
BRANCH  37  38
ATOM     38  O   UNL A   1      43.986  34.951  28.868  1.00  0.00    -0.460 OA
BRANCH  38  39
ATOM     39  C   UNL A   1      44.406  34.697  27.613  1.00  0.00     0.338 C 
ATOM     40  O   UNL A   1      44.889  35.489  26.823  1.00  0.00    -0.246 OA
BRANCH  39  41
ATOM     41  C   UNL A   1      44.170  33.278  27.349  1.00  0.00     0.060 A 
ATOM     42  C   UNL A   1      43.849  32.477  28.447  1.00  0.00     0.016 A 
ATOM     43  C   UNL A   1      44.660  32.760  26.144  1.00  0.00     0.016 A 
ATOM     44  C   UNL A   1      44.329  31.193  28.452  1.00  0.00     0.010 A 
ATOM     45  C   UNL A   1      45.182  31.502  26.170  1.00  0.00     0.010 A 
ATOM     46  C   UNL A   1      45.104  30.788  27.364  1.00  0.00    -0.014 A 
BRANCH  46  47
ATOM     47  C   UNL A   1      45.869  29.572  27.482  1.00  0.00     0.031 A 
ATOM     48  C   UNL A   1      45.017  28.376  27.374  1.00  0.00     0.074 A 
ATOM     49  C   UNL A   1      47.215  29.620  27.519  1.00  0.00     0.049 A 
ATOM     50  N   UNL A   1      44.669  27.560  28.311  1.00  0.00    -0.248 NA
ATOM     51  C   UNL A   1      44.248  28.216  26.125  1.00  0.00     0.031 C 
ATOM     52  C   UNL A   1      48.074  30.795  27.312  1.00  0.00     0.029 A 
ATOM     53  N   UNL A   1      48.112  28.608  27.620  1.00  0.00    -0.354 N 
ATOM     54  C   UNL A   1      43.863  26.623  27.672  1.00  0.00     0.074 A 
ATOM     55  C   UNL A   1      43.400  27.249  26.469  1.00  0.00     0.031 C 
ATOM     56  C   UNL A   1      49.339  30.384  27.066  1.00  0.00     0.029 A 
ATOM     57  C   UNL A   1      49.399  28.941  27.214  1.00  0.00     0.049 A 
ATOM     58  H   UNL A   1      47.872  27.712  27.952  1.00  0.00     0.167 HD
ATOM     59  C   UNL A   1      43.971  25.301  27.974  1.00  0.00     0.037 A 
ATOM     60  C   UNL A   1      50.393  28.061  26.928  1.00  0.00     0.037 A 
ATOM     61  C   UNL A   1      44.639  25.127  29.243  1.00  0.00     0.049 A 
ATOM     62  C   UNL A   1      50.007  26.762  27.543  1.00  0.00     0.074 A 
ATOM     63  C   UNL A   1      44.385  25.500  30.547  1.00  0.00     0.029 A 
ATOM     64  N   UNL A   1      45.970  24.794  29.182  1.00  0.00    -0.354 N 
ATOM     65  N   UNL A   1      49.912  26.563  28.830  1.00  0.00    -0.248 NA
ATOM     66  C   UNL A   1      49.301  25.791  26.717  1.00  0.00     0.031 C 
ATOM     67  C   UNL A   1      45.664  25.718  31.138  1.00  0.00     0.029 A 
ATOM     68  C   UNL A   1      46.647  25.426  30.190  1.00  0.00     0.049 A 
ATOM     69  H   UNL A   1      46.376  24.194  28.516  1.00  0.00     0.167 HD
ATOM     70  C   UNL A   1      48.819  25.723  28.986  1.00  0.00     0.074 A 
ATOM     71  C   UNL A   1      48.567  25.183  27.653  1.00  0.00     0.031 C 
ATOM     72  C   UNL A   1      48.050  25.783  30.114  1.00  0.00     0.037 A 
BRANCH  59  73
ATOM     73  C   UNL A   1      43.930  24.192  26.934  1.00  0.00     0.058 A 
ATOM     74  C   UNL A   1      43.036  23.121  27.141  1.00  0.00     0.135 A 
ATOM     75  C   UNL A   1      44.904  23.971  25.930  1.00  0.00     0.135 A 
ATOM     76  F   UNL A   1      42.053  23.218  28.052  1.00  0.00    -0.206 F 
ATOM     77  C   UNL A   1      43.175  21.893  26.494  1.00  0.00     0.059 A 
ATOM     78  C   UNL A   1      45.026  22.775  25.237  1.00  0.00     0.059 A 
ATOM     79  F   UNL A   1      45.853  24.858  25.614  1.00  0.00    -0.206 F 
ATOM     80  C   UNL A   1      44.192  21.724  25.561  1.00  0.00     0.060 A 
BRANCH  80  81
ATOM     81  S   UNL A   1      44.461  20.111  24.814  1.00  0.00     0.124 S 
ATOM     82  O   UNL A   1      45.711  19.707  25.446  1.00  0.00    -0.237 OA
ATOM     83  O   UNL A   1      43.264  19.386  25.230  1.00  0.00    -0.237 OA
ATOM     84  O   UNL A   1      44.540  20.411  23.387  1.00  0.00    -0.744 OA
ENDBRANCH  80  81
ENDBRANCH  59  73
BRANCH  60  85
ATOM     85  C   UNL A   1      51.433  28.169  25.868  1.00  0.00     0.058 A 
ATOM     86  C   UNL A   1      52.803  28.146  26.184  1.00  0.00     0.135 A 
ATOM     87  C   UNL A   1      51.113  28.026  24.502  1.00  0.00     0.135 A 
ATOM     88  F   UNL A   1      53.201  28.251  27.461  1.00  0.00    -0.206 F 
ATOM     89  C   UNL A   1      53.792  27.949  25.212  1.00  0.00     0.059 A 
ATOM     90  C   UNL A   1      52.080  27.841  23.515  1.00  0.00     0.059 A 
ATOM     91  F   UNL A   1      49.837  27.969  24.091  1.00  0.00    -0.206 F 
ATOM     92  C   UNL A   1      53.419  27.780  23.880  1.00  0.00     0.060 A 
BRANCH  92  93
ATOM     93  S   UNL A   1      54.674  27.370  22.644  1.00  0.00     0.124 S 
ATOM     94  O   UNL A   1      53.952  26.447  21.775  1.00  0.00    -0.237 OA
ATOM     95  O   UNL A   1      54.983  28.675  22.072  1.00  0.00    -0.237 OA
ATOM     96  O   UNL A   1      55.746  26.770  23.435  1.00  0.00    -0.744 OA
ENDBRANCH  92  93
ENDBRANCH  60  85
BRANCH  72  97
ATOM     97  C   UNL A   1      48.643  26.447  31.329  1.00  0.00     0.058 A 
ATOM     98  C   UNL A   1      48.396  27.773  31.723  1.00  0.00     0.135 A 
ATOM     99  C   UNL A   1      49.391  25.645  32.205  1.00  0.00     0.135 A 
ATOM    100  F   UNL A   1      47.612  28.575  30.988  1.00  0.00    -0.206 F 
ATOM    101  C   UNL A   1      48.901  28.289  32.919  1.00  0.00     0.059 A 
ATOM    102  C   UNL A   1      49.875  26.128  33.416  1.00  0.00     0.059 A 
ATOM    103  F   UNL A   1      49.611  24.354  31.911  1.00  0.00    -0.206 F 
ATOM    104  C   UNL A   1      49.638  27.455  33.761  1.00  0.00     0.060 A 
BRANCH 104 105
ATOM    105  S   UNL A   1      50.224  28.095  35.345  1.00  0.00     0.124 S 
ATOM    106  O   UNL A   1      50.582  29.469  35.009  1.00  0.00    -0.237 OA
ATOM    107  O   UNL A   1      49.054  27.936  36.204  1.00  0.00    -0.237 OA
ATOM    108  O   UNL A   1      51.348  27.220  35.673  1.00  0.00    -0.744 OA
ENDBRANCH 104 105
ENDBRANCH  72  97
ENDBRANCH  46  47
ENDBRANCH  39  41
ENDBRANCH  38  39
ENDBRANCH  37  38
ENDBRANCH  36  37
ENDBRANCH  35  36
ENDBRANCH  34  35
ENDBRANCH   1  34
TORSDOF 24
ENDMDL
