MODEL 1
REMARK VINA RESULT:      -9.7      0.000      0.000
REMARK SMILES CCCN1C(=O)CO[C@H](C(=O)OCCOCCOCCOC(=O)c2ccc(-c3c4nc(c(-c5c(F)cc(S(=O)(=O)[O-])cc5F)c5ccc([nH]5)c(-c5c(F)cc(S(=O)(=O)[O-])cc5F)c5nc(c(-c6c(F)cc(S(=O)(=O)[O-])cc6F)c6ccc3[nH]6)C=C5)C=C4)cc2)[C@@H]1c1cncn1C1CC1
REMARK SMILES IDX 17 1 16 2 15 3 14 4 13 5 12 6 10 7 11 8 9 9 4 10 5 11 90 12
REMARK SMILES IDX 6 13 7 14 8 15 3 16 2 17 1 18 91 19 92 20 95 21 93 22 94 23
REMARK SMILES IDX 96 24 97 25 98 26 18 27 19 28 20 29 21 30 22 31 23 32 24 33
REMARK SMILES IDX 25 34 89 35 26 36 88 37 27 38 28 39 29 40 82 41 30 42 87 43
REMARK SMILES IDX 81 44 83 45 31 46 86 47 80 48 79 49 32 51 66 52 45 53 65 54
REMARK SMILES IDX 46 55 49 56 64 57 84 58 47 59 48 60 63 62 85 63 50 64 33 65
REMARK SMILES IDX 34 66 43 67 35 68 36 69 42 70 44 71 37 72 38 73 39 74 40 75
REMARK SMILES IDX 41 76 67 77 68 78 77 79 69 80 70 81 76 82 78 83 71 84 72 85
REMARK SMILES IDX 73 86 74 87 75 88 51 89 52 90 61 91 53 92 54 93 60 94 62 95
REMARK SMILES IDX 55 96 56 97 57 98 58 99 59 100
REMARK H PARENT 83 50 49 61
REMARK Flexibility Score: inf
ROOT
ATOM      1  C   UNL A   1      38.909  21.165  25.454  1.00  0.00     0.188 C 
ENDROOT
BRANCH   1   2
ATOM      2  C   UNL A   1      37.712  20.300  25.018  1.00  0.00     0.188 C 
BRANCH   2   3
ATOM      3  O   UNL A   1      36.403  20.849  25.077  1.00  0.00    -0.376 OA
BRANCH   3   4
ATOM      4  C   UNL A   1      36.093  21.809  26.082  1.00  0.00     0.202 C 
BRANCH   4   5
ATOM      5  C   UNL A   1      34.750  22.558  26.054  1.00  0.00     0.261 C 
BRANCH   5   6
ATOM      6  O   UNL A   1      34.762  23.784  25.302  1.00  0.00    -0.461 OA
BRANCH   6   7
ATOM      7  C   UNL A   1      33.933  23.842  24.230  1.00  0.00     0.337 C 
ATOM      8  O   UNL A   1      33.349  22.880  23.740  1.00  0.00    -0.249 OA
BRANCH   7   9
ATOM      9  C   UNL A   1      33.773  25.260  23.660  1.00  0.00     0.257 C 
ATOM     10  N   UNL A   1      33.319  27.642  24.281  1.00  0.00    -0.329 N 
ATOM     11  C   UNL A   1      33.683  27.883  22.946  1.00  0.00     0.249 C 
ATOM     12  C   UNL A   1      33.256  26.235  24.740  1.00  0.00     0.174 C 
ATOM     13  O   UNL A   1      34.216  28.913  22.539  1.00  0.00    -0.272 OA
ATOM     14  C   UNL A   1      33.380  26.752  21.945  1.00  0.00     0.261 C 
ATOM     15  O   UNL A   1      32.992  25.504  22.500  1.00  0.00    -0.354 OA
BRANCH  10  16
ATOM     16  C   UNL A   1      33.492  28.670  25.320  1.00  0.00     0.120 C 
BRANCH  16  17
ATOM     17  C   UNL A   1      32.261  29.337  25.963  1.00  0.00     0.018 C 
ATOM     18  C   UNL A   1      32.510  30.394  27.031  1.00  0.00     0.006 C 
ENDBRANCH  16  17
ENDBRANCH  10  16
BRANCH  12  19
ATOM     19  C   UNL A   1      31.972  25.732  25.380  1.00  0.00     0.064 A 
ATOM     20  C   UNL A   1      31.959  25.225  26.688  1.00  0.00     0.136 A 
ATOM     21  N   UNL A   1      30.687  25.435  24.944  1.00  0.00    -0.330 N 
ATOM     22  N   UNL A   1      30.825  24.539  26.988  1.00  0.00    -0.245 NA
ATOM     23  C   UNL A   1      30.098  24.649  25.908  1.00  0.00     0.199 A 
BRANCH  21  24
ATOM     24  C   UNL A   1      29.839  25.848  23.845  1.00  0.00     0.088 C 
ATOM     25  C   UNL A   1      28.519  26.539  23.984  1.00  0.00     0.027 C 
ATOM     26  C   UNL A   1      29.656  27.259  23.349  1.00  0.00     0.027 C 
ENDBRANCH  21  24
ENDBRANCH  12  19
ENDBRANCH   7   9
ENDBRANCH   6   7
ENDBRANCH   5   6
ENDBRANCH   4   5
ENDBRANCH   3   4
ENDBRANCH   2   3
ENDBRANCH   1   2
BRANCH   1  27
ATOM     27  O   UNL A   1      39.902  20.493  26.185  1.00  0.00    -0.376 OA
BRANCH  27  28
ATOM     28  C   UNL A   1      41.007  21.227  26.672  1.00  0.00     0.202 C 
BRANCH  28  29
ATOM     29  C   UNL A   1      40.934  22.249  27.829  1.00  0.00     0.261 C 
BRANCH  29  30
ATOM     30  O   UNL A   1      41.553  23.531  27.661  1.00  0.00    -0.460 OA
BRANCH  30  31
ATOM     31  C   UNL A   1      40.808  24.500  27.067  1.00  0.00     0.338 C 
ATOM     32  O   UNL A   1      40.210  24.417  26.014  1.00  0.00    -0.246 OA
BRANCH  31  33
ATOM     33  C   UNL A   1      40.646  25.610  28.041  1.00  0.00     0.060 A 
ATOM     34  C   UNL A   1      41.718  26.492  28.251  1.00  0.00     0.016 A 
ATOM     35  C   UNL A   1      39.446  25.784  28.729  1.00  0.00     0.016 A 
ATOM     36  C   UNL A   1      41.597  27.538  29.169  1.00  0.00     0.010 A 
ATOM     37  C   UNL A   1      39.338  26.815  29.668  1.00  0.00     0.010 A 
ATOM     38  C   UNL A   1      40.421  27.678  29.916  1.00  0.00    -0.014 A 
BRANCH  38  39
ATOM     39  C   UNL A   1      40.387  28.583  31.093  1.00  0.00     0.031 A 
ATOM     40  C   UNL A   1      39.403  29.721  31.086  1.00  0.00     0.074 A 
ATOM     41  C   UNL A   1      41.213  28.416  32.142  1.00  0.00     0.049 A 
ATOM     42  N   UNL A   1      39.246  30.694  31.945  1.00  0.00    -0.248 NA
ATOM     43  C   UNL A   1      38.476  29.769  29.943  1.00  0.00     0.031 C 
ATOM     44  C   UNL A   1      42.184  27.335  32.288  1.00  0.00     0.029 A 
ATOM     45  N   UNL A   1      41.377  29.176  33.275  1.00  0.00    -0.354 N 
ATOM     46  C   UNL A   1      38.214  31.478  31.441  1.00  0.00     0.074 A 
ATOM     47  C   UNL A   1      37.807  30.885  30.186  1.00  0.00     0.031 C 
ATOM     48  C   UNL A   1      42.863  27.515  33.435  1.00  0.00     0.029 A 
ATOM     49  C   UNL A   1      42.400  28.743  34.084  1.00  0.00     0.049 A 
ATOM     50  H   UNL A   1      40.815  29.956  33.486  1.00  0.00     0.167 HD
ATOM     51  C   UNL A   1      37.653  32.588  31.977  1.00  0.00     0.037 A 
ATOM     52  C   UNL A   1      42.924  29.292  35.199  1.00  0.00     0.037 A 
ATOM     53  C   UNL A   1      38.075  33.184  33.219  1.00  0.00     0.049 A 
ATOM     54  C   UNL A   1      42.335  30.567  35.748  1.00  0.00     0.074 A 
ATOM     55  C   UNL A   1      37.560  34.298  33.857  1.00  0.00     0.029 A 
ATOM     56  N   UNL A   1      39.124  32.724  34.003  1.00  0.00    -0.354 N 
ATOM     57  N   UNL A   1      41.342  31.287  35.280  1.00  0.00    -0.248 NA
ATOM     58  C   UNL A   1      42.934  31.103  36.979  1.00  0.00     0.031 C 
ATOM     59  C   UNL A   1      38.338  34.549  34.992  1.00  0.00     0.029 A 
ATOM     60  C   UNL A   1      39.293  33.551  35.102  1.00  0.00     0.049 A 
ATOM     61  H   UNL A   1      39.668  31.927  33.806  1.00  0.00     0.167 HD
ATOM     62  C   UNL A   1      41.181  32.345  36.171  1.00  0.00     0.074 A 
ATOM     63  C   UNL A   1      42.174  32.165  37.211  1.00  0.00     0.031 C 
ATOM     64  C   UNL A   1      40.289  33.367  36.133  1.00  0.00     0.037 A 
BRANCH  51  65
ATOM     65  C   UNL A   1      36.556  33.253  31.189  1.00  0.00     0.058 A 
ATOM     66  C   UNL A   1      36.821  34.002  30.030  1.00  0.00     0.135 A 
ATOM     67  C   UNL A   1      35.220  33.154  31.609  1.00  0.00     0.135 A 
ATOM     68  F   UNL A   1      38.081  34.146  29.589  1.00  0.00    -0.206 F 
ATOM     69  C   UNL A   1      35.809  34.671  29.348  1.00  0.00     0.059 A 
ATOM     70  C   UNL A   1      34.187  33.785  30.922  1.00  0.00     0.059 A 
ATOM     71  F   UNL A   1      34.907  32.450  32.708  1.00  0.00    -0.206 F 
ATOM     72  C   UNL A   1      34.495  34.562  29.807  1.00  0.00     0.060 A 
BRANCH  72  73
ATOM     73  S   UNL A   1      33.199  35.466  28.935  1.00  0.00     0.124 S 
ATOM     74  O   UNL A   1      32.580  34.402  28.150  1.00  0.00    -0.237 OA
ATOM     75  O   UNL A   1      32.394  35.993  30.032  1.00  0.00    -0.237 OA
ATOM     76  O   UNL A   1      33.937  36.463  28.166  1.00  0.00    -0.744 OA
ENDBRANCH  72  73
ENDBRANCH  51  65
BRANCH  52  77
ATOM     77  C   UNL A   1      44.081  28.634  35.863  1.00  0.00     0.058 A 
ATOM     78  C   UNL A   1      45.399  29.026  35.587  1.00  0.00     0.135 A 
ATOM     79  C   UNL A   1      43.889  27.623  36.820  1.00  0.00     0.135 A 
ATOM     80  F   UNL A   1      45.638  29.971  34.666  1.00  0.00    -0.206 F 
ATOM     81  C   UNL A   1      46.483  28.451  36.242  1.00  0.00     0.059 A 
ATOM     82  C   UNL A   1      44.954  27.052  37.508  1.00  0.00     0.059 A 
ATOM     83  F   UNL A   1      42.647  27.213  37.122  1.00  0.00    -0.206 F 
ATOM     84  C   UNL A   1      46.249  27.473  37.213  1.00  0.00     0.060 A 
BRANCH  84  85
ATOM     85  S   UNL A   1      47.659  26.809  38.127  1.00  0.00     0.124 S 
ATOM     86  O   UNL A   1      48.687  27.804  37.850  1.00  0.00    -0.237 OA
ATOM     87  O   UNL A   1      47.147  26.783  39.495  1.00  0.00    -0.237 OA
ATOM     88  O   UNL A   1      47.866  25.498  37.518  1.00  0.00    -0.744 OA
ENDBRANCH  84  85
ENDBRANCH  52  77
BRANCH  64  89
ATOM     89  C   UNL A   1      40.312  34.362  37.264  1.00  0.00     0.058 A 
ATOM     90  C   UNL A   1      41.116  35.513  37.228  1.00  0.00     0.135 A 
ATOM     91  C   UNL A   1      39.468  34.192  38.375  1.00  0.00     0.135 A 
ATOM     92  F   UNL A   1      41.945  35.726  36.194  1.00  0.00    -0.206 F 
ATOM     93  C   UNL A   1      41.099  36.446  38.261  1.00  0.00     0.059 A 
ATOM     94  C   UNL A   1      39.413  35.128  39.405  1.00  0.00     0.059 A 
ATOM     95  F   UNL A   1      38.669  33.117  38.459  1.00  0.00    -0.206 F 
ATOM     96  C   UNL A   1      40.241  36.246  39.344  1.00  0.00     0.060 A 
BRANCH  96  97
ATOM     97  S   UNL A   1      40.206  37.482  40.661  1.00  0.00     0.124 S 
ATOM     98  O   UNL A   1      41.338  37.070  41.484  1.00  0.00    -0.237 OA
ATOM     99  O   UNL A   1      40.378  38.729  39.923  1.00  0.00    -0.237 OA
ATOM    100  O   UNL A   1      38.890  37.296  41.267  1.00  0.00    -0.744 OA
ENDBRANCH  96  97
ENDBRANCH  64  89
ENDBRANCH  38  39
ENDBRANCH  31  33
ENDBRANCH  30  31
ENDBRANCH  29  30
ENDBRANCH  28  29
ENDBRANCH  27  28
ENDBRANCH   1  27
TORSDOF 24
ENDMDL
MODEL 2
REMARK VINA RESULT:      -9.4      6.634     11.896
REMARK SMILES CCCN1C(=O)CO[C@H](C(=O)OCCOCCOCCOC(=O)c2ccc(-c3c4nc(c(-c5c(F)cc(S(=O)(=O)[O-])cc5F)c5ccc([nH]5)c(-c5c(F)cc(S(=O)(=O)[O-])cc5F)c5nc(c(-c6c(F)cc(S(=O)(=O)[O-])cc6F)c6ccc3[nH]6)C=C5)C=C4)cc2)[C@@H]1c1cncn1C1CC1
REMARK SMILES IDX 17 1 16 2 15 3 14 4 13 5 12 6 10 7 11 8 9 9 4 10 5 11 90 12
REMARK SMILES IDX 6 13 7 14 8 15 3 16 2 17 1 18 91 19 92 20 95 21 93 22 94 23
REMARK SMILES IDX 96 24 97 25 98 26 18 27 19 28 20 29 21 30 22 31 23 32 24 33
REMARK SMILES IDX 25 34 89 35 26 36 88 37 27 38 28 39 29 40 82 41 30 42 87 43
REMARK SMILES IDX 81 44 83 45 31 46 86 47 80 48 79 49 32 51 66 52 45 53 65 54
REMARK SMILES IDX 46 55 49 56 64 57 84 58 47 59 48 60 63 62 85 63 50 64 33 65
REMARK SMILES IDX 34 66 43 67 35 68 36 69 42 70 44 71 37 72 38 73 39 74 40 75
REMARK SMILES IDX 41 76 67 77 68 78 77 79 69 80 70 81 76 82 78 83 71 84 72 85
REMARK SMILES IDX 73 86 74 87 75 88 51 89 52 90 61 91 53 92 54 93 60 94 62 95
REMARK SMILES IDX 55 96 56 97 57 98 58 99 59 100
REMARK H PARENT 83 50 49 61
REMARK Flexibility Score: inf
ROOT
ATOM      1  C   UNL A   1      34.447  33.214  28.962  1.00  0.00     0.188 C 
ENDROOT
BRANCH   1   2
ATOM      2  C   UNL A   1      35.719  32.757  28.225  1.00  0.00     0.188 C 
BRANCH   2   3
ATOM      3  O   UNL A   1      35.716  31.507  27.549  1.00  0.00    -0.376 OA
BRANCH   3   4
ATOM      4  C   UNL A   1      34.815  30.487  27.969  1.00  0.00     0.202 C 
BRANCH   4   5
ATOM      5  C   UNL A   1      34.500  29.300  27.045  1.00  0.00     0.261 C 
BRANCH   5   6
ATOM      6  O   UNL A   1      33.220  29.370  26.393  1.00  0.00    -0.461 OA
BRANCH   6   7
ATOM      7  C   UNL A   1      32.403  28.299  26.550  1.00  0.00     0.337 C 
ATOM      8  O   UNL A   1      31.350  28.304  27.181  1.00  0.00    -0.249 OA
BRANCH   7   9
ATOM      9  C   UNL A   1      32.915  27.034  25.844  1.00  0.00     0.257 C 
ATOM     10  N   UNL A   1      33.142  25.924  23.611  1.00  0.00    -0.329 N 
ATOM     11  C   UNL A   1      33.945  25.023  24.329  1.00  0.00     0.249 C 
ATOM     12  C   UNL A   1      32.468  27.006  24.365  1.00  0.00     0.174 C 
ATOM     13  O   UNL A   1      34.894  24.400  23.858  1.00  0.00    -0.272 OA
ATOM     14  C   UNL A   1      33.584  24.826  25.813  1.00  0.00     0.261 C 
ATOM     15  O   UNL A   1      32.646  25.739  26.363  1.00  0.00    -0.354 OA
BRANCH  10  16
ATOM     16  C   UNL A   1      33.340  26.147  22.170  1.00  0.00     0.120 C 
BRANCH  16  17
ATOM     17  C   UNL A   1      32.229  25.776  21.168  1.00  0.00     0.018 C 
ATOM     18  C   UNL A   1      32.649  25.440  19.743  1.00  0.00     0.006 C 
ENDBRANCH  16  17
ENDBRANCH  10  16
BRANCH  12  19
ATOM     19  C   UNL A   1      30.960  27.159  24.234  1.00  0.00     0.064 A 
ATOM     20  C   UNL A   1      30.090  26.112  24.567  1.00  0.00     0.136 A 
ATOM     21  N   UNL A   1      30.096  28.079  23.655  1.00  0.00    -0.330 N 
ATOM     22  N   UNL A   1      28.826  26.294  24.101  1.00  0.00    -0.245 NA
ATOM     23  C   UNL A   1      28.871  27.465  23.524  1.00  0.00     0.199 A 
BRANCH  21  24
ATOM     24  C   UNL A   1      30.152  29.484  23.305  1.00  0.00     0.088 C 
ATOM     25  C   UNL A   1      29.007  30.443  23.399  1.00  0.00     0.027 C 
ATOM     26  C   UNL A   1      30.195  30.636  24.274  1.00  0.00     0.027 C 
ENDBRANCH  21  24
ENDBRANCH  12  19
ENDBRANCH   7   9
ENDBRANCH   6   7
ENDBRANCH   5   6
ENDBRANCH   4   5
ENDBRANCH   3   4
ENDBRANCH   2   3
ENDBRANCH   1   2
BRANCH   1  27
ATOM     27  O   UNL A   1      34.248  32.643  30.229  1.00  0.00    -0.376 OA
BRANCH  27  28
ATOM     28  C   UNL A   1      34.830  33.266  31.358  1.00  0.00     0.202 C 
BRANCH  28  29
ATOM     29  C   UNL A   1      36.275  33.016  31.844  1.00  0.00     0.261 C 
BRANCH  29  30
ATOM     30  O   UNL A   1      36.976  31.861  31.366  1.00  0.00    -0.460 OA
BRANCH  30  31
ATOM     31  C   UNL A   1      37.824  31.252  32.237  1.00  0.00     0.338 C 
ATOM     32  O   UNL A   1      37.619  31.018  33.410  1.00  0.00    -0.246 OA
BRANCH  31  33
ATOM     33  C   UNL A   1      38.960  30.700  31.456  1.00  0.00     0.060 A 
ATOM     34  C   UNL A   1      39.956  29.972  32.125  1.00  0.00     0.016 A 
ATOM     35  C   UNL A   1      39.034  30.889  30.076  1.00  0.00     0.016 A 
ATOM     36  C   UNL A   1      41.042  29.450  31.418  1.00  0.00     0.010 A 
ATOM     37  C   UNL A   1      40.136  30.390  29.374  1.00  0.00     0.010 A 
ATOM     38  C   UNL A   1      41.160  29.695  30.044  1.00  0.00    -0.014 A 
BRANCH  38  39
ATOM     39  C   UNL A   1      42.439  29.414  29.343  1.00  0.00     0.031 A 
ATOM     40  C   UNL A   1      42.643  28.040  28.762  1.00  0.00     0.074 A 
ATOM     41  C   UNL A   1      43.406  30.341  29.230  1.00  0.00     0.049 A 
ATOM     42  N   UNL A   1      43.699  27.524  28.191  1.00  0.00    -0.248 NA
ATOM     43  C   UNL A   1      41.495  27.123  28.849  1.00  0.00     0.031 C 
ATOM     44  C   UNL A   1      43.320  31.716  29.715  1.00  0.00     0.029 A 
ATOM     45  N   UNL A   1      44.665  30.251  28.686  1.00  0.00    -0.354 N 
ATOM     46  C   UNL A   1      43.351  26.218  27.864  1.00  0.00     0.074 A 
ATOM     47  C   UNL A   1      41.997  26.014  28.330  1.00  0.00     0.031 C 
ATOM     48  C   UNL A   1      44.488  32.336  29.471  1.00  0.00     0.029 A 
ATOM     49  C   UNL A   1      45.416  31.391  28.846  1.00  0.00     0.049 A 
ATOM     50  H   UNL A   1      44.997  29.446  28.227  1.00  0.00     0.167 HD
ATOM     51  C   UNL A   1      44.089  25.277  27.229  1.00  0.00     0.037 A 
ATOM     52  C   UNL A   1      46.710  31.634  28.553  1.00  0.00     0.037 A 
ATOM     53  C   UNL A   1      45.443  25.482  26.782  1.00  0.00     0.049 A 
ATOM     54  C   UNL A   1      47.542  30.554  27.908  1.00  0.00     0.074 A 
ATOM     55  C   UNL A   1      46.271  24.599  26.112  1.00  0.00     0.029 A 
ATOM     56  N   UNL A   1      46.173  26.647  26.974  1.00  0.00    -0.354 N 
ATOM     57  N   UNL A   1      47.196  29.331  27.578  1.00  0.00    -0.248 NA
ATOM     58  C   UNL A   1      48.938  30.886  27.592  1.00  0.00     0.031 C 
ATOM     59  C   UNL A   1      47.522  25.206  25.957  1.00  0.00     0.029 A 
ATOM     60  C   UNL A   1      47.454  26.493  26.465  1.00  0.00     0.049 A 
ATOM     61  H   UNL A   1      45.832  27.462  27.409  1.00  0.00     0.167 HD
ATOM     62  C   UNL A   1      48.323  28.757  26.993  1.00  0.00     0.074 A 
ATOM     63  C   UNL A   1      49.358  29.771  27.007  1.00  0.00     0.031 C 
ATOM     64  C   UNL A   1      48.481  27.508  26.486  1.00  0.00     0.037 A 
BRANCH  51  65
ATOM     65  C   UNL A   1      43.455  23.926  27.028  1.00  0.00     0.058 A 
ATOM     66  C   UNL A   1      42.935  23.526  25.786  1.00  0.00     0.135 A 
ATOM     67  C   UNL A   1      43.351  23.024  28.099  1.00  0.00     0.135 A 
ATOM     68  F   UNL A   1      42.991  24.352  24.729  1.00  0.00    -0.206 F 
ATOM     69  C   UNL A   1      42.289  22.303  25.627  1.00  0.00     0.059 A 
ATOM     70  C   UNL A   1      42.740  21.783  27.955  1.00  0.00     0.059 A 
ATOM     71  F   UNL A   1      43.832  23.353  29.309  1.00  0.00    -0.206 F 
ATOM     72  C   UNL A   1      42.190  21.441  26.721  1.00  0.00     0.060 A 
BRANCH  72  73
ATOM     73  S   UNL A   1      41.315  19.877  26.510  1.00  0.00     0.124 S 
ATOM     74  O   UNL A   1      39.940  20.333  26.338  1.00  0.00    -0.237 OA
ATOM     75  O   UNL A   1      41.951  19.322  25.319  1.00  0.00    -0.237 OA
ATOM     76  O   UNL A   1      41.589  19.163  27.754  1.00  0.00    -0.744 OA
ENDBRANCH  72  73
ENDBRANCH  51  65
BRANCH  52  77
ATOM     77  C   UNL A   1      47.298  32.961  28.881  1.00  0.00     0.058 A 
ATOM     78  C   UNL A   1      47.848  33.222  30.144  1.00  0.00     0.135 A 
ATOM     79  C   UNL A   1      47.356  33.984  27.921  1.00  0.00     0.135 A 
ATOM     80  F   UNL A   1      47.799  32.285  31.103  1.00  0.00    -0.206 F 
ATOM     81  C   UNL A   1      48.445  34.442  30.441  1.00  0.00     0.059 A 
ATOM     82  C   UNL A   1      47.971  35.203  28.184  1.00  0.00     0.059 A 
ATOM     83  F   UNL A   1      46.844  33.785  26.696  1.00  0.00    -0.206 F 
ATOM     84  C   UNL A   1      48.515  35.423  29.449  1.00  0.00     0.060 A 
BRANCH  84  85
ATOM     85  S   UNL A   1      49.383  36.965  29.816  1.00  0.00     0.124 S 
ATOM     86  O   UNL A   1      49.582  36.856  31.256  1.00  0.00    -0.237 OA
ATOM     87  O   UNL A   1      50.583  36.840  28.994  1.00  0.00    -0.237 OA
ATOM     88  O   UNL A   1      48.440  37.993  29.384  1.00  0.00    -0.744 OA
ENDBRANCH  84  85
ENDBRANCH  52  77
BRANCH  64  89
ATOM     89  C   UNL A   1      49.812  27.165  25.869  1.00  0.00     0.058 A 
ATOM     90  C   UNL A   1      50.044  27.275  24.489  1.00  0.00     0.135 A 
ATOM     91  C   UNL A   1      50.892  26.779  26.682  1.00  0.00     0.135 A 
ATOM     92  F   UNL A   1      49.048  27.636  23.663  1.00  0.00    -0.206 F 
ATOM     93  C   UNL A   1      51.290  26.994  23.935  1.00  0.00     0.059 A 
ATOM     94  C   UNL A   1      52.154  26.523  26.153  1.00  0.00     0.059 A 
ATOM     95  F   UNL A   1      50.733  26.668  28.010  1.00  0.00    -0.206 F 
ATOM     96  C   UNL A   1      52.340  26.622  24.776  1.00  0.00     0.060 A 
BRANCH  96  97
ATOM     97  S   UNL A   1      53.959  26.293  24.047  1.00  0.00     0.124 S 
ATOM     98  O   UNL A   1      54.722  27.457  24.484  1.00  0.00    -0.237 OA
ATOM     99  O   UNL A   1      54.328  25.024  24.666  1.00  0.00    -0.237 OA
ATOM    100  O   UNL A   1      53.682  26.227  22.614  1.00  0.00    -0.744 OA
ENDBRANCH  96  97
ENDBRANCH  64  89
ENDBRANCH  38  39
ENDBRANCH  31  33
ENDBRANCH  30  31
ENDBRANCH  29  30
ENDBRANCH  28  29
ENDBRANCH  27  28
ENDBRANCH   1  27
TORSDOF 24
ENDMDL
MODEL 3
REMARK VINA RESULT:      -8.8      6.427     11.729
REMARK SMILES CCCN1C(=O)CO[C@H](C(=O)OCCOCCOCCOC(=O)c2ccc(-c3c4nc(c(-c5c(F)cc(S(=O)(=O)[O-])cc5F)c5ccc([nH]5)c(-c5c(F)cc(S(=O)(=O)[O-])cc5F)c5nc(c(-c6c(F)cc(S(=O)(=O)[O-])cc6F)c6ccc3[nH]6)C=C5)C=C4)cc2)[C@@H]1c1cncn1C1CC1
REMARK SMILES IDX 17 1 16 2 15 3 14 4 13 5 12 6 10 7 11 8 9 9 4 10 5 11 90 12
REMARK SMILES IDX 6 13 7 14 8 15 3 16 2 17 1 18 91 19 92 20 95 21 93 22 94 23
REMARK SMILES IDX 96 24 97 25 98 26 18 27 19 28 20 29 21 30 22 31 23 32 24 33
REMARK SMILES IDX 25 34 89 35 26 36 88 37 27 38 28 39 29 40 82 41 30 42 87 43
REMARK SMILES IDX 81 44 83 45 31 46 86 47 80 48 79 49 32 51 66 52 45 53 65 54
REMARK SMILES IDX 46 55 49 56 64 57 84 58 47 59 48 60 63 62 85 63 50 64 33 65
REMARK SMILES IDX 34 66 43 67 35 68 36 69 42 70 44 71 37 72 38 73 39 74 40 75
REMARK SMILES IDX 41 76 67 77 68 78 77 79 69 80 70 81 76 82 78 83 71 84 72 85
REMARK SMILES IDX 73 86 74 87 75 88 51 89 52 90 61 91 53 92 54 93 60 94 62 95
REMARK SMILES IDX 55 96 56 97 57 98 58 99 59 100
REMARK H PARENT 83 50 49 61
REMARK Flexibility Score: inf
ROOT
ATOM      1  C   UNL A   1      34.666  32.274  30.050  1.00  0.00     0.188 C 
ENDROOT
BRANCH   1   2
ATOM      2  C   UNL A   1      34.602  32.757  28.590  1.00  0.00     0.188 C 
BRANCH   2   3
ATOM      3  O   UNL A   1      34.057  31.897  27.599  1.00  0.00    -0.376 OA
BRANCH   3   4
ATOM      4  C   UNL A   1      34.728  30.682  27.283  1.00  0.00     0.202 C 
BRANCH   4   5
ATOM      5  C   UNL A   1      34.088  29.327  27.631  1.00  0.00     0.261 C 
BRANCH   5   6
ATOM      6  O   UNL A   1      34.328  28.285  26.670  1.00  0.00    -0.461 OA
BRANCH   6   7
ATOM      7  C   UNL A   1      33.250  27.841  25.979  1.00  0.00     0.337 C 
ATOM      8  O   UNL A   1      32.552  28.534  25.245  1.00  0.00    -0.249 OA
BRANCH   7   9
ATOM      9  C   UNL A   1      32.964  26.346  26.189  1.00  0.00     0.257 C 
ATOM     10  N   UNL A   1      33.673  24.043  25.510  1.00  0.00    -0.329 N 
ATOM     11  C   UNL A   1      32.825  23.655  26.562  1.00  0.00     0.249 C 
ATOM     12  C   UNL A   1      33.748  25.485  25.176  1.00  0.00     0.174 C 
ATOM     13  O   UNL A   1      32.978  22.649  27.249  1.00  0.00    -0.272 OA
ATOM     14  C   UNL A   1      31.630  24.583  26.847  1.00  0.00     0.261 C 
ATOM     15  O   UNL A   1      31.636  25.843  26.193  1.00  0.00    -0.354 OA
BRANCH  10  16
ATOM     16  C   UNL A   1      34.809  23.207  25.093  1.00  0.00     0.120 C 
BRANCH  16  17
ATOM     17  C   UNL A   1      35.108  22.996  23.596  1.00  0.00     0.018 C 
ATOM     18  C   UNL A   1      36.567  23.007  23.160  1.00  0.00     0.006 C 
ENDBRANCH  16  17
ENDBRANCH  10  16
BRANCH  12  19
ATOM     19  C   UNL A   1      33.476  25.918  23.744  1.00  0.00     0.064 A 
ATOM     20  C   UNL A   1      34.325  26.817  23.081  1.00  0.00     0.136 A 
ATOM     21  N   UNL A   1      32.421  25.805  22.849  1.00  0.00    -0.330 N 
ATOM     22  N   UNL A   1      33.780  27.336  21.949  1.00  0.00    -0.245 NA
ATOM     23  C   UNL A   1      32.621  26.740  21.858  1.00  0.00     0.199 A 
BRANCH  21  24
ATOM     24  C   UNL A   1      31.305  24.900  22.663  1.00  0.00     0.088 C 
ATOM     25  C   UNL A   1      31.150  23.571  23.333  1.00  0.00     0.027 C 
ATOM     26  C   UNL A   1      30.186  24.661  23.641  1.00  0.00     0.027 C 
ENDBRANCH  21  24
ENDBRANCH  12  19
ENDBRANCH   7   9
ENDBRANCH   6   7
ENDBRANCH   5   6
ENDBRANCH   4   5
ENDBRANCH   3   4
ENDBRANCH   2   3
ENDBRANCH   1   2
BRANCH   1  27
ATOM     27  O   UNL A   1      34.441  33.263  31.021  1.00  0.00    -0.376 OA
BRANCH  27  28
ATOM     28  C   UNL A   1      35.218  33.249  32.203  1.00  0.00     0.202 C 
BRANCH  28  29
ATOM     29  C   UNL A   1      35.979  32.013  32.732  1.00  0.00     0.261 C 
BRANCH  29  30
ATOM     30  O   UNL A   1      37.238  31.668  32.141  1.00  0.00    -0.460 OA
BRANCH  30  31
ATOM     31  C   UNL A   1      37.464  30.349  31.902  1.00  0.00     0.338 C 
ATOM     32  O   UNL A   1      36.640  29.458  31.896  1.00  0.00    -0.246 OA
BRANCH  31  33
ATOM     33  C   UNL A   1      38.858  30.209  31.409  1.00  0.00     0.060 A 
ATOM     34  C   UNL A   1      39.206  30.791  30.179  1.00  0.00     0.016 A 
ATOM     35  C   UNL A   1      39.813  29.522  32.157  1.00  0.00     0.016 A 
ATOM     36  C   UNL A   1      40.507  30.666  29.686  1.00  0.00     0.010 A 
ATOM     37  C   UNL A   1      41.107  29.373  31.647  1.00  0.00     0.010 A 
ATOM     38  C   UNL A   1      41.453  29.918  30.397  1.00  0.00    -0.014 A 
BRANCH  38  39
ATOM     39  C   UNL A   1      42.732  29.525  29.752  1.00  0.00     0.031 A 
ATOM     40  C   UNL A   1      42.824  28.157  29.131  1.00  0.00     0.074 A 
ATOM     41  C   UNL A   1      43.796  30.348  29.725  1.00  0.00     0.049 A 
ATOM     42  N   UNL A   1      43.852  27.551  28.596  1.00  0.00    -0.248 NA
ATOM     43  C   UNL A   1      41.584  27.365  29.123  1.00  0.00     0.031 C 
ATOM     44  C   UNL A   1      43.826  31.707  30.257  1.00  0.00     0.029 A 
ATOM     45  N   UNL A   1      45.067  30.143  29.245  1.00  0.00    -0.354 N 
ATOM     46  C   UNL A   1      43.388  26.301  28.202  1.00  0.00     0.074 A 
ATOM     47  C   UNL A   1      41.996  26.226  28.589  1.00  0.00     0.031 C 
ATOM     48  C   UNL A   1      45.064  32.208  30.098  1.00  0.00     0.029 A 
ATOM     49  C   UNL A   1      45.922  31.191  29.487  1.00  0.00     0.049 A 
ATOM     50  H   UNL A   1      45.339  29.323  28.773  1.00  0.00     0.167 HD
ATOM     51  C   UNL A   1      44.058  25.308  27.570  1.00  0.00     0.037 A 
ATOM     52  C   UNL A   1      47.248  31.304  29.271  1.00  0.00     0.037 A 
ATOM     53  C   UNL A   1      45.449  25.383  27.202  1.00  0.00     0.049 A 
ATOM     54  C   UNL A   1      47.998  30.164  28.629  1.00  0.00     0.074 A 
ATOM     55  C   UNL A   1      46.217  24.440  26.544  1.00  0.00     0.029 A 
ATOM     56  N   UNL A   1      46.285  26.456  27.477  1.00  0.00    -0.354 N 
ATOM     57  N   UNL A   1      47.546  28.996  28.235  1.00  0.00    -0.248 NA
ATOM     58  C   UNL A   1      49.437  30.357  28.399  1.00  0.00     0.031 C 
ATOM     59  C   UNL A   1      47.530  24.915  26.477  1.00  0.00     0.029 A 
ATOM     60  C   UNL A   1      47.568  26.185  27.030  1.00  0.00     0.049 A 
ATOM     61  H   UNL A   1      46.006  27.289  27.924  1.00  0.00     0.167 HD
ATOM     62  C   UNL A   1      48.638  28.326  27.688  1.00  0.00     0.074 A 
ATOM     63  C   UNL A   1      49.770  29.224  27.795  1.00  0.00     0.031 C 
ATOM     64  C   UNL A   1      48.693  27.084  27.143  1.00  0.00     0.037 A 
BRANCH  51  65
ATOM     65  C   UNL A   1      43.299  24.039  27.286  1.00  0.00     0.058 A 
ATOM     66  C   UNL A   1      42.531  23.877  26.121  1.00  0.00     0.135 A 
ATOM     67  C   UNL A   1      43.327  22.974  28.201  1.00  0.00     0.135 A 
ATOM     68  F   UNL A   1      42.453  24.867  25.217  1.00  0.00    -0.206 F 
ATOM     69  C   UNL A   1      41.777  22.728  25.899  1.00  0.00     0.059 A 
ATOM     70  C   UNL A   1      42.610  21.802  27.983  1.00  0.00     0.059 A 
ATOM     71  F   UNL A   1      44.046  23.072  29.330  1.00  0.00    -0.206 F 
ATOM     72  C   UNL A   1      41.817  21.698  26.841  1.00  0.00     0.060 A 
BRANCH  72  73
ATOM     73  S   UNL A   1      40.805  20.231  26.560  1.00  0.00     0.124 S 
ATOM     74  O   UNL A   1      40.548  19.789  27.927  1.00  0.00    -0.237 OA
ATOM     75  O   UNL A   1      39.656  20.778  25.845  1.00  0.00    -0.237 OA
ATOM     76  O   UNL A   1      41.675  19.363  25.772  1.00  0.00    -0.744 OA
ENDBRANCH  72  73
ENDBRANCH  51  65
BRANCH  52  77
ATOM     77  C   UNL A   1      47.952  32.551  29.679  1.00  0.00     0.058 A 
ATOM     78  C   UNL A   1      48.493  32.694  30.964  1.00  0.00     0.135 A 
ATOM     79  C   UNL A   1      48.131  33.611  28.775  1.00  0.00     0.135 A 
ATOM     80  F   UNL A   1      48.331  31.719  31.873  1.00  0.00    -0.206 F 
ATOM     81  C   UNL A   1      49.196  33.835  31.337  1.00  0.00     0.059 A 
ATOM     82  C   UNL A   1      48.853  34.750  29.114  1.00  0.00     0.059 A 
ATOM     83  F   UNL A   1      47.634  33.523  27.531  1.00  0.00    -0.206 F 
ATOM     84  C   UNL A   1      49.384  34.853  30.399  1.00  0.00     0.060 A 
BRANCH  84  85
ATOM     85  S   UNL A   1      50.386  36.283  30.863  1.00  0.00     0.124 S 
ATOM     86  O   UNL A   1      51.471  36.212  29.893  1.00  0.00    -0.237 OA
ATOM     87  O   UNL A   1      49.442  37.383  30.689  1.00  0.00    -0.237 OA
ATOM     88  O   UNL A   1      50.756  35.998  32.247  1.00  0.00    -0.744 OA
ENDBRANCH  84  85
ENDBRANCH  52  77
BRANCH  64  89
ATOM     89  C   UNL A   1      50.014  26.622  26.583  1.00  0.00     0.058 A 
ATOM     90  C   UNL A   1      50.373  26.843  25.244  1.00  0.00     0.135 A 
ATOM     91  C   UNL A   1      50.960  26.003  27.418  1.00  0.00     0.135 A 
ATOM     92  F   UNL A   1      49.508  27.426  24.399  1.00  0.00    -0.206 F 
ATOM     93  C   UNL A   1      51.613  26.448  24.748  1.00  0.00     0.059 A 
ATOM     94  C   UNL A   1      52.217  25.627  26.950  1.00  0.00     0.059 A 
ATOM     95  F   UNL A   1      50.677  25.776  28.710  1.00  0.00    -0.206 F 
ATOM     96  C   UNL A   1      52.529  25.843  25.610  1.00  0.00     0.060 A 
BRANCH  96  97
ATOM     97  S   UNL A   1      54.146  25.366  24.961  1.00  0.00     0.124 S 
ATOM     98  O   UNL A   1      54.002  23.919  24.844  1.00  0.00    -0.237 OA
ATOM     99  O   UNL A   1      54.205  26.101  23.702  1.00  0.00    -0.237 OA
ATOM    100  O   UNL A   1      55.075  25.823  25.991  1.00  0.00    -0.744 OA
ENDBRANCH  96  97
ENDBRANCH  64  89
ENDBRANCH  38  39
ENDBRANCH  31  33
ENDBRANCH  30  31
ENDBRANCH  29  30
ENDBRANCH  28  29
ENDBRANCH  27  28
ENDBRANCH   1  27
TORSDOF 24
ENDMDL
