MODEL 1
REMARK VINA RESULT:     -10.7      0.000      0.000
REMARK SMILES CC(=O)c1cccc(-c2ccc(C(=O)OCCOCCOCCOC(=O)c3ccc(-c4c5nc(c(-c6c(F)cc(S(=O)(=O)[O-])cc6F)c6ccc([nH]6)c(-c6c(F)cc(S(=O)(=O)[O-])cc6F)c6nc(c(-c7c(F)cc(S(=O)(=O)[O-])cc7F)c7ccc4[nH]7)C=C6)C=C5)cc3)cc2F)c1
REMARK SMILES IDX 20 1 19 2 18 3 17 4 16 5 15 6 13 7 14 8 12 9 9 10 10 11
REMARK SMILES IDX 94 12 11 13 93 14 95 15 8 16 4 17 5 18 96 19 6 20 7 21 2 22
REMARK SMILES IDX 1 23 3 24 21 25 22 26 23 27 24 28 25 29 26 30 27 31 28 32
REMARK SMILES IDX 92 33 29 34 91 35 30 36 31 37 32 38 85 39 33 40 90 41 84 42
REMARK SMILES IDX 86 43 34 44 89 45 83 46 82 47 35 49 69 50 48 51 68 52 49 53
REMARK SMILES IDX 52 54 67 55 87 56 50 57 51 58 66 60 88 61 53 62 36 63 37 64
REMARK SMILES IDX 46 65 38 66 39 67 45 68 47 69 40 70 41 71 42 72 43 73 44 74
REMARK SMILES IDX 70 75 71 76 80 77 72 78 73 79 79 80 81 81 74 82 75 83 76 84
REMARK SMILES IDX 77 85 78 86 54 87 55 88 64 89 56 90 57 91 63 92 65 93 58 94
REMARK SMILES IDX 59 95 60 96 61 97 62 98
REMARK H PARENT 86 48 52 59
REMARK Flexibility Score: inf
ROOT
ATOM      1  C   UNL A   1      34.403  36.476  32.998  1.00  0.00     0.188 C 
ENDROOT
BRANCH   1   2
ATOM      2  C   UNL A   1      33.136  35.786  32.456  1.00  0.00     0.188 C 
BRANCH   2   3
ATOM      3  O   UNL A   1      32.368  36.391  31.428  1.00  0.00    -0.376 OA
BRANCH   3   4
ATOM      4  C   UNL A   1      33.008  36.974  30.304  1.00  0.00     0.202 C 
BRANCH   4   5
ATOM      5  C   UNL A   1      32.985  36.296  28.928  1.00  0.00     0.261 C 
BRANCH   5   6
ATOM      6  O   UNL A   1      32.822  34.873  28.962  1.00  0.00    -0.460 OA
BRANCH   6   7
ATOM      7  C   UNL A   1      33.950  34.163  28.703  1.00  0.00     0.338 C 
ATOM      8  O   UNL A   1      35.076  34.412  29.078  1.00  0.00    -0.246 OA
BRANCH   7   9
ATOM      9  C   UNL A   1      33.603  32.911  27.995  1.00  0.00     0.063 A 
ATOM     10  C   UNL A   1      32.763  30.516  26.788  1.00  0.00     0.018 A 
ATOM     11  C   UNL A   1      31.952  31.659  26.734  1.00  0.00     0.012 A 
ATOM     12  C   UNL A   1      34.029  30.632  27.391  1.00  0.00     0.131 A 
ATOM     13  C   UNL A   1      32.363  32.845  27.348  1.00  0.00     0.016 A 
ATOM     14  C   UNL A   1      34.461  31.814  27.986  1.00  0.00     0.055 A 
ATOM     15  F   UNL A   1      34.841  29.564  27.453  1.00  0.00    -0.206 F 
BRANCH  10  16
ATOM     16  C   UNL A   1      32.245  29.211  26.352  1.00  0.00    -0.015 A 
ATOM     17  C   UNL A   1      31.930  27.607  24.534  1.00  0.00     0.018 A 
ATOM     18  C   UNL A   1      31.323  26.718  25.423  1.00  0.00     0.012 A 
ATOM     19  C   UNL A   1      32.382  28.844  25.000  1.00  0.00     0.020 A 
ATOM     20  C   UNL A   1      31.196  27.057  26.771  1.00  0.00     0.001 A 
ATOM     21  C   UNL A   1      31.658  28.294  27.234  1.00  0.00     0.009 A 
BRANCH  17  22
ATOM     22  C   UNL A   1      32.083  27.217  23.104  1.00  0.00     0.159 C 
ATOM     23  C   UNL A   1      30.864  26.745  22.351  1.00  0.00     0.093 C 
ATOM     24  O   UNL A   1      33.177  27.322  22.556  1.00  0.00    -0.295 OA
ENDBRANCH  17  22
ENDBRANCH  10  16
ENDBRANCH   7   9
ENDBRANCH   6   7
ENDBRANCH   5   6
ENDBRANCH   4   5
ENDBRANCH   3   4
ENDBRANCH   2   3
ENDBRANCH   1   2
BRANCH   1  25
ATOM     25  O   UNL A   1      35.518  35.668  33.292  1.00  0.00    -0.376 OA
BRANCH  25  26
ATOM     26  C   UNL A   1      35.689  34.401  32.681  1.00  0.00     0.202 C 
BRANCH  26  27
ATOM     27  C   UNL A   1      37.025  33.710  32.348  1.00  0.00     0.261 C 
BRANCH  27  28
ATOM     28  O   UNL A   1      37.167  33.073  31.081  1.00  0.00    -0.460 OA
BRANCH  28  29
ATOM     29  C   UNL A   1      36.762  31.779  31.042  1.00  0.00     0.338 C 
ATOM     30  O   UNL A   1      35.641  31.351  31.255  1.00  0.00    -0.246 OA
BRANCH  29  31
ATOM     31  C   UNL A   1      37.863  30.953  30.518  1.00  0.00     0.060 A 
ATOM     32  C   UNL A   1      38.728  30.341  31.434  1.00  0.00     0.016 A 
ATOM     33  C   UNL A   1      38.072  30.830  29.143  1.00  0.00     0.016 A 
ATOM     34  C   UNL A   1      39.839  29.638  30.975  1.00  0.00     0.010 A 
ATOM     35  C   UNL A   1      39.197  30.139  28.685  1.00  0.00     0.010 A 
ATOM     36  C   UNL A   1      40.106  29.578  29.600  1.00  0.00    -0.014 A 
BRANCH  36  37
ATOM     37  C   UNL A   1      41.441  29.130  29.137  1.00  0.00     0.031 A 
ATOM     38  C   UNL A   1      42.568  30.127  29.151  1.00  0.00     0.074 A 
ATOM     39  C   UNL A   1      41.658  27.865  28.741  1.00  0.00     0.049 A 
ATOM     40  N   UNL A   1      43.815  29.978  28.786  1.00  0.00    -0.248 NA
ATOM     41  C   UNL A   1      42.240  31.476  29.640  1.00  0.00     0.031 C 
ATOM     42  C   UNL A   1      40.658  26.799  28.723  1.00  0.00     0.029 A 
ATOM     43  N   UNL A   1      42.800  27.264  28.274  1.00  0.00    -0.354 N 
ATOM     44  C   UNL A   1      44.417  31.215  28.988  1.00  0.00     0.074 A 
ATOM     45  C   UNL A   1      43.392  32.110  29.481  1.00  0.00     0.031 C 
ATOM     46  C   UNL A   1      41.233  25.672  28.265  1.00  0.00     0.029 A 
ATOM     47  C   UNL A   1      42.630  25.944  27.932  1.00  0.00     0.049 A 
ATOM     48  H   UNL A   1      43.660  27.736  28.190  1.00  0.00     0.167 HD
ATOM     49  C   UNL A   1      45.707  31.573  28.787  1.00  0.00     0.037 A 
ATOM     50  C   UNL A   1      43.503  25.065  27.402  1.00  0.00     0.037 A 
ATOM     51  C   UNL A   1      46.721  30.681  28.293  1.00  0.00     0.049 A 
ATOM     52  C   UNL A   1      44.919  25.502  27.127  1.00  0.00     0.074 A 
ATOM     53  C   UNL A   1      48.063  30.939  28.074  1.00  0.00     0.029 A 
ATOM     54  N   UNL A   1      46.503  29.361  27.926  1.00  0.00    -0.354 N 
ATOM     55  N   UNL A   1      45.485  26.665  27.349  1.00  0.00    -0.248 NA
ATOM     56  C   UNL A   1      45.819  24.501  26.533  1.00  0.00     0.031 C 
ATOM     57  C   UNL A   1      48.645  29.789  27.528  1.00  0.00     0.029 A 
ATOM     58  C   UNL A   1      47.679  28.797  27.460  1.00  0.00     0.049 A 
ATOM     59  H   UNL A   1      45.638  28.894  27.989  1.00  0.00     0.167 HD
ATOM     60  C   UNL A   1      46.814  26.524  26.961  1.00  0.00     0.074 A 
ATOM     61  C   UNL A   1      46.968  25.164  26.489  1.00  0.00     0.031 C 
ATOM     62  C   UNL A   1      47.819  27.435  27.004  1.00  0.00     0.037 A 
BRANCH  49  63
ATOM     63  C   UNL A   1      46.072  33.006  29.060  1.00  0.00     0.058 A 
ATOM     64  C   UNL A   1      46.497  33.437  30.328  1.00  0.00     0.135 A 
ATOM     65  C   UNL A   1      45.979  33.968  28.041  1.00  0.00     0.135 A 
ATOM     66  F   UNL A   1      46.585  32.564  31.344  1.00  0.00    -0.206 F 
ATOM     67  C   UNL A   1      46.774  34.776  30.586  1.00  0.00     0.059 A 
ATOM     68  C   UNL A   1      46.280  35.306  28.269  1.00  0.00     0.059 A 
ATOM     69  F   UNL A   1      45.577  33.611  26.810  1.00  0.00    -0.206 F 
ATOM     70  C   UNL A   1      46.654  35.704  29.550  1.00  0.00     0.060 A 
BRANCH  70  71
ATOM     71  S   UNL A   1      46.982  37.444  29.905  1.00  0.00     0.124 S 
ATOM     72  O   UNL A   1      45.720  38.063  29.511  1.00  0.00    -0.237 OA
ATOM     73  O   UNL A   1      47.256  37.425  31.338  1.00  0.00    -0.237 OA
ATOM     74  O   UNL A   1      48.126  37.754  29.055  1.00  0.00    -0.744 OA
ENDBRANCH  70  71
ENDBRANCH  49  63
BRANCH  50  75
ATOM     75  C   UNL A   1      43.069  23.672  27.116  1.00  0.00     0.058 A 
ATOM     76  C   UNL A   1      42.864  23.238  25.797  1.00  0.00     0.135 A 
ATOM     77  C   UNL A   1      42.862  22.744  28.149  1.00  0.00     0.135 A 
ATOM     78  F   UNL A   1      43.036  24.092  24.777  1.00  0.00    -0.206 F 
ATOM     79  C   UNL A   1      42.467  21.937  25.512  1.00  0.00     0.059 A 
ATOM     80  C   UNL A   1      42.488  21.430  27.887  1.00  0.00     0.059 A 
ATOM     81  F   UNL A   1      43.051  23.107  29.427  1.00  0.00    -0.206 F 
ATOM     82  C   UNL A   1      42.288  21.036  26.563  1.00  0.00     0.060 A 
BRANCH  82  83
ATOM     83  S   UNL A   1      41.840  19.331  26.173  1.00  0.00     0.124 S 
ATOM     84  O   UNL A   1      42.615  19.092  24.962  1.00  0.00    -0.237 OA
ATOM     85  O   UNL A   1      42.284  18.619  27.368  1.00  0.00    -0.237 OA
ATOM     86  O   UNL A   1      40.392  19.398  25.995  1.00  0.00    -0.744 OA
ENDBRANCH  82  83
ENDBRANCH  50  75
BRANCH  62  87
ATOM     87  C   UNL A   1      49.191  26.981  26.583  1.00  0.00     0.058 A 
ATOM     88  C   UNL A   1      50.103  26.421  27.491  1.00  0.00     0.135 A 
ATOM     89  C   UNL A   1      49.578  27.062  25.234  1.00  0.00     0.135 A 
ATOM     90  F   UNL A   1      49.788  26.324  28.792  1.00  0.00    -0.206 F 
ATOM     91  C   UNL A   1      51.360  25.983  27.083  1.00  0.00     0.059 A 
ATOM     92  C   UNL A   1      50.817  26.604  24.799  1.00  0.00     0.059 A 
ATOM     93  F   UNL A   1      48.738  27.576  24.321  1.00  0.00    -0.206 F 
ATOM     94  C   UNL A   1      51.707  26.079  25.733  1.00  0.00     0.060 A 
BRANCH  94  95
ATOM     95  S   UNL A   1      53.330  25.485  25.209  1.00  0.00     0.124 S 
ATOM     96  O   UNL A   1      53.238  24.063  25.523  1.00  0.00    -0.237 OA
ATOM     97  O   UNL A   1      53.342  25.822  23.788  1.00  0.00    -0.237 OA
ATOM     98  O   UNL A   1      54.256  26.252  26.035  1.00  0.00    -0.744 OA
ENDBRANCH  94  95
ENDBRANCH  62  87
ENDBRANCH  36  37
ENDBRANCH  29  31
ENDBRANCH  28  29
ENDBRANCH  27  28
ENDBRANCH  26  27
ENDBRANCH  25  26
ENDBRANCH   1  25
TORSDOF 22
ENDMDL
MODEL 2
REMARK VINA RESULT:     -10.5      6.489     12.600
REMARK SMILES CC(=O)c1cccc(-c2ccc(C(=O)OCCOCCOCCOC(=O)c3ccc(-c4c5nc(c(-c6c(F)cc(S(=O)(=O)[O-])cc6F)c6ccc([nH]6)c(-c6c(F)cc(S(=O)(=O)[O-])cc6F)c6nc(c(-c7c(F)cc(S(=O)(=O)[O-])cc7F)c7ccc4[nH]7)C=C6)C=C5)cc3)cc2F)c1
REMARK SMILES IDX 20 1 19 2 18 3 17 4 16 5 15 6 13 7 14 8 12 9 9 10 10 11
REMARK SMILES IDX 94 12 11 13 93 14 95 15 8 16 4 17 5 18 96 19 6 20 7 21 2 22
REMARK SMILES IDX 1 23 3 24 21 25 22 26 23 27 24 28 25 29 26 30 27 31 28 32
REMARK SMILES IDX 92 33 29 34 91 35 30 36 31 37 32 38 85 39 33 40 90 41 84 42
REMARK SMILES IDX 86 43 34 44 89 45 83 46 82 47 35 49 69 50 48 51 68 52 49 53
REMARK SMILES IDX 52 54 67 55 87 56 50 57 51 58 66 60 88 61 53 62 36 63 37 64
REMARK SMILES IDX 46 65 38 66 39 67 45 68 47 69 40 70 41 71 42 72 43 73 44 74
REMARK SMILES IDX 70 75 71 76 80 77 72 78 73 79 79 80 81 81 74 82 75 83 76 84
REMARK SMILES IDX 77 85 78 86 54 87 55 88 64 89 56 90 57 91 63 92 65 93 58 94
REMARK SMILES IDX 59 95 60 96 61 97 62 98
REMARK H PARENT 86 48 52 59
REMARK Flexibility Score: inf
ROOT
ATOM      1  C   UNL A   1      34.447  23.727  26.252  1.00  0.00     0.188 C 
ENDROOT
BRANCH   1   2
ATOM      2  C   UNL A   1      34.443  22.598  27.302  1.00  0.00     0.188 C 
BRANCH   2   3
ATOM      3  O   UNL A   1      33.617  21.457  27.132  1.00  0.00    -0.376 OA
BRANCH   3   4
ATOM      4  C   UNL A   1      33.776  20.620  25.998  1.00  0.00     0.202 C 
BRANCH   4   5
ATOM      5  C   UNL A   1      32.800  20.676  24.816  1.00  0.00     0.261 C 
BRANCH   5   6
ATOM      6  O   UNL A   1      33.336  21.256  23.621  1.00  0.00    -0.460 OA
BRANCH   6   7
ATOM      7  C   UNL A   1      32.410  21.753  22.762  1.00  0.00     0.338 C 
ATOM      8  O   UNL A   1      31.797  21.144  21.911  1.00  0.00    -0.246 OA
BRANCH   7   9
ATOM      9  C   UNL A   1      32.119  23.163  23.100  1.00  0.00     0.063 A 
ATOM     10  C   UNL A   1      31.397  25.836  23.586  1.00  0.00     0.018 A 
ATOM     11  C   UNL A   1      30.493  24.798  23.853  1.00  0.00     0.012 A 
ATOM     12  C   UNL A   1      32.688  25.491  23.146  1.00  0.00     0.131 A 
ATOM     13  C   UNL A   1      30.846  23.471  23.596  1.00  0.00     0.016 A 
ATOM     14  C   UNL A   1      33.062  24.171  22.909  1.00  0.00     0.055 A 
ATOM     15  F   UNL A   1      33.588  26.454  22.890  1.00  0.00    -0.206 F 
BRANCH  10  16
ATOM     16  C   UNL A   1      30.960  27.239  23.632  1.00  0.00    -0.015 A 
ATOM     17  C   UNL A   1      31.064  29.408  24.755  1.00  0.00     0.018 A 
ATOM     18  C   UNL A   1      30.213  29.950  23.788  1.00  0.00     0.012 A 
ATOM     19  C   UNL A   1      31.427  28.062  24.674  1.00  0.00     0.020 A 
ATOM     20  C   UNL A   1      29.755  29.154  22.738  1.00  0.00     0.001 A 
ATOM     21  C   UNL A   1      30.130  27.807  22.656  1.00  0.00     0.009 A 
BRANCH  17  22
ATOM     22  C   UNL A   1      31.565  30.279  25.854  1.00  0.00     0.159 C 
ATOM     23  C   UNL A   1      32.465  29.672  26.902  1.00  0.00     0.093 C 
ATOM     24  O   UNL A   1      31.273  31.472  25.870  1.00  0.00    -0.295 OA
ENDBRANCH  17  22
ENDBRANCH  10  16
ENDBRANCH   7   9
ENDBRANCH   6   7
ENDBRANCH   5   6
ENDBRANCH   4   5
ENDBRANCH   3   4
ENDBRANCH   2   3
ENDBRANCH   1   2
BRANCH   1  25
ATOM     25  O   UNL A   1      35.594  23.875  25.451  1.00  0.00    -0.376 OA
BRANCH  25  26
ATOM     26  C   UNL A   1      36.805  23.211  25.768  1.00  0.00     0.202 C 
BRANCH  26  27
ATOM     27  C   UNL A   1      38.233  23.756  25.583  1.00  0.00     0.261 C 
BRANCH  27  28
ATOM     28  O   UNL A   1      38.945  24.209  26.733  1.00  0.00    -0.460 OA
BRANCH  28  29
ATOM     29  C   UNL A   1      39.900  25.138  26.485  1.00  0.00     0.338 C 
ATOM     30  O   UNL A   1      40.418  25.395  25.411  1.00  0.00    -0.246 OA
BRANCH  29  31
ATOM     31  C   UNL A   1      40.108  25.942  27.702  1.00  0.00     0.060 A 
ATOM     32  C   UNL A   1      39.259  25.724  28.794  1.00  0.00     0.016 A 
ATOM     33  C   UNL A   1      41.088  26.935  27.744  1.00  0.00     0.016 A 
ATOM     34  C   UNL A   1      39.358  26.535  29.922  1.00  0.00     0.010 A 
ATOM     35  C   UNL A   1      41.175  27.758  28.869  1.00  0.00     0.010 A 
ATOM     36  C   UNL A   1      40.283  27.588  29.943  1.00  0.00    -0.014 A 
BRANCH  36  37
ATOM     37  C   UNL A   1      40.162  28.640  30.980  1.00  0.00     0.031 A 
ATOM     38  C   UNL A   1      41.077  28.569  32.173  1.00  0.00     0.074 A 
ATOM     39  C   UNL A   1      39.283  29.649  30.857  1.00  0.00     0.049 A 
ATOM     40  N   UNL A   1      41.155  29.362  33.210  1.00  0.00    -0.248 NA
ATOM     41  C   UNL A   1      42.033  27.449  32.197  1.00  0.00     0.031 C 
ATOM     42  C   UNL A   1      38.374  29.848  29.730  1.00  0.00     0.029 A 
ATOM     43  N   UNL A   1      39.013  30.699  31.699  1.00  0.00    -0.354 N 
ATOM     44  C   UNL A   1      42.155  28.830  34.017  1.00  0.00     0.074 A 
ATOM     45  C   UNL A   1      42.636  27.633  33.362  1.00  0.00     0.031 C 
ATOM     46  C   UNL A   1      37.643  30.956  29.952  1.00  0.00     0.029 A 
ATOM     47  C   UNL A   1      38.013  31.525  31.247  1.00  0.00     0.049 A 
ATOM     48  H   UNL A   1      39.491  30.844  32.547  1.00  0.00     0.167 HD
ATOM     49  C   UNL A   1      42.633  29.299  35.193  1.00  0.00     0.037 A 
ATOM     50  C   UNL A   1      37.456  32.610  31.821  1.00  0.00     0.037 A 
ATOM     51  C   UNL A   1      42.148  30.487  35.842  1.00  0.00     0.049 A 
ATOM     52  C   UNL A   1      37.962  33.079  33.162  1.00  0.00     0.074 A 
ATOM     53  C   UNL A   1      42.581  31.059  37.026  1.00  0.00     0.029 A 
ATOM     54  N   UNL A   1      41.112  31.279  35.370  1.00  0.00    -0.354 N 
ATOM     55  N   UNL A   1      38.928  32.586  33.902  1.00  0.00    -0.248 NA
ATOM     56  C   UNL A   1      37.303  34.258  33.745  1.00  0.00     0.031 C 
ATOM     57  C   UNL A   1      41.772  32.169  37.295  1.00  0.00     0.029 A 
ATOM     58  C   UNL A   1      40.874  32.321  36.250  1.00  0.00     0.049 A 
ATOM     59  H   UNL A   1      40.618  31.122  34.533  1.00  0.00     0.167 HD
ATOM     60  C   UNL A   1      39.020  33.417  35.014  1.00  0.00     0.074 A 
ATOM     61  C   UNL A   1      38.011  34.442  34.852  1.00  0.00     0.031 C 
ATOM     62  C   UNL A   1      39.872  33.344  36.069  1.00  0.00     0.037 A 
BRANCH  49  63
ATOM     63  C   UNL A   1      43.706  28.490  35.868  1.00  0.00     0.058 A 
ATOM     64  C   UNL A   1      45.072  28.740  35.657  1.00  0.00     0.135 A 
ATOM     65  C   UNL A   1      43.361  27.434  36.729  1.00  0.00     0.135 A 
ATOM     66  F   UNL A   1      45.458  29.724  34.828  1.00  0.00    -0.206 F 
ATOM     67  C   UNL A   1      46.056  27.947  36.238  1.00  0.00     0.059 A 
ATOM     68  C   UNL A   1      44.329  26.647  37.345  1.00  0.00     0.059 A 
ATOM     69  F   UNL A   1      42.071  27.150  36.966  1.00  0.00    -0.206 F 
ATOM     70  C   UNL A   1      45.673  26.896  37.075  1.00  0.00     0.060 A 
BRANCH  70  71
ATOM     71  S   UNL A   1      46.956  25.852  37.796  1.00  0.00     0.124 S 
ATOM     72  O   UNL A   1      47.446  25.141  36.619  1.00  0.00    -0.237 OA
ATOM     73  O   UNL A   1      47.873  26.833  38.369  1.00  0.00    -0.237 OA
ATOM     74  O   UNL A   1      46.229  25.039  38.764  1.00  0.00    -0.744 OA
ENDBRANCH  70  71
ENDBRANCH  49  63
BRANCH  50  75
ATOM     75  C   UNL A   1      36.370  33.344  31.121  1.00  0.00     0.058 A 
ATOM     76  C   UNL A   1      35.041  33.255  31.561  1.00  0.00     0.135 A 
ATOM     77  C   UNL A   1      36.637  34.156  30.008  1.00  0.00     0.135 A 
ATOM     78  F   UNL A   1      34.734  32.481  32.613  1.00  0.00    -0.206 F 
ATOM     79  C   UNL A   1      34.014  33.942  30.923  1.00  0.00     0.059 A 
ATOM     80  C   UNL A   1      35.630  34.872  29.367  1.00  0.00     0.059 A 
ATOM     81  F   UNL A   1      37.893  34.280  29.551  1.00  0.00    -0.206 F 
ATOM     82  C   UNL A   1      34.319  34.755  29.830  1.00  0.00     0.060 A 
BRANCH  82  83
ATOM     83  S   UNL A   1      32.987  35.695  29.054  1.00  0.00     0.124 S 
ATOM     84  O   UNL A   1      33.728  36.752  28.377  1.00  0.00    -0.237 OA
ATOM     85  O   UNL A   1      32.370  34.692  28.192  1.00  0.00    -0.237 OA
ATOM     86  O   UNL A   1      32.173  36.120  30.189  1.00  0.00    -0.744 OA
ENDBRANCH  82  83
ENDBRANCH  50  75
BRANCH  62  87
ATOM     87  C   UNL A   1      39.793  34.433  37.105  1.00  0.00     0.058 A 
ATOM     88  C   UNL A   1      40.412  35.679  36.927  1.00  0.00     0.135 A 
ATOM     89  C   UNL A   1      39.040  34.239  38.276  1.00  0.00     0.135 A 
ATOM     90  F   UNL A   1      41.148  35.917  35.829  1.00  0.00    -0.206 F 
ATOM     91  C   UNL A   1      40.311  36.685  37.883  1.00  0.00     0.059 A 
ATOM     92  C   UNL A   1      38.901  35.240  39.231  1.00  0.00     0.059 A 
ATOM     93  F   UNL A   1      38.415  33.070  38.491  1.00  0.00    -0.206 F 
ATOM     94  C   UNL A   1      39.553  36.456  39.033  1.00  0.00     0.060 A 
BRANCH  94  95
ATOM     95  S   UNL A   1      39.407  37.775  40.256  1.00  0.00     0.124 S 
ATOM     96  O   UNL A   1      38.376  38.617  39.659  1.00  0.00    -0.237 OA
ATOM     97  O   UNL A   1      39.011  37.046  41.458  1.00  0.00    -0.237 OA
ATOM     98  O   UNL A   1      40.746  38.353  40.295  1.00  0.00    -0.744 OA
ENDBRANCH  94  95
ENDBRANCH  62  87
ENDBRANCH  36  37
ENDBRANCH  29  31
ENDBRANCH  28  29
ENDBRANCH  27  28
ENDBRANCH  26  27
ENDBRANCH  25  26
ENDBRANCH   1  25
TORSDOF 22
ENDMDL
MODEL 3
REMARK VINA RESULT:     -10.4      1.147      2.074
REMARK SMILES CC(=O)c1cccc(-c2ccc(C(=O)OCCOCCOCCOC(=O)c3ccc(-c4c5nc(c(-c6c(F)cc(S(=O)(=O)[O-])cc6F)c6ccc([nH]6)c(-c6c(F)cc(S(=O)(=O)[O-])cc6F)c6nc(c(-c7c(F)cc(S(=O)(=O)[O-])cc7F)c7ccc4[nH]7)C=C6)C=C5)cc3)cc2F)c1
REMARK SMILES IDX 20 1 19 2 18 3 17 4 16 5 15 6 13 7 14 8 12 9 9 10 10 11
REMARK SMILES IDX 94 12 11 13 93 14 95 15 8 16 4 17 5 18 96 19 6 20 7 21 2 22
REMARK SMILES IDX 1 23 3 24 21 25 22 26 23 27 24 28 25 29 26 30 27 31 28 32
REMARK SMILES IDX 92 33 29 34 91 35 30 36 31 37 32 38 85 39 33 40 90 41 84 42
REMARK SMILES IDX 86 43 34 44 89 45 83 46 82 47 35 49 69 50 48 51 68 52 49 53
REMARK SMILES IDX 52 54 67 55 87 56 50 57 51 58 66 60 88 61 53 62 36 63 37 64
REMARK SMILES IDX 46 65 38 66 39 67 45 68 47 69 40 70 41 71 42 72 43 73 44 74
REMARK SMILES IDX 70 75 71 76 80 77 72 78 73 79 79 80 81 81 74 82 75 83 76 84
REMARK SMILES IDX 77 85 78 86 54 87 55 88 64 89 56 90 57 91 63 92 65 93 58 94
REMARK SMILES IDX 59 95 60 96 61 97 62 98
REMARK H PARENT 86 48 52 59
REMARK Flexibility Score: inf
ROOT
ATOM      1  C   UNL A   1      34.706  36.096  32.925  1.00  0.00     0.188 C 
ENDROOT
BRANCH   1   2
ATOM      2  C   UNL A   1      33.481  35.267  32.490  1.00  0.00     0.188 C 
BRANCH   2   3
ATOM      3  O   UNL A   1      33.067  35.248  31.134  1.00  0.00    -0.376 OA
BRANCH   3   4
ATOM      4  C   UNL A   1      33.980  34.888  30.109  1.00  0.00     0.202 C 
BRANCH   4   5
ATOM      5  C   UNL A   1      33.553  34.006  28.929  1.00  0.00     0.261 C 
BRANCH   5   6
ATOM      6  O   UNL A   1      33.964  32.637  29.023  1.00  0.00    -0.460 OA
BRANCH   6   7
ATOM      7  C   UNL A   1      34.729  32.199  27.990  1.00  0.00     0.338 C 
ATOM      8  O   UNL A   1      35.780  32.665  27.606  1.00  0.00    -0.246 OA
BRANCH   7   9
ATOM      9  C   UNL A   1      34.172  30.938  27.453  1.00  0.00     0.063 A 
ATOM     10  C   UNL A   1      33.290  28.538  26.284  1.00  0.00     0.018 A 
ATOM     11  C   UNL A   1      34.529  28.595  26.938  1.00  0.00     0.012 A 
ATOM     12  C   UNL A   1      32.481  29.690  26.303  1.00  0.00     0.131 A 
ATOM     13  C   UNL A   1      34.975  29.791  27.505  1.00  0.00     0.016 A 
ATOM     14  C   UNL A   1      32.902  30.882  26.884  1.00  0.00     0.055 A 
ATOM     15  F   UNL A   1      31.281  29.674  25.698  1.00  0.00    -0.206 F 
BRANCH  10  16
ATOM     16  C   UNL A   1      32.916  27.359  25.490  1.00  0.00    -0.015 A 
ATOM     17  C   UNL A   1      32.451  24.960  25.432  1.00  0.00     0.018 A 
ATOM     18  C   UNL A   1      32.169  25.047  24.066  1.00  0.00     0.012 A 
ATOM     19  C   UNL A   1      32.824  26.110  26.131  1.00  0.00     0.020 A 
ATOM     20  C   UNL A   1      32.237  26.281  23.418  1.00  0.00     0.001 A 
ATOM     21  C   UNL A   1      32.604  27.432  24.126  1.00  0.00     0.009 A 
BRANCH  17  22
ATOM     22  C   UNL A   1      32.347  23.640  26.114  1.00  0.00     0.159 C 
ATOM     23  C   UNL A   1      30.985  23.009  26.261  1.00  0.00     0.093 C 
ATOM     24  O   UNL A   1      33.364  23.074  26.508  1.00  0.00    -0.295 OA
ENDBRANCH  17  22
ENDBRANCH  10  16
ENDBRANCH   7   9
ENDBRANCH   6   7
ENDBRANCH   5   6
ENDBRANCH   4   5
ENDBRANCH   3   4
ENDBRANCH   2   3
ENDBRANCH   1   2
BRANCH   1  25
ATOM     25  O   UNL A   1      35.851  35.402  33.358  1.00  0.00    -0.376 OA
BRANCH  25  26
ATOM     26  C   UNL A   1      36.149  34.102  32.878  1.00  0.00     0.202 C 
BRANCH  26  27
ATOM     27  C   UNL A   1      37.391  33.677  32.072  1.00  0.00     0.261 C 
BRANCH  27  28
ATOM     28  O   UNL A   1      37.202  32.977  30.845  1.00  0.00    -0.460 OA
BRANCH  28  29
ATOM     29  C   UNL A   1      36.870  31.669  30.978  1.00  0.00     0.338 C 
ATOM     30  O   UNL A   1      35.799  31.214  31.342  1.00  0.00    -0.246 OA
BRANCH  29  31
ATOM     31  C   UNL A   1      37.963  30.844  30.435  1.00  0.00     0.060 A 
ATOM     32  C   UNL A   1      38.870  30.271  31.335  1.00  0.00     0.016 A 
ATOM     33  C   UNL A   1      38.123  30.687  29.058  1.00  0.00     0.016 A 
ATOM     34  C   UNL A   1      39.975  29.572  30.854  1.00  0.00     0.010 A 
ATOM     35  C   UNL A   1      39.241  30.000  28.577  1.00  0.00     0.010 A 
ATOM     36  C   UNL A   1      40.192  29.477  29.472  1.00  0.00    -0.014 A 
BRANCH  36  37
ATOM     37  C   UNL A   1      41.515  29.036  28.973  1.00  0.00     0.031 A 
ATOM     38  C   UNL A   1      42.625  30.051  28.912  1.00  0.00     0.074 A 
ATOM     39  C   UNL A   1      41.739  27.762  28.607  1.00  0.00     0.049 A 
ATOM     40  N   UNL A   1      43.860  29.909  28.505  1.00  0.00    -0.248 NA
ATOM     41  C   UNL A   1      42.294  31.409  29.372  1.00  0.00     0.031 C 
ATOM     42  C   UNL A   1      40.756  26.681  28.661  1.00  0.00     0.029 A 
ATOM     43  N   UNL A   1      42.872  27.165  28.115  1.00  0.00    -0.354 N 
ATOM     44  C   UNL A   1      44.448  31.162  28.645  1.00  0.00     0.074 A 
ATOM     45  C   UNL A   1      43.428  32.055  29.150  1.00  0.00     0.031 C 
ATOM     46  C   UNL A   1      41.332  25.549  28.215  1.00  0.00     0.029 A 
ATOM     47  C   UNL A   1      42.712  25.833  27.821  1.00  0.00     0.049 A 
ATOM     48  H   UNL A   1      43.720  27.648  27.984  1.00  0.00     0.167 HD
ATOM     49  C   UNL A   1      45.723  31.533  28.384  1.00  0.00     0.037 A 
ATOM     50  C   UNL A   1      43.577  24.951  27.285  1.00  0.00     0.037 A 
ATOM     51  C   UNL A   1      46.733  30.642  27.878  1.00  0.00     0.049 A 
ATOM     52  C   UNL A   1      44.975  25.401  26.942  1.00  0.00     0.074 A 
ATOM     53  C   UNL A   1      48.061  30.914  27.601  1.00  0.00     0.029 A 
ATOM     54  N   UNL A   1      46.523  29.308  27.561  1.00  0.00    -0.354 N 
ATOM     55  N   UNL A   1      45.529  26.580  27.107  1.00  0.00    -0.248 NA
ATOM     56  C   UNL A   1      45.868  24.397  26.345  1.00  0.00     0.031 C 
ATOM     57  C   UNL A   1      48.641  29.757  27.068  1.00  0.00     0.029 A 
ATOM     58  C   UNL A   1      47.690  28.748  27.068  1.00  0.00     0.049 A 
ATOM     59  H   UNL A   1      45.670  28.829  27.671  1.00  0.00     0.167 HD
ATOM     60  C   UNL A   1      46.845  26.448  26.673  1.00  0.00     0.074 A 
ATOM     61  C   UNL A   1      47.003  25.076  26.236  1.00  0.00     0.031 C 
ATOM     62  C   UNL A   1      47.836  27.375  26.649  1.00  0.00     0.037 A 
BRANCH  49  63
ATOM     63  C   UNL A   1      46.075  32.979  28.599  1.00  0.00     0.058 A 
ATOM     64  C   UNL A   1      45.922  33.941  27.587  1.00  0.00     0.135 A 
ATOM     65  C   UNL A   1      46.590  33.406  29.834  1.00  0.00     0.135 A 
ATOM     66  F   UNL A   1      45.453  33.584  26.380  1.00  0.00    -0.206 F 
ATOM     67  C   UNL A   1      46.308  35.265  27.777  1.00  0.00     0.059 A 
ATOM     68  C   UNL A   1      46.954  34.730  30.056  1.00  0.00     0.059 A 
ATOM     69  F   UNL A   1      46.758  32.529  30.836  1.00  0.00    -0.206 F 
ATOM     70  C   UNL A   1      46.831  35.647  29.014  1.00  0.00     0.060 A 
BRANCH  70  71
ATOM     71  S   UNL A   1      47.360  37.358  29.238  1.00  0.00     0.124 S 
ATOM     72  O   UNL A   1      47.625  37.394  30.673  1.00  0.00    -0.237 OA
ATOM     73  O   UNL A   1      48.535  37.438  28.376  1.00  0.00    -0.237 OA
ATOM     74  O   UNL A   1      46.206  38.132  28.792  1.00  0.00    -0.744 OA
ENDBRANCH  70  71
ENDBRANCH  49  63
BRANCH  50  75
ATOM     75  C   UNL A   1      43.157  23.543  27.059  1.00  0.00     0.058 A 
ATOM     76  C   UNL A   1      42.987  23.043  25.759  1.00  0.00     0.135 A 
ATOM     77  C   UNL A   1      42.928  22.668  28.131  1.00  0.00     0.135 A 
ATOM     78  F   UNL A   1      43.182  23.845  24.701  1.00  0.00    -0.206 F 
ATOM     79  C   UNL A   1      42.603  21.727  25.529  1.00  0.00     0.059 A 
ATOM     80  C   UNL A   1      42.565  21.340  27.927  1.00  0.00     0.059 A 
ATOM     81  F   UNL A   1      43.082  23.096  29.394  1.00  0.00    -0.206 F 
ATOM     82  C   UNL A   1      42.401  20.879  26.620  1.00  0.00     0.060 A 
BRANCH  82  83
ATOM     83  S   UNL A   1      41.969  19.154  26.305  1.00  0.00     0.124 S 
ATOM     84  O   UNL A   1      40.621  19.281  25.766  1.00  0.00    -0.237 OA
ATOM     85  O   UNL A   1      43.003  18.751  25.357  1.00  0.00    -0.237 OA
ATOM     86  O   UNL A   1      42.067  18.539  27.625  1.00  0.00    -0.744 OA
ENDBRANCH  82  83
ENDBRANCH  50  75
BRANCH  62  87
ATOM     87  C   UNL A   1      49.198  26.929  26.190  1.00  0.00     0.058 A 
ATOM     88  C   UNL A   1      49.587  26.982  24.843  1.00  0.00     0.135 A 
ATOM     89  C   UNL A   1      50.148  26.488  27.127  1.00  0.00     0.135 A 
ATOM     90  F   UNL A   1      48.718  27.391  23.904  1.00  0.00    -0.206 F 
ATOM     91  C   UNL A   1      50.859  26.589  24.436  1.00  0.00     0.059 A 
ATOM     92  C   UNL A   1      51.434  26.117  26.747  1.00  0.00     0.059 A 
ATOM     93  F   UNL A   1      49.834  26.430  28.432  1.00  0.00    -0.206 F 
ATOM     94  C   UNL A   1      51.776  26.158  25.397  1.00  0.00     0.060 A 
BRANCH  94  95
ATOM     95  S   UNL A   1      53.431  25.674  24.863  1.00  0.00     0.124 S 
ATOM     96  O   UNL A   1      53.408  24.235  25.105  1.00  0.00    -0.237 OA
ATOM     97  O   UNL A   1      53.439  26.081  23.461  1.00  0.00    -0.237 OA
ATOM     98  O   UNL A   1      54.310  26.444  25.737  1.00  0.00    -0.744 OA
ENDBRANCH  94  95
ENDBRANCH  62  87
ENDBRANCH  36  37
ENDBRANCH  29  31
ENDBRANCH  28  29
ENDBRANCH  27  28
ENDBRANCH  26  27
ENDBRANCH  25  26
ENDBRANCH   1  25
TORSDOF 22
ENDMDL
