MODEL 1
REMARK VINA RESULT:     -11.5      0.000      0.000
REMARK SMILES O=C(OCCOCCOCCOC(=O)[C@@H]1[C@@H](C(=O)Nc2nc(-c3ccc(F)cc3)cs2)[C@H]2C=C[C@@H]1O2)c1ccc(-c2c3nc(c(-c4c(F)cc(S(=O)(=O)[O-])cc4F)c4ccc([nH]4)c(-c4c(F)cc(S(=O)(=O)[O-])cc4F)c4nc(c(-c5c(F)cc(S(=O)(=O)[O-])cc5F)c5ccc2[nH]5)C=C4)C=C3)cc1
REMARK SMILES IDX 7 1 6 2 5 3 4 4 3 5 2 6 1 7 37 8 38 9 102 10 39 11 101 12
REMARK SMILES IDX 40 13 41 14 42 15 95 16 43 17 100 18 94 19 96 20 44 21 99 22
REMARK SMILES IDX 93 23 92 24 45 26 79 27 58 28 78 29 59 30 62 31 77 32 97 33
REMARK SMILES IDX 60 34 61 35 76 37 98 38 63 39 46 40 47 41 56 42 48 43 49 44
REMARK SMILES IDX 55 45 57 46 50 47 51 48 52 49 53 50 54 51 80 52 81 53 90 54
REMARK SMILES IDX 82 55 83 56 89 57 91 58 84 59 85 60 86 61 87 62 88 63 64 64
REMARK SMILES IDX 65 65 74 66 66 67 67 68 73 69 75 70 68 71 69 72 70 73 71 74
REMARK SMILES IDX 72 75 8 76 9 77 10 78 11 79 12 80 13 81 14 82 15 83 16 84
REMARK SMILES IDX 35 85 32 86 34 87 36 88 33 89 17 90 18 91 19 92 20 94 21 95
REMARK SMILES IDX 31 96 22 97 30 98 23 99 24 100 29 101 25 102 28 103 26 104
REMARK SMILES IDX 27 105
REMARK H PARENT 96 25 62 36 19 93
REMARK Flexibility Score: inf
ROOT
ATOM      1  C   UNL A   1      38.541  21.418  25.554  1.00  0.00     0.188 C 
ENDROOT
BRANCH   1   2
ATOM      2  O   UNL A   1      39.298  22.143  26.527  1.00  0.00    -0.376 OA
BRANCH   2   3
ATOM      3  C   UNL A   1      40.591  21.573  26.753  1.00  0.00     0.202 C 
BRANCH   3   4
ATOM      4  C   UNL A   1      41.330  22.139  27.973  1.00  0.00     0.261 C 
BRANCH   4   5
ATOM      5  O   UNL A   1      42.337  23.098  27.624  1.00  0.00    -0.460 OA
BRANCH   5   6
ATOM      6  C   UNL A   1      42.171  24.369  27.180  1.00  0.00     0.338 C 
ATOM      7  O   UNL A   1      42.160  24.547  25.963  1.00  0.00    -0.246 OA
BRANCH   6   8
ATOM      8  C   UNL A   1      42.011  25.582  28.050  1.00  0.00     0.060 A 
ATOM      9  C   UNL A   1      42.989  26.540  28.315  1.00  0.00     0.016 A 
ATOM     10  C   UNL A   1      40.752  25.754  28.666  1.00  0.00     0.016 A 
ATOM     11  C   UNL A   1      42.774  27.558  29.239  1.00  0.00     0.010 A 
ATOM     12  C   UNL A   1      40.510  26.805  29.558  1.00  0.00     0.010 A 
ATOM     13  C   UNL A   1      41.543  27.686  29.880  1.00  0.00    -0.014 A 
BRANCH  13  14
ATOM     14  C   UNL A   1      41.412  28.714  30.932  1.00  0.00     0.031 A 
ATOM     15  C   UNL A   1      40.388  29.785  30.759  1.00  0.00     0.074 A 
ATOM     16  C   UNL A   1      42.088  28.570  32.085  1.00  0.00     0.049 A 
ATOM     17  N   UNL A   1      39.974  30.658  31.633  1.00  0.00    -0.248 NA
ATOM     18  C   UNL A   1      39.689  29.843  29.463  1.00  0.00     0.031 C 
ATOM     19  C   UNL A   1      42.988  27.461  32.360  1.00  0.00     0.029 A 
ATOM     20  N   UNL A   1      42.123  29.303  33.239  1.00  0.00    -0.354 N 
ATOM     21  C   UNL A   1      38.920  31.319  31.026  1.00  0.00     0.074 A 
ATOM     22  C   UNL A   1      38.800  30.802  29.681  1.00  0.00     0.031 C 
ATOM     23  C   UNL A   1      43.533  27.599  33.575  1.00  0.00     0.029 A 
ATOM     24  C   UNL A   1      42.997  28.803  34.179  1.00  0.00     0.049 A 
ATOM     25  H   UNL A   1      41.575  30.108  33.383  1.00  0.00     0.167 HD
ATOM     26  C   UNL A   1      38.105  32.247  31.573  1.00  0.00     0.037 A 
ATOM     27  C   UNL A   1      43.319  29.257  35.404  1.00  0.00     0.037 A 
ATOM     28  C   UNL A   1      38.299  32.773  32.898  1.00  0.00     0.049 A 
ATOM     29  C   UNL A   1      42.529  30.422  35.913  1.00  0.00     0.074 A 
ATOM     30  C   UNL A   1      37.602  33.779  33.537  1.00  0.00     0.029 A 
ATOM     31  N   UNL A   1      39.284  32.339  33.780  1.00  0.00    -0.354 N 
ATOM     32  N   UNL A   1      41.534  31.046  35.323  1.00  0.00    -0.248 NA
ATOM     33  C   UNL A   1      42.866  30.933  37.243  1.00  0.00     0.031 C 
ATOM     34  C   UNL A   1      38.194  33.984  34.789  1.00  0.00     0.029 A 
ATOM     35  C   UNL A   1      39.236  33.080  34.947  1.00  0.00     0.049 A 
ATOM     36  H   UNL A   1      39.922  31.612  33.600  1.00  0.00     0.167 HD
ATOM     37  C   UNL A   1      41.107  32.011  36.218  1.00  0.00     0.074 A 
ATOM     38  C   UNL A   1      41.948  31.880  37.396  1.00  0.00     0.031 C 
ATOM     39  C   UNL A   1      40.112  32.920  36.083  1.00  0.00     0.037 A 
BRANCH  26  40
ATOM     40  C   UNL A   1      36.968  32.739  30.732  1.00  0.00     0.058 A 
ATOM     41  C   UNL A   1      37.163  33.741  29.773  1.00  0.00     0.135 A 
ATOM     42  C   UNL A   1      35.675  32.205  30.872  1.00  0.00     0.135 A 
ATOM     43  F   UNL A   1      38.383  34.265  29.579  1.00  0.00    -0.206 F 
ATOM     44  C   UNL A   1      36.113  34.210  28.988  1.00  0.00     0.059 A 
ATOM     45  C   UNL A   1      34.613  32.648  30.088  1.00  0.00     0.059 A 
ATOM     46  F   UNL A   1      35.445  31.214  31.749  1.00  0.00    -0.206 F 
ATOM     47  C   UNL A   1      34.840  33.659  29.155  1.00  0.00     0.060 A 
BRANCH  47  48
ATOM     48  S   UNL A   1      33.498  34.258  28.106  1.00  0.00     0.124 S 
ATOM     49  O   UNL A   1      34.218  35.073  27.134  1.00  0.00    -0.237 OA
ATOM     50  O   UNL A   1      32.928  33.015  27.599  1.00  0.00    -0.237 OA
ATOM     51  O   UNL A   1      32.645  34.995  29.036  1.00  0.00    -0.744 OA
ENDBRANCH  47  48
ENDBRANCH  26  40
BRANCH  27  52
ATOM     52  C   UNL A   1      44.396  28.599  36.194  1.00  0.00     0.058 A 
ATOM     53  C   UNL A   1      44.099  27.538  37.067  1.00  0.00     0.135 A 
ATOM     54  C   UNL A   1      45.730  29.026  36.129  1.00  0.00     0.135 A 
ATOM     55  F   UNL A   1      42.838  27.091  37.180  1.00  0.00    -0.206 F 
ATOM     56  C   UNL A   1      45.078  26.932  37.850  1.00  0.00     0.059 A 
ATOM     57  C   UNL A   1      46.734  28.421  36.887  1.00  0.00     0.059 A 
ATOM     58  F   UNL A   1      46.071  30.036  35.316  1.00  0.00    -0.206 F 
ATOM     59  C   UNL A   1      46.395  27.379  37.752  1.00  0.00     0.060 A 
BRANCH  59  60
ATOM     60  S   UNL A   1      47.660  26.556  38.748  1.00  0.00     0.124 S 
ATOM     61  O   UNL A   1      47.628  25.201  38.206  1.00  0.00    -0.237 OA
ATOM     62  O   UNL A   1      48.852  27.337  38.437  1.00  0.00    -0.237 OA
ATOM     63  O   UNL A   1      47.160  26.698  40.112  1.00  0.00    -0.744 OA
ENDBRANCH  59  60
ENDBRANCH  27  52
BRANCH  39  64
ATOM     64  C   UNL A   1      39.904  33.845  37.239  1.00  0.00     0.058 A 
ATOM     65  C   UNL A   1      39.052  33.486  38.294  1.00  0.00     0.135 A 
ATOM     66  C   UNL A   1      40.517  35.106  37.273  1.00  0.00     0.135 A 
ATOM     67  F   UNL A   1      38.447  32.288  38.299  1.00  0.00    -0.206 F 
ATOM     68  C   UNL A   1      38.804  34.358  39.344  1.00  0.00     0.059 A 
ATOM     69  C   UNL A   1      40.300  35.985  38.326  1.00  0.00     0.059 A 
ATOM     70  F   UNL A   1      41.352  35.479  36.290  1.00  0.00    -0.206 F 
ATOM     71  C   UNL A   1      39.429  35.606  39.349  1.00  0.00     0.060 A 
BRANCH  71  72
ATOM     72  S   UNL A   1      39.114  36.721  40.729  1.00  0.00     0.124 S 
ATOM     73  O   UNL A   1      38.266  35.899  41.586  1.00  0.00    -0.237 OA
ATOM     74  O   UNL A   1      40.460  36.984  41.230  1.00  0.00    -0.237 OA
ATOM     75  O   UNL A   1      38.455  37.862  40.099  1.00  0.00    -0.744 OA
ENDBRANCH  71  72
ENDBRANCH  39  64
ENDBRANCH  13  14
ENDBRANCH   6   8
ENDBRANCH   5   6
ENDBRANCH   4   5
ENDBRANCH   3   4
ENDBRANCH   2   3
ENDBRANCH   1   2
BRANCH   1  76
ATOM     76  C   UNL A   1      37.187  22.062  25.247  1.00  0.00     0.188 C 
BRANCH  76  77
ATOM     77  O   UNL A   1      36.955  22.464  23.900  1.00  0.00    -0.376 OA
BRANCH  77  78
ATOM     78  C   UNL A   1      35.599  22.678  23.504  1.00  0.00     0.202 C 
BRANCH  78  79
ATOM     79  C   UNL A   1      34.936  23.990  23.943  1.00  0.00     0.261 C 
BRANCH  79  80
ATOM     80  O   UNL A   1      33.680  24.227  23.290  1.00  0.00    -0.463 OA
BRANCH  80  81
ATOM     81  C   UNL A   1      33.454  25.500  22.861  1.00  0.00     0.312 C 
ATOM     82  O   UNL A   1      33.849  25.955  21.793  1.00  0.00    -0.252 OA
BRANCH  81  83
ATOM     83  C   UNL A   1      32.480  26.240  23.752  1.00  0.00     0.147 C 
ATOM     84  C   UNL A   1      31.206  25.391  23.973  1.00  0.00     0.129 C 
ATOM     85  C   UNL A   1      31.912  27.493  23.110  1.00  0.00     0.157 C 
ATOM     86  C   UNL A   1      30.123  26.283  23.329  1.00  0.00     0.155 C 
ATOM     87  C   UNL A   1      31.026  28.216  24.091  1.00  0.00     0.004 C 
ATOM     88  O   UNL A   1      30.905  26.891  22.262  1.00  0.00    -0.365 OA
ATOM     89  C   UNL A   1      29.897  27.501  24.173  1.00  0.00     0.004 C 
BRANCH  84  90
ATOM     90  C   UNL A   1      30.799  24.954  25.375  1.00  0.00     0.233 C 
ATOM     91  O   UNL A   1      30.311  25.772  26.164  1.00  0.00    -0.274 OA
ATOM     92  N   UNL A   1      30.600  23.637  25.651  1.00  0.00    -0.302 N 
ATOM     93  H   UNL A   1      29.680  23.380  25.890  1.00  0.00     0.172 HD
BRANCH  92  94
ATOM     94  C   UNL A   1      31.521  22.629  25.638  1.00  0.00     0.189 A 
ATOM     95  N   UNL A   1      31.642  21.579  24.862  1.00  0.00    -0.220 NA
ATOM     96  S   UNL A   1      32.767  22.873  26.781  1.00  0.00    -0.105 S 
ATOM     97  C   UNL A   1      32.778  20.861  25.228  1.00  0.00     0.084 A 
ATOM     98  C   UNL A   1      33.485  21.402  26.287  1.00  0.00     0.097 A 
BRANCH  97  99
ATOM     99  C   UNL A   1      33.223  19.654  24.537  1.00  0.00     0.001 A 
ATOM    100  C   UNL A   1      34.463  19.078  24.842  1.00  0.00     0.013 A 
ATOM    101  C   UNL A   1      32.395  19.020  23.592  1.00  0.00     0.013 A 
ATOM    102  C   UNL A   1      34.848  17.873  24.241  1.00  0.00     0.040 A 
ATOM    103  C   UNL A   1      32.794  17.835  22.969  1.00  0.00     0.040 A 
ATOM    104  C   UNL A   1      34.010  17.262  23.313  1.00  0.00     0.123 A 
ATOM    105  F   UNL A   1      34.370  16.102  22.750  1.00  0.00    -0.207 F 
ENDBRANCH  97  99
ENDBRANCH  92  94
ENDBRANCH  84  90
ENDBRANCH  81  83
ENDBRANCH  80  81
ENDBRANCH  79  80
ENDBRANCH  78  79
ENDBRANCH  77  78
ENDBRANCH  76  77
ENDBRANCH   1  76
TORSDOF 23
ENDMDL
MODEL 2
REMARK VINA RESULT:     -11.4      2.152      8.943
REMARK SMILES O=C(OCCOCCOCCOC(=O)[C@@H]1[C@@H](C(=O)Nc2nc(-c3ccc(F)cc3)cs2)[C@H]2C=C[C@@H]1O2)c1ccc(-c2c3nc(c(-c4c(F)cc(S(=O)(=O)[O-])cc4F)c4ccc([nH]4)c(-c4c(F)cc(S(=O)(=O)[O-])cc4F)c4nc(c(-c5c(F)cc(S(=O)(=O)[O-])cc5F)c5ccc2[nH]5)C=C4)C=C3)cc1
REMARK SMILES IDX 7 1 6 2 5 3 4 4 3 5 2 6 1 7 37 8 38 9 102 10 39 11 101 12
REMARK SMILES IDX 40 13 41 14 42 15 95 16 43 17 100 18 94 19 96 20 44 21 99 22
REMARK SMILES IDX 93 23 92 24 45 26 79 27 58 28 78 29 59 30 62 31 77 32 97 33
REMARK SMILES IDX 60 34 61 35 76 37 98 38 63 39 46 40 47 41 56 42 48 43 49 44
REMARK SMILES IDX 55 45 57 46 50 47 51 48 52 49 53 50 54 51 80 52 81 53 90 54
REMARK SMILES IDX 82 55 83 56 89 57 91 58 84 59 85 60 86 61 87 62 88 63 64 64
REMARK SMILES IDX 65 65 74 66 66 67 67 68 73 69 75 70 68 71 69 72 70 73 71 74
REMARK SMILES IDX 72 75 8 76 9 77 10 78 11 79 12 80 13 81 14 82 15 83 16 84
REMARK SMILES IDX 35 85 32 86 34 87 36 88 33 89 17 90 18 91 19 92 20 94 21 95
REMARK SMILES IDX 31 96 22 97 30 98 23 99 24 100 29 101 25 102 28 103 26 104
REMARK SMILES IDX 27 105
REMARK H PARENT 96 25 62 36 19 93
REMARK Flexibility Score: inf
ROOT
ATOM      1  C   UNL A   1      41.910  19.849  26.223  1.00  0.00     0.188 C 
ENDROOT
BRANCH   1   2
ATOM      2  O   UNL A   1      42.466  20.867  25.385  1.00  0.00    -0.376 OA
BRANCH   2   3
ATOM      3  C   UNL A   1      43.422  21.680  26.071  1.00  0.00     0.202 C 
BRANCH   3   4
ATOM      4  C   UNL A   1      42.809  22.681  27.060  1.00  0.00     0.261 C 
BRANCH   4   5
ATOM      5  O   UNL A   1      43.269  24.024  26.858  1.00  0.00    -0.460 OA
BRANCH   5   6
ATOM      6  C   UNL A   1      42.536  25.137  26.609  1.00  0.00     0.338 C 
ATOM      7  O   UNL A   1      42.196  25.344  25.444  1.00  0.00    -0.246 OA
BRANCH   6   8
ATOM      8  C   UNL A   1      42.112  26.148  27.634  1.00  0.00     0.060 A 
ATOM      9  C   UNL A   1      42.771  27.337  27.940  1.00  0.00     0.016 A 
ATOM     10  C   UNL A   1      40.939  25.852  28.363  1.00  0.00     0.016 A 
ATOM     11  C   UNL A   1      42.361  28.141  28.999  1.00  0.00     0.010 A 
ATOM     12  C   UNL A   1      40.488  26.682  29.397  1.00  0.00     0.010 A 
ATOM     13  C   UNL A   1      41.231  27.810  29.745  1.00  0.00    -0.014 A 
BRANCH  13  14
ATOM     14  C   UNL A   1      40.911  28.638  30.925  1.00  0.00     0.031 A 
ATOM     15  C   UNL A   1      41.754  28.493  32.148  1.00  0.00     0.074 A 
ATOM     16  C   UNL A   1      39.991  29.613  30.820  1.00  0.00     0.049 A 
ATOM     17  N   UNL A   1      41.775  29.247  33.210  1.00  0.00    -0.248 NA
ATOM     18  C   UNL A   1      42.747  27.405  32.153  1.00  0.00     0.031 C 
ATOM     19  C   UNL A   1      39.245  29.891  29.602  1.00  0.00     0.029 A 
ATOM     20  N   UNL A   1      39.536  30.559  31.695  1.00  0.00    -0.354 N 
ATOM     21  C   UNL A   1      42.828  28.776  33.977  1.00  0.00     0.074 A 
ATOM     22  C   UNL A   1      43.378  27.624  33.298  1.00  0.00     0.031 C 
ATOM     23  C   UNL A   1      38.388  30.898  29.806  1.00  0.00     0.029 A 
ATOM     24  C   UNL A   1      38.541  31.356  31.173  1.00  0.00     0.049 A 
ATOM     25  H   UNL A   1      39.886  30.661  32.610  1.00  0.00     0.167 HD
ATOM     26  C   UNL A   1      43.307  29.299  35.127  1.00  0.00     0.037 A 
ATOM     27  C   UNL A   1      37.840  32.360  31.730  1.00  0.00     0.037 A 
ATOM     28  C   UNL A   1      42.690  30.412  35.796  1.00  0.00     0.049 A 
ATOM     29  C   UNL A   1      38.267  32.793  33.098  1.00  0.00     0.074 A 
ATOM     30  C   UNL A   1      43.020  30.981  37.010  1.00  0.00     0.029 A 
ATOM     31  N   UNL A   1      41.595  31.117  35.304  1.00  0.00    -0.354 N 
ATOM     32  N   UNL A   1      39.265  32.333  33.819  1.00  0.00    -0.248 NA
ATOM     33  C   UNL A   1      37.515  33.883  33.723  1.00  0.00     0.031 C 
ATOM     34  C   UNL A   1      42.097  31.999  37.274  1.00  0.00     0.029 A 
ATOM     35  C   UNL A   1      41.214  32.093  36.207  1.00  0.00     0.049 A 
ATOM     36  H   UNL A   1      41.155  30.944  34.441  1.00  0.00     0.167 HD
ATOM     37  C   UNL A   1      39.278  33.091  34.976  1.00  0.00     0.074 A 
ATOM     38  C   UNL A   1      38.192  34.049  34.852  1.00  0.00     0.031 C 
ATOM     39  C   UNL A   1      40.110  33.008  36.042  1.00  0.00     0.037 A 
BRANCH  26  40
ATOM     40  C   UNL A   1      44.527  28.657  35.712  1.00  0.00     0.058 A 
ATOM     41  C   UNL A   1      44.417  27.602  36.628  1.00  0.00     0.135 A 
ATOM     42  C   UNL A   1      45.817  29.086  35.355  1.00  0.00     0.135 A 
ATOM     43  F   UNL A   1      43.210  27.136  36.981  1.00  0.00    -0.206 F 
ATOM     44  C   UNL A   1      45.543  27.001  37.182  1.00  0.00     0.059 A 
ATOM     45  C   UNL A   1      46.958  28.490  35.885  1.00  0.00     0.059 A 
ATOM     46  F   UNL A   1      45.977  30.066  34.450  1.00  0.00    -0.206 F 
ATOM     47  C   UNL A   1      46.811  27.454  36.807  1.00  0.00     0.060 A 
BRANCH  47  48
ATOM     48  S   UNL A   1      48.260  26.641  37.513  1.00  0.00     0.124 S 
ATOM     49  O   UNL A   1      48.092  25.269  37.047  1.00  0.00    -0.237 OA
ATOM     50  O   UNL A   1      49.356  27.390  36.908  1.00  0.00    -0.237 OA
ATOM     51  O   UNL A   1      48.094  26.841  38.951  1.00  0.00    -0.744 OA
ENDBRANCH  47  48
ENDBRANCH  26  40
BRANCH  27  52
ATOM     52  C   UNL A   1      36.718  33.000  30.988  1.00  0.00     0.058 A 
ATOM     53  C   UNL A   1      36.972  33.874  29.918  1.00  0.00     0.135 A 
ATOM     54  C   UNL A   1      35.378  32.789  31.345  1.00  0.00     0.135 A 
ATOM     55  F   UNL A   1      38.234  34.124  29.536  1.00  0.00    -0.206 F 
ATOM     56  C   UNL A   1      35.945  34.519  29.234  1.00  0.00     0.059 A 
ATOM     57  C   UNL A   1      34.330  33.406  30.662  1.00  0.00     0.059 A 
ATOM     58  F   UNL A   1      35.077  31.967  32.361  1.00  0.00    -0.206 F 
ATOM     59  C   UNL A   1      34.624  34.277  29.612  1.00  0.00     0.060 A 
BRANCH  59  60
ATOM     60  S   UNL A   1      33.302  35.095  28.690  1.00  0.00     0.124 S 
ATOM     61  O   UNL A   1      32.784  33.999  27.878  1.00  0.00    -0.237 OA
ATOM     62  O   UNL A   1      32.425  35.563  29.759  1.00  0.00    -0.237 OA
ATOM     63  O   UNL A   1      34.001  36.145  27.954  1.00  0.00    -0.744 OA
ENDBRANCH  59  60
ENDBRANCH  27  52
BRANCH  39  64
ATOM     64  C   UNL A   1      39.854  33.974  37.154  1.00  0.00     0.058 A 
ATOM     65  C   UNL A   1      40.540  35.196  37.208  1.00  0.00     0.135 A 
ATOM     66  C   UNL A   1      38.960  33.661  38.189  1.00  0.00     0.135 A 
ATOM     67  F   UNL A   1      41.403  35.532  36.238  1.00  0.00    -0.206 F 
ATOM     68  C   UNL A   1      40.356  36.075  38.265  1.00  0.00     0.059 A 
ATOM     69  C   UNL A   1      38.744  34.537  39.244  1.00  0.00     0.059 A 
ATOM     70  F   UNL A   1      38.272  32.508  38.163  1.00  0.00    -0.206 F 
ATOM     71  C   UNL A   1      39.459  35.736  39.280  1.00  0.00     0.060 A 
BRANCH  71  72
ATOM     72  S   UNL A   1      39.214  36.897  40.637  1.00  0.00     0.124 S 
ATOM     73  O   UNL A   1      40.568  37.400  40.843  1.00  0.00    -0.237 OA
ATOM     74  O   UNL A   1      38.263  37.846  40.065  1.00  0.00    -0.237 OA
ATOM     75  O   UNL A   1      38.683  36.058  41.707  1.00  0.00    -0.744 OA
ENDBRANCH  71  72
ENDBRANCH  39  64
ENDBRANCH  13  14
ENDBRANCH   6   8
ENDBRANCH   5   6
ENDBRANCH   4   5
ENDBRANCH   3   4
ENDBRANCH   2   3
ENDBRANCH   1   2
BRANCH   1  76
ATOM     76  C   UNL A   1      40.388  19.948  26.355  1.00  0.00     0.188 C 
BRANCH  76  77
ATOM     77  O   UNL A   1      39.610  19.219  25.410  1.00  0.00    -0.376 OA
BRANCH  77  78
ATOM     78  C   UNL A   1      38.342  19.765  25.045  1.00  0.00     0.202 C 
BRANCH  78  79
ATOM     79  C   UNL A   1      38.092  21.244  25.371  1.00  0.00     0.261 C 
BRANCH  79  80
ATOM     80  O   UNL A   1      37.257  21.896  24.403  1.00  0.00    -0.463 OA
BRANCH  80  81
ATOM     81  C   UNL A   1      36.151  22.527  24.887  1.00  0.00     0.312 C 
ATOM     82  O   UNL A   1      36.172  23.568  25.536  1.00  0.00    -0.252 OA
BRANCH  81  83
ATOM     83  C   UNL A   1      34.869  21.919  24.363  1.00  0.00     0.147 C 
ATOM     84  C   UNL A   1      33.693  22.907  24.551  1.00  0.00     0.129 C 
ATOM     85  C   UNL A   1      34.400  20.720  25.168  1.00  0.00     0.157 C 
ATOM     86  C   UNL A   1      32.780  22.121  25.518  1.00  0.00     0.155 C 
ATOM     87  C   UNL A   1      33.173  20.121  24.530  1.00  0.00     0.004 C 
ATOM     88  O   UNL A   1      33.789  21.407  26.286  1.00  0.00    -0.365 OA
ATOM     89  C   UNL A   1      32.163  20.956  24.806  1.00  0.00     0.004 C 
BRANCH  84  90
ATOM     90  C   UNL A   1      32.910  23.419  23.348  1.00  0.00     0.233 C 
ATOM     91  O   UNL A   1      33.047  22.881  22.243  1.00  0.00    -0.274 OA
ATOM     92  N   UNL A   1      31.800  24.182  23.528  1.00  0.00    -0.302 N 
ATOM     93  H   UNL A   1      30.949  23.786  23.229  1.00  0.00     0.172 HD
BRANCH  92  94
ATOM     94  C   UNL A   1      31.721  25.432  24.071  1.00  0.00     0.189 A 
ATOM     95  N   UNL A   1      32.526  26.073  24.886  1.00  0.00    -0.220 NA
ATOM     96  S   UNL A   1      30.382  26.315  23.482  1.00  0.00    -0.105 S 
ATOM     97  C   UNL A   1      32.022  27.350  25.124  1.00  0.00     0.084 A 
ATOM     98  C   UNL A   1      30.836  27.632  24.473  1.00  0.00     0.097 A 
BRANCH  97  99
ATOM     99  C   UNL A   1      32.700  28.336  25.961  1.00  0.00     0.001 A 
ATOM    100  C   UNL A   1      34.062  28.199  26.259  1.00  0.00     0.013 A 
ATOM    101  C   UNL A   1      32.012  29.467  26.441  1.00  0.00     0.013 A 
ATOM    102  C   UNL A   1      34.728  29.191  26.989  1.00  0.00     0.040 A 
ATOM    103  C   UNL A   1      32.670  30.440  27.197  1.00  0.00     0.040 A 
ATOM    104  C   UNL A   1      34.028  30.302  27.449  1.00  0.00     0.123 A 
ATOM    105  F   UNL A   1      34.667  31.259  28.133  1.00  0.00    -0.207 F 
ENDBRANCH  97  99
ENDBRANCH  92  94
ENDBRANCH  84  90
ENDBRANCH  81  83
ENDBRANCH  80  81
ENDBRANCH  79  80
ENDBRANCH  78  79
ENDBRANCH  77  78
ENDBRANCH  76  77
ENDBRANCH   1  76
TORSDOF 23
ENDMDL
MODEL 3
REMARK VINA RESULT:     -10.6     10.596     17.346
REMARK SMILES O=C(OCCOCCOCCOC(=O)[C@@H]1[C@@H](C(=O)Nc2nc(-c3ccc(F)cc3)cs2)[C@H]2C=C[C@@H]1O2)c1ccc(-c2c3nc(c(-c4c(F)cc(S(=O)(=O)[O-])cc4F)c4ccc([nH]4)c(-c4c(F)cc(S(=O)(=O)[O-])cc4F)c4nc(c(-c5c(F)cc(S(=O)(=O)[O-])cc5F)c5ccc2[nH]5)C=C4)C=C3)cc1
REMARK SMILES IDX 7 1 6 2 5 3 4 4 3 5 2 6 1 7 37 8 38 9 102 10 39 11 101 12
REMARK SMILES IDX 40 13 41 14 42 15 95 16 43 17 100 18 94 19 96 20 44 21 99 22
REMARK SMILES IDX 93 23 92 24 45 26 79 27 58 28 78 29 59 30 62 31 77 32 97 33
REMARK SMILES IDX 60 34 61 35 76 37 98 38 63 39 46 40 47 41 56 42 48 43 49 44
REMARK SMILES IDX 55 45 57 46 50 47 51 48 52 49 53 50 54 51 80 52 81 53 90 54
REMARK SMILES IDX 82 55 83 56 89 57 91 58 84 59 85 60 86 61 87 62 88 63 64 64
REMARK SMILES IDX 65 65 74 66 66 67 67 68 73 69 75 70 68 71 69 72 70 73 71 74
REMARK SMILES IDX 72 75 8 76 9 77 10 78 11 79 12 80 13 81 14 82 15 83 16 84
REMARK SMILES IDX 35 85 32 86 34 87 36 88 33 89 17 90 18 91 19 92 20 94 21 95
REMARK SMILES IDX 31 96 22 97 30 98 23 99 24 100 29 101 25 102 28 103 26 104
REMARK SMILES IDX 27 105
REMARK H PARENT 96 25 62 36 19 93
REMARK Flexibility Score: inf
ROOT
ATOM      1  C   UNL A   1      44.096  39.660  26.808  1.00  0.00     0.188 C 
ENDROOT
BRANCH   1   2
ATOM      2  O   UNL A   1      45.361  39.651  26.139  1.00  0.00    -0.376 OA
BRANCH   2   3
ATOM      3  C   UNL A   1      46.452  39.915  27.026  1.00  0.00     0.202 C 
BRANCH   3   4
ATOM      4  C   UNL A   1      47.334  38.696  27.327  1.00  0.00     0.261 C 
BRANCH   4   5
ATOM      5  O   UNL A   1      46.715  37.763  28.224  1.00  0.00    -0.460 OA
BRANCH   5   6
ATOM      6  C   UNL A   1      47.294  36.756  28.922  1.00  0.00     0.338 C 
ATOM      7  O   UNL A   1      48.088  37.065  29.811  1.00  0.00    -0.246 OA
BRANCH   6   8
ATOM      8  C   UNL A   1      47.060  35.291  28.696  1.00  0.00     0.060 A 
ATOM      9  C   UNL A   1      46.545  34.709  27.538  1.00  0.00     0.016 A 
ATOM     10  C   UNL A   1      47.381  34.428  29.766  1.00  0.00     0.016 A 
ATOM     11  C   UNL A   1      46.248  33.350  27.481  1.00  0.00     0.010 A 
ATOM     12  C   UNL A   1      47.134  33.052  29.700  1.00  0.00     0.010 A 
ATOM     13  C   UNL A   1      46.522  32.518  28.565  1.00  0.00    -0.014 A 
BRANCH  13  14
ATOM     14  C   UNL A   1      46.081  31.111  28.488  1.00  0.00     0.031 A 
ATOM     15  C   UNL A   1      44.678  30.781  28.871  1.00  0.00     0.074 A 
ATOM     16  C   UNL A   1      46.887  30.195  27.922  1.00  0.00     0.049 A 
ATOM     17  N   UNL A   1      44.032  29.663  28.694  1.00  0.00    -0.248 NA
ATOM     18  C   UNL A   1      43.872  31.862  29.465  1.00  0.00     0.031 C 
ATOM     19  C   UNL A   1      48.210  30.498  27.398  1.00  0.00     0.029 A 
ATOM     20  N   UNL A   1      46.736  28.863  27.657  1.00  0.00    -0.354 N 
ATOM     21  C   UNL A   1      42.728  29.923  29.084  1.00  0.00     0.074 A 
ATOM     22  C   UNL A   1      42.686  31.282  29.576  1.00  0.00     0.031 C 
ATOM     23  C   UNL A   1      48.782  29.386  26.919  1.00  0.00     0.029 A 
ATOM     24  C   UNL A   1      47.849  28.289  27.082  1.00  0.00     0.049 A 
ATOM     25  H   UNL A   1      45.912  28.363  27.857  1.00  0.00     0.167 HD
ATOM     26  C   UNL A   1      41.662  29.099  28.992  1.00  0.00     0.037 A 
ATOM     27  C   UNL A   1      48.085  27.018  26.709  1.00  0.00     0.037 A 
ATOM     28  C   UNL A   1      41.764  27.735  28.548  1.00  0.00     0.049 A 
ATOM     29  C   UNL A   1      46.931  26.069  26.803  1.00  0.00     0.074 A 
ATOM     30  C   UNL A   1      40.779  26.769  28.494  1.00  0.00     0.029 A 
ATOM     31  N   UNL A   1      42.939  27.141  28.097  1.00  0.00    -0.354 N 
ATOM     32  N   UNL A   1      45.699  26.327  27.181  1.00  0.00    -0.248 NA
ATOM     33  C   UNL A   1      47.168  24.681  26.404  1.00  0.00     0.031 C 
ATOM     34  C   UNL A   1      41.368  25.578  28.053  1.00  0.00     0.029 A 
ATOM     35  C   UNL A   1      42.713  25.811  27.794  1.00  0.00     0.049 A 
ATOM     36  H   UNL A   1      43.805  27.600  28.007  1.00  0.00     0.167 HD
ATOM     37  C   UNL A   1      45.004  25.139  27.046  1.00  0.00     0.074 A 
ATOM     38  C   UNL A   1      45.953  24.163  26.539  1.00  0.00     0.031 C 
ATOM     39  C   UNL A   1      43.701  24.877  27.311  1.00  0.00     0.037 A 
BRANCH  26  40
ATOM     40  C   UNL A   1      40.331  29.658  29.391  1.00  0.00     0.058 A 
ATOM     41  C   UNL A   1      39.347  29.931  28.430  1.00  0.00     0.135 A 
ATOM     42  C   UNL A   1      40.024  29.916  30.738  1.00  0.00     0.135 A 
ATOM     43  F   UNL A   1      39.579  29.676  27.133  1.00  0.00    -0.206 F 
ATOM     44  C   UNL A   1      38.108  30.453  28.788  1.00  0.00     0.059 A 
ATOM     45  C   UNL A   1      38.786  30.425  31.120  1.00  0.00     0.059 A 
ATOM     46  F   UNL A   1      40.917  29.633  31.700  1.00  0.00    -0.206 F 
ATOM     47  C   UNL A   1      37.837  30.701  30.136  1.00  0.00     0.060 A 
BRANCH  47  48
ATOM     48  S   UNL A   1      36.213  31.350  30.583  1.00  0.00     0.124 S 
ATOM     49  O   UNL A   1      35.825  30.465  31.675  1.00  0.00    -0.237 OA
ATOM     50  O   UNL A   1      36.526  32.725  30.957  1.00  0.00    -0.237 OA
ATOM     51  O   UNL A   1      35.439  31.206  29.351  1.00  0.00    -0.744 OA
ENDBRANCH  47  48
ENDBRANCH  26  40
BRANCH  27  52
ATOM     52  C   UNL A   1      49.429  26.615  26.211  1.00  0.00     0.058 A 
ATOM     53  C   UNL A   1      50.385  26.070  27.086  1.00  0.00     0.135 A 
ATOM     54  C   UNL A   1      49.808  26.793  24.872  1.00  0.00     0.135 A 
ATOM     55  F   UNL A   1      50.085  25.885  28.381  1.00  0.00    -0.206 F 
ATOM     56  C   UNL A   1      51.663  25.724  26.657  1.00  0.00     0.059 A 
ATOM     57  C   UNL A   1      51.076  26.433  24.413  1.00  0.00     0.059 A 
ATOM     58  F   UNL A   1      48.938  27.312  23.994  1.00  0.00    -0.206 F 
ATOM     59  C   UNL A   1      52.000  25.907  25.317  1.00  0.00     0.060 A 
BRANCH  59  60
ATOM     60  S   UNL A   1      53.653  25.418  24.770  1.00  0.00     0.124 S 
ATOM     61  O   UNL A   1      54.494  26.001  25.811  1.00  0.00    -0.237 OA
ATOM     62  O   UNL A   1      53.558  23.962  24.773  1.00  0.00    -0.237 OA
ATOM     63  O   UNL A   1      53.769  26.033  23.452  1.00  0.00    -0.744 OA
ENDBRANCH  59  60
ENDBRANCH  27  52
BRANCH  39  64
ATOM     64  C   UNL A   1      43.250  23.472  27.069  1.00  0.00     0.058 A 
ATOM     65  C   UNL A   1      43.277  22.527  28.104  1.00  0.00     0.135 A 
ATOM     66  C   UNL A   1      42.836  23.057  25.795  1.00  0.00     0.135 A 
ATOM     67  F   UNL A   1      43.666  22.883  29.338  1.00  0.00    -0.206 F 
ATOM     68  C   UNL A   1      42.917  21.206  27.879  1.00  0.00     0.059 A 
ATOM     69  C   UNL A   1      42.450  21.746  25.553  1.00  0.00     0.059 A 
ATOM     70  F   UNL A   1      42.781  23.937  24.782  1.00  0.00    -0.206 F 
ATOM     71  C   UNL A   1      42.510  20.824  26.600  1.00  0.00     0.060 A 
BRANCH  71  72
ATOM     72  S   UNL A   1      42.026  19.110  26.326  1.00  0.00     0.124 S 
ATOM     73  O   UNL A   1      40.674  19.265  25.799  1.00  0.00    -0.237 OA
ATOM     74  O   UNL A   1      43.031  18.652  25.371  1.00  0.00    -0.237 OA
ATOM     75  O   UNL A   1      42.120  18.515  27.656  1.00  0.00    -0.744 OA
ENDBRANCH  71  72
ENDBRANCH  39  64
ENDBRANCH  13  14
ENDBRANCH   6   8
ENDBRANCH   5   6
ENDBRANCH   4   5
ENDBRANCH   3   4
ENDBRANCH   2   3
ENDBRANCH   1   2
BRANCH   1  76
ATOM     76  C   UNL A   1      43.090  40.622  26.172  1.00  0.00     0.188 C 
BRANCH  76  77
ATOM     77  O   UNL A   1      43.475  41.241  24.948  1.00  0.00    -0.376 OA
BRANCH  77  78
ATOM     78  C   UNL A   1      43.488  42.669  24.913  1.00  0.00     0.202 C 
BRANCH  78  79
ATOM     79  C   UNL A   1      44.512  43.386  25.802  1.00  0.00     0.261 C 
BRANCH  79  80
ATOM     80  O   UNL A   1      45.435  44.191  25.053  1.00  0.00    -0.463 OA
BRANCH  80  81
ATOM     81  C   UNL A   1      46.333  43.518  24.280  1.00  0.00     0.312 C 
ATOM     82  O   UNL A   1      46.896  42.480  24.611  1.00  0.00    -0.252 OA
BRANCH  81  83
ATOM     83  C   UNL A   1      46.409  44.075  22.875  1.00  0.00     0.147 C 
ATOM     84  C   UNL A   1      47.597  43.440  22.113  1.00  0.00     0.129 C 
ATOM     85  C   UNL A   1      46.765  45.549  22.832  1.00  0.00     0.157 C 
ATOM     86  C   UNL A   1      48.483  44.673  21.837  1.00  0.00     0.155 C 
ATOM     87  C   UNL A   1      46.732  46.045  21.409  1.00  0.00     0.004 C 
ATOM     88  O   UNL A   1      48.196  45.456  23.030  1.00  0.00    -0.365 OA
ATOM     89  C   UNL A   1      47.829  45.556  20.818  1.00  0.00     0.004 C 
BRANCH  84  90
ATOM     90  C   UNL A   1      47.360  42.636  20.840  1.00  0.00     0.233 C 
ATOM     91  O   UNL A   1      48.289  42.005  20.321  1.00  0.00    -0.274 OA
ATOM     92  N   UNL A   1      46.098  42.281  20.478  1.00  0.00    -0.302 N 
ATOM     93  H   UNL A   1      45.902  41.316  20.479  1.00  0.00     0.172 HD
BRANCH  92  94
ATOM     94  C   UNL A   1      45.069  43.102  20.114  1.00  0.00     0.189 A 
ATOM     95  N   UNL A   1      45.015  44.091  19.254  1.00  0.00    -0.220 NA
ATOM     96  S   UNL A   1      43.593  42.663  20.856  1.00  0.00    -0.105 S 
ATOM     97  C   UNL A   1      43.717  44.596  19.211  1.00  0.00     0.084 A 
ATOM     98  C   UNL A   1      42.824  43.964  20.056  1.00  0.00     0.097 A 
BRANCH  97  99
ATOM     99  C   UNL A   1      43.308  45.682  18.325  1.00  0.00     0.001 A 
ATOM    100  C   UNL A   1      44.098  46.833  18.201  1.00  0.00     0.013 A 
ATOM    101  C   UNL A   1      42.143  45.572  17.542  1.00  0.00     0.013 A 
ATOM    102  C   UNL A   1      43.748  47.834  17.285  1.00  0.00     0.040 A 
ATOM    103  C   UNL A   1      41.778  46.586  16.653  1.00  0.00     0.040 A 
ATOM    104  C   UNL A   1      42.594  47.700  16.519  1.00  0.00     0.123 A 
ATOM    105  F   UNL A   1      42.267  48.649  15.632  1.00  0.00    -0.207 F 
ENDBRANCH  97  99
ENDBRANCH  92  94
ENDBRANCH  84  90
ENDBRANCH  81  83
ENDBRANCH  80  81
ENDBRANCH  79  80
ENDBRANCH  78  79
ENDBRANCH  77  78
ENDBRANCH  76  77
ENDBRANCH   1  76
TORSDOF 23
ENDMDL
