MODEL 1
REMARK VINA RESULT:     -12.1      0.000      0.000
REMARK SMILES Cc1ccc(C(=O)c2cccc(C)c2C(=O)OCCOCCOCCOC(=O)c2ccc(-c3c4nc(c(-c5c(F)cc(S(=O)(=O)[O-])cc5F)c5ccc([nH]5)c(-c5c(F)cc(S(=O)(=O)[O-])cc5F)c5nc(c(-c6c(F)cc(S(=O)(=O)[O-])cc6F)c6ccc3[nH]6)C=C5)C=C4)cc2)c(C)c1
REMARK SMILES IDX 22 1 21 2 20 3 19 4 18 5 17 6 15 7 16 8 14 9 8 10 9 11 10 12
REMARK SMILES IDX 12 13 11 14 13 15 6 16 7 17 5 18 1 19 2 20 3 21 97 22 4 23
REMARK SMILES IDX 95 24 96 25 23 26 24 27 25 28 26 29 27 30 28 31 29 32 30 33
REMARK SMILES IDX 94 34 31 35 93 36 32 37 33 38 34 39 87 40 35 41 92 42 86 43
REMARK SMILES IDX 88 44 36 45 91 46 85 47 84 48 37 50 71 51 50 52 70 53 51 54
REMARK SMILES IDX 54 55 69 56 89 57 52 58 53 59 68 61 90 62 55 63 38 64 39 65
REMARK SMILES IDX 48 66 40 67 41 68 47 69 49 70 42 71 43 72 44 73 45 74 46 75
REMARK SMILES IDX 72 76 73 77 82 78 74 79 75 80 81 81 83 82 76 83 77 84 78 85
REMARK SMILES IDX 79 86 80 87 56 88 57 89 66 90 58 91 59 92 65 93 67 94 60 95
REMARK SMILES IDX 61 96 62 97 63 98 64 99
REMARK H PARENT 88 49 54 60
REMARK Flexibility Score: inf
ROOT
ATOM      1  C   UNL A   1      41.530  22.624  26.248  1.00  0.00     0.188 C 
ENDROOT
BRANCH   1   2
ATOM      2  C   UNL A   1      40.401  21.588  26.201  1.00  0.00     0.188 C 
BRANCH   2   3
ATOM      3  O   UNL A   1      38.980  21.814  26.356  1.00  0.00    -0.376 OA
BRANCH   3   4
ATOM      4  C   UNL A   1      37.953  21.921  25.342  1.00  0.00     0.202 C 
BRANCH   4   5
ATOM      5  C   UNL A   1      36.801  23.214  25.006  1.00  0.00     0.261 C 
BRANCH   5   6
ATOM      6  O   UNL A   1      35.566  23.390  23.818  1.00  0.00    -0.460 OA
BRANCH   6   7
ATOM      7  C   UNL A   1      34.281  24.029  23.614  1.00  0.00     0.339 C 
ATOM      8  O   UNL A   1      34.068  24.951  22.825  1.00  0.00    -0.246 OA
BRANCH   7   9
ATOM      9  C   UNL A   1      33.035  23.988  24.409  1.00  0.00     0.074 A 
ATOM     10  C   UNL A   1      32.329  22.797  24.423  1.00  0.00     0.037 A 
ATOM     11  C   UNL A   1      31.462  22.552  25.506  1.00  0.00     0.013 A 
ATOM     12  C   UNL A   1      31.223  23.494  26.511  1.00  0.00     0.001 A 
ATOM     13  C   UNL A   1      32.804  24.982  25.478  1.00  0.00    -0.036 A 
ATOM     14  C   UNL A   1      31.860  24.716  26.478  1.00  0.00     0.004 A 
ATOM     15  C   UNL A   1      33.502  26.334  25.688  1.00  0.00     0.045 C 
BRANCH  10  16
ATOM     16  C   UNL A   1      32.486  21.833  23.297  1.00  0.00     0.194 C 
ATOM     17  O   UNL A   1      32.179  22.152  22.153  1.00  0.00    -0.289 OA
BRANCH  16  18
ATOM     18  C   UNL A   1      32.789  20.421  23.553  1.00  0.00     0.025 A 
ATOM     19  C   UNL A   1      33.302  16.200  23.945  1.00  0.00     0.044 C 
ATOM     20  C   UNL A   1      33.145  17.676  23.787  1.00  0.00    -0.051 A 
ATOM     21  C   UNL A   1      32.336  18.187  22.775  1.00  0.00     0.004 A 
ATOM     22  C   UNL A   1      33.805  18.550  24.661  1.00  0.00     0.007 A 
ATOM     23  C   UNL A   1      32.185  19.553  22.642  1.00  0.00     0.013 A 
ATOM     24  C   UNL A   1      33.671  19.938  24.534  1.00  0.00    -0.040 A 
ATOM     25  C   UNL A   1      34.503  20.781  25.449  1.00  0.00     0.045 C 
ENDBRANCH  16  18
ENDBRANCH  10  16
ENDBRANCH   7   9
ENDBRANCH   6   7
ENDBRANCH   5   6
ENDBRANCH   4   5
ENDBRANCH   3   4
ENDBRANCH   2   3
ENDBRANCH   1   2
BRANCH   1  26
ATOM     26  O   UNL A   1      42.516  22.428  25.256  1.00  0.00    -0.376 OA
BRANCH  26  27
ATOM     27  C   UNL A   1      43.284  23.584  24.931  1.00  0.00     0.202 C 
BRANCH  27  28
ATOM     28  C   UNL A   1      43.077  24.869  25.785  1.00  0.00     0.261 C 
BRANCH  28  29
ATOM     29  O   UNL A   1      42.234  25.905  25.193  1.00  0.00    -0.460 OA
BRANCH  29  30
ATOM     30  C   UNL A   1      42.685  27.215  25.089  1.00  0.00     0.338 C 
ATOM     31  O   UNL A   1      43.027  27.691  24.011  1.00  0.00    -0.246 OA
BRANCH  30  32
ATOM     32  C   UNL A   1      42.401  28.035  26.306  1.00  0.00     0.060 A 
ATOM     33  C   UNL A   1      43.139  28.996  27.013  1.00  0.00     0.016 A 
ATOM     34  C   UNL A   1      41.175  27.823  26.803  1.00  0.00     0.016 A 
ATOM     35  C   UNL A   1      42.692  29.564  28.306  1.00  0.00     0.010 A 
ATOM     36  C   UNL A   1      40.900  28.238  28.094  1.00  0.00     0.010 A 
ATOM     37  C   UNL A   1      41.514  29.173  28.949  1.00  0.00    -0.014 A 
BRANCH  37  38
ATOM     38  C   UNL A   1      40.775  29.736  30.372  1.00  0.00     0.031 A 
ATOM     39  C   UNL A   1      39.878  31.187  30.797  1.00  0.00     0.074 A 
ATOM     40  C   UNL A   1      40.799  28.828  31.366  1.00  0.00     0.049 A 
ATOM     41  N   UNL A   1      39.347  31.413  31.985  1.00  0.00    -0.248 NA
ATOM     42  C   UNL A   1      39.479  32.412  29.980  1.00  0.00     0.031 C 
ATOM     43  C   UNL A   1      40.014  28.762  32.592  1.00  0.00     0.029 A 
ATOM     44  N   UNL A   1      41.689  27.760  31.497  1.00  0.00    -0.354 N 
ATOM     45  C   UNL A   1      38.522  32.557  31.944  1.00  0.00     0.074 A 
ATOM     46  C   UNL A   1      38.816  33.232  30.764  1.00  0.00     0.031 C 
ATOM     47  C   UNL A   1      40.672  27.985  33.470  1.00  0.00     0.029 A 
ATOM     48  C   UNL A   1      41.956  27.674  32.867  1.00  0.00     0.049 A 
ATOM     49  H   UNL A   1      42.050  27.190  30.781  1.00  0.00     0.167 HD
ATOM     50  C   UNL A   1      37.578  32.867  32.872  1.00  0.00     0.037 A 
ATOM     51  C   UNL A   1      43.189  28.053  33.299  1.00  0.00     0.037 A 
ATOM     52  C   UNL A   1      38.005  32.250  34.103  1.00  0.00     0.049 A 
ATOM     53  C   UNL A   1      43.091  29.245  34.233  1.00  0.00     0.074 A 
ATOM     54  C   UNL A   1      37.779  31.026  34.696  1.00  0.00     0.029 A 
ATOM     55  N   UNL A   1      39.214  32.716  34.604  1.00  0.00    -0.354 N 
ATOM     56  N   UNL A   1      42.008  29.968  34.400  1.00  0.00    -0.248 NA
ATOM     57  C   UNL A   1      44.165  29.674  35.118  1.00  0.00     0.031 C 
ATOM     58  C   UNL A   1      38.994  30.669  35.370  1.00  0.00     0.029 A 
ATOM     59  C   UNL A   1      39.914  31.701  35.232  1.00  0.00     0.049 A 
ATOM     60  H   UNL A   1      39.530  33.645  34.523  1.00  0.00     0.167 HD
ATOM     61  C   UNL A   1      42.227  30.958  35.316  1.00  0.00     0.074 A 
ATOM     62  C   UNL A   1      43.583  30.697  35.770  1.00  0.00     0.031 C 
ATOM     63  C   UNL A   1      41.312  31.936  35.611  1.00  0.00     0.037 A 
BRANCH  50  64
ATOM     64  C   UNL A   1      36.273  33.650  32.601  1.00  0.00     0.058 A 
ATOM     65  C   UNL A   1      35.511  33.345  31.450  1.00  0.00     0.135 A 
ATOM     66  C   UNL A   1      35.776  34.787  33.300  1.00  0.00     0.135 A 
ATOM     67  F   UNL A   1      35.851  32.315  30.661  1.00  0.00    -0.206 F 
ATOM     68  C   UNL A   1      34.405  34.109  31.020  1.00  0.00     0.059 A 
ATOM     69  C   UNL A   1      34.668  35.550  32.903  1.00  0.00     0.059 A 
ATOM     70  F   UNL A   1      36.338  35.283  34.403  1.00  0.00    -0.206 F 
ATOM     71  C   UNL A   1      33.992  35.217  31.750  1.00  0.00     0.060 A 
BRANCH  71  72
ATOM     72  S   UNL A   1      32.641  36.260  31.159  1.00  0.00     0.124 S 
ATOM     73  O   UNL A   1      32.439  35.769  29.800  1.00  0.00    -0.237 OA
ATOM     74  O   UNL A   1      31.581  35.956  32.112  1.00  0.00    -0.237 OA
ATOM     75  O   UNL A   1      33.187  37.614  31.247  1.00  0.00    -0.744 OA
ENDBRANCH  71  72
ENDBRANCH  50  64
BRANCH  51  76
ATOM     76  C   UNL A   1      44.266  27.623  32.323  1.00  0.00     0.058 A 
ATOM     77  C   UNL A   1      44.570  26.235  32.297  1.00  0.00     0.135 A 
ATOM     78  C   UNL A   1      44.662  28.347  31.188  1.00  0.00     0.135 A 
ATOM     79  F   UNL A   1      44.239  25.463  33.347  1.00  0.00    -0.206 F 
ATOM     80  C   UNL A   1      45.065  25.581  31.167  1.00  0.00     0.059 A 
ATOM     81  C   UNL A   1      45.221  27.711  30.053  1.00  0.00     0.059 A 
ATOM     82  F   UNL A   1      44.398  29.660  31.097  1.00  0.00    -0.206 F 
ATOM     83  C   UNL A   1      45.341  26.319  30.026  1.00  0.00     0.060 A 
BRANCH  83  84
ATOM     84  S   UNL A   1      45.703  25.399  28.499  1.00  0.00     0.124 S 
ATOM     85  O   UNL A   1      44.797  24.261  28.605  1.00  0.00    -0.237 OA
ATOM     86  O   UNL A   1      45.362  26.376  27.463  1.00  0.00    -0.237 OA
ATOM     87  O   UNL A   1      47.119  25.077  28.619  1.00  0.00    -0.744 OA
ENDBRANCH  83  84
ENDBRANCH  51  76
BRANCH  63  88
ATOM     88  C   UNL A   1      41.695  33.251  36.272  1.00  0.00     0.058 A 
ATOM     89  C   UNL A   1      41.252  33.633  37.553  1.00  0.00     0.135 A 
ATOM     90  C   UNL A   1      42.671  34.102  35.697  1.00  0.00     0.135 A 
ATOM     91  F   UNL A   1      40.446  32.851  38.283  1.00  0.00    -0.206 F 
ATOM     92  C   UNL A   1      41.648  34.823  38.162  1.00  0.00     0.059 A 
ATOM     93  C   UNL A   1      43.156  35.242  36.332  1.00  0.00     0.059 A 
ATOM     94  F   UNL A   1      43.209  33.842  34.494  1.00  0.00    -0.206 F 
ATOM     95  C   UNL A   1      42.594  35.626  37.539  1.00  0.00     0.060 A 
BRANCH  95  96
ATOM     96  S   UNL A   1      43.087  37.185  38.288  1.00  0.00     0.124 S 
ATOM     97  O   UNL A   1      43.355  37.995  37.104  1.00  0.00    -0.237 OA
ATOM     98  O   UNL A   1      41.909  37.568  39.060  1.00  0.00    -0.237 OA
ATOM     99  O   UNL A   1      44.255  36.813  39.081  1.00  0.00    -0.744 OA
ENDBRANCH  95  96
ENDBRANCH  63  88
ENDBRANCH  37  38
ENDBRANCH  30  32
ENDBRANCH  29  30
ENDBRANCH  28  29
ENDBRANCH  27  28
ENDBRANCH  26  27
ENDBRANCH   1  26
TORSDOF 22
ENDMDL
MODEL 2
REMARK VINA RESULT:     -11.9      4.425     10.934
REMARK SMILES Cc1ccc(C(=O)c2cccc(C)c2C(=O)OCCOCCOCCOC(=O)c2ccc(-c3c4nc(c(-c5c(F)cc(S(=O)(=O)[O-])cc5F)c5ccc([nH]5)c(-c5c(F)cc(S(=O)(=O)[O-])cc5F)c5nc(c(-c6c(F)cc(S(=O)(=O)[O-])cc6F)c6ccc3[nH]6)C=C5)C=C4)cc2)c(C)c1
REMARK SMILES IDX 22 1 21 2 20 3 19 4 18 5 17 6 15 7 16 8 14 9 8 10 9 11 10 12
REMARK SMILES IDX 12 13 11 14 13 15 6 16 7 17 5 18 1 19 2 20 3 21 97 22 4 23
REMARK SMILES IDX 95 24 96 25 23 26 24 27 25 28 26 29 27 30 28 31 29 32 30 33
REMARK SMILES IDX 94 34 31 35 93 36 32 37 33 38 34 39 87 40 35 41 92 42 86 43
REMARK SMILES IDX 88 44 36 45 91 46 85 47 84 48 37 50 71 51 50 52 70 53 51 54
REMARK SMILES IDX 54 55 69 56 89 57 52 58 53 59 68 61 90 62 55 63 38 64 39 65
REMARK SMILES IDX 48 66 40 67 41 68 47 69 49 70 42 71 43 72 44 73 45 74 46 75
REMARK SMILES IDX 72 76 73 77 82 78 74 79 75 80 81 81 83 82 76 83 77 84 78 85
REMARK SMILES IDX 79 86 80 87 56 88 57 89 66 90 58 91 59 92 65 93 67 94 60 95
REMARK SMILES IDX 61 96 62 97 63 98 64 99
REMARK H PARENT 88 49 54 60
REMARK Flexibility Score: inf
ROOT
ATOM      1  C   UNL A   1      33.943  33.338  28.573  1.00  0.00     0.188 C 
ENDROOT
BRANCH   1   2
ATOM      2  C   UNL A   1      32.753  33.980  27.850  1.00  0.00     0.188 C 
BRANCH   2   3
ATOM      3  O   UNL A   1      31.787  33.339  26.986  1.00  0.00    -0.376 OA
BRANCH   3   4
ATOM      4  C   UNL A   1      31.477  31.932  26.841  1.00  0.00     0.202 C 
BRANCH   4   5
ATOM      5  C   UNL A   1      32.531  30.519  26.829  1.00  0.00     0.261 C 
BRANCH   5   6
ATOM      6  O   UNL A   1      32.329  28.924  26.209  1.00  0.00    -0.460 OA
BRANCH   6   7
ATOM      7  C   UNL A   1      32.190  28.212  24.955  1.00  0.00     0.339 C 
ATOM      8  O   UNL A   1      33.000  28.250  24.026  1.00  0.00    -0.246 OA
BRANCH   7   9
ATOM      9  C   UNL A   1      31.027  27.534  24.343  1.00  0.00     0.074 A 
ATOM     10  C   UNL A   1      30.614  26.341  24.913  1.00  0.00     0.037 A 
ATOM     11  C   UNL A   1      29.280  25.934  24.708  1.00  0.00     0.013 A 
ATOM     12  C   UNL A   1      28.394  26.637  23.886  1.00  0.00     0.001 A 
ATOM     13  C   UNL A   1      30.090  28.293  23.489  1.00  0.00    -0.036 A 
ATOM     14  C   UNL A   1      28.806  27.788  23.250  1.00  0.00     0.004 A 
ATOM     15  C   UNL A   1      30.314  29.649  22.801  1.00  0.00     0.045 C 
BRANCH  10  16
ATOM     16  C   UNL A   1      31.583  25.522  25.695  1.00  0.00     0.194 C 
ATOM     17  O   UNL A   1      31.604  25.577  26.920  1.00  0.00    -0.289 OA
BRANCH  16  18
ATOM     18  C   UNL A   1      32.678  24.812  25.025  1.00  0.00     0.025 A 
ATOM     19  C   UNL A   1      36.189  23.032  23.370  1.00  0.00     0.044 C 
ATOM     20  C   UNL A   1      34.960  23.632  23.969  1.00  0.00    -0.051 A 
ATOM     21  C   UNL A   1      35.063  24.480  25.069  1.00  0.00     0.004 A 
ATOM     22  C   UNL A   1      33.702  23.349  23.422  1.00  0.00     0.007 A 
ATOM     23  C   UNL A   1      33.924  25.041  25.611  1.00  0.00     0.013 A 
ATOM     24  C   UNL A   1      32.536  23.901  23.965  1.00  0.00    -0.040 A 
ATOM     25  C   UNL A   1      31.237  23.448  23.374  1.00  0.00     0.045 C 
ENDBRANCH  16  18
ENDBRANCH  10  16
ENDBRANCH   7   9
ENDBRANCH   6   7
ENDBRANCH   5   6
ENDBRANCH   4   5
ENDBRANCH   3   4
ENDBRANCH   2   3
ENDBRANCH   1   2
BRANCH   1  26
ATOM     26  O   UNL A   1      35.025  33.034  27.718  1.00  0.00    -0.376 OA
BRANCH  26  27
ATOM     27  C   UNL A   1      36.310  33.394  28.217  1.00  0.00     0.202 C 
BRANCH  27  28
ATOM     28  C   UNL A   1      36.451  33.693  29.739  1.00  0.00     0.261 C 
BRANCH  28  29
ATOM     29  O   UNL A   1      37.275  32.760  30.504  1.00  0.00    -0.460 OA
BRANCH  29  30
ATOM     30  C   UNL A   1      37.114  31.387  30.361  1.00  0.00     0.338 C 
ATOM     31  O   UNL A   1      36.053  30.835  30.632  1.00  0.00    -0.246 OA
BRANCH  30  32
ATOM     32  C   UNL A   1      38.204  30.745  29.564  1.00  0.00     0.060 A 
ATOM     33  C   UNL A   1      38.240  30.126  28.306  1.00  0.00     0.016 A 
ATOM     34  C   UNL A   1      39.395  30.799  30.174  1.00  0.00     0.016 A 
ATOM     35  C   UNL A   1      39.434  29.412  27.793  1.00  0.00     0.010 A 
ATOM     36  C   UNL A   1      40.407  29.963  29.733  1.00  0.00     0.010 A 
ATOM     37  C   UNL A   1      40.614  29.267  28.527  1.00  0.00    -0.014 A 
BRANCH  37  38
ATOM     38  C   UNL A   1      42.108  28.571  28.117  1.00  0.00     0.031 A 
ATOM     39  C   UNL A   1      42.696  26.919  27.983  1.00  0.00     0.074 A 
ATOM     40  C   UNL A   1      43.014  29.481  27.713  1.00  0.00     0.049 A 
ATOM     41  N   UNL A   1      43.919  26.592  27.604  1.00  0.00    -0.248 NA
ATOM     42  C   UNL A   1      42.009  25.574  28.198  1.00  0.00     0.031 C 
ATOM     43  C   UNL A   1      44.257  29.300  26.973  1.00  0.00     0.029 A 
ATOM     44  N   UNL A   1      43.015  30.845  28.011  1.00  0.00    -0.354 N 
ATOM     45  C   UNL A   1      44.012  25.200  27.397  1.00  0.00     0.074 A 
ATOM     46  C   UNL A   1      42.888  24.623  27.978  1.00  0.00     0.031 C 
ATOM     47  C   UNL A   1      45.037  30.372  27.194  1.00  0.00     0.029 A 
ATOM     48  C   UNL A   1      44.361  31.177  28.197  1.00  0.00     0.049 A 
ATOM     49  H   UNL A   1      42.237  31.444  28.077  1.00  0.00     0.167 HD
ATOM     50  C   UNL A   1      44.998  24.584  26.692  1.00  0.00     0.037 A 
ATOM     51  C   UNL A   1      44.780  31.449  29.462  1.00  0.00     0.037 A 
ATOM     52  C   UNL A   1      46.152  25.445  26.778  1.00  0.00     0.049 A 
ATOM     53  C   UNL A   1      45.821  30.441  29.914  1.00  0.00     0.074 A 
ATOM     54  C   UNL A   1      46.639  26.480  26.009  1.00  0.00     0.029 A 
ATOM     55  N   UNL A   1      46.648  25.635  28.061  1.00  0.00    -0.354 N 
ATOM     56  N   UNL A   1      46.093  29.322  29.283  1.00  0.00    -0.248 NA
ATOM     57  C   UNL A   1      46.701  30.640  31.057  1.00  0.00     0.031 C 
ATOM     58  C   UNL A   1      47.233  27.418  26.918  1.00  0.00     0.029 A 
ATOM     59  C   UNL A   1      47.155  26.914  28.211  1.00  0.00     0.049 A 
ATOM     60  H   UNL A   1      46.640  24.951  28.769  1.00  0.00     0.167 HD
ATOM     61  C   UNL A   1      47.086  28.637  29.924  1.00  0.00     0.074 A 
ATOM     62  C   UNL A   1      47.464  29.533  31.004  1.00  0.00     0.031 C 
ATOM     63  C   UNL A   1      47.502  27.384  29.558  1.00  0.00     0.037 A 
BRANCH  50  64
ATOM     64  C   UNL A   1      44.848  23.269  25.895  1.00  0.00     0.058 A 
ATOM     65  C   UNL A   1      44.178  22.174  26.487  1.00  0.00     0.135 A 
ATOM     66  C   UNL A   1      45.441  22.934  24.643  1.00  0.00     0.135 A 
ATOM     67  F   UNL A   1      43.580  22.306  27.680  1.00  0.00    -0.206 F 
ATOM     68  C   UNL A   1      44.136  20.883  25.919  1.00  0.00     0.059 A 
ATOM     69  C   UNL A   1      45.396  21.664  24.050  1.00  0.00     0.059 A 
ATOM     70  F   UNL A   1      46.145  23.791  23.903  1.00  0.00    -0.206 F 
ATOM     71  C   UNL A   1      44.755  20.633  24.701  1.00  0.00     0.060 A 
BRANCH  71  72
ATOM     72  S   UNL A   1      44.794  18.964  24.011  1.00  0.00     0.124 S 
ATOM     73  O   UNL A   1      46.164  18.544  24.287  1.00  0.00    -0.237 OA
ATOM     74  O   UNL A   1      43.753  18.291  24.777  1.00  0.00    -0.237 OA
ATOM     75  O   UNL A   1      44.490  19.169  22.595  1.00  0.00    -0.744 OA
ENDBRANCH  71  72
ENDBRANCH  50  64
BRANCH  51  76
ATOM     76  C   UNL A   1      43.729  32.226  30.230  1.00  0.00     0.058 A 
ATOM     77  C   UNL A   1      43.119  31.548  31.320  1.00  0.00     0.135 A 
ATOM     78  C   UNL A   1      43.616  33.625  30.253  1.00  0.00     0.135 A 
ATOM     79  F   UNL A   1      43.166  30.205  31.376  1.00  0.00    -0.206 F 
ATOM     80  C   UNL A   1      42.595  32.205  32.435  1.00  0.00     0.059 A 
ATOM     81  C   UNL A   1      43.036  34.310  31.347  1.00  0.00     0.059 A 
ATOM     82  F   UNL A   1      44.181  34.364  29.286  1.00  0.00    -0.206 F 
ATOM     83  C   UNL A   1      42.603  33.592  32.466  1.00  0.00     0.060 A 
BRANCH  83  84
ATOM     84  S   UNL A   1      42.185  34.397  34.042  1.00  0.00     0.124 S 
ATOM     85  O   UNL A   1      41.985  35.784  33.634  1.00  0.00    -0.237 OA
ATOM     86  O   UNL A   1      40.973  33.681  34.442  1.00  0.00    -0.237 OA
ATOM     87  O   UNL A   1      43.360  34.159  34.872  1.00  0.00    -0.744 OA
ENDBRANCH  83  84
ENDBRANCH  51  76
BRANCH  63  88
ATOM     88  C   UNL A   1      48.265  26.461  30.495  1.00  0.00     0.058 A 
ATOM     89  C   UNL A   1      49.642  26.197  30.373  1.00  0.00     0.135 A 
ATOM     90  C   UNL A   1      47.657  25.942  31.666  1.00  0.00     0.135 A 
ATOM     91  F   UNL A   1      50.382  26.747  29.400  1.00  0.00    -0.206 F 
ATOM     92  C   UNL A   1      50.335  25.382  31.268  1.00  0.00     0.059 A 
ATOM     93  C   UNL A   1      48.353  25.212  32.625  1.00  0.00     0.059 A 
ATOM     94  F   UNL A   1      46.357  26.146  31.931  1.00  0.00    -0.206 F 
ATOM     95  C   UNL A   1      49.679  24.886  32.386  1.00  0.00     0.060 A 
BRANCH  95  96
ATOM     96  S   UNL A   1      50.544  23.801  33.530  1.00  0.00     0.124 S 
ATOM     97  O   UNL A   1      50.743  22.617  32.700  1.00  0.00    -0.237 OA
ATOM     98  O   UNL A   1      51.751  24.554  33.853  1.00  0.00    -0.237 OA
ATOM     99  O   UNL A   1      49.591  23.653  34.626  1.00  0.00    -0.744 OA
ENDBRANCH  95  96
ENDBRANCH  63  88
ENDBRANCH  37  38
ENDBRANCH  30  32
ENDBRANCH  29  30
ENDBRANCH  28  29
ENDBRANCH  27  28
ENDBRANCH  26  27
ENDBRANCH   1  26
TORSDOF 22
ENDMDL
MODEL 3
REMARK VINA RESULT:     -11.8      4.555      9.065
REMARK SMILES Cc1ccc(C(=O)c2cccc(C)c2C(=O)OCCOCCOCCOC(=O)c2ccc(-c3c4nc(c(-c5c(F)cc(S(=O)(=O)[O-])cc5F)c5ccc([nH]5)c(-c5c(F)cc(S(=O)(=O)[O-])cc5F)c5nc(c(-c6c(F)cc(S(=O)(=O)[O-])cc6F)c6ccc3[nH]6)C=C5)C=C4)cc2)c(C)c1
REMARK SMILES IDX 22 1 21 2 20 3 19 4 18 5 17 6 15 7 16 8 14 9 8 10 9 11 10 12
REMARK SMILES IDX 12 13 11 14 13 15 6 16 7 17 5 18 1 19 2 20 3 21 97 22 4 23
REMARK SMILES IDX 95 24 96 25 23 26 24 27 25 28 26 29 27 30 28 31 29 32 30 33
REMARK SMILES IDX 94 34 31 35 93 36 32 37 33 38 34 39 87 40 35 41 92 42 86 43
REMARK SMILES IDX 88 44 36 45 91 46 85 47 84 48 37 50 71 51 50 52 70 53 51 54
REMARK SMILES IDX 54 55 69 56 89 57 52 58 53 59 68 61 90 62 55 63 38 64 39 65
REMARK SMILES IDX 48 66 40 67 41 68 47 69 49 70 42 71 43 72 44 73 45 74 46 75
REMARK SMILES IDX 72 76 73 77 82 78 74 79 75 80 81 81 83 82 76 83 77 84 78 85
REMARK SMILES IDX 79 86 80 87 56 88 57 89 66 90 58 91 59 92 65 93 67 94 60 95
REMARK SMILES IDX 61 96 62 97 63 98 64 99
REMARK H PARENT 88 49 54 60
REMARK Flexibility Score: inf
ROOT
ATOM      1  C   UNL A   1      44.110  20.998  25.576  1.00  0.00     0.188 C 
ENDROOT
BRANCH   1   2
ATOM      2  C   UNL A   1      44.682  22.020  24.587  1.00  0.00     0.188 C 
BRANCH   2   3
ATOM      3  O   UNL A   1      46.058  22.440  24.439  1.00  0.00    -0.376 OA
BRANCH   3   4
ATOM      4  C   UNL A   1      46.600  23.775  24.300  1.00  0.00     0.202 C 
BRANCH   4   5
ATOM      5  C   UNL A   1      46.173  25.278  25.117  1.00  0.00     0.261 C 
BRANCH   5   6
ATOM      6  O   UNL A   1      47.121  26.596  25.695  1.00  0.00    -0.460 OA
BRANCH   6   7
ATOM      7  C   UNL A   1      48.411  26.881  26.290  1.00  0.00     0.339 C 
ATOM      8  O   UNL A   1      49.500  26.591  25.789  1.00  0.00    -0.246 OA
BRANCH   7   9
ATOM      9  C   UNL A   1      48.784  27.289  27.661  1.00  0.00     0.074 A 
ATOM     10  C   UNL A   1      48.591  28.617  28.003  1.00  0.00     0.037 A 
ATOM     11  C   UNL A   1      48.453  28.938  29.369  1.00  0.00     0.013 A 
ATOM     12  C   UNL A   1      48.591  27.988  30.385  1.00  0.00     0.001 A 
ATOM     13  C   UNL A   1      48.911  26.275  28.728  1.00  0.00    -0.036 A 
ATOM     14  C   UNL A   1      48.855  26.672  30.070  1.00  0.00     0.004 A 
ATOM     15  C   UNL A   1      49.079  24.755  28.583  1.00  0.00     0.045 C 
BRANCH  10  16
ATOM     16  C   UNL A   1      48.559  29.657  26.936  1.00  0.00     0.194 C 
ATOM     17  O   UNL A   1      49.466  29.738  26.115  1.00  0.00    -0.289 OA
BRANCH  16  18
ATOM     18  C   UNL A   1      47.574  30.743  26.975  1.00  0.00     0.025 A 
ATOM     19  C   UNL A   1      44.378  33.573  26.849  1.00  0.00     0.044 C 
ATOM     20  C   UNL A   1      45.486  32.575  26.921  1.00  0.00    -0.051 A 
ATOM     21  C   UNL A   1      45.256  31.249  26.561  1.00  0.00     0.004 A 
ATOM     22  C   UNL A   1      46.762  32.971  27.343  1.00  0.00     0.007 A 
ATOM     23  C   UNL A   1      46.288  30.334  26.619  1.00  0.00     0.013 A 
ATOM     24  C   UNL A   1      47.818  32.055  27.416  1.00  0.00    -0.040 A 
ATOM     25  C   UNL A   1      49.109  32.558  27.982  1.00  0.00     0.045 C 
ENDBRANCH  16  18
ENDBRANCH  10  16
ENDBRANCH   7   9
ENDBRANCH   6   7
ENDBRANCH   5   6
ENDBRANCH   4   5
ENDBRANCH   3   4
ENDBRANCH   2   3
ENDBRANCH   1   2
BRANCH   1  26
ATOM     26  O   UNL A   1      42.738  20.727  25.377  1.00  0.00    -0.376 OA
BRANCH  26  27
ATOM     27  C   UNL A   1      41.849  21.747  25.823  1.00  0.00     0.202 C 
BRANCH  27  28
ATOM     28  C   UNL A   1      41.017  21.485  27.114  1.00  0.00     0.261 C 
BRANCH  28  29
ATOM     29  O   UNL A   1      40.439  22.663  27.755  1.00  0.00    -0.460 OA
BRANCH  29  30
ATOM     30  C   UNL A   1      39.632  23.538  27.040  1.00  0.00     0.338 C 
ATOM     31  O   UNL A   1      38.704  23.133  26.348  1.00  0.00    -0.246 OA
BRANCH  30  32
ATOM     32  C   UNL A   1      39.798  24.966  27.452  1.00  0.00     0.060 A 
ATOM     33  C   UNL A   1      40.455  26.063  26.875  1.00  0.00     0.016 A 
ATOM     34  C   UNL A   1      39.165  25.255  28.596  1.00  0.00     0.016 A 
ATOM     35  C   UNL A   1      40.612  27.364  27.570  1.00  0.00     0.010 A 
ATOM     36  C   UNL A   1      39.504  26.416  29.269  1.00  0.00     0.010 A 
ATOM     37  C   UNL A   1      40.149  27.601  28.866  1.00  0.00    -0.014 A 
BRANCH  37  38
ATOM     38  C   UNL A   1      40.147  29.011  29.814  1.00  0.00     0.031 A 
ATOM     39  C   UNL A   1      39.204  30.495  29.804  1.00  0.00     0.074 A 
ATOM     40  C   UNL A   1      40.988  28.935  30.863  1.00  0.00     0.049 A 
ATOM     41  N   UNL A   1      39.348  31.475  30.678  1.00  0.00    -0.248 NA
ATOM     42  C   UNL A   1      38.062  30.968  28.910  1.00  0.00     0.031 C 
ATOM     43  C   UNL A   1      41.048  29.743  32.075  1.00  0.00     0.029 A 
ATOM     44  N   UNL A   1      42.099  28.097  30.982  1.00  0.00    -0.354 N 
ATOM     45  C   UNL A   1      38.313  32.421  30.528  1.00  0.00     0.074 A 
ATOM     46  C   UNL A   1      37.696  32.165  29.308  1.00  0.00     0.031 C 
ATOM     47  C   UNL A   1      42.280  29.625  32.597  1.00  0.00     0.029 A 
ATOM     48  C   UNL A   1      43.065  28.863  31.641  1.00  0.00     0.049 A 
ATOM     49  H   UNL A   1      42.183  27.167  30.669  1.00  0.00     0.167 HD
ATOM     50  C   UNL A   1      37.967  33.348  31.461  1.00  0.00     0.037 A 
ATOM     51  C   UNL A   1      44.138  29.289  30.921  1.00  0.00     0.037 A 
ATOM     52  C   UNL A   1      39.157  33.601  32.236  1.00  0.00     0.049 A 
ATOM     53  C   UNL A   1      44.174  30.805  30.853  1.00  0.00     0.074 A 
ATOM     54  C   UNL A   1      39.689  33.058  33.386  1.00  0.00     0.029 A 
ATOM     55  N   UNL A   1      40.219  34.140  31.523  1.00  0.00    -0.354 N 
ATOM     56  N   UNL A   1      43.182  31.587  31.212  1.00  0.00    -0.248 NA
ATOM     57  C   UNL A   1      45.348  31.572  30.460  1.00  0.00     0.031 C 
ATOM     58  C   UNL A   1      41.114  33.071  33.221  1.00  0.00     0.029 A 
ATOM     59  C   UNL A   1      41.428  33.676  32.009  1.00  0.00     0.049 A 
ATOM     60  H   UNL A   1      40.124  34.768  30.771  1.00  0.00     0.167 HD
ATOM     61  C   UNL A   1      43.523  32.900  31.050  1.00  0.00     0.074 A 
ATOM     62  C   UNL A   1      44.910  32.834  30.621  1.00  0.00     0.031 C 
ATOM     63  C   UNL A   1      42.649  33.939  31.238  1.00  0.00     0.037 A 
BRANCH  50  64
ATOM     64  C   UNL A   1      36.550  33.925  31.675  1.00  0.00     0.058 A 
ATOM     65  C   UNL A   1      35.732  34.184  30.551  1.00  0.00     0.135 A 
ATOM     66  C   UNL A   1      35.972  34.392  32.891  1.00  0.00     0.135 A 
ATOM     67  F   UNL A   1      36.132  33.830  29.322  1.00  0.00    -0.206 F 
ATOM     68  C   UNL A   1      34.498  34.865  30.623  1.00  0.00     0.059 A 
ATOM     69  C   UNL A   1      34.739  35.054  32.989  1.00  0.00     0.059 A 
ATOM     70  F   UNL A   1      36.562  34.284  34.082  1.00  0.00    -0.206 F 
ATOM     71  C   UNL A   1      34.010  35.305  31.847  1.00  0.00     0.060 A 
BRANCH  71  72
ATOM     72  S   UNL A   1      32.482  36.263  31.942  1.00  0.00     0.124 S 
ATOM     73  O   UNL A   1      31.520  35.271  32.410  1.00  0.00    -0.237 OA
ATOM     74  O   UNL A   1      32.835  37.309  32.894  1.00  0.00    -0.237 OA
ATOM     75  O   UNL A   1      32.274  36.717  30.567  1.00  0.00    -0.744 OA
ENDBRANCH  71  72
ENDBRANCH  50  64
BRANCH  51  76
ATOM     76  C   UNL A   1      44.599  28.224  29.946  1.00  0.00     0.058 A 
ATOM     77  C   UNL A   1      45.245  27.092  30.513  1.00  0.00     0.135 A 
ATOM     78  C   UNL A   1      44.089  28.040  28.652  1.00  0.00     0.135 A 
ATOM     79  F   UNL A   1      45.774  27.179  31.746  1.00  0.00    -0.206 F 
ATOM     80  C   UNL A   1      45.232  25.827  29.922  1.00  0.00     0.059 A 
ATOM     81  C   UNL A   1      44.118  26.779  28.009  1.00  0.00     0.059 A 
ATOM     82  F   UNL A   1      43.436  29.037  28.035  1.00  0.00    -0.206 F 
ATOM     83  C   UNL A   1      44.619  25.665  28.688  1.00  0.00     0.060 A 
BRANCH  83  84
ATOM     84  S   UNL A   1      44.370  23.964  28.094  1.00  0.00     0.124 S 
ATOM     85  O   UNL A   1      43.651  23.353  29.207  1.00  0.00    -0.237 OA
ATOM     86  O   UNL A   1      43.580  24.175  26.880  1.00  0.00    -0.237 OA
ATOM     87  O   UNL A   1      45.725  23.470  27.886  1.00  0.00    -0.744 OA
ENDBRANCH  83  84
ENDBRANCH  51  76
BRANCH  63  88
ATOM     88  C   UNL A   1      42.877  35.325  30.652  1.00  0.00     0.058 A 
ATOM     89  C   UNL A   1      43.640  36.321  31.291  1.00  0.00     0.135 A 
ATOM     90  C   UNL A   1      42.469  35.636  29.332  1.00  0.00     0.135 A 
ATOM     91  F   UNL A   1      44.221  36.111  32.480  1.00  0.00    -0.206 F 
ATOM     92  C   UNL A   1      43.874  37.571  30.719  1.00  0.00     0.059 A 
ATOM     93  C   UNL A   1      42.779  36.839  28.704  1.00  0.00     0.059 A 
ATOM     94  F   UNL A   1      41.764  34.766  28.590  1.00  0.00    -0.206 F 
ATOM     95  C   UNL A   1      43.431  37.824  29.428  1.00  0.00     0.060 A 
BRANCH  95  96
ATOM     96  S   UNL A   1      43.688  39.443  28.689  1.00  0.00     0.124 S 
ATOM     97  O   UNL A   1      43.964  40.253  29.872  1.00  0.00    -0.237 OA
ATOM     98  O   UNL A   1      44.821  39.224  27.796  1.00  0.00    -0.237 OA
ATOM     99  O   UNL A   1      42.416  39.706  28.024  1.00  0.00    -0.744 OA
ENDBRANCH  95  96
ENDBRANCH  63  88
ENDBRANCH  37  38
ENDBRANCH  30  32
ENDBRANCH  29  30
ENDBRANCH  28  29
ENDBRANCH  27  28
ENDBRANCH  26  27
ENDBRANCH   1  26
TORSDOF 22
ENDMDL
