MODEL 1
REMARK VINA RESULT:     -10.4      0.000      0.000
REMARK SMILES Cc1ccc(S(=O)(=O)Nc2cc3c(cc2C(=O)OCCOCCOCCOC(=O)c2ccc(-c4c5nc(c(-c6c(F)cc(S(=O)(=O)[O-])cc6F)c6ccc([nH]6)c(-c6c(F)cc(S(=O)(=O)[O-])cc6F)c6nc(c(-c7c(F)cc(S(=O)(=O)[O-])cc7F)c7ccc4[nH]7)C=C6)C=C5)cc2)OCCO3)s1
REMARK SMILES IDX 22 1 21 2 20 3 19 4 18 5 16 6 17 7 15 8 10 9 11 10 12 11
REMARK SMILES IDX 14 12 13 13 99 14 96 15 98 16 97 17 9 18 6 20 7 21 8 22 5 23
REMARK SMILES IDX 1 24 2 25 3 26 100 27 4 28 23 29 24 30 25 31 26 32 27 33
REMARK SMILES IDX 28 34 29 35 30 36 31 37 95 38 32 39 94 40 33 41 34 42 35 43
REMARK SMILES IDX 88 44 36 45 93 46 87 47 89 48 37 49 92 50 86 51 85 52 38 54
REMARK SMILES IDX 72 55 51 56 71 57 52 58 55 59 70 60 90 61 53 62 54 63 69 65
REMARK SMILES IDX 91 66 56 67 39 68 40 69 49 70 41 71 42 72 48 73 50 74 43 75
REMARK SMILES IDX 44 76 45 77 46 78 47 79 73 80 74 81 83 82 75 83 76 84 82 85
REMARK SMILES IDX 84 86 77 87 78 88 79 89 80 90 81 91 57 92 58 93 67 94 59 95
REMARK SMILES IDX 60 96 66 97 68 98 61 99 62 100 63 101 64 102 65 103
REMARK H PARENT 9 19 89 53 55 64
REMARK Flexibility Score: inf
ROOT
ATOM      1  C   UNL A   1      33.915  31.533  27.852  1.00  0.00     0.188 C 
ENDROOT
BRANCH   1   2
ATOM      2  O   UNL A   1      33.669  30.140  27.694  1.00  0.00    -0.376 OA
BRANCH   2   3
ATOM      3  C   UNL A   1      33.303  29.691  26.396  1.00  0.00     0.202 C 
BRANCH   3   4
ATOM      4  C   UNL A   1      34.126  28.523  25.847  1.00  0.00     0.261 C 
BRANCH   4   5
ATOM      5  O   UNL A   1      34.146  28.437  24.404  1.00  0.00    -0.460 OA
BRANCH   5   6
ATOM      6  C   UNL A   1      33.330  27.476  23.893  1.00  0.00     0.340 C 
ATOM      7  O   UNL A   1      33.675  26.388  23.460  1.00  0.00    -0.246 OA
BRANCH   6   8
ATOM      8  C   UNL A   1      31.925  27.927  23.778  1.00  0.00     0.088 A 
ATOM      9  C   UNL A   1      30.911  27.157  24.372  1.00  0.00     0.067 A 
ATOM     10  C   UNL A   1      29.580  27.312  23.981  1.00  0.00     0.078 A 
ATOM     11  C   UNL A   1      29.244  28.357  23.130  1.00  0.00     0.163 A 
ATOM     12  C   UNL A   1      31.584  28.976  22.919  1.00  0.00     0.068 A 
ATOM     13  C   UNL A   1      30.236  29.224  22.650  1.00  0.00     0.162 A 
ATOM     14  O   UNL A   1      27.905  28.533  22.900  1.00  0.00    -0.486 OA
ATOM     15  O   UNL A   1      29.939  30.345  21.916  1.00  0.00    -0.486 OA
ATOM     16  C   UNL A   1      27.653  29.535  21.914  1.00  0.00     0.271 C 
ATOM     17  C   UNL A   1      28.570  30.730  22.113  1.00  0.00     0.271 C 
BRANCH   9  18
ATOM     18  N   UNL A   1      31.194  26.427  25.572  1.00  0.00    -0.278 N 
ATOM     19  H   UNL A   1      31.482  26.864  26.406  1.00  0.00     0.180 HD
BRANCH  18  20
ATOM     20  S   UNL A   1      30.989  24.730  25.434  1.00  0.00     0.271 S 
ATOM     21  O   UNL A   1      30.563  24.473  24.083  1.00  0.00    -0.200 OA
ATOM     22  O   UNL A   1      30.201  24.312  26.580  1.00  0.00    -0.200 OA
BRANCH  20  23
ATOM     23  C   UNL A   1      32.560  23.889  25.668  1.00  0.00     0.140 A 
ATOM     24  C   UNL A   1      34.898  20.750  25.352  1.00  0.00     0.056 C 
ATOM     25  C   UNL A   1      34.262  22.080  25.567  1.00  0.00     0.003 A 
ATOM     26  C   UNL A   1      34.743  23.204  26.201  1.00  0.00     0.016 A 
ATOM     27  S   UNL A   1      32.691  22.345  24.993  1.00  0.00    -0.127 S 
ATOM     28  C   UNL A   1      33.743  24.224  26.305  1.00  0.00     0.034 A 
ENDBRANCH  20  23
ENDBRANCH  18  20
ENDBRANCH   9  18
ENDBRANCH   6   8
ENDBRANCH   5   6
ENDBRANCH   4   5
ENDBRANCH   3   4
ENDBRANCH   2   3
ENDBRANCH   1   2
BRANCH   1  29
ATOM     29  C   UNL A   1      35.367  31.986  27.709  1.00  0.00     0.188 C 
BRANCH  29  30
ATOM     30  O   UNL A   1      35.657  33.273  28.254  1.00  0.00    -0.376 OA
BRANCH  30  31
ATOM     31  C   UNL A   1      35.181  33.370  29.609  1.00  0.00     0.202 C 
BRANCH  31  32
ATOM     32  C   UNL A   1      36.205  32.864  30.635  1.00  0.00     0.261 C 
BRANCH  32  33
ATOM     33  O   UNL A   1      36.332  31.430  30.673  1.00  0.00    -0.460 OA
BRANCH  33  34
ATOM     34  C   UNL A   1      37.138  30.871  31.609  1.00  0.00     0.338 C 
ATOM     35  O   UNL A   1      36.865  30.668  32.779  1.00  0.00    -0.246 OA
BRANCH  34  36
ATOM     36  C   UNL A   1      38.420  30.498  30.953  1.00  0.00     0.060 A 
ATOM     37  C   UNL A   1      39.560  30.237  31.723  1.00  0.00     0.016 A 
ATOM     38  C   UNL A   1      38.491  30.396  29.559  1.00  0.00     0.016 A 
ATOM     39  C   UNL A   1      40.736  29.785  31.107  1.00  0.00     0.010 A 
ATOM     40  C   UNL A   1      39.682  30.005  28.942  1.00  0.00     0.010 A 
ATOM     41  C   UNL A   1      40.812  29.682  29.708  1.00  0.00    -0.014 A 
BRANCH  41  42
ATOM     42  C   UNL A   1      42.098  29.388  29.016  1.00  0.00     0.031 A 
ATOM     43  C   UNL A   1      42.357  27.987  28.531  1.00  0.00     0.074 A 
ATOM     44  C   UNL A   1      43.060  30.325  28.885  1.00  0.00     0.049 A 
ATOM     45  N   UNL A   1      43.435  27.481  27.993  1.00  0.00    -0.248 NA
ATOM     46  C   UNL A   1      41.251  27.027  28.680  1.00  0.00     0.031 C 
ATOM     47  C   UNL A   1      42.937  31.725  29.284  1.00  0.00     0.029 A 
ATOM     48  N   UNL A   1      44.344  30.231  28.398  1.00  0.00    -0.354 N 
ATOM     49  C   UNL A   1      43.135  26.152  27.725  1.00  0.00     0.074 A 
ATOM     50  C   UNL A   1      41.776  25.927  28.165  1.00  0.00     0.031 C 
ATOM     51  C   UNL A   1      44.100  32.356  29.043  1.00  0.00     0.029 A 
ATOM     52  C   UNL A   1      45.067  31.397  28.510  1.00  0.00     0.049 A 
ATOM     53  H   UNL A   1      44.711  29.406  28.007  1.00  0.00     0.167 HD
ATOM     54  C   UNL A   1      43.923  25.194  27.183  1.00  0.00     0.037 A 
ATOM     55  C   UNL A   1      46.366  31.653  28.246  1.00  0.00     0.037 A 
ATOM     56  C   UNL A   1      45.302  25.384  26.825  1.00  0.00     0.049 A 
ATOM     57  C   UNL A   1      47.257  30.539  27.747  1.00  0.00     0.074 A 
ATOM     58  C   UNL A   1      46.190  24.459  26.306  1.00  0.00     0.029 A 
ATOM     59  N   UNL A   1      46.005  26.569  26.983  1.00  0.00    -0.354 N 
ATOM     60  N   UNL A   1      46.946  29.295  27.465  1.00  0.00    -0.248 NA
ATOM     61  C   UNL A   1      48.679  30.859  27.546  1.00  0.00     0.031 C 
ATOM     62  C   UNL A   1      47.444  25.070  26.200  1.00  0.00     0.029 A 
ATOM     63  C   UNL A   1      47.323  26.390  26.601  1.00  0.00     0.049 A 
ATOM     64  H   UNL A   1      45.622  27.412  27.318  1.00  0.00     0.167 HD
ATOM     65  C   UNL A   1      48.127  28.694  27.036  1.00  0.00     0.074 A 
ATOM     66  C   UNL A   1      49.155  29.712  27.082  1.00  0.00     0.031 C 
ATOM     67  C   UNL A   1      48.339  27.414  26.643  1.00  0.00     0.037 A 
BRANCH  54  68
ATOM     68  C   UNL A   1      43.313  23.834  27.006  1.00  0.00     0.058 A 
ATOM     69  C   UNL A   1      43.211  22.933  28.078  1.00  0.00     0.135 A 
ATOM     70  C   UNL A   1      42.843  23.421  25.751  1.00  0.00     0.135 A 
ATOM     71  F   UNL A   1      43.669  23.272  29.294  1.00  0.00    -0.206 F 
ATOM     72  C   UNL A   1      42.686  21.657  27.904  1.00  0.00     0.059 A 
ATOM     73  C   UNL A   1      42.294  22.158  25.559  1.00  0.00     0.059 A 
ATOM     74  F   UNL A   1      42.929  24.242  24.693  1.00  0.00    -0.206 F 
ATOM     75  C   UNL A   1      42.237  21.277  26.638  1.00  0.00     0.060 A 
BRANCH  75  76
ATOM     76  S   UNL A   1      41.579  19.610  26.423  1.00  0.00     0.124 S 
ATOM     77  O   UNL A   1      41.901  19.002  27.710  1.00  0.00    -0.237 OA
ATOM     78  O   UNL A   1      40.162  19.862  26.180  1.00  0.00    -0.237 OA
ATOM     79  O   UNL A   1      42.327  19.094  25.281  1.00  0.00    -0.744 OA
ENDBRANCH  75  76
ENDBRANCH  54  68
BRANCH  55  80
ATOM     80  C   UNL A   1      46.934  33.012  28.478  1.00  0.00     0.058 A 
ATOM     81  C   UNL A   1      47.438  33.380  29.736  1.00  0.00     0.135 A 
ATOM     82  C   UNL A   1      46.945  33.985  27.466  1.00  0.00     0.135 A 
ATOM     83  F   UNL A   1      47.432  32.496  30.745  1.00  0.00    -0.206 F 
ATOM     84  C   UNL A   1      47.915  34.663  29.987  1.00  0.00     0.059 A 
ATOM     85  C   UNL A   1      47.442  35.268  27.685  1.00  0.00     0.059 A 
ATOM     86  F   UNL A   1      46.471  33.691  26.245  1.00  0.00    -0.206 F 
ATOM     87  C   UNL A   1      47.914  35.601  28.954  1.00  0.00     0.060 A 
BRANCH  87  88
ATOM     88  S   UNL A   1      48.566  37.254  29.282  1.00  0.00     0.124 S 
ATOM     89  O   UNL A   1      47.459  38.100  28.847  1.00  0.00    -0.237 OA
ATOM     90  O   UNL A   1      48.806  37.210  30.721  1.00  0.00    -0.237 OA
ATOM     91  O   UNL A   1      49.767  37.314  28.454  1.00  0.00    -0.744 OA
ENDBRANCH  87  88
ENDBRANCH  55  80
BRANCH  67  92
ATOM     92  C   UNL A   1      49.727  27.032  26.201  1.00  0.00     0.058 A 
ATOM     93  C   UNL A   1      50.671  26.513  27.101  1.00  0.00     0.135 A 
ATOM     94  C   UNL A   1      50.087  27.110  24.846  1.00  0.00     0.135 A 
ATOM     95  F   UNL A   1      50.381  26.420  28.408  1.00  0.00    -0.206 F 
ATOM     96  C   UNL A   1      51.929  26.094  26.673  1.00  0.00     0.059 A 
ATOM     97  C   UNL A   1      51.329  26.674  24.393  1.00  0.00     0.059 A 
ATOM     98  F   UNL A   1      49.217  27.588  23.943  1.00  0.00    -0.206 F 
ATOM     99  C   UNL A   1      52.246  26.173  25.315  1.00  0.00     0.060 A 
BRANCH  99 100
ATOM    100  S   UNL A   1      53.858  25.574  24.764  1.00  0.00     0.124 S 
ATOM    101  O   UNL A   1      54.722  26.001  25.859  1.00  0.00    -0.237 OA
ATOM    102  O   UNL A   1      53.638  24.136  24.653  1.00  0.00    -0.237 OA
ATOM    103  O   UNL A   1      54.064  26.269  23.495  1.00  0.00    -0.744 OA
ENDBRANCH  99 100
ENDBRANCH  67  92
ENDBRANCH  41  42
ENDBRANCH  34  36
ENDBRANCH  33  34
ENDBRANCH  32  33
ENDBRANCH  31  32
ENDBRANCH  30  31
ENDBRANCH  29  30
ENDBRANCH   1  29
TORSDOF 23
ENDMDL
MODEL 2
REMARK VINA RESULT:     -10.4      1.250      3.728
REMARK SMILES Cc1ccc(S(=O)(=O)Nc2cc3c(cc2C(=O)OCCOCCOCCOC(=O)c2ccc(-c4c5nc(c(-c6c(F)cc(S(=O)(=O)[O-])cc6F)c6ccc([nH]6)c(-c6c(F)cc(S(=O)(=O)[O-])cc6F)c6nc(c(-c7c(F)cc(S(=O)(=O)[O-])cc7F)c7ccc4[nH]7)C=C6)C=C5)cc2)OCCO3)s1
REMARK SMILES IDX 22 1 21 2 20 3 19 4 18 5 16 6 17 7 15 8 10 9 11 10 12 11
REMARK SMILES IDX 14 12 13 13 99 14 96 15 98 16 97 17 9 18 6 20 7 21 8 22 5 23
REMARK SMILES IDX 1 24 2 25 3 26 100 27 4 28 23 29 24 30 25 31 26 32 27 33
REMARK SMILES IDX 28 34 29 35 30 36 31 37 95 38 32 39 94 40 33 41 34 42 35 43
REMARK SMILES IDX 88 44 36 45 93 46 87 47 89 48 37 49 92 50 86 51 85 52 38 54
REMARK SMILES IDX 72 55 51 56 71 57 52 58 55 59 70 60 90 61 53 62 54 63 69 65
REMARK SMILES IDX 91 66 56 67 39 68 40 69 49 70 41 71 42 72 48 73 50 74 43 75
REMARK SMILES IDX 44 76 45 77 46 78 47 79 73 80 74 81 83 82 75 83 76 84 82 85
REMARK SMILES IDX 84 86 77 87 78 88 79 89 80 90 81 91 57 92 58 93 67 94 59 95
REMARK SMILES IDX 60 96 66 97 68 98 61 99 62 100 63 101 64 102 65 103
REMARK H PARENT 9 19 89 53 55 64
REMARK Flexibility Score: inf
ROOT
ATOM      1  C   UNL A   1      34.171  30.491  27.039  1.00  0.00     0.188 C 
ENDROOT
BRANCH   1   2
ATOM      2  O   UNL A   1      33.162  29.693  27.649  1.00  0.00    -0.376 OA
BRANCH   2   3
ATOM      3  C   UNL A   1      31.922  29.585  26.963  1.00  0.00     0.202 C 
BRANCH   3   4
ATOM      4  C   UNL A   1      31.759  28.337  26.091  1.00  0.00     0.261 C 
BRANCH   4   5
ATOM      5  O   UNL A   1      32.093  27.099  26.757  1.00  0.00    -0.460 OA
BRANCH   5   6
ATOM      6  C   UNL A   1      31.440  26.010  26.268  1.00  0.00     0.340 C 
ATOM      7  O   UNL A   1      30.260  25.742  26.427  1.00  0.00    -0.246 OA
BRANCH   6   8
ATOM      8  C   UNL A   1      32.351  25.057  25.596  1.00  0.00     0.088 A 
ATOM      9  C   UNL A   1      31.914  24.401  24.433  1.00  0.00     0.067 A 
ATOM     10  C   UNL A   1      32.552  23.241  23.990  1.00  0.00     0.078 A 
ATOM     11  C   UNL A   1      33.732  22.842  24.605  1.00  0.00     0.163 A 
ATOM     12  C   UNL A   1      33.536  24.651  26.216  1.00  0.00     0.068 A 
ATOM     13  C   UNL A   1      34.254  23.581  25.676  1.00  0.00     0.162 A 
ATOM     14  O   UNL A   1      34.375  21.778  24.030  1.00  0.00    -0.486 OA
ATOM     15  O   UNL A   1      35.480  23.305  26.229  1.00  0.00    -0.486 OA
ATOM     16  C   UNL A   1      35.500  21.347  24.798  1.00  0.00     0.271 C 
ATOM     17  C   UNL A   1      36.285  22.540  25.320  1.00  0.00     0.271 C 
BRANCH   9  18
ATOM     18  N   UNL A   1      31.011  25.070  23.545  1.00  0.00    -0.278 N 
ATOM     19  H   UNL A   1      30.051  24.857  23.501  1.00  0.00     0.180 HD
BRANCH  18  20
ATOM     20  S   UNL A   1      31.742  26.273  22.565  1.00  0.00     0.271 S 
ATOM     21  O   UNL A   1      31.748  25.763  21.219  1.00  0.00    -0.200 OA
ATOM     22  O   UNL A   1      32.964  26.673  23.240  1.00  0.00    -0.200 OA
BRANCH  20  23
ATOM     23  C   UNL A   1      30.747  27.770  22.565  1.00  0.00     0.140 A 
ATOM     24  C   UNL A   1      27.362  29.688  23.094  1.00  0.00     0.056 C 
ATOM     25  C   UNL A   1      28.762  29.237  22.854  1.00  0.00     0.003 A 
ATOM     26  C   UNL A   1      29.855  29.936  22.393  1.00  0.00     0.016 A 
ATOM     27  S   UNL A   1      29.169  27.620  23.150  1.00  0.00    -0.127 S 
ATOM     28  C   UNL A   1      30.982  29.078  22.177  1.00  0.00     0.034 A 
ENDBRANCH  20  23
ENDBRANCH  18  20
ENDBRANCH   9  18
ENDBRANCH   6   8
ENDBRANCH   5   6
ENDBRANCH   4   5
ENDBRANCH   3   4
ENDBRANCH   2   3
ENDBRANCH   1   2
BRANCH   1  29
ATOM     29  C   UNL A   1      34.971  31.401  27.970  1.00  0.00     0.188 C 
BRANCH  29  30
ATOM     30  O   UNL A   1      34.319  32.618  28.333  1.00  0.00    -0.376 OA
BRANCH  30  31
ATOM     31  C   UNL A   1      34.923  33.186  29.510  1.00  0.00     0.202 C 
BRANCH  31  32
ATOM     32  C   UNL A   1      35.191  32.141  30.603  1.00  0.00     0.261 C 
BRANCH  32  33
ATOM     33  O   UNL A   1      36.588  31.939  30.885  1.00  0.00    -0.460 OA
BRANCH  33  34
ATOM     34  C   UNL A   1      36.987  30.742  31.381  1.00  0.00     0.338 C 
ATOM     35  O   UNL A   1      36.383  30.045  32.178  1.00  0.00    -0.246 OA
BRANCH  34  36
ATOM     36  C   UNL A   1      38.287  30.389  30.750  1.00  0.00     0.060 A 
ATOM     37  C   UNL A   1      39.398  30.078  31.544  1.00  0.00     0.016 A 
ATOM     38  C   UNL A   1      38.405  30.357  29.357  1.00  0.00     0.016 A 
ATOM     39  C   UNL A   1      40.591  29.646  30.945  1.00  0.00     0.010 A 
ATOM     40  C   UNL A   1      39.613  29.986  28.760  1.00  0.00     0.010 A 
ATOM     41  C   UNL A   1      40.714  29.612  29.547  1.00  0.00    -0.014 A 
BRANCH  41  42
ATOM     42  C   UNL A   1      42.020  29.340  28.883  1.00  0.00     0.031 A 
ATOM     43  C   UNL A   1      42.317  27.943  28.415  1.00  0.00     0.074 A 
ATOM     44  C   UNL A   1      42.964  30.296  28.766  1.00  0.00     0.049 A 
ATOM     45  N   UNL A   1      43.417  27.455  27.903  1.00  0.00    -0.248 NA
ATOM     46  C   UNL A   1      41.229  26.960  28.547  1.00  0.00     0.031 C 
ATOM     47  C   UNL A   1      42.805  31.696  29.152  1.00  0.00     0.029 A 
ATOM     48  N   UNL A   1      44.260  30.226  28.307  1.00  0.00    -0.354 N 
ATOM     49  C   UNL A   1      43.150  26.118  27.638  1.00  0.00     0.074 A 
ATOM     50  C   UNL A   1      41.787  25.868  28.051  1.00  0.00     0.031 C 
ATOM     51  C   UNL A   1      43.959  32.350  28.931  1.00  0.00     0.029 A 
ATOM     52  C   UNL A   1      44.957  31.407  28.425  1.00  0.00     0.049 A 
ATOM     53  H   UNL A   1      44.653  29.406  27.929  1.00  0.00     0.167 HD
ATOM     54  C   UNL A   1      43.969  25.173  27.120  1.00  0.00     0.037 A 
ATOM     55  C   UNL A   1      46.255  31.688  28.187  1.00  0.00     0.037 A 
ATOM     56  C   UNL A   1      45.351  25.390  26.789  1.00  0.00     0.049 A 
ATOM     57  C   UNL A   1      47.179  30.590  27.715  1.00  0.00     0.074 A 
ATOM     58  C   UNL A   1      46.269  24.480  26.295  1.00  0.00     0.029 A 
ATOM     59  N   UNL A   1      46.026  26.590  26.954  1.00  0.00    -0.354 N 
ATOM     60  N   UNL A   1      46.900  29.338  27.435  1.00  0.00    -0.248 NA
ATOM     61  C   UNL A   1      48.598  30.938  27.541  1.00  0.00     0.031 C 
ATOM     62  C   UNL A   1      47.512  25.116  26.211  1.00  0.00     0.029 A 
ATOM     63  C   UNL A   1      47.356  26.436  26.600  1.00  0.00     0.049 A 
ATOM     64  H   UNL A   1      45.618  27.428  27.274  1.00  0.00     0.167 HD
ATOM     65  C   UNL A   1      48.102  28.759  27.035  1.00  0.00     0.074 A 
ATOM     66  C   UNL A   1      49.107  29.798  27.095  1.00  0.00     0.031 C 
ATOM     67  C   UNL A   1      48.349  27.481  26.656  1.00  0.00     0.037 A 
BRANCH  54  68
ATOM     68  C   UNL A   1      43.391  23.800  26.940  1.00  0.00     0.058 A 
ATOM     69  C   UNL A   1      43.284  22.905  28.016  1.00  0.00     0.135 A 
ATOM     70  C   UNL A   1      42.957  23.368  25.678  1.00  0.00     0.135 A 
ATOM     71  F   UNL A   1      43.709  23.261  29.239  1.00  0.00    -0.206 F 
ATOM     72  C   UNL A   1      42.790  21.617  27.841  1.00  0.00     0.059 A 
ATOM     73  C   UNL A   1      42.439  22.093  25.483  1.00  0.00     0.059 A 
ATOM     74  F   UNL A   1      43.049  24.183  24.616  1.00  0.00    -0.206 F 
ATOM     75  C   UNL A   1      42.376  21.219  26.568  1.00  0.00     0.060 A 
BRANCH  75  76
ATOM     76  S   UNL A   1      41.757  19.536  26.352  1.00  0.00     0.124 S 
ATOM     77  O   UNL A   1      40.333  19.775  26.143  1.00  0.00    -0.237 OA
ATOM     78  O   UNL A   1      42.501  19.078  25.183  1.00  0.00    -0.237 OA
ATOM     79  O   UNL A   1      42.105  18.882  27.609  1.00  0.00    -0.744 OA
ENDBRANCH  75  76
ENDBRANCH  54  68
BRANCH  55  80
ATOM     80  C   UNL A   1      46.790  33.061  28.421  1.00  0.00     0.058 A 
ATOM     81  C   UNL A   1      46.791  34.020  27.396  1.00  0.00     0.135 A 
ATOM     82  C   UNL A   1      47.352  33.429  29.654  1.00  0.00     0.135 A 
ATOM     83  F   UNL A   1      46.287  33.715  26.191  1.00  0.00    -0.206 F 
ATOM     84  C   UNL A   1      47.343  35.286  27.578  1.00  0.00     0.059 A 
ATOM     85  C   UNL A   1      47.885  34.698  29.869  1.00  0.00     0.059 A 
ATOM     86  F   UNL A   1      47.382  32.551  30.668  1.00  0.00    -0.206 F 
ATOM     87  C   UNL A   1      47.887  35.616  28.820  1.00  0.00     0.060 A 
BRANCH  87  88
ATOM     88  S   UNL A   1      48.571  37.272  29.055  1.00  0.00     0.124 S 
ATOM     89  O   UNL A   1      48.252  37.527  30.456  1.00  0.00    -0.237 OA
ATOM     90  O   UNL A   1      49.984  37.067  28.750  1.00  0.00    -0.237 OA
ATOM     91  O   UNL A   1      47.838  38.080  28.085  1.00  0.00    -0.744 OA
ENDBRANCH  87  88
ENDBRANCH  55  80
BRANCH  67  92
ATOM     92  C   UNL A   1      49.753  27.125  26.247  1.00  0.00     0.058 A 
ATOM     93  C   UNL A   1      50.191  27.257  24.919  1.00  0.00     0.135 A 
ATOM     94  C   UNL A   1      50.695  26.728  27.210  1.00  0.00     0.135 A 
ATOM     95  F   UNL A   1      49.331  27.628  23.957  1.00  0.00    -0.206 F 
ATOM     96  C   UNL A   1      51.510  26.996  24.559  1.00  0.00     0.059 A 
ATOM     97  C   UNL A   1      52.025  26.487  26.877  1.00  0.00     0.059 A 
ATOM     98  F   UNL A   1      50.333  26.599  28.496  1.00  0.00    -0.206 F 
ATOM     99  C   UNL A   1      52.422  26.617  25.547  1.00  0.00     0.060 A 
BRANCH  99 100
ATOM    100  S   UNL A   1      54.143  26.337  25.078  1.00  0.00     0.124 S 
ATOM    101  O   UNL A   1      54.146  24.904  24.809  1.00  0.00    -0.237 OA
ATOM    102  O   UNL A   1      54.296  27.203  23.913  1.00  0.00    -0.237 OA
ATOM    103  O   UNL A   1      54.891  26.754  26.262  1.00  0.00    -0.744 OA
ENDBRANCH  99 100
ENDBRANCH  67  92
ENDBRANCH  41  42
ENDBRANCH  34  36
ENDBRANCH  33  34
ENDBRANCH  32  33
ENDBRANCH  31  32
ENDBRANCH  30  31
ENDBRANCH  29  30
ENDBRANCH   1  29
TORSDOF 23
ENDMDL
MODEL 3
REMARK VINA RESULT:     -10.4      4.244     11.034
REMARK SMILES Cc1ccc(S(=O)(=O)Nc2cc3c(cc2C(=O)OCCOCCOCCOC(=O)c2ccc(-c4c5nc(c(-c6c(F)cc(S(=O)(=O)[O-])cc6F)c6ccc([nH]6)c(-c6c(F)cc(S(=O)(=O)[O-])cc6F)c6nc(c(-c7c(F)cc(S(=O)(=O)[O-])cc7F)c7ccc4[nH]7)C=C6)C=C5)cc2)OCCO3)s1
REMARK SMILES IDX 22 1 21 2 20 3 19 4 18 5 16 6 17 7 15 8 10 9 11 10 12 11
REMARK SMILES IDX 14 12 13 13 99 14 96 15 98 16 97 17 9 18 6 20 7 21 8 22 5 23
REMARK SMILES IDX 1 24 2 25 3 26 100 27 4 28 23 29 24 30 25 31 26 32 27 33
REMARK SMILES IDX 28 34 29 35 30 36 31 37 95 38 32 39 94 40 33 41 34 42 35 43
REMARK SMILES IDX 88 44 36 45 93 46 87 47 89 48 37 49 92 50 86 51 85 52 38 54
REMARK SMILES IDX 72 55 51 56 71 57 52 58 55 59 70 60 90 61 53 62 54 63 69 65
REMARK SMILES IDX 91 66 56 67 39 68 40 69 49 70 41 71 42 72 48 73 50 74 43 75
REMARK SMILES IDX 44 76 45 77 46 78 47 79 73 80 74 81 83 82 75 83 76 84 82 85
REMARK SMILES IDX 84 86 77 87 78 88 79 89 80 90 81 91 57 92 58 93 67 94 59 95
REMARK SMILES IDX 60 96 66 97 68 98 61 99 62 100 63 101 64 102 65 103
REMARK H PARENT 9 19 89 53 55 64
REMARK Flexibility Score: inf
ROOT
ATOM      1  C   UNL A   1      34.693  34.476  30.576  1.00  0.00     0.188 C 
ENDROOT
BRANCH   1   2
ATOM      2  O   UNL A   1      34.836  34.103  31.941  1.00  0.00    -0.376 OA
BRANCH   2   3
ATOM      3  C   UNL A   1      35.011  32.720  32.219  1.00  0.00     0.202 C 
BRANCH   3   4
ATOM      4  C   UNL A   1      36.191  32.376  33.132  1.00  0.00     0.261 C 
BRANCH   4   5
ATOM      5  O   UNL A   1      37.433  32.139  32.433  1.00  0.00    -0.460 OA
BRANCH   5   6
ATOM      6  C   UNL A   1      38.216  33.243  32.300  1.00  0.00     0.340 C 
ATOM      7  O   UNL A   1      38.373  33.901  31.284  1.00  0.00    -0.246 OA
BRANCH   6   8
ATOM      8  C   UNL A   1      39.006  33.530  33.518  1.00  0.00     0.088 A 
ATOM      9  C   UNL A   1      39.707  32.483  34.139  1.00  0.00     0.067 A 
ATOM     10  C   UNL A   1      40.136  32.602  35.462  1.00  0.00     0.078 A 
ATOM     11  C   UNL A   1      40.022  33.830  36.101  1.00  0.00     0.163 A 
ATOM     12  C   UNL A   1      38.889  34.764  34.165  1.00  0.00     0.068 A 
ATOM     13  C   UNL A   1      39.456  34.924  35.432  1.00  0.00     0.162 A 
ATOM     14  O   UNL A   1      40.589  33.910  37.345  1.00  0.00    -0.486 OA
ATOM     15  O   UNL A   1      39.443  36.186  35.970  1.00  0.00    -0.486 OA
ATOM     16  C   UNL A   1      40.312  35.156  37.986  1.00  0.00     0.271 C 
ATOM     17  C   UNL A   1      40.433  36.307  37.002  1.00  0.00     0.271 C 
BRANCH   9  18
ATOM     18  N   UNL A   1      40.234  31.418  33.339  1.00  0.00    -0.278 N 
ATOM     19  H   UNL A   1      40.830  31.573  32.570  1.00  0.00     0.180 HD
BRANCH  18  20
ATOM     20  S   UNL A   1      39.740  29.851  33.830  1.00  0.00     0.271 S 
ATOM     21  O   UNL A   1      39.175  29.212  32.670  1.00  0.00    -0.200 OA
ATOM     22  O   UNL A   1      38.984  30.020  35.058  1.00  0.00    -0.200 OA
BRANCH  20  23
ATOM     23  C   UNL A   1      41.163  28.876  34.338  1.00  0.00     0.140 A 
ATOM     24  C   UNL A   1      44.491  26.938  33.577  1.00  0.00     0.056 C 
ATOM     25  C   UNL A   1      43.299  27.620  34.154  1.00  0.00     0.003 A 
ATOM     26  C   UNL A   1      42.810  27.618  35.442  1.00  0.00     0.016 A 
ATOM     27  S   UNL A   1      42.315  28.556  33.143  1.00  0.00    -0.127 S 
ATOM     28  C   UNL A   1      41.552  28.298  35.533  1.00  0.00     0.034 A 
ENDBRANCH  20  23
ENDBRANCH  18  20
ENDBRANCH   9  18
ENDBRANCH   6   8
ENDBRANCH   5   6
ENDBRANCH   4   5
ENDBRANCH   3   4
ENDBRANCH   2   3
ENDBRANCH   1   2
BRANCH   1  29
ATOM     29  C   UNL A   1      33.504  35.373  30.239  1.00  0.00     0.188 C 
BRANCH  29  30
ATOM     30  O   UNL A   1      32.648  34.883  29.207  1.00  0.00    -0.376 OA
BRANCH  30  31
ATOM     31  C   UNL A   1      33.414  34.235  28.175  1.00  0.00     0.202 C 
BRANCH  31  32
ATOM     32  C   UNL A   1      33.097  32.738  28.051  1.00  0.00     0.261 C 
BRANCH  32  33
ATOM     33  O   UNL A   1      34.134  31.878  28.559  1.00  0.00    -0.460 OA
BRANCH  33  34
ATOM     34  C   UNL A   1      34.294  30.651  28.005  1.00  0.00     0.338 C 
ATOM     35  O   UNL A   1      33.465  30.025  27.368  1.00  0.00    -0.246 OA
BRANCH  34  36
ATOM     36  C   UNL A   1      35.688  30.202  28.269  1.00  0.00     0.060 A 
ATOM     37  C   UNL A   1      36.047  29.716  29.532  1.00  0.00     0.016 A 
ATOM     38  C   UNL A   1      36.646  30.253  27.251  1.00  0.00     0.016 A 
ATOM     39  C   UNL A   1      37.333  29.197  29.746  1.00  0.00     0.010 A 
ATOM     40  C   UNL A   1      37.945  29.793  27.484  1.00  0.00     0.010 A 
ATOM     41  C   UNL A   1      38.299  29.247  28.728  1.00  0.00    -0.014 A 
BRANCH  41  42
ATOM     42  C   UNL A   1      39.720  28.880  28.980  1.00  0.00     0.031 A 
ATOM     43  C   UNL A   1      40.668  29.942  29.465  1.00  0.00     0.074 A 
ATOM     44  C   UNL A   1      40.188  27.644  28.710  1.00  0.00     0.049 A 
ATOM     45  N   UNL A   1      41.960  29.877  29.658  1.00  0.00    -0.248 NA
ATOM     46  C   UNL A   1      40.080  31.258  29.768  1.00  0.00     0.031 C 
ATOM     47  C   UNL A   1      39.381  26.512  28.260  1.00  0.00     0.029 A 
ATOM     48  N   UNL A   1      41.469  27.140  28.753  1.00  0.00    -0.354 N 
ATOM     49  C   UNL A   1      42.336  31.133  30.117  1.00  0.00     0.074 A 
ATOM     50  C   UNL A   1      41.139  31.942  30.170  1.00  0.00     0.031 C 
ATOM     51  C   UNL A   1      40.183  25.452  28.053  1.00  0.00     0.029 A 
ATOM     52  C   UNL A   1      41.569  25.839  28.314  1.00  0.00     0.049 A 
ATOM     53  H   UNL A   1      42.241  27.662  29.068  1.00  0.00     0.167 HD
ATOM     54  C   UNL A   1      43.570  31.584  30.446  1.00  0.00     0.037 A 
ATOM     55  C   UNL A   1      42.654  25.062  28.114  1.00  0.00     0.037 A 
ATOM     56  C   UNL A   1      44.777  30.815  30.314  1.00  0.00     0.049 A 
ATOM     57  C   UNL A   1      44.031  25.623  28.381  1.00  0.00     0.074 A 
ATOM     58  C   UNL A   1      46.077  31.204  30.586  1.00  0.00     0.029 A 
ATOM     59  N   UNL A   1      44.839  29.515  29.837  1.00  0.00    -0.354 N 
ATOM     60  N   UNL A   1      44.366  26.803  28.851  1.00  0.00    -0.248 NA
ATOM     61  C   UNL A   1      45.179  24.755  28.076  1.00  0.00     0.031 C 
ATOM     62  C   UNL A   1      46.930  30.156  30.223  1.00  0.00     0.029 A 
ATOM     63  C   UNL A   1      46.157  29.096  29.777  1.00  0.00     0.049 A 
ATOM     64  H   UNL A   1      44.060  28.970  29.579  1.00  0.00     0.167 HD
ATOM     65  C   UNL A   1      45.757  26.808  28.915  1.00  0.00     0.074 A 
ATOM     66  C   UNL A   1      46.202  25.511  28.451  1.00  0.00     0.031 C 
ATOM     67  C   UNL A   1      46.590  27.799  29.319  1.00  0.00     0.037 A 
BRANCH  54  68
ATOM     68  C   UNL A   1      43.667  33.003  30.924  1.00  0.00     0.058 A 
ATOM     69  C   UNL A   1      43.939  34.056  30.038  1.00  0.00     0.135 A 
ATOM     70  C   UNL A   1      43.504  33.310  32.284  1.00  0.00     0.135 A 
ATOM     71  F   UNL A   1      44.128  33.811  28.731  1.00  0.00    -0.206 F 
ATOM     72  C   UNL A   1      44.073  35.365  30.488  1.00  0.00     0.059 A 
ATOM     73  C   UNL A   1      43.612  34.615  32.753  1.00  0.00     0.059 A 
ATOM     74  F   UNL A   1      43.253  32.336  33.172  1.00  0.00    -0.206 F 
ATOM     75  C   UNL A   1      43.914  35.633  31.849  1.00  0.00     0.060 A 
BRANCH  75  76
ATOM     76  S   UNL A   1      44.113  37.334  32.421  1.00  0.00     0.124 S 
ATOM     77  O   UNL A   1      43.884  38.083  31.190  1.00  0.00    -0.237 OA
ATOM     78  O   UNL A   1      43.069  37.446  33.434  1.00  0.00    -0.237 OA
ATOM     79  O   UNL A   1      45.482  37.363  32.928  1.00  0.00    -0.744 OA
ENDBRANCH  75  76
ENDBRANCH  54  68
BRANCH  55  80
ATOM     80  C   UNL A   1      42.506  23.670  27.598  1.00  0.00     0.058 A 
ATOM     81  C   UNL A   1      42.462  22.575  28.475  1.00  0.00     0.135 A 
ATOM     82  C   UNL A   1      42.452  23.400  26.220  1.00  0.00     0.135 A 
ATOM     83  F   UNL A   1      42.533  22.774  29.800  1.00  0.00    -0.206 F 
ATOM     84  C   UNL A   1      42.387  21.266  28.008  1.00  0.00     0.059 A 
ATOM     85  C   UNL A   1      42.349  22.101  25.730  1.00  0.00     0.059 A 
ATOM     86  F   UNL A   1      42.495  24.409  25.336  1.00  0.00    -0.206 F 
ATOM     87  C   UNL A   1      42.329  21.039  26.632  1.00  0.00     0.060 A 
BRANCH  87  88
ATOM     88  S   UNL A   1      42.199  19.336  26.039  1.00  0.00     0.124 S 
ATOM     89  O   UNL A   1      43.147  19.337  24.929  1.00  0.00    -0.237 OA
ATOM     90  O   UNL A   1      42.596  18.569  27.215  1.00  0.00    -0.237 OA
ATOM     91  O   UNL A   1      40.793  19.217  25.666  1.00  0.00    -0.744 OA
ENDBRANCH  87  88
ENDBRANCH  55  80
BRANCH  67  92
ATOM     92  C   UNL A   1      48.070  27.524  29.309  1.00  0.00     0.058 A 
ATOM     93  C   UNL A   1      48.897  27.974  28.268  1.00  0.00     0.135 A 
ATOM     94  C   UNL A   1      48.680  26.876  30.396  1.00  0.00     0.135 A 
ATOM     95  F   UNL A   1      48.367  28.596  27.203  1.00  0.00    -0.206 F 
ATOM     96  C   UNL A   1      50.276  27.781  28.300  1.00  0.00     0.059 A 
ATOM     97  C   UNL A   1      50.058  26.695  30.461  1.00  0.00     0.059 A 
ATOM     98  F   UNL A   1      47.936  26.436  31.423  1.00  0.00    -0.206 F 
ATOM     99  C   UNL A   1      50.848  27.145  29.404  1.00  0.00     0.060 A 
BRANCH  99 100
ATOM    100  S   UNL A   1      52.643  26.950  29.460  1.00  0.00     0.124 S 
ATOM    101  O   UNL A   1      52.855  26.567  30.851  1.00  0.00    -0.237 OA
ATOM    102  O   UNL A   1      52.876  25.903  28.471  1.00  0.00    -0.237 OA
ATOM    103  O   UNL A   1      53.140  28.273  29.091  1.00  0.00    -0.744 OA
ENDBRANCH  99 100
ENDBRANCH  67  92
ENDBRANCH  41  42
ENDBRANCH  34  36
ENDBRANCH  33  34
ENDBRANCH  32  33
ENDBRANCH  31  32
ENDBRANCH  30  31
ENDBRANCH  29  30
ENDBRANCH   1  29
TORSDOF 23
ENDMDL
