MODEL 1
REMARK VINA RESULT:     -10.6      0.000      0.000
REMARK SMILES C[NH2+][C@@]1(C(=O)OCCOCCOCCOC(=O)c2ccc(-c3c4nc(c(-c5c(F)cc(S(=O)(=O)[O-])cc5F)c5ccc([nH]5)c(-c5c(F)cc(S(=O)(=O)[O-])cc5F)c5nc(c(-c6c(F)cc(S(=O)(=O)[O-])cc6F)c6ccc3[nH]6)C=C5)C=C4)cc2)CCC[C@@H](Oc2cc(F)cc(F)c2)C1
REMARK SMILES IDX 11 1 10 2 9 3 8 4 7 5 6 6 4 7 5 8 3 9 84 10 97 11 85 12
REMARK SMILES IDX 87 13 86 14 2 15 1 16 88 19 89 20 90 21 96 22 91 23 94 24
REMARK SMILES IDX 92 25 93 26 95 27 12 28 13 29 14 30 15 31 16 32 17 33 18 34
REMARK SMILES IDX 19 35 83 36 20 37 82 38 21 39 22 40 23 41 76 42 24 43 81 44
REMARK SMILES IDX 75 45 77 46 25 47 80 48 74 49 73 50 26 52 60 53 39 54 59 55
REMARK SMILES IDX 40 56 43 57 58 58 78 59 41 60 42 61 57 63 79 64 44 65 27 66
REMARK SMILES IDX 28 67 37 68 29 69 30 70 36 71 38 72 31 73 32 74 33 75 34 76
REMARK SMILES IDX 35 77 61 78 62 79 71 80 63 81 64 82 70 83 72 84 65 85 66 86
REMARK SMILES IDX 67 87 68 88 69 89 45 90 46 91 55 92 47 93 48 94 54 95 56 96
REMARK SMILES IDX 49 97 50 98 51 99 52 100 53 101
REMARK H PARENT 2 17 2 18 77 51 43 62
REMARK Flexibility Score: inf
ROOT
ATOM      1  C   UNL A   1      33.719  33.247  28.083  1.00  0.00     0.188 C 
ENDROOT
BRANCH   1   2
ATOM      2  C   UNL A   1      33.911  31.782  27.678  1.00  0.00     0.188 C 
BRANCH   2   3
ATOM      3  O   UNL A   1      32.739  31.083  27.272  1.00  0.00    -0.376 OA
BRANCH   3   4
ATOM      4  C   UNL A   1      32.878  29.684  27.037  1.00  0.00     0.202 C 
BRANCH   4   5
ATOM      5  C   UNL A   1      32.052  29.071  25.895  1.00  0.00     0.261 C 
BRANCH   5   6
ATOM      6  O   UNL A   1      31.200  27.961  26.270  1.00  0.00    -0.459 OA
BRANCH   6   7
ATOM      7  C   UNL A   1      31.664  26.731  25.910  1.00  0.00     0.368 C 
ATOM      8  O   UNL A   1      32.754  26.292  26.275  1.00  0.00    -0.245 OA
BRANCH   7   9
ATOM      9  C   UNL A   1      30.729  25.922  24.948  1.00  0.00     0.197 C 
ATOM     10  C   UNL A   1      31.620  25.529  23.747  1.00  0.00     0.081 C 
ATOM     11  C   UNL A   1      29.474  26.615  24.374  1.00  0.00     0.126 C 
ATOM     12  C   UNL A   1      31.980  26.763  22.903  1.00  0.00     0.011 C 
ATOM     13  C   UNL A   1      29.715  27.789  23.429  1.00  0.00     0.180 C 
ATOM     14  C   UNL A   1      30.738  27.453  22.338  1.00  0.00     0.046 C 
BRANCH   9  15
ATOM     15  N   UNL A   1      30.133  24.754  25.677  1.00  0.00    -0.334 N 
ATOM     16  C   UNL A   1      31.036  23.689  26.086  1.00  0.00     0.331 C 
ATOM     17  H   UNL A   1      29.684  25.114  26.518  1.00  0.00     0.347 HD
ATOM     18  H   UNL A   1      29.504  24.319  25.001  1.00  0.00     0.347 HD
ENDBRANCH   9  15
BRANCH  13  19
ATOM     19  O   UNL A   1      28.484  28.359  22.912  1.00  0.00    -0.490 OA
BRANCH  19  20
ATOM     20  C   UNL A   1      28.457  29.697  22.631  1.00  0.00     0.125 A 
ATOM     21  C   UNL A   1      28.033  30.090  21.362  1.00  0.00     0.085 A 
ATOM     22  C   UNL A   1      28.969  30.655  23.507  1.00  0.00     0.085 A 
ATOM     23  C   UNL A   1      28.044  31.441  21.018  1.00  0.00     0.129 A 
ATOM     24  C   UNL A   1      28.944  32.002  23.152  1.00  0.00     0.129 A 
ATOM     25  F   UNL A   1      27.633  31.813  19.797  1.00  0.00    -0.207 F 
ATOM     26  C   UNL A   1      28.477  32.409  21.911  1.00  0.00     0.078 A 
ATOM     27  F   UNL A   1      29.385  32.921  24.022  1.00  0.00    -0.207 F 
ENDBRANCH  19  20
ENDBRANCH  13  19
ENDBRANCH   7   9
ENDBRANCH   6   7
ENDBRANCH   5   6
ENDBRANCH   4   5
ENDBRANCH   3   4
ENDBRANCH   2   3
ENDBRANCH   1   2
BRANCH   1  28
ATOM     28  O   UNL A   1      34.768  33.822  28.845  1.00  0.00    -0.376 OA
BRANCH  28  29
ATOM     29  C   UNL A   1      34.682  33.695  30.265  1.00  0.00     0.202 C 
BRANCH  29  30
ATOM     30  C   UNL A   1      35.113  32.334  30.863  1.00  0.00     0.261 C 
BRANCH  30  31
ATOM     31  O   UNL A   1      36.486  31.938  30.649  1.00  0.00    -0.460 OA
BRANCH  31  32
ATOM     32  C   UNL A   1      36.939  30.851  31.319  1.00  0.00     0.338 C 
ATOM     33  O   UNL A   1      36.327  30.227  32.171  1.00  0.00    -0.246 OA
BRANCH  32  34
ATOM     34  C   UNL A   1      38.181  30.360  30.653  1.00  0.00     0.060 A 
ATOM     35  C   UNL A   1      39.204  29.842  31.462  1.00  0.00     0.016 A 
ATOM     36  C   UNL A   1      38.318  30.325  29.262  1.00  0.00     0.016 A 
ATOM     37  C   UNL A   1      40.381  29.341  30.891  1.00  0.00     0.010 A 
ATOM     38  C   UNL A   1      39.504  29.838  28.692  1.00  0.00     0.010 A 
ATOM     39  C   UNL A   1      40.560  29.378  29.503  1.00  0.00    -0.014 A 
BRANCH  39  40
ATOM     40  C   UNL A   1      41.909  29.157  28.912  1.00  0.00     0.031 A 
ATOM     41  C   UNL A   1      42.244  27.771  28.418  1.00  0.00     0.074 A 
ATOM     42  C   UNL A   1      42.823  30.139  28.796  1.00  0.00     0.049 A 
ATOM     43  N   UNL A   1      43.368  27.302  27.941  1.00  0.00    -0.248 NA
ATOM     44  C   UNL A   1      41.157  26.780  28.477  1.00  0.00     0.031 C 
ATOM     45  C   UNL A   1      42.626  31.533  29.186  1.00  0.00     0.029 A 
ATOM     46  N   UNL A   1      44.116  30.102  28.325  1.00  0.00    -0.354 N 
ATOM     47  C   UNL A   1      43.128  25.963  27.654  1.00  0.00     0.074 A 
ATOM     48  C   UNL A   1      41.761  25.686  28.040  1.00  0.00     0.031 C 
ATOM     49  C   UNL A   1      43.764  32.214  28.957  1.00  0.00     0.029 A 
ATOM     50  C   UNL A   1      44.782  31.300  28.437  1.00  0.00     0.049 A 
ATOM     51  H   UNL A   1      44.526  29.292  27.944  1.00  0.00     0.167 HD
ATOM     52  C   UNL A   1      43.962  25.045  27.110  1.00  0.00     0.037 A 
ATOM     53  C   UNL A   1      46.069  31.617  28.178  1.00  0.00     0.037 A 
ATOM     54  C   UNL A   1      45.323  25.314  26.727  1.00  0.00     0.049 A 
ATOM     55  C   UNL A   1      47.009  30.559  27.645  1.00  0.00     0.074 A 
ATOM     56  C   UNL A   1      46.242  24.448  26.159  1.00  0.00     0.029 A 
ATOM     57  N   UNL A   1      45.965  26.534  26.880  1.00  0.00    -0.354 N 
ATOM     58  N   UNL A   1      46.764  29.301  27.363  1.00  0.00    -0.248 NA
ATOM     59  C   UNL A   1      48.400  30.966  27.392  1.00  0.00     0.031 C 
ATOM     60  C   UNL A   1      47.456  25.129  26.019  1.00  0.00     0.029 A 
ATOM     61  C   UNL A   1      47.275  26.437  26.440  1.00  0.00     0.049 A 
ATOM     62  H   UNL A   1      45.551  27.348  27.247  1.00  0.00     0.167 HD
ATOM     63  C   UNL A   1      47.958  28.778  26.872  1.00  0.00     0.074 A 
ATOM     64  C   UNL A   1      48.923  29.857  26.886  1.00  0.00     0.031 C 
ATOM     65  C   UNL A   1      48.229  27.519  26.445  1.00  0.00     0.037 A 
BRANCH  52  66
ATOM     66  C   UNL A   1      43.431  23.650  26.922  1.00  0.00     0.058 A 
ATOM     67  C   UNL A   1      43.255  22.772  28.005  1.00  0.00     0.135 A 
ATOM     68  C   UNL A   1      43.070  23.193  25.644  1.00  0.00     0.135 A 
ATOM     69  F   UNL A   1      43.603  23.150  29.245  1.00  0.00    -0.206 F 
ATOM     70  C   UNL A   1      42.768  21.482  27.822  1.00  0.00     0.059 A 
ATOM     71  C   UNL A   1      42.552  21.917  25.443  1.00  0.00     0.059 A 
ATOM     72  F   UNL A   1      43.220  23.990  24.574  1.00  0.00    -0.206 F 
ATOM     73  C   UNL A   1      42.419  21.064  26.537  1.00  0.00     0.060 A 
BRANCH  73  74
ATOM     74  S   UNL A   1      41.787  19.387  26.318  1.00  0.00     0.124 S 
ATOM     75  O   UNL A   1      42.204  18.755  27.566  1.00  0.00    -0.237 OA
ATOM     76  O   UNL A   1      40.353  19.612  26.170  1.00  0.00    -0.237 OA
ATOM     77  O   UNL A   1      42.472  18.918  25.118  1.00  0.00    -0.744 OA
ENDBRANCH  73  74
ENDBRANCH  52  66
BRANCH  53  78
ATOM     78  C   UNL A   1      46.567  32.998  28.438  1.00  0.00     0.058 A 
ATOM     79  C   UNL A   1      47.061  33.370  29.698  1.00  0.00     0.135 A 
ATOM     80  C   UNL A   1      46.542  33.979  27.435  1.00  0.00     0.135 A 
ATOM     81  F   UNL A   1      47.087  32.477  30.700  1.00  0.00    -0.206 F 
ATOM     82  C   UNL A   1      47.500  34.666  29.958  1.00  0.00     0.059 A 
ATOM     83  C   UNL A   1      47.002  35.273  27.661  1.00  0.00     0.059 A 
ATOM     84  F   UNL A   1      46.079  33.678  26.212  1.00  0.00    -0.206 F 
ATOM     85  C   UNL A   1      47.472  35.610  28.930  1.00  0.00     0.060 A 
BRANCH  85  86
ATOM     86  S   UNL A   1      48.097  37.272  29.263  1.00  0.00     0.124 S 
ATOM     87  O   UNL A   1      49.502  37.138  28.901  1.00  0.00    -0.237 OA
ATOM     88  O   UNL A   1      47.282  38.088  28.368  1.00  0.00    -0.237 OA
ATOM     89  O   UNL A   1      47.826  37.454  30.685  1.00  0.00    -0.744 OA
ENDBRANCH  85  86
ENDBRANCH  53  78
BRANCH  65  90
ATOM     90  C   UNL A   1      49.610  27.235  25.912  1.00  0.00     0.058 A 
ATOM     91  C   UNL A   1      50.648  26.776  26.738  1.00  0.00     0.135 A 
ATOM     92  C   UNL A   1      49.880  27.364  24.538  1.00  0.00     0.135 A 
ATOM     93  F   UNL A   1      50.449  26.637  28.058  1.00  0.00    -0.206 F 
ATOM     94  C   UNL A   1      51.908  26.478  26.226  1.00  0.00     0.059 A 
ATOM     95  C   UNL A   1      51.123  27.043  24.001  1.00  0.00     0.059 A 
ATOM     96  F   UNL A   1      48.921  27.787  23.698  1.00  0.00    -0.206 F 
ATOM     97  C   UNL A   1      52.135  26.611  24.855  1.00  0.00     0.060 A 
BRANCH  97  98
ATOM     98  S   UNL A   1      53.765  26.188  24.200  1.00  0.00     0.124 S 
ATOM     99  O   UNL A   1      53.458  25.917  22.799  1.00  0.00    -0.237 OA
ATOM    100  O   UNL A   1      54.530  27.403  24.459  1.00  0.00    -0.237 OA
ATOM    101  O   UNL A   1      54.158  25.025  24.991  1.00  0.00    -0.744 OA
ENDBRANCH  97  98
ENDBRANCH  65  90
ENDBRANCH  39  40
ENDBRANCH  32  34
ENDBRANCH  31  32
ENDBRANCH  30  31
ENDBRANCH  29  30
ENDBRANCH  28  29
ENDBRANCH   1  28
TORSDOF 23
ENDMDL
MODEL 2
REMARK VINA RESULT:     -10.6      2.596      8.997
REMARK SMILES C[NH2+][C@@]1(C(=O)OCCOCCOCCOC(=O)c2ccc(-c3c4nc(c(-c5c(F)cc(S(=O)(=O)[O-])cc5F)c5ccc([nH]5)c(-c5c(F)cc(S(=O)(=O)[O-])cc5F)c5nc(c(-c6c(F)cc(S(=O)(=O)[O-])cc6F)c6ccc3[nH]6)C=C5)C=C4)cc2)CCC[C@@H](Oc2cc(F)cc(F)c2)C1
REMARK SMILES IDX 11 1 10 2 9 3 8 4 7 5 6 6 4 7 5 8 3 9 84 10 97 11 85 12
REMARK SMILES IDX 87 13 86 14 2 15 1 16 88 19 89 20 90 21 96 22 91 23 94 24
REMARK SMILES IDX 92 25 93 26 95 27 12 28 13 29 14 30 15 31 16 32 17 33 18 34
REMARK SMILES IDX 19 35 83 36 20 37 82 38 21 39 22 40 23 41 76 42 24 43 81 44
REMARK SMILES IDX 75 45 77 46 25 47 80 48 74 49 73 50 26 52 60 53 39 54 59 55
REMARK SMILES IDX 40 56 43 57 58 58 78 59 41 60 42 61 57 63 79 64 44 65 27 66
REMARK SMILES IDX 28 67 37 68 29 69 30 70 36 71 38 72 31 73 32 74 33 75 34 76
REMARK SMILES IDX 35 77 61 78 62 79 71 80 63 81 64 82 70 83 72 84 65 85 66 86
REMARK SMILES IDX 67 87 68 88 69 89 45 90 46 91 55 92 47 93 48 94 54 95 56 96
REMARK SMILES IDX 49 97 50 98 51 99 52 100 53 101
REMARK H PARENT 2 17 2 18 77 51 43 62
REMARK Flexibility Score: inf
ROOT
ATOM      1  C   UNL A   1      34.313  33.362  28.580  1.00  0.00     0.188 C 
ENDROOT
BRANCH   1   2
ATOM      2  C   UNL A   1      34.856  32.002  28.132  1.00  0.00     0.188 C 
BRANCH   2   3
ATOM      3  O   UNL A   1      34.015  31.241  27.273  1.00  0.00    -0.376 OA
BRANCH   3   4
ATOM      4  C   UNL A   1      34.113  29.822  27.375  1.00  0.00     0.202 C 
BRANCH   4   5
ATOM      5  C   UNL A   1      33.562  28.987  26.208  1.00  0.00     0.261 C 
BRANCH   5   6
ATOM      6  O   UNL A   1      33.472  27.562  26.451  1.00  0.00    -0.459 OA
BRANCH   6   7
ATOM      7  C   UNL A   1      32.204  27.063  26.491  1.00  0.00     0.368 C 
ATOM      8  O   UNL A   1      31.429  27.277  27.422  1.00  0.00    -0.245 OA
BRANCH   7   9
ATOM      9  C   UNL A   1      31.811  26.147  25.282  1.00  0.00     0.197 C 
ATOM     10  C   UNL A   1      31.046  24.956  25.904  1.00  0.00     0.081 C 
ATOM     11  C   UNL A   1      32.933  25.556  24.402  1.00  0.00     0.126 C 
ATOM     12  C   UNL A   1      31.995  24.055  26.711  1.00  0.00     0.011 C 
ATOM     13  C   UNL A   1      33.872  24.557  25.073  1.00  0.00     0.180 C 
ATOM     14  C   UNL A   1      33.109  23.472  25.841  1.00  0.00     0.046 C 
BRANCH   9  15
ATOM     15  N   UNL A   1      31.014  26.933  24.284  1.00  0.00    -0.334 N 
ATOM     16  C   UNL A   1      31.728  27.486  23.143  1.00  0.00     0.331 C 
ATOM     17  H   UNL A   1      30.286  26.317  23.920  1.00  0.00     0.347 HD
ATOM     18  H   UNL A   1      30.676  27.745  24.800  1.00  0.00     0.347 HD
ENDBRANCH   9  15
BRANCH  13  19
ATOM     19  O   UNL A   1      34.874  24.027  24.166  1.00  0.00    -0.490 OA
BRANCH  19  20
ATOM     20  C   UNL A   1      35.938  23.353  24.697  1.00  0.00     0.125 A 
ATOM     21  C   UNL A   1      36.807  24.055  25.532  1.00  0.00     0.085 A 
ATOM     22  C   UNL A   1      36.259  22.048  24.320  1.00  0.00     0.085 A 
ATOM     23  C   UNL A   1      37.934  23.420  26.048  1.00  0.00     0.129 A 
ATOM     24  C   UNL A   1      37.376  21.423  24.872  1.00  0.00     0.129 A 
ATOM     25  F   UNL A   1      38.764  24.100  26.853  1.00  0.00    -0.207 F 
ATOM     26  C   UNL A   1      38.219  22.097  25.743  1.00  0.00     0.078 A 
ATOM     27  F   UNL A   1      37.646  20.151  24.548  1.00  0.00    -0.207 F 
ENDBRANCH  19  20
ENDBRANCH  13  19
ENDBRANCH   7   9
ENDBRANCH   6   7
ENDBRANCH   5   6
ENDBRANCH   4   5
ENDBRANCH   3   4
ENDBRANCH   2   3
ENDBRANCH   1   2
BRANCH   1  28
ATOM     28  O   UNL A   1      35.201  34.166  29.340  1.00  0.00    -0.376 OA
BRANCH  28  29
ATOM     29  C   UNL A   1      34.939  34.274  30.740  1.00  0.00     0.202 C 
BRANCH  29  30
ATOM     30  C   UNL A   1      36.057  33.787  31.692  1.00  0.00     0.261 C 
BRANCH  30  31
ATOM     31  O   UNL A   1      37.060  32.916  31.121  1.00  0.00    -0.460 OA
BRANCH  31  32
ATOM     32  C   UNL A   1      36.903  31.581  31.292  1.00  0.00     0.338 C 
ATOM     33  O   UNL A   1      35.881  31.018  31.650  1.00  0.00    -0.246 OA
BRANCH  32  34
ATOM     34  C   UNL A   1      38.080  30.881  30.697  1.00  0.00     0.060 A 
ATOM     35  C   UNL A   1      39.013  30.301  31.570  1.00  0.00     0.016 A 
ATOM     36  C   UNL A   1      38.232  30.717  29.317  1.00  0.00     0.016 A 
ATOM     37  C   UNL A   1      40.123  29.608  31.070  1.00  0.00     0.010 A 
ATOM     38  C   UNL A   1      39.352  30.036  28.816  1.00  0.00     0.010 A 
ATOM     39  C   UNL A   1      40.326  29.510  29.687  1.00  0.00    -0.014 A 
BRANCH  39  40
ATOM     40  C   UNL A   1      41.644  29.068  29.150  1.00  0.00     0.031 A 
ATOM     41  C   UNL A   1      42.737  30.100  29.027  1.00  0.00     0.074 A 
ATOM     42  C   UNL A   1      41.892  27.795  28.788  1.00  0.00     0.049 A 
ATOM     43  N   UNL A   1      43.937  29.991  28.519  1.00  0.00    -0.248 NA
ATOM     44  C   UNL A   1      42.425  31.442  29.547  1.00  0.00     0.031 C 
ATOM     45  C   UNL A   1      40.951  26.683  28.894  1.00  0.00     0.029 A 
ATOM     46  N   UNL A   1      43.020  27.229  28.237  1.00  0.00    -0.354 N 
ATOM     47  C   UNL A   1      44.519  31.247  28.647  1.00  0.00     0.074 A 
ATOM     48  C   UNL A   1      43.528  32.112  29.251  1.00  0.00     0.031 C 
ATOM     49  C   UNL A   1      41.533  25.572  28.404  1.00  0.00     0.029 A 
ATOM     50  C   UNL A   1      42.874  25.899  27.919  1.00  0.00     0.049 A 
ATOM     51  H   UNL A   1      43.853  27.731  28.085  1.00  0.00     0.167 HD
ATOM     52  C   UNL A   1      45.766  31.648  28.303  1.00  0.00     0.037 A 
ATOM     53  C   UNL A   1      43.713  25.051  27.285  1.00  0.00     0.037 A 
ATOM     54  C   UNL A   1      46.754  30.793  27.699  1.00  0.00     0.049 A 
ATOM     55  C   UNL A   1      45.073  25.537  26.838  1.00  0.00     0.074 A 
ATOM     56  C   UNL A   1      48.048  31.109  27.324  1.00  0.00     0.029 A 
ATOM     57  N   UNL A   1      46.557  29.460  27.372  1.00  0.00    -0.354 N 
ATOM     58  N   UNL A   1      45.616  26.723  26.980  1.00  0.00    -0.248 NA
ATOM     59  C   UNL A   1      45.935  24.567  26.145  1.00  0.00     0.031 C 
ATOM     60  C   UNL A   1      48.617  29.982  26.720  1.00  0.00     0.029 A 
ATOM     61  C   UNL A   1      47.698  28.945  26.777  1.00  0.00     0.049 A 
ATOM     62  H   UNL A   1      45.729  28.954  27.538  1.00  0.00     0.167 HD
ATOM     63  C   UNL A   1      46.890  26.631  26.424  1.00  0.00     0.074 A 
ATOM     64  C   UNL A   1      47.042  25.272  25.951  1.00  0.00     0.031 C 
ATOM     65  C   UNL A   1      47.848  27.586  26.319  1.00  0.00     0.037 A 
BRANCH  52  66
ATOM     66  C   UNL A   1      46.124  33.089  28.549  1.00  0.00     0.058 A 
ATOM     67  C   UNL A   1      46.723  33.510  29.747  1.00  0.00     0.135 A 
ATOM     68  C   UNL A   1      45.885  34.058  27.561  1.00  0.00     0.135 A 
ATOM     69  F   UNL A   1      46.955  32.629  30.734  1.00  0.00    -0.206 F 
ATOM     70  C   UNL A   1      47.045  34.844  29.969  1.00  0.00     0.059 A 
ATOM     71  C   UNL A   1      46.228  35.394  27.749  1.00  0.00     0.059 A 
ATOM     72  F   UNL A   1      45.312  33.711  26.398  1.00  0.00    -0.206 F 
ATOM     73  C   UNL A   1      46.794  35.779  28.964  1.00  0.00     0.060 A 
BRANCH  73  74
ATOM     74  S   UNL A   1      47.220  37.507  29.267  1.00  0.00     0.124 S 
ATOM     75  O   UNL A   1      48.589  37.387  29.757  1.00  0.00    -0.237 OA
ATOM     76  O   UNL A   1      47.071  38.101  27.942  1.00  0.00    -0.237 OA
ATOM     77  O   UNL A   1      46.234  37.933  30.255  1.00  0.00    -0.744 OA
ENDBRANCH  73  74
ENDBRANCH  52  66
BRANCH  53  78
ATOM     78  C   UNL A   1      43.291  23.648  27.009  1.00  0.00     0.058 A 
ATOM     79  C   UNL A   1      43.275  22.678  28.023  1.00  0.00     0.135 A 
ATOM     80  C   UNL A   1      42.913  23.245  25.719  1.00  0.00     0.135 A 
ATOM     81  F   UNL A   1      43.649  23.005  29.270  1.00  0.00    -0.206 F 
ATOM     82  C   UNL A   1      42.911  21.359  27.767  1.00  0.00     0.059 A 
ATOM     83  C   UNL A   1      42.516  21.940  25.444  1.00  0.00     0.059 A 
ATOM     84  F   UNL A   1      42.910  24.131  24.711  1.00  0.00    -0.206 F 
ATOM     85  C   UNL A   1      42.527  21.000  26.474  1.00  0.00     0.060 A 
BRANCH  85  86
ATOM     86  S   UNL A   1      42.002  19.299  26.167  1.00  0.00     0.124 S 
ATOM     87  O   UNL A   1      40.577  19.470  25.914  1.00  0.00    -0.237 OA
ATOM     88  O   UNL A   1      42.816  18.934  25.011  1.00  0.00    -0.237 OA
ATOM     89  O   UNL A   1      42.346  18.612  27.408  1.00  0.00    -0.744 OA
ENDBRANCH  85  86
ENDBRANCH  53  78
BRANCH  65  90
ATOM     90  C   UNL A   1      49.170  27.197  25.709  1.00  0.00     0.058 A 
ATOM     91  C   UNL A   1      49.413  27.294  24.330  1.00  0.00     0.135 A 
ATOM     92  C   UNL A   1      50.234  26.781  26.529  1.00  0.00     0.135 A 
ATOM     93  F   UNL A   1      48.433  27.684  23.498  1.00  0.00    -0.206 F 
ATOM     94  C   UNL A   1      50.652  26.971  23.784  1.00  0.00     0.059 A 
ATOM     95  C   UNL A   1      51.489  26.481  26.008  1.00  0.00     0.059 A 
ATOM     96  F   UNL A   1      50.063  26.682  27.858  1.00  0.00    -0.206 F 
ATOM     97  C   UNL A   1      51.685  26.568  24.631  1.00  0.00     0.060 A 
BRANCH  97  98
ATOM     98  S   UNL A   1      53.298  26.185  23.912  1.00  0.00     0.124 S 
ATOM     99  O   UNL A   1      54.104  27.308  24.380  1.00  0.00    -0.237 OA
ATOM    100  O   UNL A   1      53.606  24.890  24.510  1.00  0.00    -0.237 OA
ATOM    101  O   UNL A   1      53.033  26.160  22.476  1.00  0.00    -0.744 OA
ENDBRANCH  97  98
ENDBRANCH  65  90
ENDBRANCH  39  40
ENDBRANCH  32  34
ENDBRANCH  31  32
ENDBRANCH  30  31
ENDBRANCH  29  30
ENDBRANCH  28  29
ENDBRANCH   1  28
TORSDOF 23
ENDMDL
MODEL 3
REMARK VINA RESULT:     -10.2      2.539      4.121
REMARK SMILES C[NH2+][C@@]1(C(=O)OCCOCCOCCOC(=O)c2ccc(-c3c4nc(c(-c5c(F)cc(S(=O)(=O)[O-])cc5F)c5ccc([nH]5)c(-c5c(F)cc(S(=O)(=O)[O-])cc5F)c5nc(c(-c6c(F)cc(S(=O)(=O)[O-])cc6F)c6ccc3[nH]6)C=C5)C=C4)cc2)CCC[C@@H](Oc2cc(F)cc(F)c2)C1
REMARK SMILES IDX 11 1 10 2 9 3 8 4 7 5 6 6 4 7 5 8 3 9 84 10 97 11 85 12
REMARK SMILES IDX 87 13 86 14 2 15 1 16 88 19 89 20 90 21 96 22 91 23 94 24
REMARK SMILES IDX 92 25 93 26 95 27 12 28 13 29 14 30 15 31 16 32 17 33 18 34
REMARK SMILES IDX 19 35 83 36 20 37 82 38 21 39 22 40 23 41 76 42 24 43 81 44
REMARK SMILES IDX 75 45 77 46 25 47 80 48 74 49 73 50 26 52 60 53 39 54 59 55
REMARK SMILES IDX 40 56 43 57 58 58 78 59 41 60 42 61 57 63 79 64 44 65 27 66
REMARK SMILES IDX 28 67 37 68 29 69 30 70 36 71 38 72 31 73 32 74 33 75 34 76
REMARK SMILES IDX 35 77 61 78 62 79 71 80 63 81 64 82 70 83 72 84 65 85 66 86
REMARK SMILES IDX 67 87 68 88 69 89 45 90 46 91 55 92 47 93 48 94 54 95 56 96
REMARK SMILES IDX 49 97 50 98 51 99 52 100 53 101
REMARK H PARENT 2 17 2 18 77 51 43 62
REMARK Flexibility Score: inf
ROOT
ATOM      1  C   UNL A   1      34.477  32.513  28.093  1.00  0.00     0.188 C 
ENDROOT
BRANCH   1   2
ATOM      2  C   UNL A   1      34.926  31.128  27.618  1.00  0.00     0.188 C 
BRANCH   2   3
ATOM      3  O   UNL A   1      33.918  30.125  27.562  1.00  0.00    -0.376 OA
BRANCH   3   4
ATOM      4  C   UNL A   1      34.346  28.806  27.232  1.00  0.00     0.202 C 
BRANCH   4   5
ATOM      5  C   UNL A   1      33.988  28.272  25.835  1.00  0.00     0.261 C 
BRANCH   5   6
ATOM      6  O   UNL A   1      33.475  26.917  25.800  1.00  0.00    -0.459 OA
BRANCH   6   7
ATOM      7  C   UNL A   1      32.116  26.815  25.799  1.00  0.00     0.368 C 
ATOM      8  O   UNL A   1      31.399  27.412  26.601  1.00  0.00    -0.245 OA
BRANCH   7   9
ATOM      9  C   UNL A   1      31.523  25.837  24.729  1.00  0.00     0.197 C 
ATOM     10  C   UNL A   1      30.340  25.130  25.432  1.00  0.00     0.081 C 
ATOM     11  C   UNL A   1      32.431  24.732  24.147  1.00  0.00     0.126 C 
ATOM     12  C   UNL A   1      30.845  24.168  26.521  1.00  0.00     0.011 C 
ATOM     13  C   UNL A   1      32.902  23.653  25.120  1.00  0.00     0.180 C 
ATOM     14  C   UNL A   1      31.748  23.076  25.946  1.00  0.00     0.046 C 
BRANCH   9  15
ATOM     15  N   UNL A   1      31.135  26.601  23.497  1.00  0.00    -0.334 N 
ATOM     16  C   UNL A   1      31.771  26.220  22.246  1.00  0.00     0.331 C 
ATOM     17  H   UNL A   1      30.128  26.493  23.374  1.00  0.00     0.347 HD
ATOM     18  H   UNL A   1      31.450  27.555  23.672  1.00  0.00     0.347 HD
ENDBRANCH   9  15
BRANCH  13  19
ATOM     19  O   UNL A   1      33.722  22.639  24.483  1.00  0.00    -0.490 OA
BRANCH  19  20
ATOM     20  C   UNL A   1      35.049  22.579  24.809  1.00  0.00     0.125 A 
ATOM     21  C   UNL A   1      35.711  21.365  24.629  1.00  0.00     0.085 A 
ATOM     22  C   UNL A   1      35.711  23.631  25.442  1.00  0.00     0.085 A 
ATOM     23  C   UNL A   1      37.049  21.246  25.002  1.00  0.00     0.129 A 
ATOM     24  C   UNL A   1      37.056  23.499  25.781  1.00  0.00     0.129 A 
ATOM     25  F   UNL A   1      37.682  20.078  24.824  1.00  0.00    -0.207 F 
ATOM     26  C   UNL A   1      37.739  22.313  25.560  1.00  0.00     0.078 A 
ATOM     27  F   UNL A   1      37.700  24.534  26.337  1.00  0.00    -0.207 F 
ENDBRANCH  19  20
ENDBRANCH  13  19
ENDBRANCH   7   9
ENDBRANCH   6   7
ENDBRANCH   5   6
ENDBRANCH   4   5
ENDBRANCH   3   4
ENDBRANCH   2   3
ENDBRANCH   1   2
BRANCH   1  28
ATOM     28  O   UNL A   1      35.334  33.160  29.020  1.00  0.00    -0.376 OA
BRANCH  28  29
ATOM     29  C   UNL A   1      34.808  33.409  30.324  1.00  0.00     0.202 C 
BRANCH  29  30
ATOM     30  C   UNL A   1      35.661  32.920  31.518  1.00  0.00     0.261 C 
BRANCH  30  31
ATOM     31  O   UNL A   1      36.913  32.271  31.197  1.00  0.00    -0.460 OA
BRANCH  31  32
ATOM     32  C   UNL A   1      36.979  30.926  31.341  1.00  0.00     0.338 C 
ATOM     33  O   UNL A   1      36.081  30.202  31.742  1.00  0.00    -0.246 OA
BRANCH  32  34
ATOM     34  C   UNL A   1      38.212  30.431  30.662  1.00  0.00     0.060 A 
ATOM     35  C   UNL A   1      39.215  29.851  31.455  1.00  0.00     0.016 A 
ATOM     36  C   UNL A   1      38.359  30.452  29.272  1.00  0.00     0.016 A 
ATOM     37  C   UNL A   1      40.383  29.345  30.871  1.00  0.00     0.010 A 
ATOM     38  C   UNL A   1      39.536  29.959  28.689  1.00  0.00     0.010 A 
ATOM     39  C   UNL A   1      40.573  29.437  29.486  1.00  0.00    -0.014 A 
BRANCH  39  40
ATOM     40  C   UNL A   1      41.921  29.205  28.895  1.00  0.00     0.031 A 
ATOM     41  C   UNL A   1      42.251  27.814  28.414  1.00  0.00     0.074 A 
ATOM     42  C   UNL A   1      42.838  30.184  28.767  1.00  0.00     0.049 A 
ATOM     43  N   UNL A   1      43.373  27.337  27.940  1.00  0.00    -0.248 NA
ATOM     44  C   UNL A   1      41.161  26.827  28.485  1.00  0.00     0.031 C 
ATOM     45  C   UNL A   1      42.645  31.582  29.144  1.00  0.00     0.029 A 
ATOM     46  N   UNL A   1      44.130  30.138  28.295  1.00  0.00    -0.354 N 
ATOM     47  C   UNL A   1      43.128  25.996  27.666  1.00  0.00     0.074 A 
ATOM     48  C   UNL A   1      41.761  25.727  28.059  1.00  0.00     0.031 C 
ATOM     49  C   UNL A   1      43.786  32.258  28.906  1.00  0.00     0.029 A 
ATOM     50  C   UNL A   1      44.800  31.336  28.394  1.00  0.00     0.049 A 
ATOM     51  H   UNL A   1      44.537  29.324  27.921  1.00  0.00     0.167 HD
ATOM     52  C   UNL A   1      43.959  25.070  27.130  1.00  0.00     0.037 A 
ATOM     53  C   UNL A   1      46.087  31.646  28.129  1.00  0.00     0.037 A 
ATOM     54  C   UNL A   1      45.319  25.331  26.742  1.00  0.00     0.049 A 
ATOM     55  C   UNL A   1      47.022  30.580  27.604  1.00  0.00     0.074 A 
ATOM     56  C   UNL A   1      46.235  24.457  26.182  1.00  0.00     0.029 A 
ATOM     57  N   UNL A   1      45.965  26.550  26.882  1.00  0.00    -0.354 N 
ATOM     58  N   UNL A   1      46.773  29.320  27.335  1.00  0.00    -0.248 NA
ATOM     59  C   UNL A   1      48.414  30.981  27.345  1.00  0.00     0.031 C 
ATOM     60  C   UNL A   1      47.451  25.133  26.032  1.00  0.00     0.029 A 
ATOM     61  C   UNL A   1      47.275  26.446  26.440  1.00  0.00     0.049 A 
ATOM     62  H   UNL A   1      45.554  27.369  27.241  1.00  0.00     0.167 HD
ATOM     63  C   UNL A   1      47.965  28.789  26.848  1.00  0.00     0.074 A 
ATOM     64  C   UNL A   1      48.933  29.865  26.849  1.00  0.00     0.031 C 
ATOM     65  C   UNL A   1      48.232  27.524  26.433  1.00  0.00     0.037 A 
BRANCH  52  66
ATOM     66  C   UNL A   1      43.422  23.674  26.958  1.00  0.00     0.058 A 
ATOM     67  C   UNL A   1      43.205  22.824  28.054  1.00  0.00     0.135 A 
ATOM     68  C   UNL A   1      43.099  23.191  25.679  1.00  0.00     0.135 A 
ATOM     69  F   UNL A   1      43.517  23.227  29.296  1.00  0.00    -0.206 F 
ATOM     70  C   UNL A   1      42.715  21.533  27.885  1.00  0.00     0.059 A 
ATOM     71  C   UNL A   1      42.578  21.915  25.491  1.00  0.00     0.059 A 
ATOM     72  F   UNL A   1      43.289  23.962  24.597  1.00  0.00    -0.206 F 
ATOM     73  C   UNL A   1      42.404  21.087  26.600  1.00  0.00     0.060 A 
BRANCH  73  74
ATOM     74  S   UNL A   1      41.766  19.411  26.399  1.00  0.00     0.124 S 
ATOM     75  O   UNL A   1      42.325  19.042  25.101  1.00  0.00    -0.237 OA
ATOM     76  O   UNL A   1      42.336  18.722  27.552  1.00  0.00    -0.237 OA
ATOM     77  O   UNL A   1      40.319  19.589  26.431  1.00  0.00    -0.744 OA
ENDBRANCH  73  74
ENDBRANCH  52  66
BRANCH  53  78
ATOM     78  C   UNL A   1      46.590  33.028  28.374  1.00  0.00     0.058 A 
ATOM     79  C   UNL A   1      46.653  33.975  27.340  1.00  0.00     0.135 A 
ATOM     80  C   UNL A   1      47.034  33.424  29.646  1.00  0.00     0.135 A 
ATOM     81  F   UNL A   1      46.261  33.642  26.101  1.00  0.00    -0.206 F 
ATOM     82  C   UNL A   1      47.148  35.258  27.554  1.00  0.00     0.059 A 
ATOM     83  C   UNL A   1      47.506  34.710  29.891  1.00  0.00     0.059 A 
ATOM     84  F   UNL A   1      46.997  32.558  30.670  1.00  0.00    -0.206 F 
ATOM     85  C   UNL A   1      47.567  35.619  28.836  1.00  0.00     0.060 A 
BRANCH  85  86
ATOM     86  S   UNL A   1      48.156  37.304  29.113  1.00  0.00     0.124 S 
ATOM     87  O   UNL A   1      47.140  38.089  28.422  1.00  0.00    -0.237 OA
ATOM     88  O   UNL A   1      48.149  37.393  30.571  1.00  0.00    -0.237 OA
ATOM     89  O   UNL A   1      49.480  37.304  28.499  1.00  0.00    -0.744 OA
ENDBRANCH  85  86
ENDBRANCH  53  78
BRANCH  65  90
ATOM     90  C   UNL A   1      49.611  27.231  25.900  1.00  0.00     0.058 A 
ATOM     91  C   UNL A   1      50.643  26.757  26.724  1.00  0.00     0.135 A 
ATOM     92  C   UNL A   1      49.884  27.367  24.528  1.00  0.00     0.135 A 
ATOM     93  F   UNL A   1      50.440  26.611  28.044  1.00  0.00    -0.206 F 
ATOM     94  C   UNL A   1      51.901  26.450  26.213  1.00  0.00     0.059 A 
ATOM     95  C   UNL A   1      51.124  27.037  23.990  1.00  0.00     0.059 A 
ATOM     96  F   UNL A   1      48.930  27.804  23.689  1.00  0.00    -0.206 F 
ATOM     97  C   UNL A   1      52.132  26.590  24.843  1.00  0.00     0.060 A 
BRANCH  97  98
ATOM     98  S   UNL A   1      53.758  26.156  24.188  1.00  0.00     0.124 S 
ATOM     99  O   UNL A   1      54.557  27.306  24.597  1.00  0.00    -0.237 OA
ATOM    100  O   UNL A   1      54.048  24.903  24.878  1.00  0.00    -0.237 OA
ATOM    101  O   UNL A   1      53.525  26.034  22.752  1.00  0.00    -0.744 OA
ENDBRANCH  97  98
ENDBRANCH  65  90
ENDBRANCH  39  40
ENDBRANCH  32  34
ENDBRANCH  31  32
ENDBRANCH  30  31
ENDBRANCH  29  30
ENDBRANCH  28  29
ENDBRANCH   1  28
TORSDOF 23
ENDMDL
