MODEL 1
REMARK VINA RESULT:     -10.1      0.000      0.000
REMARK SMILES O=C(Cc1csc(NC(=O)[C@H]2CC(=O)N(C3CC3)C2)n1)OCCOCCOCCOC(=O)c1ccc(-c2c3nc(c(-c4c(F)cc(S(=O)(=O)[O-])cc4F)c4ccc([nH]4)c(-c4c(F)cc(S(=O)(=O)[O-])cc4F)c4nc(c(-c5c(F)cc(S(=O)(=O)[O-])cc5F)c5ccc2[nH]5)C=C4)C=C3)cc1
REMARK SMILES IDX 25 1 24 2 23 3 22 4 21 5 2 6 1 7 3 8 4 9 5 10 20 11 6 12
REMARK SMILES IDX 7 13 8 14 9 15 10 17 11 18 12 19 19 20 13 21 15 22 14 23
REMARK SMILES IDX 16 24 17 25 18 26 26 27 27 28 28 29 29 30 30 31 31 32 32 33
REMARK SMILES IDX 33 34 34 35 98 36 35 37 97 38 36 39 37 40 38 41 91 42 39 43
REMARK SMILES IDX 96 44 90 45 92 46 40 47 95 48 89 49 88 50 41 52 75 53 54 54
REMARK SMILES IDX 74 55 55 56 58 57 73 58 93 59 56 60 57 61 72 63 94 64 59 65
REMARK SMILES IDX 42 66 43 67 52 68 44 69 45 70 51 71 53 72 46 73 47 74 48 75
REMARK SMILES IDX 49 76 50 77 76 78 77 79 86 80 78 81 79 82 85 83 87 84 80 85
REMARK SMILES IDX 81 86 82 87 83 88 84 89 60 90 61 91 70 92 62 93 63 94 69 95
REMARK SMILES IDX 71 96 64 97 65 98 66 99 67 100 68 101
REMARK H PARENT 8 16 92 51 58 62
REMARK Flexibility Score: inf
ROOT
ATOM      1  C   UNL A   1      40.027  21.918  27.027  1.00  0.00     0.188 C 
ENDROOT
BRANCH   1   2
ATOM      2  O   UNL A   1      39.428  22.699  26.017  1.00  0.00    -0.376 OA
BRANCH   2   3
ATOM      3  C   UNL A   1      38.713  23.843  26.414  1.00  0.00     0.202 C 
BRANCH   3   4
ATOM      4  C   UNL A   1      37.205  23.767  26.178  1.00  0.00     0.261 C 
BRANCH   4   5
ATOM      5  O   UNL A   1      36.663  23.848  24.830  1.00  0.00    -0.463 OA
BRANCH   5   6
ATOM      6  C   UNL A   1      36.162  22.992  23.919  1.00  0.00     0.311 C 
ATOM      7  O   UNL A   1      36.572  23.080  22.760  1.00  0.00    -0.252 OA
BRANCH   6   8
ATOM      8  C   UNL A   1      35.059  22.032  24.259  1.00  0.00     0.179 C 
BRANCH   8   9
ATOM      9  C   UNL A   1      33.675  22.539  24.084  1.00  0.00     0.065 A 
ATOM     10  C   UNL A   1      33.021  22.870  22.911  1.00  0.00     0.093 A 
ATOM     11  N   UNL A   1      32.866  22.630  25.209  1.00  0.00    -0.224 NA
ATOM     12  S   UNL A   1      31.342  22.917  23.193  1.00  0.00    -0.105 S 
ATOM     13  C   UNL A   1      31.684  23.068  24.856  1.00  0.00     0.189 A 
BRANCH  13  14
ATOM     14  N   UNL A   1      30.765  23.573  25.725  1.00  0.00    -0.302 N 
ATOM     15  C   UNL A   1      30.299  24.860  25.778  1.00  0.00     0.231 C 
ATOM     16  H   UNL A   1      30.395  22.945  26.387  1.00  0.00     0.172 HD
ATOM     17  O   UNL A   1      29.552  25.178  26.705  1.00  0.00    -0.274 OA
BRANCH  15  18
ATOM     18  C   UNL A   1      30.770  25.913  24.788  1.00  0.00     0.107 C 
ATOM     19  C   UNL A   1      29.726  26.326  23.754  1.00  0.00     0.115 C 
ATOM     20  C   UNL A   1      31.087  27.237  25.467  1.00  0.00     0.133 C 
ATOM     21  C   UNL A   1      30.194  27.708  23.360  1.00  0.00     0.223 C 
ATOM     22  N   UNL A   1      30.995  28.195  24.396  1.00  0.00    -0.339 N 
ATOM     23  O   UNL A   1      29.880  28.270  22.323  1.00  0.00    -0.275 OA
BRANCH  22  24
ATOM     24  C   UNL A   1      31.615  29.479  24.504  1.00  0.00     0.085 C 
ATOM     25  C   UNL A   1      31.602  30.336  25.739  1.00  0.00     0.027 C 
ATOM     26  C   UNL A   1      32.869  29.650  25.319  1.00  0.00     0.027 C 
ENDBRANCH  22  24
ENDBRANCH  15  18
ENDBRANCH  13  14
ENDBRANCH   8   9
ENDBRANCH   6   8
ENDBRANCH   5   6
ENDBRANCH   4   5
ENDBRANCH   3   4
ENDBRANCH   2   3
ENDBRANCH   1   2
BRANCH   1  27
ATOM     27  C   UNL A   1      40.814  20.727  26.474  1.00  0.00     0.188 C 
BRANCH  27  28
ATOM     28  O   UNL A   1      42.021  20.969  25.766  1.00  0.00    -0.376 OA
BRANCH  28  29
ATOM     29  C   UNL A   1      42.942  21.925  26.281  1.00  0.00     0.202 C 
BRANCH  29  30
ATOM     30  C   UNL A   1      43.171  23.257  25.537  1.00  0.00     0.261 C 
BRANCH  30  31
ATOM     31  O   UNL A   1      42.372  24.386  25.953  1.00  0.00    -0.460 OA
BRANCH  31  32
ATOM     32  C   UNL A   1      43.004  25.582  25.997  1.00  0.00     0.338 C 
ATOM     33  O   UNL A   1      43.815  26.013  25.182  1.00  0.00    -0.246 OA
BRANCH  32  34
ATOM     34  C   UNL A   1      42.493  26.408  27.112  1.00  0.00     0.060 A 
ATOM     35  C   UNL A   1      43.066  27.665  27.360  1.00  0.00     0.016 A 
ATOM     36  C   UNL A   1      41.515  25.908  27.972  1.00  0.00     0.016 A 
ATOM     37  C   UNL A   1      42.653  28.428  28.460  1.00  0.00     0.010 A 
ATOM     38  C   UNL A   1      41.124  26.663  29.088  1.00  0.00     0.010 A 
ATOM     39  C   UNL A   1      41.697  27.922  29.350  1.00  0.00    -0.014 A 
BRANCH  39  40
ATOM     40  C   UNL A   1      41.353  28.646  30.604  1.00  0.00     0.031 A 
ATOM     41  C   UNL A   1      40.194  29.608  30.607  1.00  0.00     0.074 A 
ATOM     42  C   UNL A   1      42.090  28.488  31.721  1.00  0.00     0.049 A 
ATOM     43  N   UNL A   1      39.817  30.447  31.538  1.00  0.00    -0.248 NA
ATOM     44  C   UNL A   1      39.351  29.630  29.402  1.00  0.00     0.031 C 
ATOM     45  C   UNL A   1      43.212  27.563  31.870  1.00  0.00     0.029 A 
ATOM     46  N   UNL A   1      42.023  29.130  32.936  1.00  0.00    -0.354 N 
ATOM     47  C   UNL A   1      38.709  31.113  31.026  1.00  0.00     0.074 A 
ATOM     48  C   UNL A   1      38.476  30.582  29.699  1.00  0.00     0.031 C 
ATOM     49  C   UNL A   1      43.753  27.725  33.091  1.00  0.00     0.029 A 
ATOM     50  C   UNL A   1      43.046  28.794  33.795  1.00  0.00     0.049 A 
ATOM     51  H   UNL A   1      41.312  29.769  33.169  1.00  0.00     0.167 HD
ATOM     52  C   UNL A   1      37.960  32.079  31.606  1.00  0.00     0.037 A 
ATOM     53  C   UNL A   1      43.402  29.319  34.985  1.00  0.00     0.037 A 
ATOM     54  C   UNL A   1      38.182  32.598  32.932  1.00  0.00     0.049 A 
ATOM     55  C   UNL A   1      42.594  30.450  35.577  1.00  0.00     0.074 A 
ATOM     56  C   UNL A   1      37.433  33.537  33.621  1.00  0.00     0.029 A 
ATOM     57  N   UNL A   1      39.234  32.241  33.761  1.00  0.00    -0.354 N 
ATOM     58  N   UNL A   1      41.516  31.030  35.105  1.00  0.00    -0.248 NA
ATOM     59  C   UNL A   1      43.055  31.005  36.860  1.00  0.00     0.031 C 
ATOM     60  C   UNL A   1      38.070  33.800  34.837  1.00  0.00     0.029 A 
ATOM     61  C   UNL A   1      39.180  32.977  34.934  1.00  0.00     0.049 A 
ATOM     62  H   UNL A   1      39.917  31.565  33.549  1.00  0.00     0.167 HD
ATOM     63  C   UNL A   1      41.163  31.998  36.041  1.00  0.00     0.074 A 
ATOM     64  C   UNL A   1      42.124  31.914  37.118  1.00  0.00     0.031 C 
ATOM     65  C   UNL A   1      40.136  32.883  36.009  1.00  0.00     0.037 A 
BRANCH  52  66
ATOM     66  C   UNL A   1      36.831  32.681  30.815  1.00  0.00     0.058 A 
ATOM     67  C   UNL A   1      35.499  32.286  31.004  1.00  0.00     0.135 A 
ATOM     68  C   UNL A   1      37.081  33.751  29.938  1.00  0.00     0.135 A 
ATOM     69  F   UNL A   1      35.208  31.260  31.819  1.00  0.00    -0.206 F 
ATOM     70  C   UNL A   1      34.452  32.932  30.354  1.00  0.00     0.059 A 
ATOM     71  C   UNL A   1      36.048  34.427  29.297  1.00  0.00     0.059 A 
ATOM     72  F   UNL A   1      38.338  34.166  29.720  1.00  0.00    -0.206 F 
ATOM     73  C   UNL A   1      34.735  34.009  29.511  1.00  0.00     0.060 A 
BRANCH  73  74
ATOM     74  S   UNL A   1      33.360  34.873  28.724  1.00  0.00     0.124 S 
ATOM     75  O   UNL A   1      32.865  33.856  27.801  1.00  0.00    -0.237 OA
ATOM     76  O   UNL A   1      32.492  35.173  29.858  1.00  0.00    -0.237 OA
ATOM     77  O   UNL A   1      33.994  36.030  28.100  1.00  0.00    -0.744 OA
ENDBRANCH  73  74
ENDBRANCH  52  66
BRANCH  53  78
ATOM     78  C   UNL A   1      44.625  28.837  35.686  1.00  0.00     0.058 A 
ATOM     79  C   UNL A   1      45.885  29.403  35.432  1.00  0.00     0.135 A 
ATOM     80  C   UNL A   1      44.567  27.757  36.581  1.00  0.00     0.135 A 
ATOM     81  F   UNL A   1      45.997  30.426  34.571  1.00  0.00    -0.206 F 
ATOM     82  C   UNL A   1      47.043  28.896  36.011  1.00  0.00     0.059 A 
ATOM     83  C   UNL A   1      45.706  27.255  37.200  1.00  0.00     0.059 A 
ATOM     84  F   UNL A   1      43.389  27.183  36.869  1.00  0.00    -0.206 F 
ATOM     85  C   UNL A   1      46.943  27.819  36.893  1.00  0.00     0.060 A 
BRANCH  85  86
ATOM     86  S   UNL A   1      48.447  27.181  37.660  1.00  0.00     0.124 S 
ATOM     87  O   UNL A   1      49.025  28.397  38.224  1.00  0.00    -0.237 OA
ATOM     88  O   UNL A   1      47.912  26.220  38.618  1.00  0.00    -0.237 OA
ATOM     89  O   UNL A   1      49.171  26.598  36.535  1.00  0.00    -0.744 OA
ENDBRANCH  85  86
ENDBRANCH  53  78
BRANCH  65  90
ATOM     90  C   UNL A   1      39.975  33.823  37.175  1.00  0.00     0.058 A 
ATOM     91  C   UNL A   1      40.716  35.013  37.270  1.00  0.00     0.135 A 
ATOM     92  C   UNL A   1      39.018  33.570  38.171  1.00  0.00     0.135 A 
ATOM     93  F   UNL A   1      41.650  35.301  36.350  1.00  0.00    -0.206 F 
ATOM     94  C   UNL A   1      40.523  35.909  38.316  1.00  0.00     0.059 A 
ATOM     95  C   UNL A   1      38.787  34.467  39.211  1.00  0.00     0.059 A 
ATOM     96  F   UNL A   1      38.274  32.453  38.126  1.00  0.00    -0.206 F 
ATOM     97  C   UNL A   1      39.551  35.630  39.279  1.00  0.00     0.060 A 
BRANCH  97  98
ATOM     98  S   UNL A   1      39.276  36.829  40.602  1.00  0.00     0.124 S 
ATOM     99  O   UNL A   1      38.446  37.824  39.931  1.00  0.00    -0.237 OA
ATOM    100  O   UNL A   1      38.604  36.023  41.617  1.00  0.00    -0.237 OA
ATOM    101  O   UNL A   1      40.624  37.268  40.950  1.00  0.00    -0.744 OA
ENDBRANCH  97  98
ENDBRANCH  65  90
ENDBRANCH  39  40
ENDBRANCH  32  34
ENDBRANCH  31  32
ENDBRANCH  30  31
ENDBRANCH  29  30
ENDBRANCH  28  29
ENDBRANCH  27  28
ENDBRANCH   1  27
TORSDOF 24
ENDMDL
MODEL 2
REMARK VINA RESULT:      -9.8      5.787      8.445
REMARK SMILES O=C(Cc1csc(NC(=O)[C@H]2CC(=O)N(C3CC3)C2)n1)OCCOCCOCCOC(=O)c1ccc(-c2c3nc(c(-c4c(F)cc(S(=O)(=O)[O-])cc4F)c4ccc([nH]4)c(-c4c(F)cc(S(=O)(=O)[O-])cc4F)c4nc(c(-c5c(F)cc(S(=O)(=O)[O-])cc5F)c5ccc2[nH]5)C=C4)C=C3)cc1
REMARK SMILES IDX 25 1 24 2 23 3 22 4 21 5 2 6 1 7 3 8 4 9 5 10 20 11 6 12
REMARK SMILES IDX 7 13 8 14 9 15 10 17 11 18 12 19 19 20 13 21 15 22 14 23
REMARK SMILES IDX 16 24 17 25 18 26 26 27 27 28 28 29 29 30 30 31 31 32 32 33
REMARK SMILES IDX 33 34 34 35 98 36 35 37 97 38 36 39 37 40 38 41 91 42 39 43
REMARK SMILES IDX 96 44 90 45 92 46 40 47 95 48 89 49 88 50 41 52 75 53 54 54
REMARK SMILES IDX 74 55 55 56 58 57 73 58 93 59 56 60 57 61 72 63 94 64 59 65
REMARK SMILES IDX 42 66 43 67 52 68 44 69 45 70 51 71 53 72 46 73 47 74 48 75
REMARK SMILES IDX 49 76 50 77 76 78 77 79 86 80 78 81 79 82 85 83 87 84 80 85
REMARK SMILES IDX 81 86 82 87 83 88 84 89 60 90 61 91 70 92 62 93 63 94 69 95
REMARK SMILES IDX 71 96 64 97 65 98 66 99 67 100 68 101
REMARK H PARENT 8 16 92 51 58 62
REMARK Flexibility Score: inf
ROOT
ATOM      1  C   UNL A   1      35.693  23.820  25.076  1.00  0.00     0.188 C 
ENDROOT
BRANCH   1   2
ATOM      2  O   UNL A   1      34.974  23.801  26.289  1.00  0.00    -0.376 OA
BRANCH   2   3
ATOM      3  C   UNL A   1      33.571  23.723  26.214  1.00  0.00     0.202 C 
BRANCH   3   4
ATOM      4  C   UNL A   1      33.038  22.472  25.518  1.00  0.00     0.261 C 
BRANCH   4   5
ATOM      5  O   UNL A   1      31.936  22.564  24.573  1.00  0.00    -0.463 OA
BRANCH   5   6
ATOM      6  C   UNL A   1      31.638  23.287  23.477  1.00  0.00     0.311 C 
ATOM      7  O   UNL A   1      30.455  23.357  23.138  1.00  0.00    -0.252 OA
BRANCH   6   8
ATOM      8  C   UNL A   1      32.707  23.901  22.620  1.00  0.00     0.179 C 
BRANCH   8   9
ATOM      9  C   UNL A   1      32.963  25.348  22.830  1.00  0.00     0.065 A 
ATOM     10  C   UNL A   1      33.719  26.210  22.056  1.00  0.00     0.093 A 
ATOM     11  N   UNL A   1      32.312  25.981  23.882  1.00  0.00    -0.224 NA
ATOM     12  S   UNL A   1      33.300  27.818  22.428  1.00  0.00    -0.105 S 
ATOM     13  C   UNL A   1      32.639  27.247  23.891  1.00  0.00     0.189 A 
BRANCH  13  14
ATOM     14  N   UNL A   1      32.445  28.079  24.953  1.00  0.00    -0.302 N 
ATOM     15  C   UNL A   1      31.548  29.110  25.041  1.00  0.00     0.231 C 
ATOM     16  H   UNL A   1      33.013  27.923  25.742  1.00  0.00     0.172 HD
ATOM     17  O   UNL A   1      31.584  29.839  26.033  1.00  0.00    -0.274 OA
BRANCH  15  18
ATOM     18  C   UNL A   1      30.594  29.428  23.900  1.00  0.00     0.107 C 
ATOM     19  C   UNL A   1      29.417  28.468  23.769  1.00  0.00     0.115 C 
ATOM     20  C   UNL A   1      29.895  30.765  24.094  1.00  0.00     0.133 C 
ATOM     21  C   UNL A   1      28.390  29.313  23.051  1.00  0.00     0.223 C 
ATOM     22  N   UNL A   1      28.721  30.653  23.269  1.00  0.00    -0.339 N 
ATOM     23  O   UNL A   1      27.442  28.864  22.429  1.00  0.00    -0.275 OA
BRANCH  22  24
ATOM     24  C   UNL A   1      28.012  31.819  22.839  1.00  0.00     0.085 C 
ATOM     25  C   UNL A   1      28.612  33.192  22.723  1.00  0.00     0.027 C 
ATOM     26  C   UNL A   1      28.282  32.414  21.483  1.00  0.00     0.027 C 
ENDBRANCH  22  24
ENDBRANCH  15  18
ENDBRANCH  13  14
ENDBRANCH   8   9
ENDBRANCH   6   8
ENDBRANCH   5   6
ENDBRANCH   4   5
ENDBRANCH   3   4
ENDBRANCH   2   3
ENDBRANCH   1   2
BRANCH   1  27
ATOM     27  C   UNL A   1      37.197  23.605  25.269  1.00  0.00     0.188 C 
BRANCH  27  28
ATOM     28  O   UNL A   1      37.748  22.324  24.999  1.00  0.00    -0.376 OA
BRANCH  28  29
ATOM     29  C   UNL A   1      38.831  21.857  25.796  1.00  0.00     0.202 C 
BRANCH  29  30
ATOM     30  C   UNL A   1      39.246  20.372  25.744  1.00  0.00     0.261 C 
BRANCH  30  31
ATOM     31  O   UNL A   1      40.200  19.923  26.730  1.00  0.00    -0.460 OA
BRANCH  31  32
ATOM     32  C   UNL A   1      41.483  19.804  26.312  1.00  0.00     0.338 C 
ATOM     33  O   UNL A   1      41.960  18.876  25.666  1.00  0.00    -0.246 OA
BRANCH  32  34
ATOM     34  C   UNL A   1      42.253  21.029  26.620  1.00  0.00     0.060 A 
ATOM     35  C   UNL A   1      42.460  21.397  27.958  1.00  0.00     0.016 A 
ATOM     36  C   UNL A   1      42.691  21.865  25.592  1.00  0.00     0.016 A 
ATOM     37  C   UNL A   1      43.116  22.595  28.270  1.00  0.00     0.010 A 
ATOM     38  C   UNL A   1      43.322  23.076  25.910  1.00  0.00     0.010 A 
ATOM     39  C   UNL A   1      43.530  23.459  27.249  1.00  0.00    -0.014 A 
BRANCH  39  40
ATOM     40  C   UNL A   1      44.092  24.802  27.558  1.00  0.00     0.031 A 
ATOM     41  C   UNL A   1      43.176  25.891  28.050  1.00  0.00     0.074 A 
ATOM     42  C   UNL A   1      45.399  25.069  27.362  1.00  0.00     0.049 A 
ATOM     43  N   UNL A   1      43.426  27.163  28.235  1.00  0.00    -0.248 NA
ATOM     44  C   UNL A   1      41.796  25.497  28.373  1.00  0.00     0.031 C 
ATOM     45  C   UNL A   1      46.405  24.100  26.928  1.00  0.00     0.029 A 
ATOM     46  N   UNL A   1      46.098  26.249  27.471  1.00  0.00    -0.354 N 
ATOM     47  C   UNL A   1      42.232  27.726  28.673  1.00  0.00     0.074 A 
ATOM     48  C   UNL A   1      41.257  26.657  28.724  1.00  0.00     0.031 C 
ATOM     49  C   UNL A   1      47.581  24.733  26.770  1.00  0.00     0.029 A 
ATOM     50  C   UNL A   1      47.405  26.158  27.048  1.00  0.00     0.049 A 
ATOM     51  H   UNL A   1      45.700  27.080  27.819  1.00  0.00     0.167 HD
ATOM     52  C   UNL A   1      41.974  29.014  28.998  1.00  0.00     0.037 A 
ATOM     53  C   UNL A   1      48.336  27.115  26.858  1.00  0.00     0.037 A 
ATOM     54  C   UNL A   1      42.948  30.075  28.962  1.00  0.00     0.049 A 
ATOM     55  C   UNL A   1      47.999  28.558  27.156  1.00  0.00     0.074 A 
ATOM     56  C   UNL A   1      42.786  31.400  29.332  1.00  0.00     0.029 A 
ATOM     57  N   UNL A   1      44.254  29.944  28.516  1.00  0.00    -0.354 N 
ATOM     58  N   UNL A   1      46.883  29.066  27.622  1.00  0.00    -0.248 NA
ATOM     59  C   UNL A   1      49.044  29.560  26.892  1.00  0.00     0.031 C 
ATOM     60  C   UNL A   1      43.970  32.084  29.045  1.00  0.00     0.029 A 
ATOM     61  C   UNL A   1      44.892  31.173  28.557  1.00  0.00     0.049 A 
ATOM     62  H   UNL A   1      44.667  29.103  28.216  1.00  0.00     0.167 HD
ATOM     63  C   UNL A   1      47.102  30.437  27.727  1.00  0.00     0.074 A 
ATOM     64  C   UNL A   1      48.461  30.680  27.298  1.00  0.00     0.031 C 
ATOM     65  C   UNL A   1      46.250  31.409  28.136  1.00  0.00     0.037 A 
BRANCH  52  66
ATOM     66  C   UNL A   1      40.573  29.383  29.401  1.00  0.00     0.058 A 
ATOM     67  C   UNL A   1      40.226  29.632  30.736  1.00  0.00     0.135 A 
ATOM     68  C   UNL A   1      39.593  29.601  28.416  1.00  0.00     0.135 A 
ATOM     69  F   UNL A   1      41.119  29.425  31.717  1.00  0.00    -0.206 F 
ATOM     70  C   UNL A   1      38.958  30.089  31.083  1.00  0.00     0.059 A 
ATOM     71  C   UNL A   1      38.328  30.080  28.737  1.00  0.00     0.059 A 
ATOM     72  F   UNL A   1      39.874  29.374  27.123  1.00  0.00    -0.206 F 
ATOM     73  C   UNL A   1      38.019  30.321  30.075  1.00  0.00     0.060 A 
BRANCH  73  74
ATOM     74  S   UNL A   1      36.400  30.970  30.538  1.00  0.00     0.124 S 
ATOM     75  O   UNL A   1      35.682  30.898  29.269  1.00  0.00    -0.237 OA
ATOM     76  O   UNL A   1      35.968  30.026  31.563  1.00  0.00    -0.237 OA
ATOM     77  O   UNL A   1      36.695  32.317  31.015  1.00  0.00    -0.744 OA
ENDBRANCH  73  74
ENDBRANCH  52  66
BRANCH  53  78
ATOM     78  C   UNL A   1      49.670  26.769  26.292  1.00  0.00     0.058 A 
ATOM     79  C   UNL A   1      49.942  26.908  24.922  1.00  0.00     0.135 A 
ATOM     80  C   UNL A   1      50.681  26.231  27.104  1.00  0.00     0.135 A 
ATOM     81  F   UNL A   1      49.003  27.401  24.100  1.00  0.00    -0.206 F 
ATOM     82  C   UNL A   1      51.152  26.498  24.373  1.00  0.00     0.059 A 
ATOM     83  C   UNL A   1      51.911  25.845  26.585  1.00  0.00     0.059 A 
ATOM     84  F   UNL A   1      50.480  26.082  28.423  1.00  0.00    -0.206 F 
ATOM     85  C   UNL A   1      52.130  25.965  25.214  1.00  0.00     0.060 A 
BRANCH  85  86
ATOM     86  S   UNL A   1      53.708  25.456  24.498  1.00  0.00     0.124 S 
ATOM     87  O   UNL A   1      54.652  26.247  25.281  1.00  0.00    -0.237 OA
ATOM     88  O   UNL A   1      53.705  24.020  24.755  1.00  0.00    -0.237 OA
ATOM     89  O   UNL A   1      53.573  25.836  23.096  1.00  0.00    -0.744 OA
ENDBRANCH  85  86
ENDBRANCH  53  78
BRANCH  65  90
ATOM     90  C   UNL A   1      46.757  32.827  28.165  1.00  0.00     0.058 A 
ATOM     91  C   UNL A   1      47.530  33.312  29.232  1.00  0.00     0.135 A 
ATOM     92  C   UNL A   1      46.531  33.689  27.079  1.00  0.00     0.135 A 
ATOM     93  F   UNL A   1      47.770  32.534  30.300  1.00  0.00    -0.206 F 
ATOM     94  C   UNL A   1      48.047  34.604  29.229  1.00  0.00     0.059 A 
ATOM     95  C   UNL A   1      47.064  34.976  27.041  1.00  0.00     0.059 A 
ATOM     96  F   UNL A   1      45.807  33.276  26.026  1.00  0.00    -0.206 F 
ATOM     97  C   UNL A   1      47.814  35.426  28.125  1.00  0.00     0.060 A 
BRANCH  97  98
ATOM     98  S   UNL A   1      48.537  37.081  28.113  1.00  0.00     0.124 S 
ATOM     99  O   UNL A   1      49.377  37.028  26.920  1.00  0.00    -0.237 OA
ATOM    100  O   UNL A   1      47.357  37.936  28.019  1.00  0.00    -0.237 OA
ATOM    101  O   UNL A   1      49.254  37.151  29.382  1.00  0.00    -0.744 OA
ENDBRANCH  97  98
ENDBRANCH  65  90
ENDBRANCH  39  40
ENDBRANCH  32  34
ENDBRANCH  31  32
ENDBRANCH  30  31
ENDBRANCH  29  30
ENDBRANCH  28  29
ENDBRANCH  27  28
ENDBRANCH   1  27
TORSDOF 24
ENDMDL
MODEL 3
REMARK VINA RESULT:      -9.4      5.904      8.401
REMARK SMILES O=C(Cc1csc(NC(=O)[C@H]2CC(=O)N(C3CC3)C2)n1)OCCOCCOCCOC(=O)c1ccc(-c2c3nc(c(-c4c(F)cc(S(=O)(=O)[O-])cc4F)c4ccc([nH]4)c(-c4c(F)cc(S(=O)(=O)[O-])cc4F)c4nc(c(-c5c(F)cc(S(=O)(=O)[O-])cc5F)c5ccc2[nH]5)C=C4)C=C3)cc1
REMARK SMILES IDX 25 1 24 2 23 3 22 4 21 5 2 6 1 7 3 8 4 9 5 10 20 11 6 12
REMARK SMILES IDX 7 13 8 14 9 15 10 17 11 18 12 19 19 20 13 21 15 22 14 23
REMARK SMILES IDX 16 24 17 25 18 26 26 27 27 28 28 29 29 30 30 31 31 32 32 33
REMARK SMILES IDX 33 34 34 35 98 36 35 37 97 38 36 39 37 40 38 41 91 42 39 43
REMARK SMILES IDX 96 44 90 45 92 46 40 47 95 48 89 49 88 50 41 52 75 53 54 54
REMARK SMILES IDX 74 55 55 56 58 57 73 58 93 59 56 60 57 61 72 63 94 64 59 65
REMARK SMILES IDX 42 66 43 67 52 68 44 69 45 70 51 71 53 72 46 73 47 74 48 75
REMARK SMILES IDX 49 76 50 77 76 78 77 79 86 80 78 81 79 82 85 83 87 84 80 85
REMARK SMILES IDX 81 86 82 87 83 88 84 89 60 90 61 91 70 92 62 93 63 94 69 95
REMARK SMILES IDX 71 96 64 97 65 98 66 99 67 100 68 101
REMARK H PARENT 8 16 92 51 58 62
REMARK Flexibility Score: inf
ROOT
ATOM      1  C   UNL A   1      34.805  21.945  24.319  1.00  0.00     0.188 C 
ENDROOT
BRANCH   1   2
ATOM      2  O   UNL A   1      34.501  21.266  25.516  1.00  0.00    -0.376 OA
BRANCH   2   3
ATOM      3  C   UNL A   1      33.332  20.483  25.544  1.00  0.00     0.202 C 
BRANCH   3   4
ATOM      4  C   UNL A   1      32.067  21.209  25.089  1.00  0.00     0.261 C 
BRANCH   4   5
ATOM      5  O   UNL A   1      31.355  22.094  25.998  1.00  0.00    -0.463 OA
BRANCH   5   6
ATOM      6  C   UNL A   1      31.676  23.036  26.905  1.00  0.00     0.311 C 
ATOM      7  O   UNL A   1      32.474  22.731  27.793  1.00  0.00    -0.252 OA
BRANCH   6   8
ATOM      8  C   UNL A   1      31.008  24.380  26.919  1.00  0.00     0.179 C 
BRANCH   8   9
ATOM      9  C   UNL A   1      31.723  25.473  26.213  1.00  0.00     0.065 A 
ATOM     10  C   UNL A   1      31.804  26.810  26.556  1.00  0.00     0.093 A 
ATOM     11  N   UNL A   1      32.491  25.140  25.104  1.00  0.00    -0.224 NA
ATOM     12  S   UNL A   1      33.112  27.526  25.732  1.00  0.00    -0.105 S 
ATOM     13  C   UNL A   1      33.060  26.221  24.636  1.00  0.00     0.189 A 
BRANCH  13  14
ATOM     14  N   UNL A   1      33.611  26.318  23.394  1.00  0.00    -0.302 N 
ATOM     15  C   UNL A   1      32.958  26.586  22.220  1.00  0.00     0.231 C 
ATOM     16  H   UNL A   1      34.584  26.180  23.333  1.00  0.00     0.172 HD
ATOM     17  O   UNL A   1      33.593  26.522  21.165  1.00  0.00    -0.274 OA
BRANCH  15  18
ATOM     18  C   UNL A   1      31.461  26.850  22.190  1.00  0.00     0.107 C 
ATOM     19  C   UNL A   1      30.648  26.008  23.168  1.00  0.00     0.115 C 
ATOM     20  C   UNL A   1      31.119  28.266  22.627  1.00  0.00     0.133 C 
ATOM     21  C   UNL A   1      29.412  26.854  23.370  1.00  0.00     0.223 C 
ATOM     22  N   UNL A   1      29.741  28.170  23.032  1.00  0.00    -0.339 N 
ATOM     23  O   UNL A   1      28.347  26.428  23.783  1.00  0.00    -0.275 OA
BRANCH  22  24
ATOM     24  C   UNL A   1      28.918  29.336  23.116  1.00  0.00     0.085 C 
ATOM     25  C   UNL A   1      29.308  30.699  22.616  1.00  0.00     0.027 C 
ATOM     26  C   UNL A   1      28.273  29.901  21.879  1.00  0.00     0.027 C 
ENDBRANCH  22  24
ENDBRANCH  15  18
ENDBRANCH  13  14
ENDBRANCH   8   9
ENDBRANCH   6   8
ENDBRANCH   5   6
ENDBRANCH   4   5
ENDBRANCH   3   4
ENDBRANCH   2   3
ENDBRANCH   1   2
BRANCH   1  27
ATOM     27  C   UNL A   1      36.265  22.398  24.242  1.00  0.00     0.188 C 
BRANCH  27  28
ATOM     28  O   UNL A   1      37.288  21.415  24.191  1.00  0.00    -0.376 OA
BRANCH  28  29
ATOM     29  C   UNL A   1      37.929  21.025  25.401  1.00  0.00     0.202 C 
BRANCH  29  30
ATOM     30  C   UNL A   1      39.147  20.078  25.360  1.00  0.00     0.261 C 
BRANCH  30  31
ATOM     31  O   UNL A   1      40.067  20.144  26.472  1.00  0.00    -0.460 OA
BRANCH  31  32
ATOM     32  C   UNL A   1      41.374  19.942  26.181  1.00  0.00     0.338 C 
ATOM     33  O   UNL A   1      41.856  18.964  25.617  1.00  0.00    -0.246 OA
BRANCH  32  34
ATOM     34  C   UNL A   1      42.179  21.137  26.514  1.00  0.00     0.060 A 
ATOM     35  C   UNL A   1      42.432  21.447  27.859  1.00  0.00     0.016 A 
ATOM     36  C   UNL A   1      42.605  22.006  25.508  1.00  0.00     0.016 A 
ATOM     37  C   UNL A   1      43.122  22.617  28.199  1.00  0.00     0.010 A 
ATOM     38  C   UNL A   1      43.271  23.190  25.854  1.00  0.00     0.010 A 
ATOM     39  C   UNL A   1      43.525  23.513  27.200  1.00  0.00    -0.014 A 
BRANCH  39  40
ATOM     40  C   UNL A   1      44.125  24.831  27.546  1.00  0.00     0.031 A 
ATOM     41  C   UNL A   1      43.226  25.968  27.954  1.00  0.00     0.074 A 
ATOM     42  C   UNL A   1      45.455  25.034  27.455  1.00  0.00     0.049 A 
ATOM     43  N   UNL A   1      43.521  27.228  28.151  1.00  0.00    -0.248 NA
ATOM     44  C   UNL A   1      41.807  25.643  28.166  1.00  0.00     0.031 C 
ATOM     45  C   UNL A   1      46.444  24.013  27.111  1.00  0.00     0.029 A 
ATOM     46  N   UNL A   1      46.199  26.180  27.614  1.00  0.00    -0.354 N 
ATOM     47  C   UNL A   1      42.325  27.852  28.487  1.00  0.00     0.074 A 
ATOM     48  C   UNL A   1      41.298  26.832  28.465  1.00  0.00     0.031 C 
ATOM     49  C   UNL A   1      47.659  24.587  27.045  1.00  0.00     0.029 A 
ATOM     50  C   UNL A   1      47.530  26.022  27.299  1.00  0.00     0.049 A 
ATOM     51  H   UNL A   1      45.816  27.033  27.922  1.00  0.00     0.167 HD
ATOM     52  C   UNL A   1      42.104  29.155  28.781  1.00  0.00     0.037 A 
ATOM     53  C   UNL A   1      48.519  26.932  27.180  1.00  0.00     0.037 A 
ATOM     54  C   UNL A   1      43.128  30.167  28.818  1.00  0.00     0.049 A 
ATOM     55  C   UNL A   1      48.229  28.392  27.439  1.00  0.00     0.074 A 
ATOM     56  C   UNL A   1      43.001  31.502  29.165  1.00  0.00     0.029 A 
ATOM     57  N   UNL A   1      44.458  29.969  28.481  1.00  0.00    -0.354 N 
ATOM     58  N   UNL A   1      47.105  28.957  27.810  1.00  0.00    -0.248 NA
ATOM     59  C   UNL A   1      49.339  29.340  27.256  1.00  0.00     0.031 C 
ATOM     60  C   UNL A   1      44.236  32.126  28.971  1.00  0.00     0.029 A 
ATOM     61  C   UNL A   1      45.149  31.167  28.565  1.00  0.00     0.049 A 
ATOM     62  H   UNL A   1      44.852  29.106  28.221  1.00  0.00     0.167 HD
ATOM     63  C   UNL A   1      47.381  30.317  27.924  1.00  0.00     0.074 A 
ATOM     64  C   UNL A   1      48.781  30.491  27.605  1.00  0.00     0.031 C 
ATOM     65  C   UNL A   1      46.547  31.333  28.256  1.00  0.00     0.037 A 
BRANCH  52  66
ATOM     66  C   UNL A   1      40.694  29.595  29.066  1.00  0.00     0.058 A 
ATOM     67  C   UNL A   1      39.738  29.725  28.050  1.00  0.00     0.135 A 
ATOM     68  C   UNL A   1      40.270  29.776  30.395  1.00  0.00     0.135 A 
ATOM     69  F   UNL A   1      40.093  29.577  26.764  1.00  0.00    -0.206 F 
ATOM     70  C   UNL A   1      38.408  30.016  28.339  1.00  0.00     0.059 A 
ATOM     71  C   UNL A   1      38.942  30.044  30.708  1.00  0.00     0.059 A 
ATOM     72  F   UNL A   1      41.148  29.666  31.404  1.00  0.00    -0.206 F 
ATOM     73  C   UNL A   1      38.017  30.163  29.671  1.00  0.00     0.060 A 
BRANCH  73  74
ATOM     74  S   UNL A   1      36.277  30.480  30.030  1.00  0.00     0.124 S 
ATOM     75  O   UNL A   1      35.616  29.594  29.077  1.00  0.00    -0.237 OA
ATOM     76  O   UNL A   1      36.173  30.091  31.432  1.00  0.00    -0.237 OA
ATOM     77  O   UNL A   1      36.127  31.907  29.765  1.00  0.00    -0.744 OA
ENDBRANCH  73  74
ENDBRANCH  52  66
BRANCH  53  78
ATOM     78  C   UNL A   1      49.876  26.516  26.727  1.00  0.00     0.058 A 
ATOM     79  C   UNL A   1      50.200  26.437  25.363  1.00  0.00     0.135 A 
ATOM     80  C   UNL A   1      50.858  26.129  27.652  1.00  0.00     0.135 A 
ATOM     81  F   UNL A   1      49.290  26.778  24.438  1.00  0.00    -0.206 F 
ATOM     82  C   UNL A   1      51.433  25.959  24.932  1.00  0.00     0.059 A 
ATOM     83  C   UNL A   1      52.111  25.680  27.247  1.00  0.00     0.059 A 
ATOM     84  F   UNL A   1      50.608  26.192  28.969  1.00  0.00    -0.206 F 
ATOM     85  C   UNL A   1      52.381  25.581  25.884  1.00  0.00     0.060 A 
BRANCH  85  86
ATOM     86  S   UNL A   1      53.989  24.984  25.318  1.00  0.00     0.124 S 
ATOM     87  O   UNL A   1      54.287  25.923  24.242  1.00  0.00    -0.237 OA
ATOM     88  O   UNL A   1      54.799  25.113  26.525  1.00  0.00    -0.237 OA
ATOM     89  O   UNL A   1      53.706  23.614  24.904  1.00  0.00    -0.744 OA
ENDBRANCH  85  86
ENDBRANCH  53  78
BRANCH  65  90
ATOM     90  C   UNL A   1      47.118  32.726  28.316  1.00  0.00     0.058 A 
ATOM     91  C   UNL A   1      47.015  33.612  27.232  1.00  0.00     0.135 A 
ATOM     92  C   UNL A   1      47.710  33.206  29.497  1.00  0.00     0.135 A 
ATOM     93  F   UNL A   1      46.466  33.204  26.077  1.00  0.00    -0.206 F 
ATOM     94  C   UNL A   1      47.490  34.918  27.311  1.00  0.00     0.059 A 
ATOM     95  C   UNL A   1      48.165  34.517  29.608  1.00  0.00     0.059 A 
ATOM     96  F   UNL A   1      47.827  32.405  30.568  1.00  0.00    -0.206 F 
ATOM     97  C   UNL A   1      48.058  35.363  28.506  1.00  0.00     0.060 A 
BRANCH  97  98
ATOM     98  S   UNL A   1      48.621  37.076  28.609  1.00  0.00     0.124 S 
ATOM     99  O   UNL A   1      49.156  37.293  27.269  1.00  0.00    -0.237 OA
ATOM    100  O   UNL A   1      47.387  37.791  28.922  1.00  0.00    -0.237 OA
ATOM    101  O   UNL A   1      49.609  37.046  29.682  1.00  0.00    -0.744 OA
ENDBRANCH  97  98
ENDBRANCH  65  90
ENDBRANCH  39  40
ENDBRANCH  32  34
ENDBRANCH  31  32
ENDBRANCH  30  31
ENDBRANCH  29  30
ENDBRANCH  28  29
ENDBRANCH  27  28
ENDBRANCH   1  27
TORSDOF 24
ENDMDL
