MODEL 1
REMARK VINA RESULT:     -10.7      0.000      0.000
REMARK SMILES O=C(OCCOCCOCCOC(=O)c1cc(S(=O)(=O)Nc2cccc(NC(=O)c3ccco3)c2)ccc1F)c1ccc(-c2c3nc(c(-c4c(F)cc(S(=O)(=O)[O-])cc4F)c4ccc([nH]4)c(-c4c(F)cc(S(=O)(=O)[O-])cc4F)c4nc(c(-c5c(F)cc(S(=O)(=O)[O-])cc5F)c5ccc2[nH]5)C=C4)C=C3)cc1
REMARK SMILES IDX 8 1 7 2 6 3 5 4 4 5 3 6 2 7 1 8 40 9 41 10 105 11 42 12
REMARK SMILES IDX 104 13 43 14 44 15 45 16 98 17 46 18 103 19 97 20 99 21
REMARK SMILES IDX 47 22 102 23 96 24 95 25 48 27 82 28 61 29 81 30 62 31 65 32
REMARK SMILES IDX 80 33 100 34 63 35 64 36 79 38 101 39 66 40 49 41 50 42
REMARK SMILES IDX 59 43 51 44 52 45 58 46 60 47 53 48 54 49 55 50 56 51 57 52
REMARK SMILES IDX 83 53 84 54 93 55 85 56 86 57 92 58 94 59 87 60 88 61 89 62
REMARK SMILES IDX 90 63 91 64 67 65 68 66 77 67 69 68 70 69 76 70 78 71 71 72
REMARK SMILES IDX 72 73 73 74 74 75 75 76 9 77 10 78 11 79 12 80 13 81 14 82
REMARK SMILES IDX 15 83 16 84 38 85 17 86 37 87 39 88 36 89 18 90 19 91 20 92
REMARK SMILES IDX 21 93 22 95 23 96 35 97 24 98 26 99 25 100 27 101 28 102
REMARK SMILES IDX 29 104 30 105 31 106 34 107 32 108 33 109
REMARK H PARENT 99 26 65 37 21 94 27 103
REMARK Flexibility Score: inf
ROOT
ATOM      1  C   UNL A   1      34.375  32.493  27.931  1.00  0.00     0.188 C 
ENDROOT
BRANCH   1   2
ATOM      2  C   UNL A   1      33.642  33.690  28.539  1.00  0.00     0.188 C 
BRANCH   2   3
ATOM      3  O   UNL A   1      34.388  34.250  29.628  1.00  0.00    -0.376 OA
BRANCH   3   4
ATOM      4  C   UNL A   1      35.526  33.468  29.999  1.00  0.00     0.202 C 
BRANCH   4   5
ATOM      5  C   UNL A   1      35.301  32.548  31.208  1.00  0.00     0.261 C 
BRANCH   5   6
ATOM      6  O   UNL A   1      35.908  31.258  31.036  1.00  0.00    -0.460 OA
BRANCH   6   7
ATOM      7  C   UNL A   1      36.977  30.740  31.697  1.00  0.00     0.338 C 
ATOM      8  O   UNL A   1      36.844  30.467  32.889  1.00  0.00    -0.246 OA
BRANCH   7   9
ATOM      9  C   UNL A   1      38.293  30.443  31.044  1.00  0.00     0.060 A 
ATOM     10  C   UNL A   1      38.527  30.467  29.670  1.00  0.00     0.016 A 
ATOM     11  C   UNL A   1      39.386  30.164  31.883  1.00  0.00     0.016 A 
ATOM     12  C   UNL A   1      39.757  30.102  29.134  1.00  0.00     0.010 A 
ATOM     13  C   UNL A   1      40.653  29.875  31.353  1.00  0.00     0.010 A 
ATOM     14  C   UNL A   1      40.838  29.818  29.965  1.00  0.00    -0.014 A 
BRANCH  14  15
ATOM     15  C   UNL A   1      42.128  29.416  29.359  1.00  0.00     0.031 A 
ATOM     16  C   UNL A   1      42.319  27.998  28.914  1.00  0.00     0.074 A 
ATOM     17  C   UNL A   1      43.060  30.342  29.057  1.00  0.00     0.049 A 
ATOM     18  N   UNL A   1      43.383  27.435  28.410  1.00  0.00    -0.248 NA
ATOM     19  C   UNL A   1      41.144  27.114  28.989  1.00  0.00     0.031 C 
ATOM     20  C   UNL A   1      42.883  31.788  29.198  1.00  0.00     0.029 A 
ATOM     21  N   UNL A   1      44.319  30.220  28.522  1.00  0.00    -0.354 N 
ATOM     22  C   UNL A   1      43.000  26.145  28.073  1.00  0.00     0.074 A 
ATOM     23  C   UNL A   1      41.619  25.989  28.472  1.00  0.00     0.031 C 
ATOM     24  C   UNL A   1      43.974  32.409  28.729  1.00  0.00     0.029 A 
ATOM     25  C   UNL A   1      44.982  31.419  28.401  1.00  0.00     0.049 A 
ATOM     26  H   UNL A   1      44.709  29.358  28.252  1.00  0.00     0.167 HD
ATOM     27  C   UNL A   1      43.733  25.192  27.457  1.00  0.00     0.037 A 
ATOM     28  C   UNL A   1      46.273  31.692  28.125  1.00  0.00     0.037 A 
ATOM     29  C   UNL A   1      45.104  25.369  27.062  1.00  0.00     0.049 A 
ATOM     30  C   UNL A   1      47.171  30.534  27.810  1.00  0.00     0.074 A 
ATOM     31  C   UNL A   1      45.951  24.457  26.458  1.00  0.00     0.029 A 
ATOM     32  N   UNL A   1      45.829  26.537  27.237  1.00  0.00    -0.354 N 
ATOM     33  N   UNL A   1      46.832  29.289  27.583  1.00  0.00    -0.248 NA
ATOM     34  C   UNL A   1      48.614  30.794  27.736  1.00  0.00     0.031 C 
ATOM     35  C   UNL A   1      47.206  25.058  26.318  1.00  0.00     0.029 A 
ATOM     36  C   UNL A   1      47.130  26.355  26.803  1.00  0.00     0.049 A 
ATOM     37  H   UNL A   1      45.472  27.372  27.615  1.00  0.00     0.167 HD
ATOM     38  C   UNL A   1      48.008  28.630  27.267  1.00  0.00     0.074 A 
ATOM     39  C   UNL A   1      49.076  29.604  27.373  1.00  0.00     0.031 C 
ATOM     40  C   UNL A   1      48.177  27.339  26.896  1.00  0.00     0.037 A 
BRANCH  27  41
ATOM     41  C   UNL A   1      43.081  23.870  27.193  1.00  0.00     0.058 A 
ATOM     42  C   UNL A   1      43.085  22.872  28.179  1.00  0.00     0.135 A 
ATOM     43  C   UNL A   1      42.508  23.569  25.949  1.00  0.00     0.135 A 
ATOM     44  F   UNL A   1      43.602  23.121  29.392  1.00  0.00    -0.206 F 
ATOM     45  C   UNL A   1      42.565  21.607  27.931  1.00  0.00     0.059 A 
ATOM     46  C   UNL A   1      41.969  22.314  25.683  1.00  0.00     0.059 A 
ATOM     47  F   UNL A   1      42.452  24.504  24.987  1.00  0.00    -0.206 F 
ATOM     48  C   UNL A   1      42.017  21.335  26.675  1.00  0.00     0.060 A 
BRANCH  48  49
ATOM     49  S   UNL A   1      41.348  19.686  26.373  1.00  0.00     0.124 S 
ATOM     50  O   UNL A   1      42.191  19.217  25.279  1.00  0.00    -0.237 OA
ATOM     51  O   UNL A   1      41.552  19.033  27.662  1.00  0.00    -0.237 OA
ATOM     52  O   UNL A   1      39.953  19.946  26.025  1.00  0.00    -0.744 OA
ENDBRANCH  48  49
ENDBRANCH  27  41
BRANCH  28  53
ATOM     53  C   UNL A   1      46.806  33.081  28.236  1.00  0.00     0.058 A 
ATOM     54  C   UNL A   1      46.762  33.956  27.138  1.00  0.00     0.135 A 
ATOM     55  C   UNL A   1      47.339  33.582  29.432  1.00  0.00     0.135 A 
ATOM     56  F   UNL A   1      46.247  33.546  25.967  1.00  0.00    -0.206 F 
ATOM     57  C   UNL A   1      47.253  35.253  27.209  1.00  0.00     0.059 A 
ATOM     58  C   UNL A   1      47.791  34.897  29.544  1.00  0.00     0.059 A 
ATOM     59  F   UNL A   1      47.391  32.798  30.520  1.00  0.00    -0.206 F 
ATOM     60  C   UNL A   1      47.745  35.722  28.423  1.00  0.00     0.060 A 
BRANCH  60  61
ATOM     61  S   UNL A   1      48.302  37.437  28.496  1.00  0.00     0.124 S 
ATOM     62  O   UNL A   1      49.336  37.449  27.467  1.00  0.00    -0.237 OA
ATOM     63  O   UNL A   1      47.071  38.150  28.180  1.00  0.00    -0.237 OA
ATOM     64  O   UNL A   1      48.778  37.577  29.868  1.00  0.00    -0.744 OA
ENDBRANCH  60  61
ENDBRANCH  28  53
BRANCH  40  65
ATOM     65  C   UNL A   1      49.558  26.913  26.509  1.00  0.00     0.058 A 
ATOM     66  C   UNL A   1      49.976  27.019  25.173  1.00  0.00     0.135 A 
ATOM     67  C   UNL A   1      50.430  26.330  27.436  1.00  0.00     0.135 A 
ATOM     68  F   UNL A   1      49.172  27.576  24.254  1.00  0.00    -0.206 F 
ATOM     69  C   UNL A   1      51.205  26.525  24.761  1.00  0.00     0.059 A 
ATOM     70  C   UNL A   1      51.676  25.848  27.050  1.00  0.00     0.059 A 
ATOM     71  F   UNL A   1      50.078  26.234  28.728  1.00  0.00    -0.206 F 
ATOM     72  C   UNL A   1      52.043  25.931  25.705  1.00  0.00     0.060 A 
BRANCH  72  73
ATOM     73  S   UNL A   1      53.629  25.273  25.151  1.00  0.00     0.124 S 
ATOM     74  O   UNL A   1      54.561  25.969  26.030  1.00  0.00    -0.237 OA
ATOM     75  O   UNL A   1      53.472  23.842  25.394  1.00  0.00    -0.237 OA
ATOM     76  O   UNL A   1      53.680  25.661  23.744  1.00  0.00    -0.744 OA
ENDBRANCH  72  73
ENDBRANCH  40  65
ENDBRANCH  14  15
ENDBRANCH   7   9
ENDBRANCH   6   7
ENDBRANCH   5   6
ENDBRANCH   4   5
ENDBRANCH   3   4
ENDBRANCH   2   3
ENDBRANCH   1   2
BRANCH   1  77
ATOM     77  O   UNL A   1      33.676  31.248  28.003  1.00  0.00    -0.376 OA
BRANCH  77  78
ATOM     78  C   UNL A   1      33.635  30.457  26.819  1.00  0.00     0.202 C 
BRANCH  78  79
ATOM     79  C   UNL A   1      32.350  29.663  26.550  1.00  0.00     0.261 C 
BRANCH  79  80
ATOM     80  O   UNL A   1      32.515  28.241  26.484  1.00  0.00    -0.460 OA
BRANCH  80  81
ATOM     81  C   UNL A   1      33.026  27.789  25.313  1.00  0.00     0.341 C 
ATOM     82  O   UNL A   1      33.930  28.267  24.650  1.00  0.00    -0.246 OA
BRANCH  81  83
ATOM     83  C   UNL A   1      32.323  26.568  24.935  1.00  0.00     0.097 A 
ATOM     84  C   UNL A   1      32.245  25.470  25.798  1.00  0.00     0.041 A 
ATOM     85  C   UNL A   1      31.842  26.483  23.636  1.00  0.00     0.137 A 
ATOM     86  C   UNL A   1      31.611  24.300  25.354  1.00  0.00     0.088 A 
ATOM     87  C   UNL A   1      31.216  25.325  23.209  1.00  0.00     0.041 A 
ATOM     88  F   UNL A   1      31.970  27.509  22.785  1.00  0.00    -0.206 F 
ATOM     89  C   UNL A   1      31.023  24.263  24.089  1.00  0.00     0.025 A 
BRANCH  86  90
ATOM     90  S   UNL A   1      31.759  22.846  26.374  1.00  0.00     0.261 S 
ATOM     91  O   UNL A   1      31.081  23.145  27.623  1.00  0.00    -0.201 OA
ATOM     92  O   UNL A   1      31.348  21.734  25.551  1.00  0.00    -0.201 OA
BRANCH  90  93
ATOM     93  N   UNL A   1      33.375  22.590  26.687  1.00  0.00    -0.280 N 
ATOM     94  H   UNL A   1      33.675  22.796  27.602  1.00  0.00     0.180 HD
BRANCH  93  95
ATOM     95  C   UNL A   1      34.376  22.110  25.792  1.00  0.00     0.051 A 
ATOM     96  C   UNL A   1      35.168  23.084  25.179  1.00  0.00     0.027 A 
ATOM     97  C   UNL A   1      34.722  20.763  25.639  1.00  0.00     0.052 A 
ATOM     98  C   UNL A   1      36.291  22.719  24.440  1.00  0.00     0.004 A 
ATOM     99  C   UNL A   1      35.917  20.394  24.997  1.00  0.00     0.043 A 
ATOM    100  C   UNL A   1      36.659  21.378  24.349  1.00  0.00     0.026 A 
BRANCH  99 101
ATOM    101  N   UNL A   1      36.279  19.038  25.040  1.00  0.00    -0.319 N 
ATOM    102  C   UNL A   1      35.565  17.866  24.855  1.00  0.00     0.291 C 
ATOM    103  H   UNL A   1      37.231  18.890  25.241  1.00  0.00     0.170 HD
ATOM    104  O   UNL A   1      36.071  16.857  25.356  1.00  0.00    -0.265 OA
BRANCH 102 105
ATOM    105  C   UNL A   1      34.331  17.837  24.094  1.00  0.00     0.191 A 
ATOM    106  C   UNL A   1      33.983  17.336  22.849  1.00  0.00     0.056 A 
ATOM    107  O   UNL A   1      33.208  18.365  24.680  1.00  0.00    -0.459 OA
ATOM    108  C   UNL A   1      32.597  17.561  22.675  1.00  0.00     0.043 A 
ATOM    109  C   UNL A   1      32.172  18.181  23.824  1.00  0.00     0.196 A 
ENDBRANCH 102 105
ENDBRANCH  99 101
ENDBRANCH  93  95
ENDBRANCH  90  93
ENDBRANCH  86  90
ENDBRANCH  81  83
ENDBRANCH  80  81
ENDBRANCH  79  80
ENDBRANCH  78  79
ENDBRANCH  77  78
ENDBRANCH   1  77
TORSDOF 25
ENDMDL
MODEL 2
REMARK VINA RESULT:     -10.4      1.246      2.091
REMARK SMILES O=C(OCCOCCOCCOC(=O)c1cc(S(=O)(=O)Nc2cccc(NC(=O)c3ccco3)c2)ccc1F)c1ccc(-c2c3nc(c(-c4c(F)cc(S(=O)(=O)[O-])cc4F)c4ccc([nH]4)c(-c4c(F)cc(S(=O)(=O)[O-])cc4F)c4nc(c(-c5c(F)cc(S(=O)(=O)[O-])cc5F)c5ccc2[nH]5)C=C4)C=C3)cc1
REMARK SMILES IDX 8 1 7 2 6 3 5 4 4 5 3 6 2 7 1 8 40 9 41 10 105 11 42 12
REMARK SMILES IDX 104 13 43 14 44 15 45 16 98 17 46 18 103 19 97 20 99 21
REMARK SMILES IDX 47 22 102 23 96 24 95 25 48 27 82 28 61 29 81 30 62 31 65 32
REMARK SMILES IDX 80 33 100 34 63 35 64 36 79 38 101 39 66 40 49 41 50 42
REMARK SMILES IDX 59 43 51 44 52 45 58 46 60 47 53 48 54 49 55 50 56 51 57 52
REMARK SMILES IDX 83 53 84 54 93 55 85 56 86 57 92 58 94 59 87 60 88 61 89 62
REMARK SMILES IDX 90 63 91 64 67 65 68 66 77 67 69 68 70 69 76 70 78 71 71 72
REMARK SMILES IDX 72 73 73 74 74 75 75 76 9 77 10 78 11 79 12 80 13 81 14 82
REMARK SMILES IDX 15 83 16 84 38 85 17 86 37 87 39 88 36 89 18 90 19 91 20 92
REMARK SMILES IDX 21 93 22 95 23 96 35 97 24 98 26 99 25 100 27 101 28 102
REMARK SMILES IDX 29 104 30 105 31 106 34 107 32 108 33 109
REMARK H PARENT 99 26 65 37 21 94 27 103
REMARK Flexibility Score: inf
ROOT
ATOM      1  C   UNL A   1      35.809  33.106  28.056  1.00  0.00     0.188 C 
ENDROOT
BRANCH   1   2
ATOM      2  C   UNL A   1      34.555  33.840  28.535  1.00  0.00     0.188 C 
BRANCH   2   3
ATOM      3  O   UNL A   1      34.526  33.926  29.965  1.00  0.00    -0.376 OA
BRANCH   3   4
ATOM      4  C   UNL A   1      35.621  33.260  30.598  1.00  0.00     0.202 C 
BRANCH   4   5
ATOM      5  C   UNL A   1      35.242  31.968  31.336  1.00  0.00     0.261 C 
BRANCH   5   6
ATOM      6  O   UNL A   1      36.321  31.021  31.377  1.00  0.00    -0.460 OA
BRANCH   6   7
ATOM      7  C   UNL A   1      37.548  31.174  31.940  1.00  0.00     0.338 C 
ATOM      8  O   UNL A   1      37.607  31.568  33.103  1.00  0.00    -0.246 OA
BRANCH   7   9
ATOM      9  C   UNL A   1      38.831  30.846  31.238  1.00  0.00     0.060 A 
ATOM     10  C   UNL A   1      39.034  30.934  29.861  1.00  0.00     0.016 A 
ATOM     11  C   UNL A   1      39.927  30.463  32.031  1.00  0.00     0.016 A 
ATOM     12  C   UNL A   1      40.230  30.536  29.274  1.00  0.00     0.010 A 
ATOM     13  C   UNL A   1      41.164  30.139  31.453  1.00  0.00     0.010 A 
ATOM     14  C   UNL A   1      41.313  30.150  30.060  1.00  0.00    -0.014 A 
BRANCH  14  15
ATOM     15  C   UNL A   1      42.566  29.717  29.399  1.00  0.00     0.031 A 
ATOM     16  C   UNL A   1      42.702  28.295  28.947  1.00  0.00     0.074 A 
ATOM     17  C   UNL A   1      43.507  30.619  29.057  1.00  0.00     0.049 A 
ATOM     18  N   UNL A   1      43.729  27.705  28.398  1.00  0.00    -0.248 NA
ATOM     19  C   UNL A   1      41.509  27.440  29.073  1.00  0.00     0.031 C 
ATOM     20  C   UNL A   1      43.372  32.068  29.205  1.00  0.00     0.029 A 
ATOM     21  N   UNL A   1      44.738  30.466  28.468  1.00  0.00    -0.354 N 
ATOM     22  C   UNL A   1      43.299  26.426  28.079  1.00  0.00     0.074 A 
ATOM     23  C   UNL A   1      41.933  26.304  28.537  1.00  0.00     0.031 C 
ATOM     24  C   UNL A   1      44.457  32.663  28.688  1.00  0.00     0.029 A 
ATOM     25  C   UNL A   1      45.425  31.648  28.318  1.00  0.00     0.049 A 
ATOM     26  H   UNL A   1      45.094  29.594  28.182  1.00  0.00     0.167 HD
ATOM     27  C   UNL A   1      43.981  25.455  27.432  1.00  0.00     0.037 A 
ATOM     28  C   UNL A   1      46.709  31.889  27.987  1.00  0.00     0.037 A 
ATOM     29  C   UNL A   1      45.337  25.597  26.978  1.00  0.00     0.049 A 
ATOM     30  C   UNL A   1      47.564  30.709  27.634  1.00  0.00     0.074 A 
ATOM     31  C   UNL A   1      46.135  24.665  26.340  1.00  0.00     0.029 A 
ATOM     32  N   UNL A   1      46.099  26.747  27.122  1.00  0.00    -0.354 N 
ATOM     33  N   UNL A   1      47.184  29.472  27.423  1.00  0.00    -0.248 NA
ATOM     34  C   UNL A   1      49.009  30.932  27.498  1.00  0.00     0.031 C 
ATOM     35  C   UNL A   1      47.398  25.234  26.145  1.00  0.00     0.029 A 
ATOM     36  C   UNL A   1      47.375  26.532  26.633  1.00  0.00     0.049 A 
ATOM     37  H   UNL A   1      45.779  27.590  27.514  1.00  0.00     0.167 HD
ATOM     38  C   UNL A   1      48.329  28.785  27.057  1.00  0.00     0.074 A 
ATOM     39  C   UNL A   1      49.425  29.731  27.116  1.00  0.00     0.031 C 
ATOM     40  C   UNL A   1      48.450  27.490  26.680  1.00  0.00     0.037 A 
BRANCH  27  41
ATOM     41  C   UNL A   1      43.285  24.149  27.198  1.00  0.00     0.058 A 
ATOM     42  C   UNL A   1      42.530  23.951  26.032  1.00  0.00     0.135 A 
ATOM     43  C   UNL A   1      43.314  23.121  28.151  1.00  0.00     0.135 A 
ATOM     44  F   UNL A   1      42.490  24.898  25.083  1.00  0.00    -0.206 F 
ATOM     45  C   UNL A   1      41.804  22.783  25.831  1.00  0.00     0.059 A 
ATOM     46  C   UNL A   1      42.606  21.938  27.964  1.00  0.00     0.059 A 
ATOM     47  F   UNL A   1      44.050  23.253  29.266  1.00  0.00    -0.206 F 
ATOM     48  C   UNL A   1      41.841  21.786  26.808  1.00  0.00     0.060 A 
BRANCH  48  49
ATOM     49  S   UNL A   1      40.888  20.278  26.527  1.00  0.00     0.124 S 
ATOM     50  O   UNL A   1      39.630  20.809  26.017  1.00  0.00    -0.237 OA
ATOM     51  O   UNL A   1      41.720  19.568  25.559  1.00  0.00    -0.237 OA
ATOM     52  O   UNL A   1      40.824  19.668  27.852  1.00  0.00    -0.744 OA
ENDBRANCH  48  49
ENDBRANCH  27  41
BRANCH  28  53
ATOM     53  C   UNL A   1      47.282  33.263  28.074  1.00  0.00     0.058 A 
ATOM     54  C   UNL A   1      47.237  34.130  26.969  1.00  0.00     0.135 A 
ATOM     55  C   UNL A   1      47.853  33.760  29.254  1.00  0.00     0.135 A 
ATOM     56  F   UNL A   1      46.686  33.724  25.813  1.00  0.00    -0.206 F 
ATOM     57  C   UNL A   1      47.763  35.414  27.018  1.00  0.00     0.059 A 
ATOM     58  C   UNL A   1      48.342  35.064  29.345  1.00  0.00     0.059 A 
ATOM     59  F   UNL A   1      47.908  32.984  30.348  1.00  0.00    -0.206 F 
ATOM     60  C   UNL A   1      48.294  35.880  28.218  1.00  0.00     0.060 A 
BRANCH  60  61
ATOM     61  S   UNL A   1      48.898  37.580  28.263  1.00  0.00     0.124 S 
ATOM     62  O   UNL A   1      47.736  38.313  27.772  1.00  0.00    -0.237 OA
ATOM     63  O   UNL A   1      49.204  37.736  29.680  1.00  0.00    -0.237 OA
ATOM     64  O   UNL A   1      50.048  37.552  27.367  1.00  0.00    -0.744 OA
ENDBRANCH  60  61
ENDBRANCH  28  53
BRANCH  40  65
ATOM     65  C   UNL A   1      49.801  27.029  26.234  1.00  0.00     0.058 A 
ATOM     66  C   UNL A   1      50.732  26.567  27.177  1.00  0.00     0.135 A 
ATOM     67  C   UNL A   1      50.200  27.121  24.894  1.00  0.00     0.135 A 
ATOM     68  F   UNL A   1      50.387  26.458  28.471  1.00  0.00    -0.206 F 
ATOM     69  C   UNL A   1      52.030  26.244  26.811  1.00  0.00     0.059 A 
ATOM     70  C   UNL A   1      51.489  26.781  24.501  1.00  0.00     0.059 A 
ATOM     71  F   UNL A   1      49.332  27.534  23.957  1.00  0.00    -0.206 F 
ATOM     72  C   UNL A   1      52.402  26.366  25.472  1.00  0.00     0.060 A 
BRANCH  72  73
ATOM     73  S   UNL A   1      54.100  25.963  25.015  1.00  0.00     0.124 S 
ATOM     74  O   UNL A   1      54.298  26.804  23.840  1.00  0.00    -0.237 OA
ATOM     75  O   UNL A   1      54.843  26.355  26.209  1.00  0.00    -0.237 OA
ATOM     76  O   UNL A   1      54.048  24.526  24.760  1.00  0.00    -0.744 OA
ENDBRANCH  72  73
ENDBRANCH  40  65
ENDBRANCH  14  15
ENDBRANCH   7   9
ENDBRANCH   6   7
ENDBRANCH   5   6
ENDBRANCH   4   5
ENDBRANCH   3   4
ENDBRANCH   2   3
ENDBRANCH   1   2
BRANCH   1  77
ATOM     77  O   UNL A   1      35.618  31.734  27.704  1.00  0.00    -0.376 OA
BRANCH  77  78
ATOM     78  C   UNL A   1      34.290  31.225  27.773  1.00  0.00     0.202 C 
BRANCH  78  79
ATOM     79  C   UNL A   1      34.082  29.753  27.393  1.00  0.00     0.261 C 
BRANCH  79  80
ATOM     80  O   UNL A   1      34.085  29.480  25.987  1.00  0.00    -0.460 OA
BRANCH  80  81
ATOM     81  C   UNL A   1      32.872  29.587  25.391  1.00  0.00     0.341 C 
ATOM     82  O   UNL A   1      32.080  30.511  25.455  1.00  0.00    -0.246 OA
BRANCH  81  83
ATOM     83  C   UNL A   1      32.632  28.386  24.598  1.00  0.00     0.097 A 
ATOM     84  C   UNL A   1      31.535  27.554  24.843  1.00  0.00     0.041 A 
ATOM     85  C   UNL A   1      33.600  28.026  23.673  1.00  0.00     0.137 A 
ATOM     86  C   UNL A   1      31.391  26.379  24.090  1.00  0.00     0.088 A 
ATOM     87  C   UNL A   1      33.449  26.867  22.932  1.00  0.00     0.041 A 
ATOM     88  F   UNL A   1      34.685  28.788  23.478  1.00  0.00    -0.206 F 
ATOM     89  C   UNL A   1      32.305  26.084  23.078  1.00  0.00     0.025 A 
BRANCH  86  90
ATOM     90  S   UNL A   1      30.138  25.221  24.603  1.00  0.00     0.261 S 
ATOM     91  O   UNL A   1      29.711  25.632  25.929  1.00  0.00    -0.201 OA
ATOM     92  O   UNL A   1      29.199  25.134  23.511  1.00  0.00    -0.201 OA
BRANCH  90  93
ATOM     93  N   UNL A   1      30.834  23.711  24.707  1.00  0.00    -0.280 N 
ATOM     94  H   UNL A   1      30.462  23.022  24.110  1.00  0.00     0.180 HD
BRANCH  93  95
ATOM     95  C   UNL A   1      31.902  23.294  25.555  1.00  0.00     0.051 A 
ATOM     96  C   UNL A   1      31.606  23.205  26.917  1.00  0.00     0.027 A 
ATOM     97  C   UNL A   1      33.133  22.806  25.098  1.00  0.00     0.052 A 
ATOM     98  C   UNL A   1      32.513  22.629  27.802  1.00  0.00     0.004 A 
ATOM     99  C   UNL A   1      34.000  22.117  25.963  1.00  0.00     0.043 A 
ATOM    100  C   UNL A   1      33.707  22.091  27.324  1.00  0.00     0.026 A 
BRANCH  99 101
ATOM    101  N   UNL A   1      35.129  21.508  25.391  1.00  0.00    -0.319 N 
ATOM    102  C   UNL A   1      35.393  20.213  24.978  1.00  0.00     0.291 C 
ATOM    103  H   UNL A   1      35.884  22.125  25.257  1.00  0.00     0.170 HD
ATOM    104  O   UNL A   1      36.590  19.919  24.905  1.00  0.00    -0.265 OA
BRANCH 102 105
ATOM    105  C   UNL A   1      34.329  19.294  24.624  1.00  0.00     0.191 A 
ATOM    106  C   UNL A   1      32.958  19.427  24.471  1.00  0.00     0.056 A 
ATOM    107  O   UNL A   1      34.679  18.001  24.321  1.00  0.00    -0.459 OA
ATOM    108  C   UNL A   1      32.456  18.171  24.053  1.00  0.00     0.043 A 
ATOM    109  C   UNL A   1      33.547  17.342  23.967  1.00  0.00     0.196 A 
ENDBRANCH 102 105
ENDBRANCH  99 101
ENDBRANCH  93  95
ENDBRANCH  90  93
ENDBRANCH  86  90
ENDBRANCH  81  83
ENDBRANCH  80  81
ENDBRANCH  79  80
ENDBRANCH  78  79
ENDBRANCH  77  78
ENDBRANCH   1  77
TORSDOF 25
ENDMDL
MODEL 3
REMARK VINA RESULT:      -9.4      3.211      8.502
REMARK SMILES O=C(OCCOCCOCCOC(=O)c1cc(S(=O)(=O)Nc2cccc(NC(=O)c3ccco3)c2)ccc1F)c1ccc(-c2c3nc(c(-c4c(F)cc(S(=O)(=O)[O-])cc4F)c4ccc([nH]4)c(-c4c(F)cc(S(=O)(=O)[O-])cc4F)c4nc(c(-c5c(F)cc(S(=O)(=O)[O-])cc5F)c5ccc2[nH]5)C=C4)C=C3)cc1
REMARK SMILES IDX 8 1 7 2 6 3 5 4 4 5 3 6 2 7 1 8 40 9 41 10 105 11 42 12
REMARK SMILES IDX 104 13 43 14 44 15 45 16 98 17 46 18 103 19 97 20 99 21
REMARK SMILES IDX 47 22 102 23 96 24 95 25 48 27 82 28 61 29 81 30 62 31 65 32
REMARK SMILES IDX 80 33 100 34 63 35 64 36 79 38 101 39 66 40 49 41 50 42
REMARK SMILES IDX 59 43 51 44 52 45 58 46 60 47 53 48 54 49 55 50 56 51 57 52
REMARK SMILES IDX 83 53 84 54 93 55 85 56 86 57 92 58 94 59 87 60 88 61 89 62
REMARK SMILES IDX 90 63 91 64 67 65 68 66 77 67 69 68 70 69 76 70 78 71 71 72
REMARK SMILES IDX 72 73 73 74 74 75 75 76 9 77 10 78 11 79 12 80 13 81 14 82
REMARK SMILES IDX 15 83 16 84 38 85 17 86 37 87 39 88 36 89 18 90 19 91 20 92
REMARK SMILES IDX 21 93 22 95 23 96 35 97 24 98 26 99 25 100 27 101 28 102
REMARK SMILES IDX 29 104 30 105 31 106 34 107 32 108 33 109
REMARK H PARENT 99 26 65 37 21 94 27 103
REMARK Flexibility Score: inf
ROOT
ATOM      1  C   UNL A   1      34.539  34.602  28.567  1.00  0.00     0.188 C 
ENDROOT
BRANCH   1   2
ATOM      2  C   UNL A   1      33.217  34.793  29.313  1.00  0.00     0.188 C 
BRANCH   2   3
ATOM      3  O   UNL A   1      33.419  34.763  30.732  1.00  0.00    -0.376 OA
BRANCH   3   4
ATOM      4  C   UNL A   1      34.727  34.327  31.111  1.00  0.00     0.202 C 
BRANCH   4   5
ATOM      5  C   UNL A   1      34.749  33.085  32.013  1.00  0.00     0.261 C 
BRANCH   5   6
ATOM      6  O   UNL A   1      35.169  31.904  31.311  1.00  0.00    -0.460 OA
BRANCH   6   7
ATOM      7  C   UNL A   1      36.206  31.078  31.607  1.00  0.00     0.338 C 
ATOM      8  O   UNL A   1      35.963  30.038  32.217  1.00  0.00    -0.246 OA
BRANCH   7   9
ATOM      9  C   UNL A   1      37.622  31.341  31.193  1.00  0.00     0.060 A 
ATOM     10  C   UNL A   1      38.005  31.958  30.002  1.00  0.00     0.016 A 
ATOM     11  C   UNL A   1      38.641  30.982  32.093  1.00  0.00     0.016 A 
ATOM     12  C   UNL A   1      39.344  32.097  29.651  1.00  0.00     0.010 A 
ATOM     13  C   UNL A   1      39.992  31.194  31.782  1.00  0.00     0.010 A 
ATOM     14  C   UNL A   1      40.352  31.733  30.541  1.00  0.00    -0.014 A 
BRANCH  14  15
ATOM     15  C   UNL A   1      41.766  31.880  30.126  1.00  0.00     0.031 A 
ATOM     16  C   UNL A   1      42.494  33.152  30.437  1.00  0.00     0.074 A 
ATOM     17  C   UNL A   1      42.445  30.828  29.625  1.00  0.00     0.049 A 
ATOM     18  N   UNL A   1      43.711  33.498  30.118  1.00  0.00    -0.248 NA
ATOM     19  C   UNL A   1      41.781  34.140  31.265  1.00  0.00     0.031 C 
ATOM     20  C   UNL A   1      41.923  29.465  29.522  1.00  0.00     0.029 A 
ATOM     21  N   UNL A   1      43.732  30.719  29.157  1.00  0.00    -0.354 N 
ATOM     22  C   UNL A   1      43.926  34.722  30.734  1.00  0.00     0.074 A 
ATOM     23  C   UNL A   1      42.700  35.086  31.408  1.00  0.00     0.031 C 
ATOM     24  C   UNL A   1      42.890  28.661  29.058  1.00  0.00     0.029 A 
ATOM     25  C   UNL A   1      44.040  29.464  28.687  1.00  0.00     0.049 A 
ATOM     26  H   UNL A   1      44.371  31.468  29.157  1.00  0.00     0.167 HD
ATOM     27  C   UNL A   1      45.061  35.455  30.756  1.00  0.00     0.037 A 
ATOM     28  C   UNL A   1      45.096  29.020  27.976  1.00  0.00     0.037 A 
ATOM     29  C   UNL A   1      46.273  35.074  30.085  1.00  0.00     0.049 A 
ATOM     30  C   UNL A   1      46.192  30.000  27.685  1.00  0.00     0.074 A 
ATOM     31  C   UNL A   1      47.472  35.759  30.016  1.00  0.00     0.029 A 
ATOM     32  N   UNL A   1      46.436  33.903  29.360  1.00  0.00    -0.354 N 
ATOM     33  N   UNL A   1      46.358  31.198  28.188  1.00  0.00    -0.248 NA
ATOM     34  C   UNL A   1      47.227  29.596  26.725  1.00  0.00     0.031 C 
ATOM     35  C   UNL A   1      48.344  35.027  29.204  1.00  0.00     0.029 A 
ATOM     36  C   UNL A   1      47.699  33.870  28.796  1.00  0.00     0.049 A 
ATOM     37  H   UNL A   1      45.755  33.200  29.262  1.00  0.00     0.167 HD
ATOM     38  C   UNL A   1      47.551  31.665  27.664  1.00  0.00     0.074 A 
ATOM     39  C   UNL A   1      48.048  30.637  26.771  1.00  0.00     0.031 C 
ATOM     40  C   UNL A   1      48.187  32.831  27.925  1.00  0.00     0.037 A 
BRANCH  27  41
ATOM     41  C   UNL A   1      45.040  36.751  31.507  1.00  0.00     0.058 A 
ATOM     42  C   UNL A   1      44.654  37.935  30.862  1.00  0.00     0.135 A 
ATOM     43  C   UNL A   1      45.460  36.832  32.843  1.00  0.00     0.135 A 
ATOM     44  F   UNL A   1      44.224  37.903  29.591  1.00  0.00    -0.206 F 
ATOM     45  C   UNL A   1      44.709  39.164  31.509  1.00  0.00     0.059 A 
ATOM     46  C   UNL A   1      45.510  38.050  33.515  1.00  0.00     0.059 A 
ATOM     47  F   UNL A   1      45.808  35.721  33.511  1.00  0.00    -0.206 F 
ATOM     48  C   UNL A   1      45.148  39.211  32.834  1.00  0.00     0.060 A 
BRANCH  48  49
ATOM     49  S   UNL A   1      45.214  40.818  33.656  1.00  0.00     0.124 S 
ATOM     50  O   UNL A   1      44.407  41.643  32.765  1.00  0.00    -0.237 OA
ATOM     51  O   UNL A   1      44.624  40.518  34.958  1.00  0.00    -0.237 OA
ATOM     52  O   UNL A   1      46.641  41.126  33.680  1.00  0.00    -0.744 OA
ENDBRANCH  48  49
ENDBRANCH  27  41
BRANCH  28  53
ATOM     53  C   UNL A   1      45.117  27.640  27.411  1.00  0.00     0.058 A 
ATOM     54  C   UNL A   1      44.465  27.351  26.200  1.00  0.00     0.135 A 
ATOM     55  C   UNL A   1      45.806  26.589  28.032  1.00  0.00     0.135 A 
ATOM     56  F   UNL A   1      43.801  28.317  25.543  1.00  0.00    -0.206 F 
ATOM     57  C   UNL A   1      44.464  26.076  25.649  1.00  0.00     0.059 A 
ATOM     58  C   UNL A   1      45.864  25.313  27.473  1.00  0.00     0.059 A 
ATOM     59  F   UNL A   1      46.464  26.809  29.181  1.00  0.00    -0.206 F 
ATOM     60  C   UNL A   1      45.186  25.068  26.281  1.00  0.00     0.060 A 
BRANCH  60  61
ATOM     61  S   UNL A   1      45.225  23.445  25.494  1.00  0.00     0.124 S 
ATOM     62  O   UNL A   1      43.804  23.126  25.419  1.00  0.00    -0.237 OA
ATOM     63  O   UNL A   1      45.883  23.757  24.231  1.00  0.00    -0.237 OA
ATOM     64  O   UNL A   1      46.003  22.638  26.428  1.00  0.00    -0.744 OA
ENDBRANCH  60  61
ENDBRANCH  28  53
BRANCH  40  65
ATOM     65  C   UNL A   1      49.527  33.038  27.293  1.00  0.00     0.058 A 
ATOM     66  C   UNL A   1      49.621  33.650  26.033  1.00  0.00     0.135 A 
ATOM     67  C   UNL A   1      50.700  32.561  27.892  1.00  0.00     0.135 A 
ATOM     68  F   UNL A   1      48.521  34.125  25.427  1.00  0.00    -0.206 F 
ATOM     69  C   UNL A   1      50.835  33.750  25.370  1.00  0.00     0.059 A 
ATOM     70  C   UNL A   1      51.930  32.671  27.255  1.00  0.00     0.059 A 
ATOM     71  F   UNL A   1      50.655  31.994  29.108  1.00  0.00    -0.206 F 
ATOM     72  C   UNL A   1      51.983  33.247  25.984  1.00  0.00     0.060 A 
BRANCH  72  73
ATOM     73  S   UNL A   1      53.550  33.365  25.100  1.00  0.00     0.124 S 
ATOM     74  O   UNL A   1      53.165  32.944  23.757  1.00  0.00    -0.237 OA
ATOM     75  O   UNL A   1      53.885  34.777  25.252  1.00  0.00    -0.237 OA
ATOM     76  O   UNL A   1      54.416  32.440  25.825  1.00  0.00    -0.744 OA
ENDBRANCH  72  73
ENDBRANCH  40  65
ENDBRANCH  14  15
ENDBRANCH   7   9
ENDBRANCH   6   7
ENDBRANCH   5   6
ENDBRANCH   4   5
ENDBRANCH   3   4
ENDBRANCH   2   3
ENDBRANCH   1   2
BRANCH   1  77
ATOM     77  O   UNL A   1      34.701  33.335  27.926  1.00  0.00    -0.376 OA
BRANCH  77  78
ATOM     78  C   UNL A   1      33.517  32.661  27.511  1.00  0.00     0.202 C 
BRANCH  78  79
ATOM     79  C   UNL A   1      33.548  31.127  27.508  1.00  0.00     0.261 C 
BRANCH  79  80
ATOM     80  O   UNL A   1      33.170  30.512  26.271  1.00  0.00    -0.460 OA
BRANCH  80  81
ATOM     81  C   UNL A   1      31.842  30.560  26.003  1.00  0.00     0.341 C 
ATOM     82  O   UNL A   1      31.075  31.495  26.156  1.00  0.00    -0.246 OA
BRANCH  81  83
ATOM     83  C   UNL A   1      31.427  29.273  25.455  1.00  0.00     0.097 A 
ATOM     84  C   UNL A   1      31.836  28.065  26.031  1.00  0.00     0.041 A 
ATOM     85  C   UNL A   1      30.716  29.284  24.264  1.00  0.00     0.137 A 
ATOM     86  C   UNL A   1      31.457  26.859  25.422  1.00  0.00     0.088 A 
ATOM     87  C   UNL A   1      30.345  28.089  23.672  1.00  0.00     0.041 A 
ATOM     88  F   UNL A   1      30.376  30.438  23.674  1.00  0.00    -0.206 F 
ATOM     89  C   UNL A   1      30.641  26.876  24.291  1.00  0.00     0.025 A 
BRANCH  86  90
ATOM     90  S   UNL A   1      32.207  25.361  26.028  1.00  0.00     0.261 S 
ATOM     91  O   UNL A   1      33.580  25.692  26.367  1.00  0.00    -0.201 OA
ATOM     92  O   UNL A   1      31.302  24.831  27.020  1.00  0.00    -0.201 OA
BRANCH  90  93
ATOM     93  N   UNL A   1      32.212  24.243  24.794  1.00  0.00    -0.280 N 
ATOM     94  H   UNL A   1      31.594  24.421  24.048  1.00  0.00     0.180 HD
BRANCH  93  95
ATOM     95  C   UNL A   1      33.002  23.060  24.684  1.00  0.00     0.051 A 
ATOM     96  C   UNL A   1      34.270  23.219  24.122  1.00  0.00     0.027 A 
ATOM     97  C   UNL A   1      32.665  21.828  25.257  1.00  0.00     0.052 A 
ATOM     98  C   UNL A   1      35.189  22.173  24.144  1.00  0.00     0.004 A 
ATOM     99  C   UNL A   1      33.625  20.810  25.389  1.00  0.00     0.043 A 
ATOM    100  C   UNL A   1      34.863  20.973  24.772  1.00  0.00     0.026 A 
BRANCH  99 101
ATOM    101  N   UNL A   1      33.260  19.673  26.129  1.00  0.00    -0.319 N 
ATOM    102  C   UNL A   1      32.919  18.381  25.766  1.00  0.00     0.291 C 
ATOM    103  H   UNL A   1      33.244  19.825  27.102  1.00  0.00     0.170 HD
ATOM    104  O   UNL A   1      32.266  17.754  26.606  1.00  0.00    -0.265 OA
BRANCH 102 105
ATOM    105  C   UNL A   1      33.339  17.809  24.502  1.00  0.00     0.191 A 
ATOM    106  C   UNL A   1      34.319  16.899  24.139  1.00  0.00     0.056 A 
ATOM    107  O   UNL A   1      32.636  18.165  23.377  1.00  0.00    -0.459 OA
ATOM    108  C   UNL A   1      34.204  16.688  22.744  1.00  0.00     0.043 A 
ATOM    109  C   UNL A   1      33.157  17.475  22.332  1.00  0.00     0.196 A 
ENDBRANCH 102 105
ENDBRANCH  99 101
ENDBRANCH  93  95
ENDBRANCH  90  93
ENDBRANCH  86  90
ENDBRANCH  81  83
ENDBRANCH  80  81
ENDBRANCH  79  80
ENDBRANCH  78  79
ENDBRANCH  77  78
ENDBRANCH   1  77
TORSDOF 25
ENDMDL
