MODEL 1
REMARK VINA RESULT:     -11.1      0.000      0.000
REMARK SMILES O=C(COc1ccccc1/C=C1/SC(=O)N(c2ccc(F)cc2)C1=O)OCCOCCOCCOC(=O)c1ccc(-c2c3nc(c(-c4c(F)cc(S(=O)(=O)[O-])cc4F)c4ccc([nH]4)c(-c4c(F)cc(S(=O)(=O)[O-])cc4F)c4nc(c(-c5c(F)cc(S(=O)(=O)[O-])cc5F)c5ccc2[nH]5)C=C4)C=C3)cc1
REMARK SMILES IDX 30 1 29 2 28 3 27 4 26 5 2 6 1 7 3 8 4 9 5 10 6 11 10 12
REMARK SMILES IDX 7 13 9 14 8 15 11 16 12 17 13 18 24 19 14 20 16 21 25 22
REMARK SMILES IDX 15 23 17 24 18 25 23 26 19 27 22 28 20 29 21 30 31 31 32 32
REMARK SMILES IDX 33 33 34 34 35 35 36 36 37 37 38 38 39 39 103 40 40 41
REMARK SMILES IDX 102 42 41 43 42 44 43 45 96 46 44 47 101 48 95 49 97 50
REMARK SMILES IDX 45 51 100 52 94 53 93 54 46 56 80 57 59 58 79 59 60 60 63 61
REMARK SMILES IDX 78 62 98 63 61 64 62 65 77 67 99 68 64 69 47 70 48 71 57 72
REMARK SMILES IDX 49 73 50 74 56 75 58 76 51 77 52 78 53 79 54 80 55 81 81 82
REMARK SMILES IDX 82 83 91 84 83 85 84 86 90 87 92 88 85 89 86 90 87 91 88 92
REMARK SMILES IDX 89 93 65 94 66 95 75 96 67 97 68 98 74 99 76 100 69 101
REMARK SMILES IDX 70 102 71 103 72 104 73 105
REMARK H PARENT 97 55 63 66
REMARK Flexibility Score: inf
ROOT
ATOM      1  C   UNL A   1      32.693  28.490  25.435  1.00  0.00     0.188 C 
ENDROOT
BRANCH   1   2
ATOM      2  O   UNL A   1      32.968  28.956  24.121  1.00  0.00    -0.376 OA
BRANCH   2   3
ATOM      3  C   UNL A   1      34.008  28.308  23.402  1.00  0.00     0.202 C 
BRANCH   3   4
ATOM      4  C   UNL A   1      33.674  28.057  21.943  1.00  0.00     0.261 C 
BRANCH   4   5
ATOM      5  O   UNL A   1      33.891  26.652  21.662  1.00  0.00    -0.461 OA
BRANCH   5   6
ATOM      6  C   UNL A   1      32.936  25.870  21.085  1.00  0.00     0.344 C 
ATOM      7  O   UNL A   1      33.025  25.539  19.906  1.00  0.00    -0.248 OA
BRANCH   6   8
ATOM      8  C   UNL A   1      31.813  25.400  21.967  1.00  0.00     0.351 C 
BRANCH   8   9
ATOM      9  O   UNL A   1      32.314  24.354  22.792  1.00  0.00    -0.481 OA
BRANCH   9  10
ATOM     10  C   UNL A   1      31.975  24.502  24.103  1.00  0.00     0.127 A 
ATOM     11  C   UNL A   1      30.684  25.002  24.295  1.00  0.00     0.047 A 
ATOM     12  C   UNL A   1      32.826  24.231  25.191  1.00  0.00     0.018 A 
ATOM     13  C   UNL A   1      30.196  25.193  25.578  1.00  0.00     0.004 A 
ATOM     14  C   UNL A   1      32.312  24.431  26.479  1.00  0.00     0.012 A 
ATOM     15  C   UNL A   1      31.009  24.905  26.671  1.00  0.00     0.001 A 
BRANCH  12  16
ATOM     16  C   UNL A   1      34.185  23.661  25.118  1.00  0.00     0.033 C 
ATOM     17  C   UNL A   1      34.578  22.408  24.834  1.00  0.00     0.084 C 
ATOM     18  S   UNL A   1      36.236  21.931  24.895  1.00  0.00    -0.022 SA
ATOM     19  C   UNL A   1      33.730  21.216  24.548  1.00  0.00     0.272 C 
ATOM     20  C   UNL A   1      35.836  20.221  24.871  1.00  0.00     0.298 C 
ATOM     21  N   UNL A   1      34.474  20.048  24.709  1.00  0.00    -0.236 N 
ATOM     22  O   UNL A   1      32.547  21.316  24.252  1.00  0.00    -0.268 OA
ATOM     23  O   UNL A   1      36.716  19.374  24.902  1.00  0.00    -0.260 OA
BRANCH  21  24
ATOM     24  C   UNL A   1      33.869  18.748  24.727  1.00  0.00     0.053 A 
ATOM     25  C   UNL A   1      32.941  18.384  25.716  1.00  0.00     0.030 A 
ATOM     26  C   UNL A   1      34.248  17.761  23.797  1.00  0.00     0.030 A 
ATOM     27  C   UNL A   1      32.445  17.078  25.804  1.00  0.00     0.041 A 
ATOM     28  C   UNL A   1      33.776  16.447  23.899  1.00  0.00     0.041 A 
ATOM     29  C   UNL A   1      32.882  16.116  24.906  1.00  0.00     0.123 A 
ATOM     30  F   UNL A   1      32.441  14.857  25.018  1.00  0.00    -0.207 F 
ENDBRANCH  21  24
ENDBRANCH  12  16
ENDBRANCH   9  10
ENDBRANCH   8   9
ENDBRANCH   6   8
ENDBRANCH   5   6
ENDBRANCH   4   5
ENDBRANCH   3   4
ENDBRANCH   2   3
ENDBRANCH   1   2
BRANCH   1  31
ATOM     31  C   UNL A   1      33.850  28.360  26.454  1.00  0.00     0.188 C 
BRANCH  31  32
ATOM     32  O   UNL A   1      33.838  29.165  27.623  1.00  0.00    -0.376 OA
BRANCH  32  33
ATOM     33  C   UNL A   1      33.928  30.575  27.469  1.00  0.00     0.202 C 
BRANCH  33  34
ATOM     34  C   UNL A   1      35.176  31.268  28.028  1.00  0.00     0.261 C 
BRANCH  34  35
ATOM     35  O   UNL A   1      35.890  30.429  28.958  1.00  0.00    -0.460 OA
BRANCH  35  36
ATOM     36  C   UNL A   1      36.856  31.041  29.698  1.00  0.00     0.338 C 
ATOM     37  O   UNL A   1      36.688  31.746  30.669  1.00  0.00    -0.246 OA
BRANCH  36  38
ATOM     38  C   UNL A   1      38.187  30.519  29.287  1.00  0.00     0.060 A 
ATOM     39  C   UNL A   1      39.232  30.579  30.220  1.00  0.00     0.016 A 
ATOM     40  C   UNL A   1      38.394  29.912  28.045  1.00  0.00     0.016 A 
ATOM     41  C   UNL A   1      40.493  30.059  29.906  1.00  0.00     0.010 A 
ATOM     42  C   UNL A   1      39.664  29.413  27.723  1.00  0.00     0.010 A 
ATOM     43  C   UNL A   1      40.727  29.506  28.640  1.00  0.00    -0.014 A 
BRANCH  43  44
ATOM     44  C   UNL A   1      42.115  29.227  28.185  1.00  0.00     0.031 A 
ATOM     45  C   UNL A   1      42.461  27.806  27.825  1.00  0.00     0.074 A 
ATOM     46  C   UNL A   1      43.060  30.184  28.121  1.00  0.00     0.049 A 
ATOM     47  N   UNL A   1      43.620  27.286  27.519  1.00  0.00    -0.248 NA
ATOM     48  C   UNL A   1      41.346  26.843  27.813  1.00  0.00     0.031 C 
ATOM     49  C   UNL A   1      42.855  31.604  28.401  1.00  0.00     0.029 A 
ATOM     50  N   UNL A   1      44.399  30.093  27.819  1.00  0.00    -0.354 N 
ATOM     51  C   UNL A   1      43.379  25.936  27.294  1.00  0.00     0.074 A 
ATOM     52  C   UNL A   1      41.966  25.714  27.502  1.00  0.00     0.031 C 
ATOM     53  C   UNL A   1      44.034  32.245  28.294  1.00  0.00     0.029 A 
ATOM     54  C   UNL A   1      45.084  31.278  27.971  1.00  0.00     0.049 A 
ATOM     55  H   UNL A   1      44.828  29.259  27.521  1.00  0.00     0.167 HD
ATOM     56  C   UNL A   1      44.256  24.966  26.947  1.00  0.00     0.037 A 
ATOM     57  C   UNL A   1      46.407  31.540  27.898  1.00  0.00     0.037 A 
ATOM     58  C   UNL A   1      45.662  25.180  26.737  1.00  0.00     0.049 A 
ATOM     59  C   UNL A   1      47.377  30.422  27.591  1.00  0.00     0.074 A 
ATOM     60  C   UNL A   1      46.617  24.261  26.338  1.00  0.00     0.029 A 
ATOM     61  N   UNL A   1      46.316  26.385  26.924  1.00  0.00    -0.354 N 
ATOM     62  N   UNL A   1      47.127  29.160  27.330  1.00  0.00    -0.248 NA
ATOM     63  C   UNL A   1      48.809  30.760  27.581  1.00  0.00     0.031 C 
ATOM     64  C   UNL A   1      47.861  24.899  26.338  1.00  0.00     0.029 A 
ATOM     65  C   UNL A   1      47.671  26.226  26.689  1.00  0.00     0.049 A 
ATOM     66  H   UNL A   1      45.883  27.230  27.186  1.00  0.00     0.167 HD
ATOM     67  C   UNL A   1      48.367  28.563  27.111  1.00  0.00     0.074 A 
ATOM     68  C   UNL A   1      49.364  29.601  27.249  1.00  0.00     0.031 C 
ATOM     69  C   UNL A   1      48.655  27.269  26.824  1.00  0.00     0.037 A 
BRANCH  56  70
ATOM     70  C   UNL A   1      43.730  23.570  26.797  1.00  0.00     0.058 A 
ATOM     71  C   UNL A   1      43.434  22.770  27.910  1.00  0.00     0.135 A 
ATOM     72  C   UNL A   1      43.450  23.055  25.520  1.00  0.00     0.135 A 
ATOM     73  F   UNL A   1      43.706  23.210  29.149  1.00  0.00    -0.206 F 
ATOM     74  C   UNL A   1      42.877  21.504  27.764  1.00  0.00     0.059 A 
ATOM     75  C   UNL A   1      42.875  21.801  25.352  1.00  0.00     0.059 A 
ATOM     76  F   UNL A   1      43.726  23.779  24.424  1.00  0.00    -0.206 F 
ATOM     77  C   UNL A   1      42.594  21.032  26.481  1.00  0.00     0.060 A 
BRANCH  77  78
ATOM     78  S   UNL A   1      41.824  19.408  26.311  1.00  0.00     0.124 S 
ATOM     79  O   UNL A   1      42.478  18.900  25.110  1.00  0.00    -0.237 OA
ATOM     80  O   UNL A   1      42.198  18.754  27.561  1.00  0.00    -0.237 OA
ATOM     81  O   UNL A   1      40.404  19.717  26.169  1.00  0.00    -0.744 OA
ENDBRANCH  77  78
ENDBRANCH  56  70
BRANCH  57  82
ATOM     82  C   UNL A   1      46.926  32.908  28.185  1.00  0.00     0.058 A 
ATOM     83  C   UNL A   1      47.293  33.290  29.484  1.00  0.00     0.135 A 
ATOM     84  C   UNL A   1      46.999  33.880  27.175  1.00  0.00     0.135 A 
ATOM     85  F   UNL A   1      47.223  32.404  30.490  1.00  0.00    -0.206 F 
ATOM     86  C   UNL A   1      47.689  34.592  29.778  1.00  0.00     0.059 A 
ATOM     87  C   UNL A   1      47.416  35.181  27.439  1.00  0.00     0.059 A 
ATOM     88  F   UNL A   1      46.662  33.567  25.915  1.00  0.00    -0.206 F 
ATOM     89  C   UNL A   1      47.744  35.532  28.747  1.00  0.00     0.060 A 
BRANCH  89  90
ATOM     90  S   UNL A   1      48.279  37.215  29.129  1.00  0.00     0.124 S 
ATOM     91  O   UNL A   1      49.704  37.146  28.825  1.00  0.00    -0.237 OA
ATOM     92  O   UNL A   1      47.467  38.011  28.213  1.00  0.00    -0.237 OA
ATOM     93  O   UNL A   1      47.939  37.361  30.541  1.00  0.00    -0.744 OA
ENDBRANCH  89  90
ENDBRANCH  57  82
BRANCH  69  94
ATOM     94  C   UNL A   1      50.097  26.894  26.624  1.00  0.00     0.058 A 
ATOM     95  C   UNL A   1      50.867  26.358  27.668  1.00  0.00     0.135 A 
ATOM     96  C   UNL A   1      50.693  26.994  25.356  1.00  0.00     0.135 A 
ATOM     97  F   UNL A   1      50.347  26.245  28.900  1.00  0.00    -0.206 F 
ATOM     98  C   UNL A   1      52.180  25.945  27.464  1.00  0.00     0.059 A 
ATOM     99  C   UNL A   1      51.996  26.564  25.124  1.00  0.00     0.059 A 
ATOM    100  F   UNL A   1      49.997  27.490  24.319  1.00  0.00    -0.206 F 
ATOM    101  C   UNL A   1      52.734  26.047  26.187  1.00  0.00     0.060 A 
BRANCH 101 102
ATOM    102  S   UNL A   1      54.422  25.460  25.925  1.00  0.00     0.124 S 
ATOM    103  O   UNL A   1      55.003  26.563  25.166  1.00  0.00    -0.237 OA
ATOM    104  O   UNL A   1      54.914  25.302  27.291  1.00  0.00    -0.237 OA
ATOM    105  O   UNL A   1      54.237  24.216  25.184  1.00  0.00    -0.744 OA
ENDBRANCH 101 102
ENDBRANCH  69  94
ENDBRANCH  43  44
ENDBRANCH  36  38
ENDBRANCH  35  36
ENDBRANCH  34  35
ENDBRANCH  33  34
ENDBRANCH  32  33
ENDBRANCH  31  32
ENDBRANCH   1  31
TORSDOF 24
ENDMDL
MODEL 2
REMARK VINA RESULT:     -10.7      0.648      7.803
REMARK SMILES O=C(COc1ccccc1/C=C1/SC(=O)N(c2ccc(F)cc2)C1=O)OCCOCCOCCOC(=O)c1ccc(-c2c3nc(c(-c4c(F)cc(S(=O)(=O)[O-])cc4F)c4ccc([nH]4)c(-c4c(F)cc(S(=O)(=O)[O-])cc4F)c4nc(c(-c5c(F)cc(S(=O)(=O)[O-])cc5F)c5ccc2[nH]5)C=C4)C=C3)cc1
REMARK SMILES IDX 30 1 29 2 28 3 27 4 26 5 2 6 1 7 3 8 4 9 5 10 6 11 10 12
REMARK SMILES IDX 7 13 9 14 8 15 11 16 12 17 13 18 24 19 14 20 16 21 25 22
REMARK SMILES IDX 15 23 17 24 18 25 23 26 19 27 22 28 20 29 21 30 31 31 32 32
REMARK SMILES IDX 33 33 34 34 35 35 36 36 37 37 38 38 39 39 103 40 40 41
REMARK SMILES IDX 102 42 41 43 42 44 43 45 96 46 44 47 101 48 95 49 97 50
REMARK SMILES IDX 45 51 100 52 94 53 93 54 46 56 80 57 59 58 79 59 60 60 63 61
REMARK SMILES IDX 78 62 98 63 61 64 62 65 77 67 99 68 64 69 47 70 48 71 57 72
REMARK SMILES IDX 49 73 50 74 56 75 58 76 51 77 52 78 53 79 54 80 55 81 81 82
REMARK SMILES IDX 82 83 91 84 83 85 84 86 90 87 92 88 85 89 86 90 87 91 88 92
REMARK SMILES IDX 89 93 65 94 66 95 75 96 67 97 68 98 74 99 76 100 69 101
REMARK SMILES IDX 70 102 71 103 72 104 73 105
REMARK H PARENT 97 55 63 66
REMARK Flexibility Score: inf
ROOT
ATOM      1  C   UNL A   1      33.984  28.034  25.604  1.00  0.00     0.188 C 
ENDROOT
BRANCH   1   2
ATOM      2  O   UNL A   1      33.274  28.530  24.478  1.00  0.00    -0.376 OA
BRANCH   2   3
ATOM      3  C   UNL A   1      34.008  28.729  23.278  1.00  0.00     0.202 C 
BRANCH   3   4
ATOM      4  C   UNL A   1      33.377  28.073  22.063  1.00  0.00     0.261 C 
BRANCH   4   5
ATOM      5  O   UNL A   1      33.869  26.713  21.973  1.00  0.00    -0.461 OA
BRANCH   5   6
ATOM      6  C   UNL A   1      33.094  25.689  21.520  1.00  0.00     0.344 C 
ATOM      7  O   UNL A   1      32.987  25.467  20.316  1.00  0.00    -0.248 OA
BRANCH   6   8
ATOM      8  C   UNL A   1      32.429  24.826  22.555  1.00  0.00     0.351 C 
BRANCH   8   9
ATOM      9  O   UNL A   1      32.362  25.570  23.767  1.00  0.00    -0.481 OA
BRANCH   9  10
ATOM     10  C   UNL A   1      31.844  24.853  24.803  1.00  0.00     0.127 A 
ATOM     11  C   UNL A   1      30.501  25.137  25.066  1.00  0.00     0.047 A 
ATOM     12  C   UNL A   1      32.568  23.936  25.588  1.00  0.00     0.018 A 
ATOM     13  C   UNL A   1      29.837  24.474  26.087  1.00  0.00     0.004 A 
ATOM     14  C   UNL A   1      31.876  23.276  26.613  1.00  0.00     0.012 A 
ATOM     15  C   UNL A   1      30.524  23.540  26.858  1.00  0.00     0.001 A 
BRANCH  12  16
ATOM     16  C   UNL A   1      33.968  23.519  25.381  1.00  0.00     0.033 C 
ATOM     17  C   UNL A   1      34.467  22.321  25.038  1.00  0.00     0.084 C 
ATOM     18  S   UNL A   1      36.166  22.029  24.938  1.00  0.00    -0.022 SA
ATOM     19  C   UNL A   1      33.732  21.045  24.807  1.00  0.00     0.272 C 
ATOM     20  C   UNL A   1      35.955  20.285  24.917  1.00  0.00     0.298 C 
ATOM     21  N   UNL A   1      34.611  19.965  24.877  1.00  0.00    -0.236 N 
ATOM     22  O   UNL A   1      32.523  21.016  24.623  1.00  0.00    -0.268 OA
ATOM     23  O   UNL A   1      36.921  19.540  24.851  1.00  0.00    -0.260 OA
BRANCH  21  24
ATOM     24  C   UNL A   1      34.155  18.606  24.924  1.00  0.00     0.053 A 
ATOM     25  C   UNL A   1      34.615  17.645  24.008  1.00  0.00     0.030 A 
ATOM     26  C   UNL A   1      33.166  18.206  25.844  1.00  0.00     0.030 A 
ATOM     27  C   UNL A   1      34.078  16.353  23.979  1.00  0.00     0.041 A 
ATOM     28  C   UNL A   1      32.608  16.923  25.798  1.00  0.00     0.041 A 
ATOM     29  C   UNL A   1      33.066  16.009  24.861  1.00  0.00     0.123 A 
ATOM     30  F   UNL A   1      32.523  14.787  24.803  1.00  0.00    -0.207 F 
ENDBRANCH  21  24
ENDBRANCH  12  16
ENDBRANCH   9  10
ENDBRANCH   8   9
ENDBRANCH   6   8
ENDBRANCH   5   6
ENDBRANCH   4   5
ENDBRANCH   3   4
ENDBRANCH   2   3
ENDBRANCH   1   2
BRANCH   1  31
ATOM     31  C   UNL A   1      34.372  29.004  26.746  1.00  0.00     0.188 C 
BRANCH  31  32
ATOM     32  O   UNL A   1      33.972  30.364  26.668  1.00  0.00    -0.376 OA
BRANCH  32  33
ATOM     33  C   UNL A   1      33.655  31.042  27.875  1.00  0.00     0.202 C 
BRANCH  33  34
ATOM     34  C   UNL A   1      34.688  32.034  28.420  1.00  0.00     0.261 C 
BRANCH  34  35
ATOM     35  O   UNL A   1      36.029  31.511  28.351  1.00  0.00    -0.460 OA
BRANCH  35  36
ATOM     36  C   UNL A   1      36.467  30.836  29.451  1.00  0.00     0.338 C 
ATOM     37  O   UNL A   1      35.788  30.418  30.363  1.00  0.00    -0.246 OA
BRANCH  36  38
ATOM     38  C   UNL A   1      37.894  30.463  29.256  1.00  0.00     0.060 A 
ATOM     39  C   UNL A   1      38.268  29.928  28.014  1.00  0.00     0.016 A 
ATOM     40  C   UNL A   1      38.864  30.702  30.233  1.00  0.00     0.016 A 
ATOM     41  C   UNL A   1      39.605  29.605  27.756  1.00  0.00     0.010 A 
ATOM     42  C   UNL A   1      40.198  30.356  29.982  1.00  0.00     0.010 A 
ATOM     43  C   UNL A   1      40.574  29.782  28.753  1.00  0.00    -0.014 A 
BRANCH  43  44
ATOM     44  C   UNL A   1      41.923  29.175  28.608  1.00  0.00     0.031 A 
ATOM     45  C   UNL A   1      43.115  30.093  28.673  1.00  0.00     0.074 A 
ATOM     46  C   UNL A   1      42.102  27.858  28.391  1.00  0.00     0.049 A 
ATOM     47  N   UNL A   1      44.377  29.832  28.458  1.00  0.00    -0.248 NA
ATOM     48  C   UNL A   1      42.842  31.497  29.025  1.00  0.00     0.031 C 
ATOM     49  C   UNL A   1      41.044  26.850  28.345  1.00  0.00     0.029 A 
ATOM     50  N   UNL A   1      43.253  27.146  28.142  1.00  0.00    -0.354 N 
ATOM     51  C   UNL A   1      45.046  31.037  28.632  1.00  0.00     0.074 A 
ATOM     52  C   UNL A   1      44.052  32.033  28.966  1.00  0.00     0.031 C 
ATOM     53  C   UNL A   1      41.591  25.656  28.047  1.00  0.00     0.029 A 
ATOM     54  C   UNL A   1      43.032  25.818  27.848  1.00  0.00     0.049 A 
ATOM     55  H   UNL A   1      44.151  27.546  28.173  1.00  0.00     0.167 HD
ATOM     56  C   UNL A   1      46.369  31.294  28.521  1.00  0.00     0.037 A 
ATOM     57  C   UNL A   1      43.887  24.861  27.428  1.00  0.00     0.037 A 
ATOM     58  C   UNL A   1      47.363  30.310  28.191  1.00  0.00     0.049 A 
ATOM     59  C   UNL A   1      45.348  25.194  27.231  1.00  0.00     0.074 A 
ATOM     60  C   UNL A   1      48.734  30.474  28.102  1.00  0.00     0.029 A 
ATOM     61  N   UNL A   1      47.095  28.988  27.878  1.00  0.00    -0.354 N 
ATOM     62  N   UNL A   1      45.974  26.326  27.450  1.00  0.00    -0.248 NA
ATOM     63  C   UNL A   1      46.217  24.123  26.719  1.00  0.00     0.031 C 
ATOM     64  C   UNL A   1      49.291  29.263  27.681  1.00  0.00     0.029 A 
ATOM     65  C   UNL A   1      48.271  28.333  27.555  1.00  0.00     0.049 A 
ATOM     66  H   UNL A   1      46.201  28.575  27.884  1.00  0.00     0.167 HD
ATOM     67  C   UNL A   1      47.307  26.097  27.118  1.00  0.00     0.074 A 
ATOM     68  C   UNL A   1      47.404  24.715  26.702  1.00  0.00     0.031 C 
ATOM     69  C   UNL A   1      48.357  26.955  27.149  1.00  0.00     0.037 A 
BRANCH  56  70
ATOM     70  C   UNL A   1      46.826  32.707  28.732  1.00  0.00     0.058 A 
ATOM     71  C   UNL A   1      47.237  33.168  29.991  1.00  0.00     0.135 A 
ATOM     72  C   UNL A   1      46.922  33.588  27.642  1.00  0.00     0.135 A 
ATOM     73  F   UNL A   1      47.141  32.371  31.067  1.00  0.00    -0.206 F 
ATOM     74  C   UNL A   1      47.729  34.457  30.164  1.00  0.00     0.059 A 
ATOM     75  C   UNL A   1      47.430  34.873  27.788  1.00  0.00     0.059 A 
ATOM     76  F   UNL A   1      46.530  33.194  26.420  1.00  0.00    -0.206 F 
ATOM     77  C   UNL A   1      47.829  35.299  29.055  1.00  0.00     0.060 A 
BRANCH  77  78
ATOM     78  S   UNL A   1      48.518  36.951  29.287  1.00  0.00     0.124 S 
ATOM     79  O   UNL A   1      47.739  37.435  30.422  1.00  0.00    -0.237 OA
ATOM     80  O   UNL A   1      49.923  36.667  29.558  1.00  0.00    -0.237 OA
ATOM     81  O   UNL A   1      48.249  37.615  28.015  1.00  0.00    -0.744 OA
ENDBRANCH  77  78
ENDBRANCH  56  70
BRANCH  57  82
ATOM     82  C   UNL A   1      43.390  23.496  27.091  1.00  0.00     0.058 A 
ATOM     83  C   UNL A   1      43.179  22.531  28.088  1.00  0.00     0.135 A 
ATOM     84  C   UNL A   1      43.182  23.111  25.757  1.00  0.00     0.135 A 
ATOM     85  F   UNL A   1      43.383  22.842  29.377  1.00  0.00    -0.206 F 
ATOM     86  C   UNL A   1      42.806  21.227  27.774  1.00  0.00     0.059 A 
ATOM     87  C   UNL A   1      42.784  21.821  25.420  1.00  0.00     0.059 A 
ATOM     88  F   UNL A   1      43.366  23.995  24.766  1.00  0.00    -0.206 F 
ATOM     89  C   UNL A   1      42.615  20.881  26.435  1.00  0.00     0.060 A 
BRANCH  89  90
ATOM     90  S   UNL A   1      42.109  19.193  26.035  1.00  0.00     0.124 S 
ATOM     91  O   UNL A   1      42.511  18.473  27.236  1.00  0.00    -0.237 OA
ATOM     92  O   UNL A   1      40.671  19.344  25.829  1.00  0.00    -0.237 OA
ATOM     93  O   UNL A   1      42.876  18.893  24.829  1.00  0.00    -0.744 OA
ENDBRANCH  89  90
ENDBRANCH  57  82
BRANCH  69  94
ATOM     94  C   UNL A   1      49.707  26.433  26.741  1.00  0.00     0.058 A 
ATOM     95  C   UNL A   1      50.179  26.569  25.426  1.00  0.00     0.135 A 
ATOM     96  C   UNL A   1      50.573  25.867  27.691  1.00  0.00     0.135 A 
ATOM     97  F   UNL A   1      49.390  27.099  24.478  1.00  0.00    -0.206 F 
ATOM     98  C   UNL A   1      51.456  26.151  25.064  1.00  0.00     0.059 A 
ATOM     99  C   UNL A   1      51.862  25.465  27.358  1.00  0.00     0.059 A 
ATOM    100  F   UNL A   1      50.175  25.724  28.966  1.00  0.00    -0.206 F 
ATOM    101  C   UNL A   1      52.292  25.604  26.039  1.00  0.00     0.060 A 
BRANCH 101 102
ATOM    102  S   UNL A   1      53.965  25.113  25.569  1.00  0.00     0.124 S 
ATOM    103  O   UNL A   1      53.712  23.887  24.819  1.00  0.00    -0.237 OA
ATOM    104  O   UNL A   1      54.417  26.256  24.780  1.00  0.00    -0.237 OA
ATOM    105  O   UNL A   1      54.641  24.938  26.851  1.00  0.00    -0.744 OA
ENDBRANCH 101 102
ENDBRANCH  69  94
ENDBRANCH  43  44
ENDBRANCH  36  38
ENDBRANCH  35  36
ENDBRANCH  34  35
ENDBRANCH  33  34
ENDBRANCH  32  33
ENDBRANCH  31  32
ENDBRANCH   1  31
TORSDOF 24
ENDMDL
MODEL 3
REMARK VINA RESULT:     -10.6      6.605     14.131
REMARK SMILES O=C(COc1ccccc1/C=C1/SC(=O)N(c2ccc(F)cc2)C1=O)OCCOCCOCCOC(=O)c1ccc(-c2c3nc(c(-c4c(F)cc(S(=O)(=O)[O-])cc4F)c4ccc([nH]4)c(-c4c(F)cc(S(=O)(=O)[O-])cc4F)c4nc(c(-c5c(F)cc(S(=O)(=O)[O-])cc5F)c5ccc2[nH]5)C=C4)C=C3)cc1
REMARK SMILES IDX 30 1 29 2 28 3 27 4 26 5 2 6 1 7 3 8 4 9 5 10 6 11 10 12
REMARK SMILES IDX 7 13 9 14 8 15 11 16 12 17 13 18 24 19 14 20 16 21 25 22
REMARK SMILES IDX 15 23 17 24 18 25 23 26 19 27 22 28 20 29 21 30 31 31 32 32
REMARK SMILES IDX 33 33 34 34 35 35 36 36 37 37 38 38 39 39 103 40 40 41
REMARK SMILES IDX 102 42 41 43 42 44 43 45 96 46 44 47 101 48 95 49 97 50
REMARK SMILES IDX 45 51 100 52 94 53 93 54 46 56 80 57 59 58 79 59 60 60 63 61
REMARK SMILES IDX 78 62 98 63 61 64 62 65 77 67 99 68 64 69 47 70 48 71 57 72
REMARK SMILES IDX 49 73 50 74 56 75 58 76 51 77 52 78 53 79 54 80 55 81 81 82
REMARK SMILES IDX 82 83 91 84 83 85 84 86 90 87 92 88 85 89 86 90 87 91 88 92
REMARK SMILES IDX 89 93 65 94 66 95 75 96 67 97 68 98 74 99 76 100 69 101
REMARK SMILES IDX 70 102 71 103 72 104 73 105
REMARK H PARENT 97 55 63 66
REMARK Flexibility Score: inf
ROOT
ATOM      1  C   UNL A   1      44.691  20.154  24.864  1.00  0.00     0.188 C 
ENDROOT
BRANCH   1   2
ATOM      2  O   UNL A   1      43.428  19.529  24.690  1.00  0.00    -0.376 OA
BRANCH   2   3
ATOM      3  C   UNL A   1      42.678  19.233  25.860  1.00  0.00     0.202 C 
BRANCH   3   4
ATOM      4  C   UNL A   1      41.608  20.264  26.174  1.00  0.00     0.261 C 
BRANCH   4   5
ATOM      5  O   UNL A   1      41.784  20.699  27.545  1.00  0.00    -0.461 OA
BRANCH   5   6
ATOM      6  C   UNL A   1      41.977  22.007  27.874  1.00  0.00     0.344 C 
ATOM      7  O   UNL A   1      41.183  22.870  27.506  1.00  0.00    -0.248 OA
BRANCH   6   8
ATOM      8  C   UNL A   1      43.163  22.326  28.739  1.00  0.00     0.351 C 
BRANCH   8   9
ATOM      9  O   UNL A   1      43.384  23.731  28.678  1.00  0.00    -0.481 OA
BRANCH   9  10
ATOM     10  C   UNL A   1      43.979  24.225  29.799  1.00  0.00     0.127 A 
ATOM     11  C   UNL A   1      43.914  23.361  30.895  1.00  0.00     0.047 A 
ATOM     12  C   UNL A   1      44.576  25.496  29.900  1.00  0.00     0.018 A 
ATOM     13  C   UNL A   1      44.489  23.726  32.103  1.00  0.00     0.004 A 
ATOM     14  C   UNL A   1      45.152  25.843  31.130  1.00  0.00     0.012 A 
ATOM     15  C   UNL A   1      45.111  24.966  32.220  1.00  0.00     0.001 A 
BRANCH  12  16
ATOM     16  C   UNL A   1      44.747  26.473  28.807  1.00  0.00     0.033 C 
ATOM     17  C   UNL A   1      45.794  26.676  27.991  1.00  0.00     0.084 C 
ATOM     18  S   UNL A   1      45.816  27.951  26.827  1.00  0.00    -0.022 SA
ATOM     19  C   UNL A   1      47.114  25.984  27.992  1.00  0.00     0.272 C 
ATOM     20  C   UNL A   1      47.548  27.809  26.574  1.00  0.00     0.298 C 
ATOM     21  N   UNL A   1      48.052  26.738  27.288  1.00  0.00    -0.236 N 
ATOM     22  O   UNL A   1      47.292  24.923  28.574  1.00  0.00    -0.268 OA
ATOM     23  O   UNL A   1      48.125  28.541  25.783  1.00  0.00    -0.260 OA
BRANCH  21  24
ATOM     24  C   UNL A   1      49.455  26.440  27.315  1.00  0.00     0.053 A 
ATOM     25  C   UNL A   1      50.315  27.045  28.246  1.00  0.00     0.030 A 
ATOM     26  C   UNL A   1      50.032  25.588  26.354  1.00  0.00     0.030 A 
ATOM     27  C   UNL A   1      51.700  26.847  28.192  1.00  0.00     0.041 A 
ATOM     28  C   UNL A   1      51.419  25.411  26.280  1.00  0.00     0.041 A 
ATOM     29  C   UNL A   1      52.241  26.047  27.197  1.00  0.00     0.123 A 
ATOM     30  F   UNL A   1      53.568  25.893  27.120  1.00  0.00    -0.207 F 
ENDBRANCH  21  24
ENDBRANCH  12  16
ENDBRANCH   9  10
ENDBRANCH   8   9
ENDBRANCH   6   8
ENDBRANCH   5   6
ENDBRANCH   4   5
ENDBRANCH   3   4
ENDBRANCH   2   3
ENDBRANCH   1   2
BRANCH   1  31
ATOM     31  C   UNL A   1      45.021  21.440  24.069  1.00  0.00     0.188 C 
BRANCH  31  32
ATOM     32  O   UNL A   1      44.105  22.525  24.093  1.00  0.00    -0.376 OA
BRANCH  32  33
ATOM     33  C   UNL A   1      44.081  23.360  25.242  1.00  0.00     0.202 C 
BRANCH  33  34
ATOM     34  C   UNL A   1      43.780  24.847  25.027  1.00  0.00     0.261 C 
BRANCH  34  35
ATOM     35  O   UNL A   1      43.130  25.438  26.171  1.00  0.00    -0.460 OA
BRANCH  35  36
ATOM     36  C   UNL A   1      41.898  25.975  25.950  1.00  0.00     0.338 C 
ATOM     37  O   UNL A   1      41.160  25.739  25.019  1.00  0.00    -0.246 OA
BRANCH  36  38
ATOM     38  C   UNL A   1      41.472  26.726  27.162  1.00  0.00     0.060 A 
ATOM     39  C   UNL A   1      41.884  28.061  27.284  1.00  0.00     0.016 A 
ATOM     40  C   UNL A   1      40.624  26.166  28.122  1.00  0.00     0.016 A 
ATOM     41  C   UNL A   1      41.474  28.831  28.378  1.00  0.00     0.010 A 
ATOM     42  C   UNL A   1      40.233  26.932  29.229  1.00  0.00     0.010 A 
ATOM     43  C   UNL A   1      40.675  28.260  29.377  1.00  0.00    -0.014 A 
BRANCH  43  44
ATOM     44  C   UNL A   1      40.480  28.957  30.676  1.00  0.00     0.031 A 
ATOM     45  C   UNL A   1      39.413  30.017  30.748  1.00  0.00     0.074 A 
ATOM     46  C   UNL A   1      41.239  28.695  31.757  1.00  0.00     0.049 A 
ATOM     47  N   UNL A   1      39.129  30.844  31.720  1.00  0.00    -0.248 NA
ATOM     48  C   UNL A   1      38.553  30.164  29.561  1.00  0.00     0.031 C 
ATOM     49  C   UNL A   1      42.278  27.670  31.840  1.00  0.00     0.029 A 
ATOM     50  N   UNL A   1      41.264  29.297  32.994  1.00  0.00    -0.354 N 
ATOM     51  C   UNL A   1      38.072  31.619  31.257  1.00  0.00     0.074 A 
ATOM     52  C   UNL A   1      37.766  31.168  29.918  1.00  0.00     0.031 C 
ATOM     53  C   UNL A   1      42.865  27.739  33.051  1.00  0.00     0.029 A 
ATOM     54  C   UNL A   1      42.267  28.834  33.817  1.00  0.00     0.049 A 
ATOM     55  H   UNL A   1      40.625  29.994  33.267  1.00  0.00     0.167 HD
ATOM     56  C   UNL A   1      37.416  32.618  31.889  1.00  0.00     0.037 A 
ATOM     57  C   UNL A   1      42.678  29.272  35.027  1.00  0.00     0.037 A 
ATOM     58  C   UNL A   1      37.712  33.071  33.220  1.00  0.00     0.049 A 
ATOM     59  C   UNL A   1      41.981  30.445  35.676  1.00  0.00     0.074 A 
ATOM     60  C   UNL A   1      37.066  34.048  33.956  1.00  0.00     0.029 A 
ATOM     61  N   UNL A   1      38.747  32.593  34.006  1.00  0.00    -0.354 N 
ATOM     62  N   UNL A   1      40.950  31.134  35.248  1.00  0.00    -0.248 NA
ATOM     63  C   UNL A   1      42.512  30.909  36.968  1.00  0.00     0.031 C 
ATOM     64  C   UNL A   1      37.746  34.201  35.168  1.00  0.00     0.029 A 
ATOM     65  C   UNL A   1      38.784  33.284  35.205  1.00  0.00     0.049 A 
ATOM     66  H   UNL A   1      39.365  31.870  33.751  1.00  0.00     0.167 HD
ATOM     67  C   UNL A   1      40.702  32.097  36.223  1.00  0.00     0.074 A 
ATOM     68  C   UNL A   1      41.676  31.893  37.273  1.00  0.00     0.031 C 
ATOM     69  C   UNL A   1      39.755  33.068  36.246  1.00  0.00     0.037 A 
BRANCH  56  70
ATOM     70  C   UNL A   1      36.320  33.318  31.139  1.00  0.00     0.058 A 
ATOM     71  C   UNL A   1      34.974  33.184  31.507  1.00  0.00     0.135 A 
ATOM     72  C   UNL A   1      36.635  34.192  30.085  1.00  0.00     0.135 A 
ATOM     73  F   UNL A   1      34.623  32.342  32.492  1.00  0.00    -0.206 F 
ATOM     74  C   UNL A   1      33.972  33.893  30.853  1.00  0.00     0.059 A 
ATOM     75  C   UNL A   1      35.652  34.926  29.433  1.00  0.00     0.059 A 
ATOM     76  F   UNL A   1      37.909  34.344  29.691  1.00  0.00    -0.206 F 
ATOM     77  C   UNL A   1      34.322  34.768  29.823  1.00  0.00     0.060 A 
BRANCH  77  78
ATOM     78  S   UNL A   1      33.015  35.720  29.020  1.00  0.00     0.124 S 
ATOM     79  O   UNL A   1      33.779  36.799  28.402  1.00  0.00    -0.237 OA
ATOM     80  O   UNL A   1      32.439  34.745  28.101  1.00  0.00    -0.237 OA
ATOM     81  O   UNL A   1      32.154  36.119  30.130  1.00  0.00    -0.744 OA
ENDBRANCH  77  78
ENDBRANCH  56  70
BRANCH  57  82
ATOM     82  C   UNL A   1      43.857  28.651  35.696  1.00  0.00     0.058 A 
ATOM     83  C   UNL A   1      45.164  29.078  35.415  1.00  0.00     0.135 A 
ATOM     84  C   UNL A   1      43.701  27.571  36.580  1.00  0.00     0.135 A 
ATOM     85  F   UNL A   1      45.369  30.094  34.562  1.00  0.00    -0.206 F 
ATOM     86  C   UNL A   1      46.274  28.442  35.964  1.00  0.00     0.059 A 
ATOM     87  C   UNL A   1      44.794  26.936  37.162  1.00  0.00     0.059 A 
ATOM     88  F   UNL A   1      42.474  27.125  36.886  1.00  0.00    -0.206 F 
ATOM     89  C   UNL A   1      46.078  27.369  36.834  1.00  0.00     0.060 A 
BRANCH  89  90
ATOM     90  S   UNL A   1      47.521  26.561  37.562  1.00  0.00     0.124 S 
ATOM     91  O   UNL A   1      47.271  25.162  37.234  1.00  0.00    -0.237 OA
ATOM     92  O   UNL A   1      48.623  27.199  36.847  1.00  0.00    -0.237 OA
ATOM     93  O   UNL A   1      47.420  26.909  38.976  1.00  0.00    -0.744 OA
ENDBRANCH  89  90
ENDBRANCH  57  82
BRANCH  69  94
ATOM     94  C   UNL A   1      39.705  33.978  37.443  1.00  0.00     0.058 A 
ATOM     95  C   UNL A   1      40.250  35.271  37.404  1.00  0.00     0.135 A 
ATOM     96  C   UNL A   1      39.035  33.585  38.613  1.00  0.00     0.135 A 
ATOM     97  F   UNL A   1      40.905  35.694  36.311  1.00  0.00    -0.206 F 
ATOM     98  C   UNL A   1      40.141  36.138  38.486  1.00  0.00     0.059 A 
ATOM     99  C   UNL A   1      38.892  34.445  39.697  1.00  0.00     0.059 A 
ATOM    100  F   UNL A   1      38.485  32.362  38.699  1.00  0.00    -0.206 F 
ATOM    101  C   UNL A   1      39.456  35.717  39.628  1.00  0.00     0.060 A 
BRANCH 101 102
ATOM    102  S   UNL A   1      39.278  36.871  41.005  1.00  0.00     0.124 S 
ATOM    103  O   UNL A   1      38.477  36.090  41.942  1.00  0.00    -0.237 OA
ATOM    104  O   UNL A   1      40.664  37.106  41.399  1.00  0.00    -0.237 OA
ATOM    105  O   UNL A   1      38.601  38.017  40.404  1.00  0.00    -0.744 OA
ENDBRANCH 101 102
ENDBRANCH  69  94
ENDBRANCH  43  44
ENDBRANCH  36  38
ENDBRANCH  35  36
ENDBRANCH  34  35
ENDBRANCH  33  34
ENDBRANCH  32  33
ENDBRANCH  31  32
ENDBRANCH   1  31
TORSDOF 24
ENDMDL
