MODEL 1
REMARK VINA RESULT:     -10.2      0.000      0.000
REMARK SMILES Cc1cc(C)c2c(=O)n(CCCC(=O)OCCOCCOCCOC(=O)c3ccc(-c4c5nc(c(-c6c(F)cc(S(=O)(=O)[O-])cc6F)c6ccc([nH]6)c(-c6c(F)cc(S(=O)(=O)[O-])cc6F)c6nc(c(-c7c(F)cc(S(=O)(=O)[O-])cc7F)c7ccc4[nH]7)C=C6)C=C5)cc3)sc2n1
REMARK SMILES IDX 19 1 18 2 17 3 16 4 15 5 13 6 14 7 12 8 11 9 10 10 9 11 1 12
REMARK SMILES IDX 2 13 3 14 95 15 4 16 94 17 5 18 6 19 93 20 7 21 8 22 20 23
REMARK SMILES IDX 21 24 22 25 23 26 24 27 25 28 26 29 27 30 28 31 92 32 29 33
REMARK SMILES IDX 91 34 30 35 31 36 32 37 85 38 33 39 90 40 84 41 86 42 34 43
REMARK SMILES IDX 89 44 83 45 82 46 35 48 69 49 48 50 68 51 49 52 52 53 67 54
REMARK SMILES IDX 87 55 50 56 51 57 66 59 88 60 53 61 36 62 37 63 46 64 38 65
REMARK SMILES IDX 39 66 45 67 47 68 40 69 41 70 42 71 43 72 44 73 70 74 71 75
REMARK SMILES IDX 80 76 72 77 73 78 79 79 81 80 74 81 75 82 76 83 77 84 78 85
REMARK SMILES IDX 54 86 55 87 64 88 56 89 57 90 63 91 65 92 58 93 59 94 60 95
REMARK SMILES IDX 61 96 62 97
REMARK H PARENT 86 47 52 58
REMARK Flexibility Score: inf
ROOT
ATOM      1  C   UNL A   1      34.889  33.397  28.382  1.00  0.00     0.188 C 
ENDROOT
BRANCH   1   2
ATOM      2  O   UNL A   1      34.598  32.053  28.705  1.00  0.00    -0.376 OA
BRANCH   2   3
ATOM      3  C   UNL A   1      34.427  31.130  27.640  1.00  0.00     0.202 C 
BRANCH   3   4
ATOM      4  C   UNL A   1      33.033  30.549  27.338  1.00  0.00     0.261 C 
BRANCH   4   5
ATOM      5  O   UNL A   1      33.060  29.281  26.656  1.00  0.00    -0.463 OA
BRANCH   5   6
ATOM      6  C   UNL A   1      31.931  28.538  26.671  1.00  0.00     0.305 C 
ATOM      7  O   UNL A   1      31.482  27.986  27.671  1.00  0.00    -0.252 OA
BRANCH   6   8
ATOM      8  C   UNL A   1      31.179  28.504  25.349  1.00  0.00     0.124 C 
BRANCH   8   9
ATOM      9  C   UNL A   1      30.596  27.226  24.727  1.00  0.00     0.035 C 
BRANCH   9  10
ATOM     10  C   UNL A   1      30.433  25.957  25.569  1.00  0.00     0.139 C 
BRANCH  10  11
ATOM     11  N   UNL A   1      31.406  24.930  25.269  1.00  0.00    -0.262 N 
ATOM     12  C   UNL A   1      36.696  22.678  23.405  1.00  0.00     0.067 C 
ATOM     13  C   UNL A   1      35.425  22.849  24.177  1.00  0.00     0.039 A 
ATOM     14  C   UNL A   1      35.294  22.355  25.485  1.00  0.00     0.027 A 
ATOM     15  N   UNL A   1      34.458  23.560  23.563  1.00  0.00    -0.241 NA
ATOM     16  C   UNL A   1      34.141  22.644  26.233  1.00  0.00    -0.033 A 
ATOM     17  C   UNL A   1      33.382  23.836  24.311  1.00  0.00     0.146 A 
ATOM     18  C   UNL A   1      33.932  22.081  27.603  1.00  0.00     0.045 C 
ATOM     19  C   UNL A   1      33.206  23.472  25.632  1.00  0.00     0.081 A 
ATOM     20  S   UNL A   1      32.007  24.735  23.683  1.00  0.00    -0.035 S 
ATOM     21  C   UNL A   1      32.033  24.147  26.227  1.00  0.00     0.270 A 
ATOM     22  O   UNL A   1      31.751  24.066  27.411  1.00  0.00    -0.268 OA
ENDBRANCH  10  11
ENDBRANCH   9  10
ENDBRANCH   8   9
ENDBRANCH   6   8
ENDBRANCH   5   6
ENDBRANCH   4   5
ENDBRANCH   3   4
ENDBRANCH   2   3
ENDBRANCH   1   2
BRANCH   1  23
ATOM     23  C   UNL A   1      33.740  34.408  28.259  1.00  0.00     0.188 C 
BRANCH  23  24
ATOM     24  O   UNL A   1      32.997  34.793  29.396  1.00  0.00    -0.376 OA
BRANCH  24  25
ATOM     25  C   UNL A   1      33.389  35.700  30.418  1.00  0.00     0.202 C 
BRANCH  25  26
ATOM     26  C   UNL A   1      33.990  35.333  31.771  1.00  0.00     0.261 C 
BRANCH  26  27
ATOM     27  O   UNL A   1      35.172  34.581  31.728  1.00  0.00    -0.460 OA
BRANCH  27  28
ATOM     28  C   UNL A   1      35.010  33.258  31.966  1.00  0.00     0.338 C 
ATOM     29  O   UNL A   1      33.994  32.610  31.890  1.00  0.00    -0.246 OA
BRANCH  28  30
ATOM     30  C   UNL A   1      36.345  32.747  32.300  1.00  0.00     0.060 A 
ATOM     31  C   UNL A   1      37.449  33.449  31.820  1.00  0.00     0.016 A 
ATOM     32  C   UNL A   1      36.456  31.486  32.905  1.00  0.00     0.016 A 
ATOM     33  C   UNL A   1      38.636  32.767  31.705  1.00  0.00     0.010 A 
ATOM     34  C   UNL A   1      37.623  30.797  32.760  1.00  0.00     0.010 A 
ATOM     35  C   UNL A   1      38.658  31.416  32.069  1.00  0.00    -0.014 A 
BRANCH  35  36
ATOM     36  C   UNL A   1      39.823  30.629  31.755  1.00  0.00     0.031 A 
ATOM     37  C   UNL A   1      40.679  30.431  32.938  1.00  0.00     0.074 A 
ATOM     38  C   UNL A   1      39.971  30.080  30.534  1.00  0.00     0.049 A 
ATOM     39  N   UNL A   1      41.814  30.995  33.177  1.00  0.00    -0.248 NA
ATOM     40  C   UNL A   1      40.105  29.728  34.100  1.00  0.00     0.031 C 
ATOM     41  C   UNL A   1      38.997  30.061  29.436  1.00  0.00     0.029 A 
ATOM     42  N   UNL A   1      40.990  29.327  30.042  1.00  0.00    -0.354 N 
ATOM     43  C   UNL A   1      42.223  30.465  34.393  1.00  0.00     0.074 A 
ATOM     44  C   UNL A   1      41.043  29.941  35.022  1.00  0.00     0.031 C 
ATOM     45  C   UNL A   1      39.380  29.150  28.512  1.00  0.00     0.029 A 
ATOM     46  C   UNL A   1      40.676  28.615  28.887  1.00  0.00     0.049 A 
ATOM     47  H   UNL A   1      41.877  29.290  30.467  1.00  0.00     0.167 HD
ATOM     48  C   UNL A   1      43.536  30.181  34.605  1.00  0.00     0.037 A 
ATOM     49  C   UNL A   1      41.413  27.610  28.343  1.00  0.00     0.037 A 
ATOM     50  C   UNL A   1      44.364  30.862  33.640  1.00  0.00     0.049 A 
ATOM     51  C   UNL A   1      42.790  27.761  28.885  1.00  0.00     0.074 A 
ATOM     52  C   UNL A   1      44.598  32.182  33.314  1.00  0.00     0.029 A 
ATOM     53  N   UNL A   1      44.790  30.111  32.571  1.00  0.00    -0.354 N 
ATOM     54  N   UNL A   1      43.571  28.774  28.612  1.00  0.00    -0.248 NA
ATOM     55  C   UNL A   1      43.133  27.024  30.093  1.00  0.00     0.031 C 
ATOM     56  C   UNL A   1      44.805  32.193  31.905  1.00  0.00     0.029 A 
ATOM     57  C   UNL A   1      44.759  30.878  31.438  1.00  0.00     0.049 A 
ATOM     58  H   UNL A   1      45.072  29.169  32.615  1.00  0.00     0.167 HD
ATOM     59  C   UNL A   1      44.212  29.061  29.809  1.00  0.00     0.074 A 
ATOM     60  C   UNL A   1      43.988  27.887  30.649  1.00  0.00     0.031 C 
ATOM     61  C   UNL A   1      44.597  30.340  30.101  1.00  0.00     0.037 A 
BRANCH  48  62
ATOM     62  C   UNL A   1      44.020  28.966  35.362  1.00  0.00     0.058 A 
ATOM     63  C   UNL A   1      44.949  29.148  36.405  1.00  0.00     0.135 A 
ATOM     64  C   UNL A   1      43.837  27.627  34.941  1.00  0.00     0.135 A 
ATOM     65  F   UNL A   1      45.219  30.377  36.873  1.00  0.00    -0.206 F 
ATOM     66  C   UNL A   1      45.683  28.092  36.945  1.00  0.00     0.059 A 
ATOM     67  C   UNL A   1      44.515  26.555  35.504  1.00  0.00     0.059 A 
ATOM     68  F   UNL A   1      43.069  27.291  33.899  1.00  0.00    -0.206 F 
ATOM     69  C   UNL A   1      45.461  26.799  36.482  1.00  0.00     0.060 A 
BRANCH  69  70
ATOM     70  S   UNL A   1      46.448  25.443  37.131  1.00  0.00     0.124 S 
ATOM     71  O   UNL A   1      47.547  25.398  36.174  1.00  0.00    -0.237 OA
ATOM     72  O   UNL A   1      46.778  25.929  38.467  1.00  0.00    -0.237 OA
ATOM     73  O   UNL A   1      45.528  24.310  37.092  1.00  0.00    -0.744 OA
ENDBRANCH  69  70
ENDBRANCH  48  62
BRANCH  49  74
ATOM     74  C   UNL A   1      40.939  26.344  27.707  1.00  0.00     0.058 A 
ATOM     75  C   UNL A   1      41.649  25.761  26.639  1.00  0.00     0.135 A 
ATOM     76  C   UNL A   1      39.960  25.528  28.309  1.00  0.00     0.135 A 
ATOM     77  F   UNL A   1      42.609  26.454  26.008  1.00  0.00    -0.206 F 
ATOM     78  C   UNL A   1      41.450  24.433  26.239  1.00  0.00     0.059 A 
ATOM     79  C   UNL A   1      39.735  24.206  27.919  1.00  0.00     0.059 A 
ATOM     80  F   UNL A   1      39.249  25.955  29.361  1.00  0.00    -0.206 F 
ATOM     81  C   UNL A   1      40.505  23.653  26.906  1.00  0.00     0.060 A 
BRANCH  81  82
ATOM     82  S   UNL A   1      40.373  21.889  26.525  1.00  0.00     0.124 S 
ATOM     83  O   UNL A   1      40.518  21.282  27.844  1.00  0.00    -0.237 OA
ATOM     84  O   UNL A   1      39.046  21.802  25.925  1.00  0.00    -0.237 OA
ATOM     85  O   UNL A   1      41.485  21.657  25.606  1.00  0.00    -0.744 OA
ENDBRANCH  81  82
ENDBRANCH  49  74
BRANCH  61  86
ATOM     86  C   UNL A   1      44.685  31.336  28.972  1.00  0.00     0.058 A 
ATOM     87  C   UNL A   1      45.733  31.410  28.038  1.00  0.00     0.135 A 
ATOM     88  C   UNL A   1      43.553  32.131  28.732  1.00  0.00     0.135 A 
ATOM     89  F   UNL A   1      46.813  30.622  28.147  1.00  0.00    -0.206 F 
ATOM     90  C   UNL A   1      45.661  32.250  26.923  1.00  0.00     0.059 A 
ATOM     91  C   UNL A   1      43.445  32.947  27.612  1.00  0.00     0.059 A 
ATOM     92  F   UNL A   1      42.498  32.065  29.562  1.00  0.00    -0.206 F 
ATOM     93  C   UNL A   1      44.507  33.006  26.712  1.00  0.00     0.060 A 
BRANCH  93  94
ATOM     94  S   UNL A   1      44.365  34.013  25.218  1.00  0.00     0.124 S 
ATOM     95  O   UNL A   1      45.682  34.636  25.142  1.00  0.00    -0.237 OA
ATOM     96  O   UNL A   1      44.075  33.015  24.193  1.00  0.00    -0.237 OA
ATOM     97  O   UNL A   1      43.262  34.921  25.521  1.00  0.00    -0.744 OA
ENDBRANCH  93  94
ENDBRANCH  61  86
ENDBRANCH  35  36
ENDBRANCH  28  30
ENDBRANCH  27  28
ENDBRANCH  26  27
ENDBRANCH  25  26
ENDBRANCH  24  25
ENDBRANCH  23  24
ENDBRANCH   1  23
TORSDOF 23
ENDMDL
MODEL 2
REMARK VINA RESULT:     -10.1      4.144     12.084
REMARK SMILES Cc1cc(C)c2c(=O)n(CCCC(=O)OCCOCCOCCOC(=O)c3ccc(-c4c5nc(c(-c6c(F)cc(S(=O)(=O)[O-])cc6F)c6ccc([nH]6)c(-c6c(F)cc(S(=O)(=O)[O-])cc6F)c6nc(c(-c7c(F)cc(S(=O)(=O)[O-])cc7F)c7ccc4[nH]7)C=C6)C=C5)cc3)sc2n1
REMARK SMILES IDX 19 1 18 2 17 3 16 4 15 5 13 6 14 7 12 8 11 9 10 10 9 11 1 12
REMARK SMILES IDX 2 13 3 14 95 15 4 16 94 17 5 18 6 19 93 20 7 21 8 22 20 23
REMARK SMILES IDX 21 24 22 25 23 26 24 27 25 28 26 29 27 30 28 31 92 32 29 33
REMARK SMILES IDX 91 34 30 35 31 36 32 37 85 38 33 39 90 40 84 41 86 42 34 43
REMARK SMILES IDX 89 44 83 45 82 46 35 48 69 49 48 50 68 51 49 52 52 53 67 54
REMARK SMILES IDX 87 55 50 56 51 57 66 59 88 60 53 61 36 62 37 63 46 64 38 65
REMARK SMILES IDX 39 66 45 67 47 68 40 69 41 70 42 71 43 72 44 73 70 74 71 75
REMARK SMILES IDX 80 76 72 77 73 78 79 79 81 80 74 81 75 82 76 83 77 84 78 85
REMARK SMILES IDX 54 86 55 87 64 88 56 89 57 90 63 91 65 92 58 93 59 94 60 95
REMARK SMILES IDX 61 96 62 97
REMARK H PARENT 86 47 52 58
REMARK Flexibility Score: inf
ROOT
ATOM      1  C   UNL A   1      44.104  18.259  25.847  1.00  0.00     0.188 C 
ENDROOT
BRANCH   1   2
ATOM      2  O   UNL A   1      44.597  18.341  24.525  1.00  0.00    -0.376 OA
BRANCH   2   3
ATOM      3  C   UNL A   1      45.373  19.475  24.169  1.00  0.00     0.202 C 
BRANCH   3   4
ATOM      4  C   UNL A   1      45.546  20.637  25.164  1.00  0.00     0.261 C 
BRANCH   4   5
ATOM      5  O   UNL A   1      45.897  21.891  24.549  1.00  0.00    -0.463 OA
BRANCH   5   6
ATOM      6  C   UNL A   1      46.080  22.957  25.360  1.00  0.00     0.305 C 
ATOM      7  O   UNL A   1      46.445  22.879  26.530  1.00  0.00    -0.252 OA
BRANCH   6   8
ATOM      8  C   UNL A   1      45.887  24.305  24.685  1.00  0.00     0.124 C 
BRANCH   8   9
ATOM      9  C   UNL A   1      45.704  25.628  25.446  1.00  0.00     0.035 C 
BRANCH   9  10
ATOM     10  C   UNL A   1      46.870  26.243  26.225  1.00  0.00     0.139 C 
BRANCH  10  11
ATOM     11  N   UNL A   1      48.094  26.341  25.460  1.00  0.00    -0.262 N 
ATOM     12  C   UNL A   1      52.783  29.100  22.828  1.00  0.00     0.067 C 
ATOM     13  C   UNL A   1      51.970  28.068  23.545  1.00  0.00     0.039 A 
ATOM     14  C   UNL A   1      52.571  27.133  24.403  1.00  0.00     0.027 A 
ATOM     15  N   UNL A   1      50.636  28.145  23.366  1.00  0.00    -0.241 NA
ATOM     16  C   UNL A   1      51.773  26.262  25.164  1.00  0.00    -0.033 A 
ATOM     17  C   UNL A   1      49.904  27.316  24.121  1.00  0.00     0.146 A 
ATOM     18  C   UNL A   1      52.375  25.207  26.037  1.00  0.00     0.045 C 
ATOM     19  C   UNL A   1      50.402  26.429  25.057  1.00  0.00     0.081 A 
ATOM     20  S   UNL A   1      48.150  27.254  24.018  1.00  0.00    -0.035 S 
ATOM     21  C   UNL A   1      49.321  25.856  25.887  1.00  0.00     0.270 A 
ATOM     22  O   UNL A   1      49.534  25.137  26.849  1.00  0.00    -0.268 OA
ENDBRANCH  10  11
ENDBRANCH   9  10
ENDBRANCH   8   9
ENDBRANCH   6   8
ENDBRANCH   5   6
ENDBRANCH   4   5
ENDBRANCH   3   4
ENDBRANCH   2   3
ENDBRANCH   1   2
BRANCH   1  23
ATOM     23  C   UNL A   1      42.639  18.620  26.129  1.00  0.00     0.188 C 
BRANCH  23  24
ATOM     24  O   UNL A   1      42.273  19.244  27.340  1.00  0.00    -0.376 OA
BRANCH  24  25
ATOM     25  C   UNL A   1      41.102  20.007  27.600  1.00  0.00     0.202 C 
BRANCH  25  26
ATOM     26  C   UNL A   1      40.407  20.956  26.629  1.00  0.00     0.261 C 
BRANCH  26  27
ATOM     27  O   UNL A   1      40.879  22.275  26.623  1.00  0.00    -0.460 OA
BRANCH  27  28
ATOM     28  C   UNL A   1      42.019  22.465  25.918  1.00  0.00     0.338 C 
ATOM     29  O   UNL A   1      42.490  21.755  25.063  1.00  0.00    -0.246 OA
BRANCH  28  30
ATOM     30  C   UNL A   1      42.560  23.751  26.375  1.00  0.00     0.060 A 
ATOM     31  C   UNL A   1      43.215  23.781  27.606  1.00  0.00     0.016 A 
ATOM     32  C   UNL A   1      42.228  24.916  25.668  1.00  0.00     0.016 A 
ATOM     33  C   UNL A   1      43.298  24.990  28.254  1.00  0.00     0.010 A 
ATOM     34  C   UNL A   1      42.277  26.111  26.324  1.00  0.00     0.010 A 
ATOM     35  C   UNL A   1      42.715  26.105  27.643  1.00  0.00    -0.014 A 
BRANCH  35  36
ATOM     36  C   UNL A   1      42.598  27.329  28.396  1.00  0.00     0.031 A 
ATOM     37  C   UNL A   1      43.761  28.209  28.187  1.00  0.00     0.074 A 
ATOM     38  C   UNL A   1      41.474  27.605  29.083  1.00  0.00     0.049 A 
ATOM     39  N   UNL A   1      44.716  28.443  29.022  1.00  0.00    -0.248 NA
ATOM     40  C   UNL A   1      44.035  28.683  26.818  1.00  0.00     0.031 C 
ATOM     41  C   UNL A   1      40.214  26.850  29.083  1.00  0.00     0.029 A 
ATOM     42  N   UNL A   1      41.175  28.682  29.856  1.00  0.00    -0.354 N 
ATOM     43  C   UNL A   1      45.544  29.344  28.368  1.00  0.00     0.074 A 
ATOM     44  C   UNL A   1      45.243  29.228  26.969  1.00  0.00     0.031 C 
ATOM     45  C   UNL A   1      39.236  27.609  29.628  1.00  0.00     0.029 A 
ATOM     46  C   UNL A   1      39.818  28.843  30.124  1.00  0.00     0.049 A 
ATOM     47  H   UNL A   1      41.863  29.297  30.200  1.00  0.00     0.167 HD
ATOM     48  C   UNL A   1      46.136  30.353  29.062  1.00  0.00     0.037 A 
ATOM     49  C   UNL A   1      39.233  29.954  30.648  1.00  0.00     0.037 A 
ATOM     50  C   UNL A   1      46.110  30.077  30.477  1.00  0.00     0.049 A 
ATOM     51  C   UNL A   1      40.316  30.717  31.325  1.00  0.00     0.074 A 
ATOM     52  C   UNL A   1      46.622  29.085  31.288  1.00  0.00     0.029 A 
ATOM     53  N   UNL A   1      45.121  30.703  31.197  1.00  0.00    -0.354 N 
ATOM     54  N   UNL A   1      40.953  30.289  32.383  1.00  0.00    -0.248 NA
ATOM     55  C   UNL A   1      41.007  31.745  30.560  1.00  0.00     0.031 C 
ATOM     56  C   UNL A   1      45.660  28.909  32.322  1.00  0.00     0.029 A 
ATOM     57  C   UNL A   1      44.637  29.843  32.144  1.00  0.00     0.049 A 
ATOM     58  H   UNL A   1      44.810  31.626  31.053  1.00  0.00     0.167 HD
ATOM     59  C   UNL A   1      42.274  30.661  32.177  1.00  0.00     0.074 A 
ATOM     60  C   UNL A   1      42.225  31.646  31.099  1.00  0.00     0.031 C 
ATOM     61  C   UNL A   1      43.295  29.912  32.691  1.00  0.00     0.037 A 
BRANCH  48  62
ATOM     62  C   UNL A   1      46.313  31.753  28.520  1.00  0.00     0.058 A 
ATOM     63  C   UNL A   1      45.182  32.435  28.032  1.00  0.00     0.135 A 
ATOM     64  C   UNL A   1      47.560  32.343  28.202  1.00  0.00     0.135 A 
ATOM     65  F   UNL A   1      43.947  31.957  28.254  1.00  0.00    -0.206 F 
ATOM     66  C   UNL A   1      45.282  33.578  27.238  1.00  0.00     0.059 A 
ATOM     67  C   UNL A   1      47.680  33.511  27.464  1.00  0.00     0.059 A 
ATOM     68  F   UNL A   1      48.732  31.773  28.503  1.00  0.00    -0.206 F 
ATOM     69  C   UNL A   1      46.539  34.105  26.956  1.00  0.00     0.060 A 
BRANCH  69  70
ATOM     70  S   UNL A   1      46.677  35.542  25.885  1.00  0.00     0.124 S 
ATOM     71  O   UNL A   1      45.722  36.456  26.499  1.00  0.00    -0.237 OA
ATOM     72  O   UNL A   1      48.087  35.890  26.035  1.00  0.00    -0.237 OA
ATOM     73  O   UNL A   1      46.302  35.021  24.574  1.00  0.00    -0.744 OA
ENDBRANCH  69  70
ENDBRANCH  48  62
BRANCH  49  74
ATOM     74  C   UNL A   1      37.921  30.573  30.292  1.00  0.00     0.058 A 
ATOM     75  C   UNL A   1      37.116  31.180  31.276  1.00  0.00     0.135 A 
ATOM     76  C   UNL A   1      37.562  30.844  28.955  1.00  0.00     0.135 A 
ATOM     77  F   UNL A   1      37.383  30.991  32.577  1.00  0.00    -0.206 F 
ATOM     78  C   UNL A   1      36.067  32.053  30.957  1.00  0.00     0.059 A 
ATOM     79  C   UNL A   1      36.514  31.702  28.614  1.00  0.00     0.059 A 
ATOM     80  F   UNL A   1      38.277  30.359  27.931  1.00  0.00    -0.206 F 
ATOM     81  C   UNL A   1      35.790  32.329  29.619  1.00  0.00     0.060 A 
BRANCH  81  82
ATOM     82  S   UNL A   1      34.567  33.595  29.201  1.00  0.00     0.124 S 
ATOM     83  O   UNL A   1      35.412  34.698  28.756  1.00  0.00    -0.237 OA
ATOM     84  O   UNL A   1      33.782  32.934  28.164  1.00  0.00    -0.237 OA
ATOM     85  O   UNL A   1      33.865  33.817  30.463  1.00  0.00    -0.744 OA
ENDBRANCH  81  82
ENDBRANCH  49  74
BRANCH  61  86
ATOM     86  C   UNL A   1      42.980  28.934  33.795  1.00  0.00     0.058 A 
ATOM     87  C   UNL A   1      42.779  29.275  35.144  1.00  0.00     0.135 A 
ATOM     88  C   UNL A   1      42.692  27.614  33.417  1.00  0.00     0.135 A 
ATOM     89  F   UNL A   1      42.948  30.536  35.571  1.00  0.00    -0.206 F 
ATOM     90  C   UNL A   1      42.326  28.336  36.076  1.00  0.00     0.059 A 
ATOM     91  C   UNL A   1      42.207  26.674  34.319  1.00  0.00     0.059 A 
ATOM     92  F   UNL A   1      42.815  27.242  32.131  1.00  0.00    -0.206 F 
ATOM     93  C   UNL A   1      42.031  27.040  35.650  1.00  0.00     0.060 A 
BRANCH  93  94
ATOM     94  S   UNL A   1      41.346  25.853  36.828  1.00  0.00     0.124 S 
ATOM     95  O   UNL A   1      42.549  25.288  37.430  1.00  0.00    -0.237 OA
ATOM     96  O   UNL A   1      40.540  26.704  37.699  1.00  0.00    -0.237 OA
ATOM     97  O   UNL A   1      40.581  24.938  35.985  1.00  0.00    -0.744 OA
ENDBRANCH  93  94
ENDBRANCH  61  86
ENDBRANCH  35  36
ENDBRANCH  28  30
ENDBRANCH  27  28
ENDBRANCH  26  27
ENDBRANCH  25  26
ENDBRANCH  24  25
ENDBRANCH  23  24
ENDBRANCH   1  23
TORSDOF 23
ENDMDL
MODEL 3
REMARK VINA RESULT:     -10.0      2.396      3.042
REMARK SMILES Cc1cc(C)c2c(=O)n(CCCC(=O)OCCOCCOCCOC(=O)c3ccc(-c4c5nc(c(-c6c(F)cc(S(=O)(=O)[O-])cc6F)c6ccc([nH]6)c(-c6c(F)cc(S(=O)(=O)[O-])cc6F)c6nc(c(-c7c(F)cc(S(=O)(=O)[O-])cc7F)c7ccc4[nH]7)C=C6)C=C5)cc3)sc2n1
REMARK SMILES IDX 19 1 18 2 17 3 16 4 15 5 13 6 14 7 12 8 11 9 10 10 9 11 1 12
REMARK SMILES IDX 2 13 3 14 95 15 4 16 94 17 5 18 6 19 93 20 7 21 8 22 20 23
REMARK SMILES IDX 21 24 22 25 23 26 24 27 25 28 26 29 27 30 28 31 92 32 29 33
REMARK SMILES IDX 91 34 30 35 31 36 32 37 85 38 33 39 90 40 84 41 86 42 34 43
REMARK SMILES IDX 89 44 83 45 82 46 35 48 69 49 48 50 68 51 49 52 52 53 67 54
REMARK SMILES IDX 87 55 50 56 51 57 66 59 88 60 53 61 36 62 37 63 46 64 38 65
REMARK SMILES IDX 39 66 45 67 47 68 40 69 41 70 42 71 43 72 44 73 70 74 71 75
REMARK SMILES IDX 80 76 72 77 73 78 79 79 81 80 74 81 75 82 76 83 77 84 78 85
REMARK SMILES IDX 54 86 55 87 64 88 56 89 57 90 63 91 65 92 58 93 59 94 60 95
REMARK SMILES IDX 61 96 62 97
REMARK H PARENT 86 47 52 58
REMARK Flexibility Score: inf
ROOT
ATOM      1  C   UNL A   1      34.677  32.031  28.092  1.00  0.00     0.188 C 
ENDROOT
BRANCH   1   2
ATOM      2  O   UNL A   1      34.009  31.017  27.369  1.00  0.00    -0.376 OA
BRANCH   2   3
ATOM      3  C   UNL A   1      34.644  29.754  27.244  1.00  0.00     0.202 C 
BRANCH   3   4
ATOM      4  C   UNL A   1      33.901  28.576  26.588  1.00  0.00     0.261 C 
BRANCH   4   5
ATOM      5  O   UNL A   1      33.229  28.915  25.360  1.00  0.00    -0.463 OA
BRANCH   5   6
ATOM      6  C   UNL A   1      31.902  29.166  25.421  1.00  0.00     0.305 C 
ATOM      7  O   UNL A   1      31.405  30.108  26.031  1.00  0.00    -0.252 OA
BRANCH   6   8
ATOM      8  C   UNL A   1      31.043  28.230  24.585  1.00  0.00     0.124 C 
BRANCH   8   9
ATOM      9  C   UNL A   1      31.223  26.705  24.548  1.00  0.00     0.035 C 
BRANCH   9  10
ATOM     10  C   UNL A   1      31.288  25.963  23.210  1.00  0.00     0.139 C 
BRANCH  10  11
ATOM     11  N   UNL A   1      32.178  24.822  23.219  1.00  0.00    -0.262 N 
ATOM     12  C   UNL A   1      37.122  21.657  24.659  1.00  0.00     0.067 C 
ATOM     13  C   UNL A   1      35.698  21.986  24.333  1.00  0.00     0.039 A 
ATOM     14  C   UNL A   1      34.641  21.177  24.780  1.00  0.00     0.027 A 
ATOM     15  N   UNL A   1      35.504  23.133  23.651  1.00  0.00    -0.241 NA
ATOM     16  C   UNL A   1      33.312  21.579  24.572  1.00  0.00    -0.033 A 
ATOM     17  C   UNL A   1      34.226  23.498  23.489  1.00  0.00     0.146 A 
ATOM     18  C   UNL A   1      32.158  20.715  24.972  1.00  0.00     0.045 C 
ATOM     19  C   UNL A   1      33.127  22.815  23.973  1.00  0.00     0.081 A 
ATOM     20  S   UNL A   1      33.768  24.951  22.611  1.00  0.00    -0.035 S 
ATOM     21  C   UNL A   1      31.891  23.616  23.840  1.00  0.00     0.270 A 
ATOM     22  O   UNL A   1      30.819  23.262  24.302  1.00  0.00    -0.268 OA
ENDBRANCH  10  11
ENDBRANCH   9  10
ENDBRANCH   8   9
ENDBRANCH   6   8
ENDBRANCH   5   6
ENDBRANCH   4   5
ENDBRANCH   3   4
ENDBRANCH   2   3
ENDBRANCH   1   2
BRANCH   1  23
ATOM     23  C   UNL A   1      34.183  33.481  27.989  1.00  0.00     0.188 C 
BRANCH  23  24
ATOM     24  O   UNL A   1      33.620  34.129  29.109  1.00  0.00    -0.376 OA
BRANCH  24  25
ATOM     25  C   UNL A   1      33.547  35.528  29.350  1.00  0.00     0.202 C 
BRANCH  25  26
ATOM     26  C   UNL A   1      32.922  36.204  30.566  1.00  0.00     0.261 C 
BRANCH  26  27
ATOM     27  O   UNL A   1      33.630  36.071  31.768  1.00  0.00    -0.460 OA
BRANCH  27  28
ATOM     28  C   UNL A   1      33.182  35.087  32.583  1.00  0.00     0.338 C 
ATOM     29  O   UNL A   1      32.041  34.836  32.885  1.00  0.00    -0.246 OA
BRANCH  28  30
ATOM     30  C   UNL A   1      34.376  34.343  33.001  1.00  0.00     0.060 A 
ATOM     31  C   UNL A   1      35.480  35.074  33.437  1.00  0.00     0.016 A 
ATOM     32  C   UNL A   1      34.433  32.962  32.760  1.00  0.00     0.016 A 
ATOM     33  C   UNL A   1      36.711  34.468  33.374  1.00  0.00     0.010 A 
ATOM     34  C   UNL A   1      35.658  32.369  32.664  1.00  0.00     0.010 A 
ATOM     35  C   UNL A   1      36.778  33.164  32.872  1.00  0.00    -0.014 A 
BRANCH  35  36
ATOM     36  C   UNL A   1      38.071  32.591  32.593  1.00  0.00     0.031 A 
ATOM     37  C   UNL A   1      38.893  32.487  33.812  1.00  0.00     0.074 A 
ATOM     38  C   UNL A   1      38.363  32.124  31.365  1.00  0.00     0.049 A 
ATOM     39  N   UNL A   1      39.906  33.219  34.128  1.00  0.00    -0.248 NA
ATOM     40  C   UNL A   1      38.389  31.654  34.919  1.00  0.00     0.031 C 
ATOM     41  C   UNL A   1      37.456  31.990  30.217  1.00  0.00     0.029 A 
ATOM     42  N   UNL A   1      39.513  31.568  30.901  1.00  0.00    -0.354 N 
ATOM     43  C   UNL A   1      40.341  32.714  35.345  1.00  0.00     0.074 A 
ATOM     44  C   UNL A   1      39.237  31.979  35.895  1.00  0.00     0.031 C 
ATOM     45  C   UNL A   1      38.026  31.192  29.285  1.00  0.00     0.029 A 
ATOM     46  C   UNL A   1      39.375  30.861  29.709  1.00  0.00     0.049 A 
ATOM     47  H   UNL A   1      40.374  31.659  31.370  1.00  0.00     0.167 HD
ATOM     48  C   UNL A   1      41.672  32.640  35.616  1.00  0.00     0.037 A 
ATOM     49  C   UNL A   1      40.292  30.013  29.172  1.00  0.00     0.037 A 
ATOM     50  C   UNL A   1      42.419  33.485  34.717  1.00  0.00     0.049 A 
ATOM     51  C   UNL A   1      41.598  30.365  29.789  1.00  0.00     0.074 A 
ATOM     52  C   UNL A   1      42.447  34.838  34.447  1.00  0.00     0.029 A 
ATOM     53  N   UNL A   1      43.012  32.858  33.648  1.00  0.00    -0.354 N 
ATOM     54  N   UNL A   1      42.213  31.501  29.590  1.00  0.00    -0.248 NA
ATOM     55  C   UNL A   1      42.003  29.645  30.989  1.00  0.00     0.031 C 
ATOM     56  C   UNL A   1      42.714  34.939  33.052  1.00  0.00     0.029 A 
ATOM     57  C   UNL A   1      42.908  33.654  32.541  1.00  0.00     0.049 A 
ATOM     58  H   UNL A   1      43.444  31.973  33.676  1.00  0.00     0.167 HD
ATOM     59  C   UNL A   1      42.742  31.841  30.827  1.00  0.00     0.074 A 
ATOM     60  C   UNL A   1      42.677  30.613  31.616  1.00  0.00     0.031 C 
ATOM     61  C   UNL A   1      42.898  33.151  31.181  1.00  0.00     0.037 A 
BRANCH  48  62
ATOM     62  C   UNL A   1      42.315  31.490  36.357  1.00  0.00     0.058 A 
ATOM     63  C   UNL A   1      43.207  31.780  37.408  1.00  0.00     0.135 A 
ATOM     64  C   UNL A   1      42.317  30.145  35.914  1.00  0.00     0.135 A 
ATOM     65  F   UNL A   1      43.305  33.027  37.895  1.00  0.00    -0.206 F 
ATOM     66  C   UNL A   1      44.077  30.826  37.935  1.00  0.00     0.059 A 
ATOM     67  C   UNL A   1      43.133  29.167  36.465  1.00  0.00     0.059 A 
ATOM     68  F   UNL A   1      41.605  29.724  34.864  1.00  0.00    -0.206 F 
ATOM     69  C   UNL A   1      44.034  29.522  37.452  1.00  0.00     0.060 A 
BRANCH  69  70
ATOM     70  S   UNL A   1      45.194  28.303  38.085  1.00  0.00     0.124 S 
ATOM     71  O   UNL A   1      44.594  27.059  37.618  1.00  0.00    -0.237 OA
ATOM     72  O   UNL A   1      46.435  28.704  37.429  1.00  0.00    -0.237 OA
ATOM     73  O   UNL A   1      45.156  28.522  39.528  1.00  0.00    -0.744 OA
ENDBRANCH  69  70
ENDBRANCH  48  62
BRANCH  49  74
ATOM     74  C   UNL A   1      40.062  28.713  28.471  1.00  0.00     0.058 A 
ATOM     75  C   UNL A   1      40.707  28.424  27.252  1.00  0.00     0.135 A 
ATOM     76  C   UNL A   1      39.447  27.618  29.112  1.00  0.00     0.135 A 
ATOM     77  F   UNL A   1      41.332  29.398  26.572  1.00  0.00    -0.206 F 
ATOM     78  C   UNL A   1      40.795  27.124  26.737  1.00  0.00     0.059 A 
ATOM     79  C   UNL A   1      39.511  26.317  28.611  1.00  0.00     0.059 A 
ATOM     80  F   UNL A   1      38.838  27.759  30.297  1.00  0.00    -0.206 F 
ATOM     81  C   UNL A   1      40.214  26.070  27.440  1.00  0.00     0.060 A 
BRANCH  81  82
ATOM     82  S   UNL A   1      40.483  24.369  26.885  1.00  0.00     0.124 S 
ATOM     83  O   UNL A   1      40.981  23.728  28.097  1.00  0.00    -0.237 OA
ATOM     84  O   UNL A   1      39.147  23.971  26.455  1.00  0.00    -0.237 OA
ATOM     85  O   UNL A   1      41.463  24.515  25.810  1.00  0.00    -0.744 OA
ENDBRANCH  81  82
ENDBRANCH  49  74
BRANCH  61  86
ATOM     86  C   UNL A   1      42.871  34.194  30.091  1.00  0.00     0.058 A 
ATOM     87  C   UNL A   1      41.711  34.807  29.585  1.00  0.00     0.135 A 
ATOM     88  C   UNL A   1      44.106  34.717  29.677  1.00  0.00     0.135 A 
ATOM     89  F   UNL A   1      40.493  34.424  29.995  1.00  0.00    -0.206 F 
ATOM     90  C   UNL A   1      41.781  35.883  28.695  1.00  0.00     0.059 A 
ATOM     91  C   UNL A   1      44.199  35.808  28.820  1.00  0.00     0.059 A 
ATOM     92  F   UNL A   1      45.249  34.207  30.166  1.00  0.00    -0.206 F 
ATOM     93  C   UNL A   1      43.031  36.384  28.328  1.00  0.00     0.060 A 
BRANCH  93  94
ATOM     94  S   UNL A   1      43.124  37.840  27.262  1.00  0.00     0.124 S 
ATOM     95  O   UNL A   1      43.043  38.932  28.225  1.00  0.00    -0.237 OA
ATOM     96  O   UNL A   1      44.418  37.668  26.607  1.00  0.00    -0.237 OA
ATOM     97  O   UNL A   1      41.967  37.695  26.382  1.00  0.00    -0.744 OA
ENDBRANCH  93  94
ENDBRANCH  61  86
ENDBRANCH  35  36
ENDBRANCH  28  30
ENDBRANCH  27  28
ENDBRANCH  26  27
ENDBRANCH  25  26
ENDBRANCH  24  25
ENDBRANCH  23  24
ENDBRANCH   1  23
TORSDOF 23
ENDMDL
