MODEL 1
REMARK VINA RESULT:      -8.9      0.000      0.000
REMARK SMILES COCC[NH2+]CC(=O)N1C[C@H](OC)C[C@@H]1C(=O)OCCOCCOCCOC(=O)c1ccc(-c2c3nc(c(-c4c(F)cc(S(=O)(=O)[O-])cc4F)c4ccc([nH]4)c(-c4c(F)cc(S(=O)(=O)[O-])cc4F)c4nc(c(-c5c(F)cc(S(=O)(=O)[O-])cc5F)c5ccc2[nH]5)C=C4)C=C3)cc1
REMARK SMILES IDX 21 1 20 2 19 3 18 4 16 5 17 6 15 7 9 8 10 9 11 10 14 11 7 12
REMARK SMILES IDX 8 13 6 14 5 15 4 18 3 19 2 20 1 21 12 22 13 23 22 24 23 25
REMARK SMILES IDX 24 26 25 27 26 28 27 29 28 30 29 31 30 32 31 33 95 34 32 35
REMARK SMILES IDX 94 36 33 37 34 38 35 39 88 40 36 41 93 42 87 43 89 44 37 45
REMARK SMILES IDX 92 46 86 47 85 48 38 50 72 51 51 52 71 53 52 54 55 55 70 56
REMARK SMILES IDX 90 57 53 58 54 59 69 61 91 62 56 63 39 64 40 65 49 66 41 67
REMARK SMILES IDX 42 68 48 69 50 70 43 71 44 72 45 73 46 74 47 75 73 76 74 77
REMARK SMILES IDX 83 78 75 79 76 80 82 81 84 82 77 83 78 84 79 85 80 86 81 87
REMARK SMILES IDX 57 88 58 89 67 90 59 91 60 92 66 93 68 94 61 95 62 96 63 97
REMARK SMILES IDX 64 98 65 99
REMARK H PARENT 5 16 5 17 89 49 55 60
REMARK Flexibility Score: inf
ROOT
ATOM      1  O   UNL A   1      35.374  22.227  24.005  1.00  0.00    -0.376 OA
ENDROOT
BRANCH   1   2
ATOM      2  C   UNL A   1      35.263  23.645  24.123  1.00  0.00     0.202 C 
BRANCH   2   3
ATOM      3  C   UNL A   1      33.884  24.268  24.398  1.00  0.00     0.261 C 
BRANCH   3   4
ATOM      4  O   UNL A   1      33.804  25.676  24.086  1.00  0.00    -0.462 OA
BRANCH   4   5
ATOM      5  C   UNL A   1      33.270  25.985  22.883  1.00  0.00     0.329 C 
ATOM      6  O   UNL A   1      33.932  26.089  21.853  1.00  0.00    -0.250 OA
BRANCH   5   7
ATOM      7  C   UNL A   1      31.746  26.203  22.888  1.00  0.00     0.198 C 
ATOM      8  N   UNL A   1      31.353  27.335  23.718  1.00  0.00    -0.321 N 
ATOM      9  C   UNL A   1      29.945  27.165  24.040  1.00  0.00     0.152 C 
ATOM     10  C   UNL A   1      29.876  25.695  24.405  1.00  0.00     0.140 C 
ATOM     11  C   UNL A   1      30.779  25.079  23.345  1.00  0.00     0.071 C 
BRANCH   8  12
ATOM     12  C   UNL A   1      31.934  28.584  23.535  1.00  0.00     0.278 C 
ATOM     13  O   UNL A   1      32.376  28.973  22.460  1.00  0.00    -0.268 OA
BRANCH  12  14
ATOM     14  C   UNL A   1      31.707  29.517  24.761  1.00  0.00     0.362 C 
BRANCH  14  15
ATOM     15  N   UNL A   1      32.997  30.022  25.332  1.00  0.00    -0.337 N 
ATOM     16  H   UNL A   1      33.673  29.260  25.368  1.00  0.00     0.346 HD
ATOM     17  H   UNL A   1      33.356  30.772  24.743  1.00  0.00     0.346 HD
BRANCH  15  18
ATOM     18  C   UNL A   1      32.771  30.539  26.693  1.00  0.00     0.289 C 
BRANCH  18  19
ATOM     19  C   UNL A   1      33.971  30.898  27.573  1.00  0.00     0.221 C 
BRANCH  19  20
ATOM     20  O   UNL A   1      34.794  29.766  27.890  1.00  0.00    -0.379 OA
ATOM     21  C   UNL A   1      36.065  29.771  27.255  1.00  0.00     0.195 C 
ENDBRANCH  19  20
ENDBRANCH  18  19
ENDBRANCH  15  18
ENDBRANCH  14  15
ENDBRANCH  12  14
ENDBRANCH   8  12
BRANCH  10  22
ATOM     22  O   UNL A   1      30.246  25.447  25.770  1.00  0.00    -0.380 OA
ATOM     23  C   UNL A   1      30.719  24.154  26.126  1.00  0.00     0.195 C 
ENDBRANCH  10  22
ENDBRANCH   5   7
ENDBRANCH   4   5
ENDBRANCH   3   4
ENDBRANCH   2   3
ENDBRANCH   1   2
BRANCH   1  24
ATOM     24  C   UNL A   1      35.759  21.470  25.139  1.00  0.00     0.188 C 
BRANCH  24  25
ATOM     25  C   UNL A   1      37.042  20.645  25.057  1.00  0.00     0.188 C 
BRANCH  25  26
ATOM     26  O   UNL A   1      38.241  21.378  24.978  1.00  0.00    -0.376 OA
BRANCH  26  27
ATOM     27  C   UNL A   1      38.541  22.297  26.018  1.00  0.00     0.202 C 
BRANCH  27  28
ATOM     28  C   UNL A   1      39.985  22.423  26.547  1.00  0.00     0.261 C 
BRANCH  28  29
ATOM     29  O   UNL A   1      40.251  23.474  27.494  1.00  0.00    -0.460 OA
BRANCH  29  30
ATOM     30  C   UNL A   1      40.799  24.624  27.018  1.00  0.00     0.338 C 
ATOM     31  O   UNL A   1      41.123  24.848  25.872  1.00  0.00    -0.246 OA
BRANCH  30  32
ATOM     32  C   UNL A   1      40.639  25.660  28.080  1.00  0.00     0.060 A 
ATOM     33  C   UNL A   1      41.689  26.566  28.307  1.00  0.00     0.016 A 
ATOM     34  C   UNL A   1      39.445  25.787  28.792  1.00  0.00     0.016 A 
ATOM     35  C   UNL A   1      41.555  27.586  29.254  1.00  0.00     0.010 A 
ATOM     36  C   UNL A   1      39.325  26.788  29.763  1.00  0.00     0.010 A 
ATOM     37  C   UNL A   1      40.385  27.677  30.019  1.00  0.00    -0.014 A 
BRANCH  37  38
ATOM     38  C   UNL A   1      40.331  28.560  31.213  1.00  0.00     0.031 A 
ATOM     39  C   UNL A   1      39.360  29.710  31.200  1.00  0.00     0.074 A 
ATOM     40  C   UNL A   1      41.128  28.367  32.281  1.00  0.00     0.049 A 
ATOM     41  N   UNL A   1      39.207  30.682  32.061  1.00  0.00    -0.248 NA
ATOM     42  C   UNL A   1      38.442  29.772  30.051  1.00  0.00     0.031 C 
ATOM     43  C   UNL A   1      42.076  27.268  32.446  1.00  0.00     0.029 A 
ATOM     44  N   UNL A   1      41.278  29.114  33.425  1.00  0.00    -0.354 N 
ATOM     45  C   UNL A   1      38.189  31.481  31.550  1.00  0.00     0.074 A 
ATOM     46  C   UNL A   1      37.780  30.892  30.293  1.00  0.00     0.031 C 
ATOM     47  C   UNL A   1      42.726  27.424  33.613  1.00  0.00     0.029 A 
ATOM     48  C   UNL A   1      42.272  28.656  34.258  1.00  0.00     0.049 A 
ATOM     49  H   UNL A   1      40.725  29.903  33.630  1.00  0.00     0.167 HD
ATOM     50  C   UNL A   1      37.645  32.601  32.081  1.00  0.00     0.037 A 
ATOM     51  C   UNL A   1      42.781  29.187  35.390  1.00  0.00     0.037 A 
ATOM     52  C   UNL A   1      38.059  33.186  33.329  1.00  0.00     0.049 A 
ATOM     53  C   UNL A   1      42.215  30.482  35.923  1.00  0.00     0.074 A 
ATOM     54  C   UNL A   1      37.554  34.309  33.960  1.00  0.00     0.029 A 
ATOM     55  N   UNL A   1      39.087  32.707  34.128  1.00  0.00    -0.354 N 
ATOM     56  N   UNL A   1      41.240  31.219  35.443  1.00  0.00    -0.248 NA
ATOM     57  C   UNL A   1      42.822  31.019  37.151  1.00  0.00     0.031 C 
ATOM     58  C   UNL A   1      38.317  34.544  35.109  1.00  0.00     0.029 A 
ATOM     59  C   UNL A   1      39.253  33.530  35.230  1.00  0.00     0.049 A 
ATOM     60  H   UNL A   1      39.619  31.900  33.941  1.00  0.00     0.167 HD
ATOM     61  C   UNL A   1      41.099  32.287  36.324  1.00  0.00     0.074 A 
ATOM     62  C   UNL A   1      42.079  32.097  37.372  1.00  0.00     0.031 C 
ATOM     63  C   UNL A   1      40.231  33.330  36.272  1.00  0.00     0.037 A 
BRANCH  50  64
ATOM     64  C   UNL A   1      36.565  33.290  31.290  1.00  0.00     0.058 A 
ATOM     65  C   UNL A   1      36.846  34.010  30.117  1.00  0.00     0.135 A 
ATOM     66  C   UNL A   1      35.225  33.209  31.702  1.00  0.00     0.135 A 
ATOM     67  F   UNL A   1      38.111  34.137  29.688  1.00  0.00    -0.206 F 
ATOM     68  C   UNL A   1      35.841  34.651  29.401  1.00  0.00     0.059 A 
ATOM     69  C   UNL A   1      34.199  33.816  30.982  1.00  0.00     0.059 A 
ATOM     70  F   UNL A   1      34.900  32.537  32.818  1.00  0.00    -0.206 F 
ATOM     71  C   UNL A   1      34.520  34.548  29.842  1.00  0.00     0.060 A 
BRANCH  71  72
ATOM     72  S   UNL A   1      33.229  35.390  28.900  1.00  0.00     0.124 S 
ATOM     73  O   UNL A   1      34.019  36.296  28.071  1.00  0.00    -0.237 OA
ATOM     74  O   UNL A   1      32.587  34.284  28.197  1.00  0.00    -0.237 OA
ATOM     75  O   UNL A   1      32.419  36.030  29.931  1.00  0.00    -0.744 OA
ENDBRANCH  71  72
ENDBRANCH  50  64
BRANCH  51  76
ATOM     76  C   UNL A   1      43.908  28.510  36.089  1.00  0.00     0.058 A 
ATOM     77  C   UNL A   1      45.236  28.921  35.897  1.00  0.00     0.135 A 
ATOM     78  C   UNL A   1      43.681  27.434  36.963  1.00  0.00     0.135 A 
ATOM     79  F   UNL A   1      45.510  29.930  35.055  1.00  0.00    -0.206 F 
ATOM     80  C   UNL A   1      46.297  28.290  36.540  1.00  0.00     0.059 A 
ATOM     81  C   UNL A   1      44.722  26.805  37.640  1.00  0.00     0.059 A 
ATOM     82  F   UNL A   1      42.430  27.000  37.185  1.00  0.00    -0.206 F 
ATOM     83  C   UNL A   1      46.028  27.236  37.416  1.00  0.00     0.060 A 
BRANCH  83  84
ATOM     84  S   UNL A   1      47.409  26.465  38.291  1.00  0.00     0.124 S 
ATOM     85  O   UNL A   1      46.779  26.075  39.547  1.00  0.00    -0.237 OA
ATOM     86  O   UNL A   1      47.768  25.374  37.390  1.00  0.00    -0.237 OA
ATOM     87  O   UNL A   1      48.391  27.542  38.382  1.00  0.00    -0.744 OA
ENDBRANCH  83  84
ENDBRANCH  51  76
BRANCH  63  88
ATOM     88  C   UNL A   1      40.272  34.336  37.393  1.00  0.00     0.058 A 
ATOM     89  C   UNL A   1      41.038  35.510  37.312  1.00  0.00     0.135 A 
ATOM     90  C   UNL A   1      39.479  34.154  38.539  1.00  0.00     0.135 A 
ATOM     91  F   UNL A   1      41.818  35.734  36.243  1.00  0.00    -0.206 F 
ATOM     92  C   UNL A   1      41.033  36.454  38.335  1.00  0.00     0.059 A 
ATOM     93  C   UNL A   1      39.434  35.100  39.560  1.00  0.00     0.059 A 
ATOM     94  F   UNL A   1      38.716  33.056  38.666  1.00  0.00    -0.206 F 
ATOM     95  C   UNL A   1      40.224  36.243  39.453  1.00  0.00     0.060 A 
BRANCH  95  96
ATOM     96  S   UNL A   1      40.199  37.497  40.753  1.00  0.00     0.124 S 
ATOM     97  O   UNL A   1      39.017  37.108  41.514  1.00  0.00    -0.237 OA
ATOM     98  O   UNL A   1      41.480  37.282  41.417  1.00  0.00    -0.237 OA
ATOM     99  O   UNL A   1      40.085  38.751  40.014  1.00  0.00    -0.744 OA
ENDBRANCH  95  96
ENDBRANCH  63  88
ENDBRANCH  37  38
ENDBRANCH  30  32
ENDBRANCH  29  30
ENDBRANCH  28  29
ENDBRANCH  27  28
ENDBRANCH  26  27
ENDBRANCH  25  26
ENDBRANCH  24  25
ENDBRANCH   1  24
TORSDOF 27
ENDMDL
MODEL 2
REMARK VINA RESULT:      -8.8      2.312      9.221
REMARK SMILES COCC[NH2+]CC(=O)N1C[C@H](OC)C[C@@H]1C(=O)OCCOCCOCCOC(=O)c1ccc(-c2c3nc(c(-c4c(F)cc(S(=O)(=O)[O-])cc4F)c4ccc([nH]4)c(-c4c(F)cc(S(=O)(=O)[O-])cc4F)c4nc(c(-c5c(F)cc(S(=O)(=O)[O-])cc5F)c5ccc2[nH]5)C=C4)C=C3)cc1
REMARK SMILES IDX 21 1 20 2 19 3 18 4 16 5 17 6 15 7 9 8 10 9 11 10 14 11 7 12
REMARK SMILES IDX 8 13 6 14 5 15 4 18 3 19 2 20 1 21 12 22 13 23 22 24 23 25
REMARK SMILES IDX 24 26 25 27 26 28 27 29 28 30 29 31 30 32 31 33 95 34 32 35
REMARK SMILES IDX 94 36 33 37 34 38 35 39 88 40 36 41 93 42 87 43 89 44 37 45
REMARK SMILES IDX 92 46 86 47 85 48 38 50 72 51 51 52 71 53 52 54 55 55 70 56
REMARK SMILES IDX 90 57 53 58 54 59 69 61 91 62 56 63 39 64 40 65 49 66 41 67
REMARK SMILES IDX 42 68 48 69 50 70 43 71 44 72 45 73 46 74 47 75 73 76 74 77
REMARK SMILES IDX 83 78 75 79 76 80 82 81 84 82 77 83 78 84 79 85 80 86 81 87
REMARK SMILES IDX 57 88 58 89 67 90 59 91 60 92 66 93 68 94 61 95 62 96 63 97
REMARK SMILES IDX 64 98 65 99
REMARK H PARENT 5 16 5 17 89 49 55 60
REMARK Flexibility Score: inf
ROOT
ATOM      1  O   UNL A   1      33.259  31.024  27.749  1.00  0.00    -0.376 OA
ENDROOT
BRANCH   1   2
ATOM      2  C   UNL A   1      32.774  30.638  26.464  1.00  0.00     0.202 C 
BRANCH   2   3
ATOM      3  C   UNL A   1      32.713  29.144  26.104  1.00  0.00     0.261 C 
BRANCH   3   4
ATOM      4  O   UNL A   1      33.309  28.824  24.828  1.00  0.00    -0.462 OA
BRANCH   4   5
ATOM      5  C   UNL A   1      32.493  28.924  23.754  1.00  0.00     0.329 C 
ATOM      6  O   UNL A   1      32.893  29.166  22.618  1.00  0.00    -0.250 OA
BRANCH   5   7
ATOM      7  C   UNL A   1      30.998  28.711  24.055  1.00  0.00     0.198 C 
ATOM      8  N   UNL A   1      30.436  27.598  23.299  1.00  0.00    -0.321 N 
ATOM      9  C   UNL A   1      28.993  27.781  23.274  1.00  0.00     0.152 C 
ATOM     10  C   UNL A   1      28.863  29.259  22.960  1.00  0.00     0.140 C 
ATOM     11  C   UNL A   1      29.968  29.848  23.826  1.00  0.00     0.071 C 
BRANCH   8  12
ATOM     12  C   UNL A   1      31.031  26.344  23.335  1.00  0.00     0.278 C 
ATOM     13  O   UNL A   1      30.677  25.449  24.094  1.00  0.00    -0.268 OA
BRANCH  12  14
ATOM     14  C   UNL A   1      31.993  26.121  22.131  1.00  0.00     0.362 C 
BRANCH  14  15
ATOM     15  N   UNL A   1      31.991  24.698  21.662  1.00  0.00    -0.337 N 
ATOM     16  H   UNL A   1      31.187  24.212  22.059  1.00  0.00     0.346 HD
ATOM     17  H   UNL A   1      31.937  24.679  20.644  1.00  0.00     0.346 HD
BRANCH  15  18
ATOM     18  C   UNL A   1      33.229  24.029  22.095  1.00  0.00     0.289 C 
BRANCH  18  19
ATOM     19  C   UNL A   1      33.191  23.066  23.285  1.00  0.00     0.221 C 
BRANCH  19  20
ATOM     20  O   UNL A   1      34.205  23.339  24.262  1.00  0.00    -0.379 OA
ATOM     21  C   UNL A   1      33.839  24.315  25.228  1.00  0.00     0.195 C 
ENDBRANCH  19  20
ENDBRANCH  18  19
ENDBRANCH  15  18
ENDBRANCH  14  15
ENDBRANCH  12  14
ENDBRANCH   8  12
BRANCH  10  22
ATOM     22  O   UNL A   1      28.950  29.534  21.553  1.00  0.00    -0.380 OA
ATOM     23  C   UNL A   1      28.551  30.815  21.082  1.00  0.00     0.195 C 
ENDBRANCH  10  22
ENDBRANCH   5   7
ENDBRANCH   4   5
ENDBRANCH   3   4
ENDBRANCH   2   3
ENDBRANCH   1   2
BRANCH   1  24
ATOM     24  C   UNL A   1      34.495  31.714  27.840  1.00  0.00     0.188 C 
BRANCH  24  25
ATOM     25  C   UNL A   1      34.639  32.803  28.900  1.00  0.00     0.188 C 
BRANCH  25  26
ATOM     26  O   UNL A   1      33.478  33.548  29.180  1.00  0.00    -0.376 OA
BRANCH  26  27
ATOM     27  C   UNL A   1      33.423  34.900  28.749  1.00  0.00     0.202 C 
BRANCH  27  28
ATOM     28  C   UNL A   1      32.840  35.985  29.679  1.00  0.00     0.261 C 
BRANCH  28  29
ATOM     29  O   UNL A   1      32.218  35.544  30.899  1.00  0.00    -0.460 OA
BRANCH  29  30
ATOM     30  C   UNL A   1      32.772  35.954  32.071  1.00  0.00     0.338 C 
ATOM     31  O   UNL A   1      32.267  36.693  32.888  1.00  0.00    -0.246 OA
BRANCH  30  32
ATOM     32  C   UNL A   1      33.966  35.094  32.318  1.00  0.00     0.060 A 
ATOM     33  C   UNL A   1      33.770  33.749  32.677  1.00  0.00     0.016 A 
ATOM     34  C   UNL A   1      35.260  35.581  32.129  1.00  0.00     0.016 A 
ATOM     35  C   UNL A   1      34.862  32.897  32.862  1.00  0.00     0.010 A 
ATOM     36  C   UNL A   1      36.353  34.735  32.346  1.00  0.00     0.010 A 
ATOM     37  C   UNL A   1      36.164  33.397  32.738  1.00  0.00    -0.014 A 
BRANCH  37  38
ATOM     38  C   UNL A   1      37.328  32.597  33.204  1.00  0.00     0.031 A 
ATOM     39  C   UNL A   1      37.977  32.984  34.506  1.00  0.00     0.074 A 
ATOM     40  C   UNL A   1      37.816  31.564  32.493  1.00  0.00     0.049 A 
ATOM     41  N   UNL A   1      39.065  32.524  35.065  1.00  0.00    -0.248 NA
ATOM     42  C   UNL A   1      37.304  34.042  35.278  1.00  0.00     0.031 C 
ATOM     43  C   UNL A   1      37.256  31.053  31.244  1.00  0.00     0.029 A 
ATOM     44  N   UNL A   1      38.916  30.771  32.717  1.00  0.00    -0.354 N 
ATOM     45  C   UNL A   1      39.219  33.247  36.243  1.00  0.00     0.074 A 
ATOM     46  C   UNL A   1      38.125  34.191  36.306  1.00  0.00     0.031 C 
ATOM     47  C   UNL A   1      38.029  30.047  30.799  1.00  0.00     0.029 A 
ATOM     48  C   UNL A   1      39.162  29.869  31.708  1.00  0.00     0.049 A 
ATOM     49  H   UNL A   1      39.476  30.841  33.524  1.00  0.00     0.167 HD
ATOM     50  C   UNL A   1      40.183  33.133  37.187  1.00  0.00     0.037 A 
ATOM     51  C   UNL A   1      40.199  29.025  31.520  1.00  0.00     0.037 A 
ATOM     52  C   UNL A   1      41.273  32.195  37.118  1.00  0.00     0.049 A 
ATOM     53  C   UNL A   1      41.307  28.970  32.544  1.00  0.00     0.074 A 
ATOM     54  C   UNL A   1      42.288  31.989  38.035  1.00  0.00     0.029 A 
ATOM     55  N   UNL A   1      41.500  31.319  36.067  1.00  0.00    -0.354 N 
ATOM     56  N   UNL A   1      41.432  29.644  33.664  1.00  0.00    -0.248 NA
ATOM     57  C   UNL A   1      42.417  28.042  32.278  1.00  0.00     0.031 C 
ATOM     58  C   UNL A   1      43.164  31.033  37.510  1.00  0.00     0.029 A 
ATOM     59  C   UNL A   1      42.658  30.593  36.297  1.00  0.00     0.049 A 
ATOM     60  H   UNL A   1      40.924  31.225  35.275  1.00  0.00     0.167 HD
ATOM     61  C   UNL A   1      42.617  29.200  34.247  1.00  0.00     0.074 A 
ATOM     62  C   UNL A   1      43.165  28.193  33.363  1.00  0.00     0.031 C 
ATOM     63  C   UNL A   1      43.195  29.589  35.412  1.00  0.00     0.037 A 
BRANCH  50  64
ATOM     64  C   UNL A   1      40.121  34.074  38.359  1.00  0.00     0.058 A 
ATOM     65  C   UNL A   1      40.829  35.288  38.377  1.00  0.00     0.135 A 
ATOM     66  C   UNL A   1      39.324  33.767  39.474  1.00  0.00     0.135 A 
ATOM     67  F   UNL A   1      41.622  35.624  37.348  1.00  0.00    -0.206 F 
ATOM     68  C   UNL A   1      40.772  36.146  39.471  1.00  0.00     0.059 A 
ATOM     69  C   UNL A   1      39.227  34.625  40.565  1.00  0.00     0.059 A 
ATOM     70  F   UNL A   1      38.630  32.619  39.512  1.00  0.00    -0.206 F 
ATOM     71  C   UNL A   1      39.969  35.805  40.560  1.00  0.00     0.060 A 
BRANCH  71  72
ATOM     72  S   UNL A   1      39.910  36.929  41.972  1.00  0.00     0.124 S 
ATOM     73  O   UNL A   1      41.331  37.099  42.266  1.00  0.00    -0.237 OA
ATOM     74  O   UNL A   1      39.234  38.095  41.414  1.00  0.00    -0.237 OA
ATOM     75  O   UNL A   1      39.149  36.184  42.970  1.00  0.00    -0.744 OA
ENDBRANCH  71  72
ENDBRANCH  50  64
BRANCH  51  76
ATOM     76  C   UNL A   1      40.254  28.174  30.299  1.00  0.00     0.058 A 
ATOM     77  C   UNL A   1      41.108  28.490  29.231  1.00  0.00     0.135 A 
ATOM     78  C   UNL A   1      39.453  27.027  30.174  1.00  0.00     0.135 A 
ATOM     79  F   UNL A   1      41.879  29.587  29.291  1.00  0.00    -0.206 F 
ATOM     80  C   UNL A   1      41.162  27.706  28.083  1.00  0.00     0.059 A 
ATOM     81  C   UNL A   1      39.510  26.211  29.048  1.00  0.00     0.059 A 
ATOM     82  F   UNL A   1      38.619  26.678  31.166  1.00  0.00    -0.206 F 
ATOM     83  C   UNL A   1      40.364  26.563  28.004  1.00  0.00     0.060 A 
BRANCH  83  84
ATOM     84  S   UNL A   1      40.488  25.520  26.533  1.00  0.00     0.124 S 
ATOM     85  O   UNL A   1      39.127  25.011  26.417  1.00  0.00    -0.237 OA
ATOM     86  O   UNL A   1      40.901  26.480  25.514  1.00  0.00    -0.237 OA
ATOM     87  O   UNL A   1      41.502  24.537  26.905  1.00  0.00    -0.744 OA
ENDBRANCH  83  84
ENDBRANCH  51  76
BRANCH  63  88
ATOM     88  C   UNL A   1      44.474  28.906  35.825  1.00  0.00     0.058 A 
ATOM     89  C   UNL A   1      45.735  29.437  35.512  1.00  0.00     0.135 A 
ATOM     90  C   UNL A   1      44.434  27.737  36.604  1.00  0.00     0.135 A 
ATOM     91  F   UNL A   1      45.834  30.549  34.767  1.00  0.00    -0.206 F 
ATOM     92  C   UNL A   1      46.909  28.821  35.937  1.00  0.00     0.059 A 
ATOM     93  C   UNL A   1      45.595  27.122  37.066  1.00  0.00     0.059 A 
ATOM     94  F   UNL A   1      43.255  27.190  36.944  1.00  0.00    -0.206 F 
ATOM     95  C   UNL A   1      46.829  27.667  36.718  1.00  0.00     0.060 A 
BRANCH  95  96
ATOM     96  S   UNL A   1      48.361  26.903  37.295  1.00  0.00     0.124 S 
ATOM     97  O   UNL A   1      49.127  26.808  36.057  1.00  0.00    -0.237 OA
ATOM     98  O   UNL A   1      48.846  27.876  38.268  1.00  0.00    -0.237 OA
ATOM     99  O   UNL A   1      47.917  25.631  37.857  1.00  0.00    -0.744 OA
ENDBRANCH  95  96
ENDBRANCH  63  88
ENDBRANCH  37  38
ENDBRANCH  30  32
ENDBRANCH  29  30
ENDBRANCH  28  29
ENDBRANCH  27  28
ENDBRANCH  26  27
ENDBRANCH  25  26
ENDBRANCH  24  25
ENDBRANCH   1  24
TORSDOF 27
ENDMDL
MODEL 3
REMARK VINA RESULT:      -8.6      2.642      9.275
REMARK SMILES COCC[NH2+]CC(=O)N1C[C@H](OC)C[C@@H]1C(=O)OCCOCCOCCOC(=O)c1ccc(-c2c3nc(c(-c4c(F)cc(S(=O)(=O)[O-])cc4F)c4ccc([nH]4)c(-c4c(F)cc(S(=O)(=O)[O-])cc4F)c4nc(c(-c5c(F)cc(S(=O)(=O)[O-])cc5F)c5ccc2[nH]5)C=C4)C=C3)cc1
REMARK SMILES IDX 21 1 20 2 19 3 18 4 16 5 17 6 15 7 9 8 10 9 11 10 14 11 7 12
REMARK SMILES IDX 8 13 6 14 5 15 4 18 3 19 2 20 1 21 12 22 13 23 22 24 23 25
REMARK SMILES IDX 24 26 25 27 26 28 27 29 28 30 29 31 30 32 31 33 95 34 32 35
REMARK SMILES IDX 94 36 33 37 34 38 35 39 88 40 36 41 93 42 87 43 89 44 37 45
REMARK SMILES IDX 92 46 86 47 85 48 38 50 72 51 51 52 71 53 52 54 55 55 70 56
REMARK SMILES IDX 90 57 53 58 54 59 69 61 91 62 56 63 39 64 40 65 49 66 41 67
REMARK SMILES IDX 42 68 48 69 50 70 43 71 44 72 45 73 46 74 47 75 73 76 74 77
REMARK SMILES IDX 83 78 75 79 76 80 82 81 84 82 77 83 78 84 79 85 80 86 81 87
REMARK SMILES IDX 57 88 58 89 67 90 59 91 60 92 66 93 68 94 61 95 62 96 63 97
REMARK SMILES IDX 64 98 65 99
REMARK H PARENT 5 16 5 17 89 49 55 60
REMARK Flexibility Score: inf
ROOT
ATOM      1  O   UNL A   1      32.866  31.192  27.568  1.00  0.00    -0.376 OA
ENDROOT
BRANCH   1   2
ATOM      2  C   UNL A   1      32.525  30.694  26.275  1.00  0.00     0.202 C 
BRANCH   2   3
ATOM      3  C   UNL A   1      32.444  29.173  26.055  1.00  0.00     0.261 C 
BRANCH   3   4
ATOM      4  O   UNL A   1      33.623  28.606  25.444  1.00  0.00    -0.462 OA
BRANCH   4   5
ATOM      5  C   UNL A   1      33.525  27.312  25.061  1.00  0.00     0.329 C 
ATOM      6  O   UNL A   1      33.994  26.377  25.703  1.00  0.00    -0.250 OA
BRANCH   5   7
ATOM      7  C   UNL A   1      32.770  27.085  23.739  1.00  0.00     0.198 C 
ATOM      8  N   UNL A   1      31.911  25.908  23.789  1.00  0.00    -0.321 N 
ATOM      9  C   UNL A   1      31.641  25.513  22.415  1.00  0.00     0.152 C 
ATOM     10  C   UNL A   1      33.013  25.618  21.777  1.00  0.00     0.140 C 
ATOM     11  C   UNL A   1      33.538  26.903  22.402  1.00  0.00     0.071 C 
BRANCH   8  12
ATOM     12  C   UNL A   1      30.981  25.752  24.809  1.00  0.00     0.278 C 
ATOM     13  O   UNL A   1      30.143  26.599  25.096  1.00  0.00    -0.268 OA
BRANCH  12  14
ATOM     14  C   UNL A   1      30.948  24.291  25.348  1.00  0.00     0.362 C 
BRANCH  14  15
ATOM     15  N   UNL A   1      32.113  23.991  26.240  1.00  0.00    -0.337 N 
ATOM     16  H   UNL A   1      32.866  24.651  26.048  1.00  0.00     0.346 HD
ATOM     17  H   UNL A   1      31.822  24.076  27.214  1.00  0.00     0.346 HD
BRANCH  15  18
ATOM     18  C   UNL A   1      32.590  22.620  25.993  1.00  0.00     0.289 C 
BRANCH  18  19
ATOM     19  C   UNL A   1      31.679  21.620  25.277  1.00  0.00     0.221 C 
BRANCH  19  20
ATOM     20  O   UNL A   1      32.187  20.279  25.302  1.00  0.00    -0.379 OA
ATOM     21  C   UNL A   1      32.458  19.730  24.020  1.00  0.00     0.195 C 
ENDBRANCH  19  20
ENDBRANCH  18  19
ENDBRANCH  15  18
ENDBRANCH  14  15
ENDBRANCH  12  14
ENDBRANCH   8  12
BRANCH  10  22
ATOM     22  O   UNL A   1      33.810  24.442  21.987  1.00  0.00    -0.380 OA
ATOM     23  C   UNL A   1      33.166  23.175  22.007  1.00  0.00     0.195 C 
ENDBRANCH  10  22
ENDBRANCH   5   7
ENDBRANCH   4   5
ENDBRANCH   3   4
ENDBRANCH   2   3
ENDBRANCH   1   2
BRANCH   1  24
ATOM     24  C   UNL A   1      34.213  31.545  27.836  1.00  0.00     0.188 C 
BRANCH  24  25
ATOM     25  C   UNL A   1      34.491  32.915  28.451  1.00  0.00     0.188 C 
BRANCH  25  26
ATOM     26  O   UNL A   1      33.502  33.895  28.246  1.00  0.00    -0.376 OA
BRANCH  26  27
ATOM     27  C   UNL A   1      33.798  35.238  28.599  1.00  0.00     0.202 C 
BRANCH  27  28
ATOM     28  C   UNL A   1      32.928  35.976  29.639  1.00  0.00     0.261 C 
BRANCH  28  29
ATOM     29  O   UNL A   1      32.463  35.215  30.769  1.00  0.00    -0.460 OA
BRANCH  29  30
ATOM     30  C   UNL A   1      32.934  35.563  31.996  1.00  0.00     0.338 C 
ATOM     31  O   UNL A   1      32.330  36.166  32.856  1.00  0.00    -0.246 OA
BRANCH  30  32
ATOM     32  C   UNL A   1      34.200  34.803  32.213  1.00  0.00     0.060 A 
ATOM     33  C   UNL A   1      34.123  33.454  32.600  1.00  0.00     0.016 A 
ATOM     34  C   UNL A   1      35.444  35.386  31.969  1.00  0.00     0.016 A 
ATOM     35  C   UNL A   1      35.285  32.693  32.759  1.00  0.00     0.010 A 
ATOM     36  C   UNL A   1      36.608  34.632  32.160  1.00  0.00     0.010 A 
ATOM     37  C   UNL A   1      36.538  33.290  32.580  1.00  0.00    -0.014 A 
BRANCH  37  38
ATOM     38  C   UNL A   1      37.776  32.593  33.015  1.00  0.00     0.031 A 
ATOM     39  C   UNL A   1      38.267  32.832  34.418  1.00  0.00     0.074 A 
ATOM     40  C   UNL A   1      38.466  31.780  32.193  1.00  0.00     0.049 A 
ATOM     41  N   UNL A   1      39.373  32.438  34.994  1.00  0.00    -0.248 NA
ATOM     42  C   UNL A   1      37.387  33.632  35.287  1.00  0.00     0.031 C 
ATOM     43  C   UNL A   1      38.079  31.424  30.831  1.00  0.00     0.029 A 
ATOM     44  N   UNL A   1      39.658  31.123  32.386  1.00  0.00    -0.354 N 
ATOM     45  C   UNL A   1      39.332  32.956  36.284  1.00  0.00     0.074 A 
ATOM     46  C   UNL A   1      38.103  33.712  36.397  1.00  0.00     0.031 C 
ATOM     47  C   UNL A   1      39.027  30.630  30.301  1.00  0.00     0.029 A 
ATOM     48  C   UNL A   1      40.109  30.457  31.271  1.00  0.00     0.049 A 
ATOM     49  H   UNL A   1      40.143  31.127  33.244  1.00  0.00     0.167 HD
ATOM     50  C   UNL A   1      40.235  32.814  37.283  1.00  0.00     0.037 A 
ATOM     51  C   UNL A   1      41.274  29.813  31.046  1.00  0.00     0.037 A 
ATOM     52  C   UNL A   1      41.458  32.066  37.163  1.00  0.00     0.049 A 
ATOM     53  C   UNL A   1      42.304  29.734  32.147  1.00  0.00     0.074 A 
ATOM     54  C   UNL A   1      42.428  31.847  38.126  1.00  0.00     0.029 A 
ATOM     55  N   UNL A   1      41.891  31.429  36.009  1.00  0.00    -0.354 N 
ATOM     56  N   UNL A   1      42.247  30.211  33.369  1.00  0.00    -0.248 NA
ATOM     57  C   UNL A   1      43.560  29.033  31.837  1.00  0.00     0.031 C 
ATOM     58  C   UNL A   1      43.475  31.131  37.536  1.00  0.00     0.029 A 
ATOM     59  C   UNL A   1      43.128  30.845  36.225  1.00  0.00     0.049 A 
ATOM     60  H   UNL A   1      41.391  31.396  35.161  1.00  0.00     0.167 HD
ATOM     61  C   UNL A   1      43.443  29.843  33.980  1.00  0.00     0.074 A 
ATOM     62  C   UNL A   1      44.200  29.094  32.998  1.00  0.00     0.031 C 
ATOM     63  C   UNL A   1      43.873  30.098  35.242  1.00  0.00     0.037 A 
BRANCH  50  64
ATOM     64  C   UNL A   1      39.948  33.517  38.582  1.00  0.00     0.058 A 
ATOM     65  C   UNL A   1      40.599  34.708  38.944  1.00  0.00     0.135 A 
ATOM     66  C   UNL A   1      38.991  33.000  39.471  1.00  0.00     0.135 A 
ATOM     67  F   UNL A   1      41.537  35.236  38.143  1.00  0.00    -0.206 F 
ATOM     68  C   UNL A   1      40.333  35.343  40.153  1.00  0.00     0.059 A 
ATOM     69  C   UNL A   1      38.686  33.636  40.671  1.00  0.00     0.059 A 
ATOM     70  F   UNL A   1      38.342  31.862  39.178  1.00  0.00    -0.206 F 
ATOM     71  C   UNL A   1      39.375  34.798  41.009  1.00  0.00     0.060 A 
BRANCH  71  72
ATOM     72  S   UNL A   1      39.045  35.634  42.576  1.00  0.00     0.124 S 
ATOM     73  O   UNL A   1      39.457  37.001  42.267  1.00  0.00    -0.237 OA
ATOM     74  O   UNL A   1      37.611  35.427  42.743  1.00  0.00    -0.237 OA
ATOM     75  O   UNL A   1      39.895  34.924  43.526  1.00  0.00    -0.744 OA
ENDBRANCH  71  72
ENDBRANCH  50  64
BRANCH  51  76
ATOM     76  C   UNL A   1      41.544  29.206  29.712  1.00  0.00     0.058 A 
ATOM     77  C   UNL A   1      41.051  27.936  29.378  1.00  0.00     0.135 A 
ATOM     78  C   UNL A   1      42.304  29.884  28.745  1.00  0.00     0.135 A 
ATOM     79  F   UNL A   1      40.337  27.237  30.274  1.00  0.00    -0.206 F 
ATOM     80  C   UNL A   1      41.303  27.358  28.138  1.00  0.00     0.059 A 
ATOM     81  C   UNL A   1      42.547  29.339  27.488  1.00  0.00     0.059 A 
ATOM     82  F   UNL A   1      42.800  31.102  29.012  1.00  0.00    -0.206 F 
ATOM     83  C   UNL A   1      42.048  28.071  27.196  1.00  0.00     0.060 A 
BRANCH  83  84
ATOM     84  S   UNL A   1      42.318  27.334  25.568  1.00  0.00     0.124 S 
ATOM     85  O   UNL A   1      42.274  28.508  24.704  1.00  0.00    -0.237 OA
ATOM     86  O   UNL A   1      43.626  26.708  25.731  1.00  0.00    -0.237 OA
ATOM     87  O   UNL A   1      41.199  26.406  25.431  1.00  0.00    -0.744 OA
ENDBRANCH  83  84
ENDBRANCH  51  76
BRANCH  63  88
ATOM     88  C   UNL A   1      45.211  29.539  35.655  1.00  0.00     0.058 A 
ATOM     89  C   UNL A   1      46.396  30.281  35.534  1.00  0.00     0.135 A 
ATOM     90  C   UNL A   1      45.297  28.266  36.245  1.00  0.00     0.135 A 
ATOM     91  F   UNL A   1      46.375  31.501  34.974  1.00  0.00    -0.206 F 
ATOM     92  C   UNL A   1      47.620  29.772  35.960  1.00  0.00     0.059 A 
ATOM     93  C   UNL A   1      46.504  27.751  36.708  1.00  0.00     0.059 A 
ATOM     94  F   UNL A   1      44.193  27.516  36.398  1.00  0.00    -0.206 F 
ATOM     95  C   UNL A   1      47.663  28.508  36.551  1.00  0.00     0.060 A 
BRANCH  95  96
ATOM     96  S   UNL A   1      49.252  27.880  37.135  1.00  0.00     0.124 S 
ATOM     97  O   UNL A   1      49.124  28.050  38.578  1.00  0.00    -0.237 OA
ATOM     98  O   UNL A   1      49.238  26.502  36.655  1.00  0.00    -0.237 OA
ATOM     99  O   UNL A   1      50.224  28.754  36.485  1.00  0.00    -0.744 OA
ENDBRANCH  95  96
ENDBRANCH  63  88
ENDBRANCH  37  38
ENDBRANCH  30  32
ENDBRANCH  29  30
ENDBRANCH  28  29
ENDBRANCH  27  28
ENDBRANCH  26  27
ENDBRANCH  25  26
ENDBRANCH  24  25
ENDBRANCH   1  24
TORSDOF 27
ENDMDL
