MODEL 1
REMARK VINA RESULT:     -10.2      0.000      0.000
REMARK SMILES C#Cc1cc(Cl)cc2c1O[C@H](C(F)(F)F)C(C(=O)OCCOCCOCCOC(=O)c1ccc(-c3c4nc(c(-c5c(F)cc(S(=O)(=O)[O-])cc5F)c5ccc([nH]5)c(-c5c(F)cc(S(=O)(=O)[O-])cc5F)c5nc(c(-c6c(F)cc(S(=O)(=O)[O-])cc6F)c6ccc3[nH]6)C=C5)C=C4)cc1)=C2
REMARK SMILES IDX 24 1 23 2 22 3 21 4 20 5 19 6 17 7 18 8 16 9 3 10 4 11 9 12
REMARK SMILES IDX 5 13 8 14 10 15 6 16 7 17 97 18 11 19 2 20 1 21 12 22 13 23
REMARK SMILES IDX 14 24 15 25 25 26 26 27 27 28 28 29 29 30 30 31 31 32 32 33
REMARK SMILES IDX 96 34 33 35 95 36 34 37 35 38 36 39 89 40 37 41 94 42 88 43
REMARK SMILES IDX 90 44 38 45 93 46 87 47 86 48 39 50 73 51 52 52 72 53 53 54
REMARK SMILES IDX 56 55 71 56 91 57 54 58 55 59 70 61 92 62 57 63 40 64 41 65
REMARK SMILES IDX 50 66 42 67 43 68 49 69 51 70 44 71 45 72 46 73 47 74 48 75
REMARK SMILES IDX 74 76 75 77 84 78 76 79 77 80 83 81 85 82 78 83 79 84 80 85
REMARK SMILES IDX 81 86 82 87 58 88 59 89 68 90 60 91 61 92 67 93 69 94 62 95
REMARK SMILES IDX 63 96 64 97 65 98 66 99
REMARK H PARENT 90 49 56 60
REMARK Flexibility Score: inf
ROOT
ATOM      1  C   UNL A   1      37.089  22.861  25.141  1.00  0.00     0.188 C 
ENDROOT
BRANCH   1   2
ATOM      2  C   UNL A   1      35.562  23.013  25.302  1.00  0.00     0.188 C 
BRANCH   2   3
ATOM      3  O   UNL A   1      35.075  23.294  26.593  1.00  0.00    -0.376 OA
BRANCH   3   4
ATOM      4  C   UNL A   1      34.434  22.292  27.361  1.00  0.00     0.202 C 
BRANCH   4   5
ATOM      5  C   UNL A   1      32.915  22.170  27.604  1.00  0.00     0.261 C 
BRANCH   5   6
ATOM      6  O   UNL A   1      32.039  22.414  26.500  1.00  0.00    -0.460 OA
BRANCH   6   7
ATOM      7  C   UNL A   1      31.205  23.474  26.633  1.00  0.00     0.338 C 
ATOM      8  O   UNL A   1      30.137  23.491  27.222  1.00  0.00    -0.246 OA
BRANCH   7   9
ATOM      9  C   UNL A   1      31.854  24.680  26.077  1.00  0.00     0.087 C 
ATOM     10  C   UNL A   1      33.296  28.207  24.369  1.00  0.00     0.068 A 
ATOM     11  C   UNL A   1      33.208  29.404  25.085  1.00  0.00     0.041 A 
ATOM     12  C   UNL A   1      32.917  26.997  24.973  1.00  0.00     0.143 A 
ATOM     13  C   UNL A   1      32.763  29.389  26.404  1.00  0.00     0.043 A 
ATOM     14  C   UNL A   1      32.421  26.997  26.281  1.00  0.00     0.020 A 
ATOM     15  O   UNL A   1      33.051  25.854  24.231  1.00  0.00    -0.474 OA
ATOM     16  Cl  UNL A   1      32.645  30.865  27.278  1.00  0.00    -0.084 Cl
ATOM     17  C   UNL A   1      32.374  28.194  27.008  1.00  0.00     0.032 A 
ATOM     18  C   UNL A   1      31.872  25.777  26.849  1.00  0.00     0.027 C 
ATOM     19  C   UNL A   1      32.466  24.614  24.706  1.00  0.00     0.316 C 
BRANCH  10  20
ATOM     20  C   UNL A   1      33.714  28.257  22.999  1.00  0.00    -0.067 C 
ATOM     21  C   UNL A   1      34.047  28.334  21.845  1.00  0.00     0.010 C 
ENDBRANCH  10  20
BRANCH  19  22
ATOM     22  C   UNL A   1      31.468  24.121  23.653  1.00  0.00     0.430 C 
ATOM     23  F   UNL A   1      31.534  22.775  23.501  1.00  0.00    -0.167 F 
ATOM     24  F   UNL A   1      30.189  24.404  23.999  1.00  0.00    -0.167 F 
ATOM     25  F   UNL A   1      31.692  24.677  22.442  1.00  0.00    -0.167 F 
ENDBRANCH  19  22
ENDBRANCH   7   9
ENDBRANCH   6   7
ENDBRANCH   5   6
ENDBRANCH   4   5
ENDBRANCH   3   4
ENDBRANCH   2   3
ENDBRANCH   1   2
BRANCH   1  26
ATOM     26  O   UNL A   1      37.618  21.559  25.038  1.00  0.00    -0.376 OA
BRANCH  26  27
ATOM     27  C   UNL A   1      38.804  21.237  25.748  1.00  0.00     0.202 C 
BRANCH  27  28
ATOM     28  C   UNL A   1      39.541  19.875  25.717  1.00  0.00     0.261 C 
BRANCH  28  29
ATOM     29  O   UNL A   1      40.530  19.598  26.718  1.00  0.00    -0.460 OA
BRANCH  29  30
ATOM     30  C   UNL A   1      41.815  19.515  26.285  1.00  0.00     0.338 C 
ATOM     31  O   UNL A   1      42.317  18.601  25.656  1.00  0.00    -0.246 OA
BRANCH  30  32
ATOM     32  C   UNL A   1      42.478  20.819  26.512  1.00  0.00     0.060 A 
ATOM     33  C   UNL A   1      42.531  21.345  27.813  1.00  0.00     0.016 A 
ATOM     34  C   UNL A   1      43.034  21.524  25.446  1.00  0.00     0.016 A 
ATOM     35  C   UNL A   1      43.144  22.575  28.052  1.00  0.00     0.010 A 
ATOM     36  C   UNL A   1      43.614  22.776  25.682  1.00  0.00     0.010 A 
ATOM     37  C   UNL A   1      43.653  23.318  26.981  1.00  0.00    -0.014 A 
BRANCH  37  38
ATOM     38  C   UNL A   1      44.042  24.736  27.186  1.00  0.00     0.031 A 
ATOM     39  C   UNL A   1      45.477  25.122  26.944  1.00  0.00     0.074 A 
ATOM     40  C   UNL A   1      43.141  25.670  27.548  1.00  0.00     0.049 A 
ATOM     41  N   UNL A   1      46.067  26.274  27.121  1.00  0.00    -0.248 NA
ATOM     42  C   UNL A   1      46.366  24.062  26.436  1.00  0.00     0.031 C 
ATOM     43  C   UNL A   1      41.713  25.434  27.752  1.00  0.00     0.029 A 
ATOM     44  N   UNL A   1      43.301  27.009  27.812  1.00  0.00    -0.354 N 
ATOM     45  C   UNL A   1      47.392  26.081  26.746  1.00  0.00     0.074 A 
ATOM     46  C   UNL A   1      47.530  24.691  26.370  1.00  0.00     0.031 C 
ATOM     47  C   UNL A   1      41.129  26.590  28.118  1.00  0.00     0.029 A 
ATOM     48  C   UNL A   1      42.145  27.637  28.212  1.00  0.00     0.049 A 
ATOM     49  H   UNL A   1      44.164  27.475  27.723  1.00  0.00     0.167 HD
ATOM     50  C   UNL A   1      48.398  26.985  26.703  1.00  0.00     0.037 A 
ATOM     51  C   UNL A   1      41.938  28.905  28.627  1.00  0.00     0.037 A 
ATOM     52  C   UNL A   1      48.254  28.367  27.076  1.00  0.00     0.049 A 
ATOM     53  C   UNL A   1      43.102  29.867  28.671  1.00  0.00     0.074 A 
ATOM     54  C   UNL A   1      49.219  29.360  27.068  1.00  0.00     0.029 A 
ATOM     55  N   UNL A   1      47.080  28.953  27.523  1.00  0.00    -0.354 N 
ATOM     56  N   UNL A   1      44.349  29.674  28.308  1.00  0.00    -0.248 NA
ATOM     57  C   UNL A   1      42.834  31.220  29.183  1.00  0.00     0.031 C 
ATOM     58  C   UNL A   1      48.643  30.530  27.567  1.00  0.00     0.029 A 
ATOM     59  C   UNL A   1      47.303  30.287  27.821  1.00  0.00     0.049 A 
ATOM     60  H   UNL A   1      46.217  28.489  27.614  1.00  0.00     0.167 HD
ATOM     61  C   UNL A   1      45.001  30.887  28.515  1.00  0.00     0.074 A 
ATOM     62  C   UNL A   1      44.010  31.812  29.020  1.00  0.00     0.031 C 
ATOM     63  C   UNL A   1      46.303  31.205  28.308  1.00  0.00     0.037 A 
BRANCH  50  64
ATOM     64  C   UNL A   1      49.750  26.519  26.237  1.00  0.00     0.058 A 
ATOM     65  C   UNL A   1      50.184  26.726  24.919  1.00  0.00     0.135 A 
ATOM     66  C   UNL A   1      50.656  25.943  27.143  1.00  0.00     0.135 A 
ATOM     67  F   UNL A   1      49.351  27.251  24.007  1.00  0.00    -0.206 F 
ATOM     68  C   UNL A   1      51.468  26.378  24.514  1.00  0.00     0.059 A 
ATOM     69  C   UNL A   1      51.955  25.616  26.768  1.00  0.00     0.059 A 
ATOM     70  F   UNL A   1      50.290  25.717  28.415  1.00  0.00    -0.206 F 
ATOM     71  C   UNL A   1      52.351  25.835  25.449  1.00  0.00     0.060 A 
BRANCH  71  72
ATOM     72  S   UNL A   1      54.027  25.437  24.913  1.00  0.00     0.124 S 
ATOM     73  O   UNL A   1      54.086  26.100  23.614  1.00  0.00    -0.237 OA
ATOM     74  O   UNL A   1      54.838  26.037  25.968  1.00  0.00    -0.237 OA
ATOM     75  O   UNL A   1      54.036  23.978  24.871  1.00  0.00    -0.744 OA
ENDBRANCH  71  72
ENDBRANCH  50  64
BRANCH  51  76
ATOM     76  C   UNL A   1      40.577  29.351  29.045  1.00  0.00     0.058 A 
ATOM     77  C   UNL A   1      39.575  29.600  28.094  1.00  0.00     0.135 A 
ATOM     78  C   UNL A   1      40.256  29.562  30.395  1.00  0.00     0.135 A 
ATOM     79  F   UNL A   1      39.832  29.429  26.788  1.00  0.00    -0.206 F 
ATOM     80  C   UNL A   1      38.314  30.060  28.462  1.00  0.00     0.059 A 
ATOM     81  C   UNL A   1      38.992  29.990  30.792  1.00  0.00     0.059 A 
ATOM     82  F   UNL A   1      41.174  29.337  31.349  1.00  0.00    -0.206 F 
ATOM     83  C   UNL A   1      38.031  30.248  29.815  1.00  0.00     0.060 A 
BRANCH  83  84
ATOM     84  S   UNL A   1      36.381  30.819  30.280  1.00  0.00     0.124 S 
ATOM     85  O   UNL A   1      36.665  32.152  30.799  1.00  0.00    -0.237 OA
ATOM     86  O   UNL A   1      35.675  30.766  29.004  1.00  0.00    -0.237 OA
ATOM     87  O   UNL A   1      35.950  29.836  31.269  1.00  0.00    -0.744 OA
ENDBRANCH  83  84
ENDBRANCH  51  76
BRANCH  63  88
ATOM     88  C   UNL A   1      46.743  32.619  28.589  1.00  0.00     0.058 A 
ATOM     89  C   UNL A   1      46.676  33.622  27.610  1.00  0.00     0.135 A 
ATOM     90  C   UNL A   1      47.149  32.994  29.882  1.00  0.00     0.135 A 
ATOM     91  F   UNL A   1      46.296  33.320  26.358  1.00  0.00    -0.206 F 
ATOM     92  C   UNL A   1      47.016  34.941  27.896  1.00  0.00     0.059 A 
ATOM     93  C   UNL A   1      47.459  34.313  30.199  1.00  0.00     0.059 A 
ATOM     94  F   UNL A   1      47.216  32.079  30.862  1.00  0.00    -0.206 F 
ATOM     95  C   UNL A   1      47.397  35.279  29.196  1.00  0.00     0.060 A 
BRANCH  95  96
ATOM     96  S   UNL A   1      47.793  37.003  29.555  1.00  0.00     0.124 S 
ATOM     97  O   UNL A   1      46.506  37.513  30.014  1.00  0.00    -0.237 OA
ATOM     98  O   UNL A   1      48.826  36.875  30.578  1.00  0.00    -0.237 OA
ATOM     99  O   UNL A   1      48.251  37.524  28.270  1.00  0.00    -0.744 OA
ENDBRANCH  95  96
ENDBRANCH  63  88
ENDBRANCH  37  38
ENDBRANCH  30  32
ENDBRANCH  29  30
ENDBRANCH  28  29
ENDBRANCH  27  28
ENDBRANCH  26  27
ENDBRANCH   1  26
TORSDOF 22
ENDMDL
MODEL 2
REMARK VINA RESULT:     -10.1      1.509      2.320
REMARK SMILES C#Cc1cc(Cl)cc2c1O[C@H](C(F)(F)F)C(C(=O)OCCOCCOCCOC(=O)c1ccc(-c3c4nc(c(-c5c(F)cc(S(=O)(=O)[O-])cc5F)c5ccc([nH]5)c(-c5c(F)cc(S(=O)(=O)[O-])cc5F)c5nc(c(-c6c(F)cc(S(=O)(=O)[O-])cc6F)c6ccc3[nH]6)C=C5)C=C4)cc1)=C2
REMARK SMILES IDX 24 1 23 2 22 3 21 4 20 5 19 6 17 7 18 8 16 9 3 10 4 11 9 12
REMARK SMILES IDX 5 13 8 14 10 15 6 16 7 17 97 18 11 19 2 20 1 21 12 22 13 23
REMARK SMILES IDX 14 24 15 25 25 26 26 27 27 28 28 29 29 30 30 31 31 32 32 33
REMARK SMILES IDX 96 34 33 35 95 36 34 37 35 38 36 39 89 40 37 41 94 42 88 43
REMARK SMILES IDX 90 44 38 45 93 46 87 47 86 48 39 50 73 51 52 52 72 53 53 54
REMARK SMILES IDX 56 55 71 56 91 57 54 58 55 59 70 61 92 62 57 63 40 64 41 65
REMARK SMILES IDX 50 66 42 67 43 68 49 69 51 70 44 71 45 72 46 73 47 74 48 75
REMARK SMILES IDX 74 76 75 77 84 78 76 79 77 80 83 81 85 82 78 83 79 84 80 85
REMARK SMILES IDX 81 86 82 87 58 88 59 89 68 90 60 91 61 92 67 93 69 94 62 95
REMARK SMILES IDX 63 96 64 97 65 98 66 99
REMARK H PARENT 90 49 56 60
REMARK Flexibility Score: inf
ROOT
ATOM      1  C   UNL A   1      37.291  21.808  24.882  1.00  0.00     0.188 C 
ENDROOT
BRANCH   1   2
ATOM      2  C   UNL A   1      35.996  22.207  25.621  1.00  0.00     0.188 C 
BRANCH   2   3
ATOM      3  O   UNL A   1      35.177  21.164  26.095  1.00  0.00    -0.376 OA
BRANCH   3   4
ATOM      4  C   UNL A   1      33.789  21.363  26.291  1.00  0.00     0.202 C 
BRANCH   4   5
ATOM      5  C   UNL A   1      32.771  21.774  25.207  1.00  0.00     0.261 C 
BRANCH   5   6
ATOM      6  O   UNL A   1      32.214  23.090  25.277  1.00  0.00    -0.460 OA
BRANCH   6   7
ATOM      7  C   UNL A   1      32.120  23.753  24.098  1.00  0.00     0.338 C 
ATOM      8  O   UNL A   1      32.196  23.269  22.982  1.00  0.00    -0.246 OA
BRANCH   7   9
ATOM      9  C   UNL A   1      31.754  25.162  24.358  1.00  0.00     0.087 C 
ATOM     10  C   UNL A   1      31.044  29.251  24.825  1.00  0.00     0.068 A 
ATOM     11  C   UNL A   1      30.279  29.929  23.872  1.00  0.00     0.041 A 
ATOM     12  C   UNL A   1      31.198  27.857  24.740  1.00  0.00     0.143 A 
ATOM     13  C   UNL A   1      29.656  29.216  22.852  1.00  0.00     0.043 A 
ATOM     14  C   UNL A   1      30.612  27.155  23.681  1.00  0.00     0.020 A 
ATOM     15  O   UNL A   1      31.937  27.244  25.717  1.00  0.00    -0.474 OA
ATOM     16  Cl  UNL A   1      28.726  30.056  21.675  1.00  0.00    -0.084 Cl
ATOM     17  C   UNL A   1      29.813  27.834  22.753  1.00  0.00     0.032 A 
ATOM     18  C   UNL A   1      30.907  25.743  23.495  1.00  0.00     0.027 C 
ATOM     19  C   UNL A   1      32.325  25.856  25.562  1.00  0.00     0.316 C 
BRANCH  10  20
ATOM     20  C   UNL A   1      31.712  30.014  25.837  1.00  0.00    -0.067 C 
ATOM     21  C   UNL A   1      32.238  30.665  26.702  1.00  0.00     0.010 C 
ENDBRANCH  10  20
BRANCH  19  22
ATOM     22  C   UNL A   1      33.856  25.779  25.599  1.00  0.00     0.430 C 
ATOM     23  F   UNL A   1      34.396  26.920  26.094  1.00  0.00    -0.167 F 
ATOM     24  F   UNL A   1      34.290  24.773  26.396  1.00  0.00    -0.167 F 
ATOM     25  F   UNL A   1      34.383  25.580  24.371  1.00  0.00    -0.167 F 
ENDBRANCH  19  22
ENDBRANCH   7   9
ENDBRANCH   6   7
ENDBRANCH   5   6
ENDBRANCH   4   5
ENDBRANCH   3   4
ENDBRANCH   2   3
ENDBRANCH   1   2
BRANCH   1  26
ATOM     26  O   UNL A   1      37.492  20.444  24.587  1.00  0.00    -0.376 OA
BRANCH  26  27
ATOM     27  C   UNL A   1      38.513  19.733  25.271  1.00  0.00     0.202 C 
BRANCH  27  28
ATOM     28  C   UNL A   1      39.787  20.350  25.898  1.00  0.00     0.261 C 
BRANCH  28  29
ATOM     29  O   UNL A   1      40.653  19.513  26.676  1.00  0.00    -0.460 OA
BRANCH  29  30
ATOM     30  C   UNL A   1      41.949  19.448  26.270  1.00  0.00     0.338 C 
ATOM     31  O   UNL A   1      42.478  18.538  25.657  1.00  0.00    -0.246 OA
BRANCH  30  32
ATOM     32  C   UNL A   1      42.586  20.764  26.501  1.00  0.00     0.060 A 
ATOM     33  C   UNL A   1      42.630  21.285  27.805  1.00  0.00     0.016 A 
ATOM     34  C   UNL A   1      43.126  21.485  25.438  1.00  0.00     0.016 A 
ATOM     35  C   UNL A   1      43.219  22.527  28.048  1.00  0.00     0.010 A 
ATOM     36  C   UNL A   1      43.681  22.747  25.677  1.00  0.00     0.010 A 
ATOM     37  C   UNL A   1      43.711  23.284  26.979  1.00  0.00    -0.014 A 
BRANCH  37  38
ATOM     38  C   UNL A   1      44.072  24.709  27.189  1.00  0.00     0.031 A 
ATOM     39  C   UNL A   1      45.514  25.109  27.028  1.00  0.00     0.074 A 
ATOM     40  C   UNL A   1      43.141  25.636  27.486  1.00  0.00     0.049 A 
ATOM     41  N   UNL A   1      46.081  26.269  27.225  1.00  0.00    -0.248 NA
ATOM     42  C   UNL A   1      46.444  24.052  26.586  1.00  0.00     0.031 C 
ATOM     43  C   UNL A   1      41.707  25.386  27.609  1.00  0.00     0.029 A 
ATOM     44  N   UNL A   1      43.271  26.980  27.743  1.00  0.00    -0.354 N 
ATOM     45  C   UNL A   1      47.428  26.087  26.931  1.00  0.00     0.074 A 
ATOM     46  C   UNL A   1      47.602  24.694  26.581  1.00  0.00     0.031 C 
ATOM     47  C   UNL A   1      41.089  26.540  27.926  1.00  0.00     0.029 A 
ATOM     48  C   UNL A   1      42.087  27.600  28.066  1.00  0.00     0.049 A 
ATOM     49  H   UNL A   1      44.133  27.455  27.699  1.00  0.00     0.167 HD
ATOM     50  C   UNL A   1      48.425  27.001  26.936  1.00  0.00     0.037 A 
ATOM     51  C   UNL A   1      41.843  28.870  28.453  1.00  0.00     0.037 A 
ATOM     52  C   UNL A   1      48.245  28.386  27.283  1.00  0.00     0.049 A 
ATOM     53  C   UNL A   1      42.992  29.845  28.554  1.00  0.00     0.074 A 
ATOM     54  C   UNL A   1      49.197  29.390  27.320  1.00  0.00     0.029 A 
ATOM     55  N   UNL A   1      47.040  28.964  27.653  1.00  0.00    -0.354 N 
ATOM     56  N   UNL A   1      44.260  29.662  28.268  1.00  0.00    -0.248 NA
ATOM     57  C   UNL A   1      42.679  31.201  29.033  1.00  0.00     0.031 C 
ATOM     58  C   UNL A   1      48.580  30.559  27.770  1.00  0.00     0.029 A 
ATOM     59  C   UNL A   1      47.230  30.304  27.947  1.00  0.00     0.049 A 
ATOM     60  H   UNL A   1      46.178  28.491  27.699  1.00  0.00     0.167 HD
ATOM     61  C   UNL A   1      44.885  30.885  28.497  1.00  0.00     0.074 A 
ATOM     62  C   UNL A   1      43.856  31.804  28.932  1.00  0.00     0.031 C 
ATOM     63  C   UNL A   1      46.194  31.215  28.363  1.00  0.00     0.037 A 
BRANCH  50  64
ATOM     64  C   UNL A   1      49.807  26.546  26.557  1.00  0.00     0.058 A 
ATOM     65  C   UNL A   1      50.718  26.086  27.521  1.00  0.00     0.135 A 
ATOM     66  C   UNL A   1      50.192  26.482  25.208  1.00  0.00     0.135 A 
ATOM     67  F   UNL A   1      50.411  26.147  28.826  1.00  0.00    -0.206 F 
ATOM     68  C   UNL A   1      51.962  25.580  27.160  1.00  0.00     0.059 A 
ATOM     69  C   UNL A   1      51.419  25.951  24.823  1.00  0.00     0.059 A 
ATOM     70  F   UNL A   1      49.361  26.915  24.246  1.00  0.00    -0.206 F 
ATOM     71  C   UNL A   1      52.298  25.504  25.807  1.00  0.00     0.060 A 
BRANCH  71  72
ATOM     72  S   UNL A   1      53.897  24.798  25.361  1.00  0.00     0.124 S 
ATOM     73  O   UNL A   1      53.526  23.433  25.001  1.00  0.00    -0.237 OA
ATOM     74  O   UNL A   1      54.313  25.654  24.254  1.00  0.00    -0.237 OA
ATOM     75  O   UNL A   1      54.684  24.929  26.583  1.00  0.00    -0.744 OA
ENDBRANCH  71  72
ENDBRANCH  50  64
BRANCH  51  76
ATOM     76  C   UNL A   1      40.454  29.305  28.784  1.00  0.00     0.058 A 
ATOM     77  C   UNL A   1      39.504  29.521  27.774  1.00  0.00     0.135 A 
ATOM     78  C   UNL A   1      40.055  29.539  30.110  1.00  0.00     0.135 A 
ATOM     79  F   UNL A   1      39.837  29.328  26.488  1.00  0.00    -0.206 F 
ATOM     80  C   UNL A   1      38.219  29.971  28.061  1.00  0.00     0.059 A 
ATOM     81  C   UNL A   1      38.766  29.957  30.426  1.00  0.00     0.059 A 
ATOM     82  F   UNL A   1      40.920  29.345  31.118  1.00  0.00    -0.206 F 
ATOM     83  C   UNL A   1      37.858  30.182  29.392  1.00  0.00     0.060 A 
BRANCH  83  84
ATOM     84  S   UNL A   1      36.177  30.739  29.751  1.00  0.00     0.124 S 
ATOM     85  O   UNL A   1      35.899  30.051  31.007  1.00  0.00    -0.237 OA
ATOM     86  O   UNL A   1      36.352  32.186  29.839  1.00  0.00    -0.237 OA
ATOM     87  O   UNL A   1      35.414  30.275  28.596  1.00  0.00    -0.744 OA
ENDBRANCH  83  84
ENDBRANCH  51  76
BRANCH  63  88
ATOM     88  C   UNL A   1      46.601  32.638  28.653  1.00  0.00     0.058 A 
ATOM     89  C   UNL A   1      47.019  33.040  29.931  1.00  0.00     0.135 A 
ATOM     90  C   UNL A   1      46.659  33.587  27.618  1.00  0.00     0.135 A 
ATOM     91  F   UNL A   1      46.983  32.176  30.958  1.00  0.00    -0.206 F 
ATOM     92  C   UNL A   1      47.461  34.337  30.177  1.00  0.00     0.059 A 
ATOM     93  C   UNL A   1      47.131  34.878  27.833  1.00  0.00     0.059 A 
ATOM     94  F   UNL A   1      46.286  33.252  26.372  1.00  0.00    -0.206 F 
ATOM     95  C   UNL A   1      47.522  35.246  29.119  1.00  0.00     0.060 A 
BRANCH  95  96
ATOM     96  S   UNL A   1      48.138  36.910  29.450  1.00  0.00     0.124 S 
ATOM     97  O   UNL A   1      49.117  37.082  28.382  1.00  0.00    -0.237 OA
ATOM     98  O   UNL A   1      46.927  37.716  29.336  1.00  0.00    -0.237 OA
ATOM     99  O   UNL A   1      48.693  36.808  30.798  1.00  0.00    -0.744 OA
ENDBRANCH  95  96
ENDBRANCH  63  88
ENDBRANCH  37  38
ENDBRANCH  30  32
ENDBRANCH  29  30
ENDBRANCH  28  29
ENDBRANCH  27  28
ENDBRANCH  26  27
ENDBRANCH   1  26
TORSDOF 22
ENDMDL
MODEL 3
REMARK VINA RESULT:     -10.0      5.883      7.715
REMARK SMILES C#Cc1cc(Cl)cc2c1O[C@H](C(F)(F)F)C(C(=O)OCCOCCOCCOC(=O)c1ccc(-c3c4nc(c(-c5c(F)cc(S(=O)(=O)[O-])cc5F)c5ccc([nH]5)c(-c5c(F)cc(S(=O)(=O)[O-])cc5F)c5nc(c(-c6c(F)cc(S(=O)(=O)[O-])cc6F)c6ccc3[nH]6)C=C5)C=C4)cc1)=C2
REMARK SMILES IDX 24 1 23 2 22 3 21 4 20 5 19 6 17 7 18 8 16 9 3 10 4 11 9 12
REMARK SMILES IDX 5 13 8 14 10 15 6 16 7 17 97 18 11 19 2 20 1 21 12 22 13 23
REMARK SMILES IDX 14 24 15 25 25 26 26 27 27 28 28 29 29 30 30 31 31 32 32 33
REMARK SMILES IDX 96 34 33 35 95 36 34 37 35 38 36 39 89 40 37 41 94 42 88 43
REMARK SMILES IDX 90 44 38 45 93 46 87 47 86 48 39 50 73 51 52 52 72 53 53 54
REMARK SMILES IDX 56 55 71 56 91 57 54 58 55 59 70 61 92 62 57 63 40 64 41 65
REMARK SMILES IDX 50 66 42 67 43 68 49 69 51 70 44 71 45 72 46 73 47 74 48 75
REMARK SMILES IDX 74 76 75 77 84 78 76 79 77 80 83 81 85 82 78 83 79 84 80 85
REMARK SMILES IDX 81 86 82 87 58 88 59 89 68 90 60 91 61 92 67 93 69 94 62 95
REMARK SMILES IDX 63 96 64 97 65 98 66 99
REMARK H PARENT 90 49 56 60
REMARK Flexibility Score: inf
ROOT
ATOM      1  C   UNL A   1      36.523  21.954  24.201  1.00  0.00     0.188 C 
ENDROOT
BRANCH   1   2
ATOM      2  C   UNL A   1      35.407  23.008  24.042  1.00  0.00     0.188 C 
BRANCH   2   3
ATOM      3  O   UNL A   1      34.241  22.832  24.813  1.00  0.00    -0.376 OA
BRANCH   3   4
ATOM      4  C   UNL A   1      32.958  22.994  24.236  1.00  0.00     0.202 C 
BRANCH   4   5
ATOM      5  C   UNL A   1      32.665  23.469  22.798  1.00  0.00     0.261 C 
BRANCH   5   6
ATOM      6  O   UNL A   1      31.654  24.465  22.614  1.00  0.00    -0.460 OA
BRANCH   6   7
ATOM      7  C   UNL A   1      32.050  25.598  21.985  1.00  0.00     0.338 C 
ATOM      8  O   UNL A   1      32.590  25.674  20.894  1.00  0.00    -0.246 OA
BRANCH   7   9
ATOM      9  C   UNL A   1      31.591  26.772  22.757  1.00  0.00     0.087 C 
ATOM     10  C   UNL A   1      30.572  30.324  24.702  1.00  0.00     0.068 A 
ATOM     11  C   UNL A   1      29.638  31.184  24.118  1.00  0.00     0.041 A 
ATOM     12  C   UNL A   1      30.842  29.077  24.116  1.00  0.00     0.143 A 
ATOM     13  C   UNL A   1      28.963  30.791  22.966  1.00  0.00     0.043 A 
ATOM     14  C   UNL A   1      30.198  28.712  22.928  1.00  0.00     0.020 A 
ATOM     15  O   UNL A   1      31.747  28.266  24.747  1.00  0.00    -0.474 OA
ATOM     16  Cl  UNL A   1      27.824  31.858  22.244  1.00  0.00    -0.084 Cl
ATOM     17  C   UNL A   1      29.233  29.560  22.370  1.00  0.00     0.032 A 
ATOM     18  C   UNL A   1      30.596  27.500  22.229  1.00  0.00     0.027 C 
ATOM     19  C   UNL A   1      32.239  27.077  24.078  1.00  0.00     0.316 C 
BRANCH  10  20
ATOM     20  C   UNL A   1      31.286  30.772  25.861  1.00  0.00    -0.067 C 
ATOM     21  C   UNL A   1      31.856  31.134  26.857  1.00  0.00     0.010 C 
ENDBRANCH  10  20
BRANCH  19  22
ATOM     22  C   UNL A   1      33.763  27.190  23.960  1.00  0.00     0.430 C 
ATOM     23  F   UNL A   1      34.137  27.558  22.710  1.00  0.00    -0.167 F 
ATOM     24  F   UNL A   1      34.265  28.126  24.801  1.00  0.00    -0.167 F 
ATOM     25  F   UNL A   1      34.381  26.021  24.240  1.00  0.00    -0.167 F 
ENDBRANCH  19  22
ENDBRANCH   7   9
ENDBRANCH   6   7
ENDBRANCH   5   6
ENDBRANCH   4   5
ENDBRANCH   3   4
ENDBRANCH   2   3
ENDBRANCH   1   2
BRANCH   1  26
ATOM     26  O   UNL A   1      37.122  21.809  25.468  1.00  0.00    -0.376 OA
BRANCH  26  27
ATOM     27  C   UNL A   1      38.530  21.647  25.552  1.00  0.00     0.202 C 
BRANCH  27  28
ATOM     28  C   UNL A   1      39.472  22.372  26.545  1.00  0.00     0.261 C 
BRANCH  28  29
ATOM     29  O   UNL A   1      40.105  23.592  26.136  1.00  0.00    -0.460 OA
BRANCH  29  30
ATOM     30  C   UNL A   1      41.280  23.893  26.748  1.00  0.00     0.338 C 
ATOM     31  O   UNL A   1      42.365  23.378  26.542  1.00  0.00    -0.246 OA
BRANCH  30  32
ATOM     32  C   UNL A   1      41.090  25.110  27.569  1.00  0.00     0.060 A 
ATOM     33  C   UNL A   1      42.131  26.049  27.654  1.00  0.00     0.016 A 
ATOM     34  C   UNL A   1      39.898  25.318  28.260  1.00  0.00     0.016 A 
ATOM     35  C   UNL A   1      41.981  27.202  28.426  1.00  0.00     0.010 A 
ATOM     36  C   UNL A   1      39.763  26.455  29.066  1.00  0.00     0.010 A 
ATOM     37  C   UNL A   1      40.810  27.391  29.170  1.00  0.00    -0.014 A 
BRANCH  37  38
ATOM     38  C   UNL A   1      40.759  28.455  30.205  1.00  0.00     0.031 A 
ATOM     39  C   UNL A   1      41.783  28.424  31.308  1.00  0.00     0.074 A 
ATOM     40  C   UNL A   1      39.846  29.444  30.156  1.00  0.00     0.049 A 
ATOM     41  N   UNL A   1      41.898  29.198  32.354  1.00  0.00    -0.248 NA
ATOM     42  C   UNL A   1      42.816  27.376  31.217  1.00  0.00     0.031 C 
ATOM     43  C   UNL A   1      38.842  29.617  29.108  1.00  0.00     0.029 A 
ATOM     44  N   UNL A   1      39.616  30.489  31.017  1.00  0.00    -0.354 N 
ATOM     45  C   UNL A   1      43.013  28.735  33.045  1.00  0.00     0.074 A 
ATOM     46  C   UNL A   1      43.516  27.588  32.322  1.00  0.00     0.031 C 
ATOM     47  C   UNL A   1      38.097  30.702  29.393  1.00  0.00     0.029 A 
ATOM     48  C   UNL A   1      38.546  31.276  30.661  1.00  0.00     0.049 A 
ATOM     49  H   UNL A   1      40.167  30.659  31.816  1.00  0.00     0.167 HD
ATOM     50  C   UNL A   1      43.576  29.231  34.171  1.00  0.00     0.037 A 
ATOM     51  C   UNL A   1      37.981  32.324  31.298  1.00  0.00     0.037 A 
ATOM     52  C   UNL A   1      43.073  30.374  34.885  1.00  0.00     0.049 A 
ATOM     53  C   UNL A   1      38.565  32.792  32.610  1.00  0.00     0.074 A 
ATOM     54  C   UNL A   1      43.575  30.952  36.039  1.00  0.00     0.029 A 
ATOM     55  N   UNL A   1      41.958  31.114  34.521  1.00  0.00    -0.354 N 
ATOM     56  N   UNL A   1      39.622  32.349  33.250  1.00  0.00    -0.248 NA
ATOM     57  C   UNL A   1      37.878  33.901  33.291  1.00  0.00     0.031 C 
ATOM     58  C   UNL A   1      42.729  32.001  36.404  1.00  0.00     0.029 A 
ATOM     59  C   UNL A   1      41.739  32.123  35.442  1.00  0.00     0.049 A 
ATOM     60  H   UNL A   1      41.405  30.945  33.724  1.00  0.00     0.167 HD
ATOM     61  C   UNL A   1      39.747  33.148  34.385  1.00  0.00     0.074 A 
ATOM     62  C   UNL A   1      38.666  34.109  34.338  1.00  0.00     0.031 C 
ATOM     63  C   UNL A   1      40.669  33.087  35.376  1.00  0.00     0.037 A 
BRANCH  50  64
ATOM     64  C   UNL A   1      44.803  28.549  34.711  1.00  0.00     0.058 A 
ATOM     65  C   UNL A   1      44.712  27.380  35.482  1.00  0.00     0.135 A 
ATOM     66  C   UNL A   1      46.084  29.017  34.378  1.00  0.00     0.135 A 
ATOM     67  F   UNL A   1      43.512  26.901  35.848  1.00  0.00    -0.206 F 
ATOM     68  C   UNL A   1      45.849  26.698  35.904  1.00  0.00     0.059 A 
ATOM     69  C   UNL A   1      47.234  28.335  34.764  1.00  0.00     0.059 A 
ATOM     70  F   UNL A   1      46.228  30.135  33.649  1.00  0.00    -0.206 F 
ATOM     71  C   UNL A   1      47.105  27.177  35.529  1.00  0.00     0.060 A 
BRANCH  71  72
ATOM     72  S   UNL A   1      48.564  26.250  36.047  1.00  0.00     0.124 S 
ATOM     73  O   UNL A   1      49.598  26.828  35.195  1.00  0.00    -0.237 OA
ATOM     74  O   UNL A   1      48.652  26.582  37.465  1.00  0.00    -0.237 OA
ATOM     75  O   UNL A   1      48.213  24.864  35.750  1.00  0.00    -0.744 OA
ENDBRANCH  71  72
ENDBRANCH  50  64
BRANCH  51  76
ATOM     76  C   UNL A   1      36.788  33.007  30.718  1.00  0.00     0.058 A 
ATOM     77  C   UNL A   1      36.934  34.037  29.776  1.00  0.00     0.135 A 
ATOM     78  C   UNL A   1      35.484  32.667  31.109  1.00  0.00     0.135 A 
ATOM     79  F   UNL A   1      38.159  34.414  29.378  1.00  0.00    -0.206 F 
ATOM     80  C   UNL A   1      35.835  34.717  29.259  1.00  0.00     0.059 A 
ATOM     81  C   UNL A   1      34.367  33.308  30.582  1.00  0.00     0.059 A 
ATOM     82  F   UNL A   1      35.284  31.686  32.005  1.00  0.00    -0.206 F 
ATOM     83  C   UNL A   1      34.554  34.342  29.666  1.00  0.00     0.060 A 
BRANCH  83  84
ATOM     84  S   UNL A   1      33.137  35.215  28.964  1.00  0.00     0.124 S 
ATOM     85  O   UNL A   1      33.772  36.391  28.381  1.00  0.00    -0.237 OA
ATOM     86  O   UNL A   1      32.616  34.233  28.018  1.00  0.00    -0.237 OA
ATOM     87  O   UNL A   1      32.288  35.467  30.126  1.00  0.00    -0.744 OA
ENDBRANCH  83  84
ENDBRANCH  51  76
BRANCH  63  88
ATOM     88  C   UNL A   1      40.588  34.105  36.486  1.00  0.00     0.058 A 
ATOM     89  C   UNL A   1      41.321  35.301  36.446  1.00  0.00     0.135 A 
ATOM     90  C   UNL A   1      39.695  33.922  37.556  1.00  0.00     0.135 A 
ATOM     91  F   UNL A   1      42.190  35.529  35.447  1.00  0.00    -0.206 F 
ATOM     92  C   UNL A   1      41.188  36.269  37.437  1.00  0.00     0.059 A 
ATOM     93  C   UNL A   1      39.520  34.891  38.538  1.00  0.00     0.059 A 
ATOM     94  F   UNL A   1      38.956  32.803  37.636  1.00  0.00    -0.206 F 
ATOM     95  C   UNL A   1      40.277  36.059  38.475  1.00  0.00     0.060 A 
BRANCH  95  96
ATOM     96  S   UNL A   1      40.090  37.346  39.727  1.00  0.00     0.124 S 
ATOM     97  O   UNL A   1      40.141  36.568  40.960  1.00  0.00    -0.237 OA
ATOM     98  O   UNL A   1      41.244  38.200  39.467  1.00  0.00    -0.237 OA
ATOM     99  O   UNL A   1      38.793  37.940  39.415  1.00  0.00    -0.744 OA
ENDBRANCH  95  96
ENDBRANCH  63  88
ENDBRANCH  37  38
ENDBRANCH  30  32
ENDBRANCH  29  30
ENDBRANCH  28  29
ENDBRANCH  27  28
ENDBRANCH  26  27
ENDBRANCH   1  26
TORSDOF 22
ENDMDL
