MODEL 1
REMARK VINA RESULT:     -10.1      0.000      0.000
REMARK SMILES O=C(COc1cc(-c2ccccc2)nc(NCc2ccc(Cl)c(Cl)c2)n1)OCCOCCOCCOC(=O)c1ccc(-c2c3nc(c(-c4c(F)cc(S(=O)(=O)[O-])cc4F)c4ccc([nH]4)c(-c4c(F)cc(S(=O)(=O)[O-])cc4F)c4nc(c(-c5c(F)cc(S(=O)(=O)[O-])cc5F)c5ccc2[nH]5)C=C4)C=C3)cc1
REMARK SMILES IDX 31 1 30 2 29 3 28 4 27 5 2 6 1 7 3 8 4 9 5 10 6 11 26 12
REMARK SMILES IDX 7 13 15 14 14 15 8 16 9 17 13 18 10 19 12 20 11 21 16 22
REMARK SMILES IDX 17 24 18 25 19 26 25 27 20 28 23 29 21 30 24 31 22 32 32 33
REMARK SMILES IDX 33 34 34 35 35 36 36 37 37 38 38 39 39 40 40 41 104 42 41 43
REMARK SMILES IDX 103 44 42 45 43 46 44 47 97 48 45 49 102 50 96 51 98 52
REMARK SMILES IDX 46 53 101 54 95 55 94 56 47 58 81 59 60 60 80 61 61 62 64 63
REMARK SMILES IDX 79 64 99 65 62 66 63 67 78 69 100 70 65 71 48 72 49 73 58 74
REMARK SMILES IDX 50 75 51 76 57 77 59 78 52 79 53 80 54 81 55 82 56 83 82 84
REMARK SMILES IDX 83 85 92 86 84 87 85 88 91 89 93 90 86 91 87 92 88 93 89 94
REMARK SMILES IDX 90 95 66 96 67 97 76 98 68 99 69 100 75 101 77 102 70 103
REMARK SMILES IDX 71 104 72 105 73 106 74 107
REMARK H PARENT 16 23 98 57 64 68
REMARK Flexibility Score: inf
ROOT
ATOM      1  C   UNL A   1      36.175  21.883  25.619  1.00  0.00     0.188 C 
ENDROOT
BRANCH   1   2
ATOM      2  O   UNL A   1      35.134  22.634  26.233  1.00  0.00    -0.376 OA
BRANCH   2   3
ATOM      3  C   UNL A   1      34.413  21.963  27.248  1.00  0.00     0.202 C 
BRANCH   3   4
ATOM      4  C   UNL A   1      32.911  22.146  27.053  1.00  0.00     0.261 C 
BRANCH   4   5
ATOM      5  O   UNL A   1      32.487  23.473  26.645  1.00  0.00    -0.461 OA
BRANCH   5   6
ATOM      6  C   UNL A   1      31.274  24.054  26.792  1.00  0.00     0.344 C 
ATOM      7  O   UNL A   1      30.353  23.414  27.296  1.00  0.00    -0.248 OA
BRANCH   6   8
ATOM      8  C   UNL A   1      31.066  25.482  26.316  1.00  0.00     0.353 C 
BRANCH   8   9
ATOM      9  O   UNL A   1      31.454  26.482  27.241  1.00  0.00    -0.466 OA
BRANCH   9  10
ATOM     10  C   UNL A   1      32.067  27.516  26.606  1.00  0.00     0.219 A 
ATOM     11  C   UNL A   1      33.107  28.203  27.156  1.00  0.00     0.097 A 
ATOM     12  N   UNL A   1      31.521  27.814  25.441  1.00  0.00    -0.177 NA
ATOM     13  C   UNL A   1      33.485  29.345  26.497  1.00  0.00     0.080 A 
ATOM     14  C   UNL A   1      31.948  28.921  24.839  1.00  0.00     0.226 A 
ATOM     15  N   UNL A   1      32.902  29.728  25.340  1.00  0.00    -0.213 NA
BRANCH  13  16
ATOM     16  C   UNL A   1      34.462  30.225  27.158  1.00  0.00     0.000 A 
ATOM     17  C   UNL A   1      34.090  31.488  27.637  1.00  0.00     0.010 A 
ATOM     18  C   UNL A   1      35.736  29.731  27.515  1.00  0.00     0.010 A 
ATOM     19  C   UNL A   1      34.941  32.211  28.481  1.00  0.00     0.001 A 
ATOM     20  C   UNL A   1      36.583  30.451  28.358  1.00  0.00     0.001 A 
ATOM     21  C   UNL A   1      36.179  31.688  28.850  1.00  0.00     0.000 A 
ENDBRANCH  13  16
BRANCH  14  22
ATOM     22  N   UNL A   1      31.330  29.275  23.676  1.00  0.00    -0.350 N 
ATOM     23  H   UNL A   1      31.790  29.866  23.037  1.00  0.00     0.164 HD
BRANCH  22  24
ATOM     24  C   UNL A   1      29.998  28.784  23.373  1.00  0.00     0.152 C 
BRANCH  24  25
ATOM     25  C   UNL A   1      29.205  29.920  22.785  1.00  0.00    -0.027 A 
ATOM     26  C   UNL A   1      28.376  29.721  21.679  1.00  0.00     0.007 A 
ATOM     27  C   UNL A   1      29.356  31.214  23.309  1.00  0.00     0.027 A 
ATOM     28  C   UNL A   1      27.809  30.820  21.031  1.00  0.00     0.022 A 
ATOM     29  C   UNL A   1      28.796  32.314  22.657  1.00  0.00     0.060 A 
ATOM     30  C   UNL A   1      28.065  32.119  21.484  1.00  0.00     0.059 A 
ATOM     31  Cl  UNL A   1      29.130  33.878  23.310  1.00  0.00    -0.083 Cl
ATOM     32  Cl  UNL A   1      27.569  33.430  20.473  1.00  0.00    -0.083 Cl
ENDBRANCH  24  25
ENDBRANCH  22  24
ENDBRANCH  14  22
ENDBRANCH   9  10
ENDBRANCH   8   9
ENDBRANCH   6   8
ENDBRANCH   5   6
ENDBRANCH   4   5
ENDBRANCH   3   4
ENDBRANCH   2   3
ENDBRANCH   1   2
BRANCH   1  33
ATOM     33  C   UNL A   1      37.527  22.608  25.691  1.00  0.00     0.188 C 
BRANCH  33  34
ATOM     34  O   UNL A   1      38.719  21.903  25.352  1.00  0.00    -0.376 OA
BRANCH  34  35
ATOM     35  C   UNL A   1      39.266  20.979  26.280  1.00  0.00     0.202 C 
BRANCH  35  36
ATOM     36  C   UNL A   1      39.821  19.675  25.696  1.00  0.00     0.261 C 
BRANCH  36  37
ATOM     37  O   UNL A   1      41.178  19.757  25.216  1.00  0.00    -0.460 OA
BRANCH  37  38
ATOM     38  C   UNL A   1      42.150  19.692  26.157  1.00  0.00     0.338 C 
ATOM     39  O   UNL A   1      42.721  18.677  26.545  1.00  0.00    -0.246 OA
BRANCH  38  40
ATOM     40  C   UNL A   1      42.575  21.051  26.575  1.00  0.00     0.060 A 
ATOM     41  C   UNL A   1      42.761  22.025  25.582  1.00  0.00     0.016 A 
ATOM     42  C   UNL A   1      42.857  21.363  27.907  1.00  0.00     0.016 A 
ATOM     43  C   UNL A   1      43.253  23.294  25.910  1.00  0.00     0.010 A 
ATOM     44  C   UNL A   1      43.372  22.629  28.232  1.00  0.00     0.010 A 
ATOM     45  C   UNL A   1      43.598  23.597  27.234  1.00  0.00    -0.014 A 
BRANCH  45  46
ATOM     46  C   UNL A   1      44.309  24.865  27.561  1.00  0.00     0.031 A 
ATOM     47  C   UNL A   1      43.604  25.920  28.376  1.00  0.00     0.074 A 
ATOM     48  C   UNL A   1      45.564  25.099  27.131  1.00  0.00     0.049 A 
ATOM     49  N   UNL A   1      43.993  27.133  28.677  1.00  0.00    -0.248 NA
ATOM     50  C   UNL A   1      42.286  25.558  28.922  1.00  0.00     0.031 C 
ATOM     51  C   UNL A   1      46.388  24.168  26.362  1.00  0.00     0.029 A 
ATOM     52  N   UNL A   1      46.356  26.217  27.262  1.00  0.00    -0.354 N 
ATOM     53  C   UNL A   1      42.967  27.685  29.436  1.00  0.00     0.074 A 
ATOM     54  C   UNL A   1      41.933  26.677  29.541  1.00  0.00     0.031 C 
ATOM     55  C   UNL A   1      47.551  24.770  26.049  1.00  0.00     0.029 A 
ATOM     56  C   UNL A   1      47.542  26.137  26.571  1.00  0.00     0.049 A 
ATOM     57  H   UNL A   1      46.098  27.001  27.799  1.00  0.00     0.167 HD
ATOM     58  C   UNL A   1      42.891  28.915  29.999  1.00  0.00     0.037 A 
ATOM     59  C   UNL A   1      48.487  27.072  26.340  1.00  0.00     0.037 A 
ATOM     60  C   UNL A   1      43.914  29.925  29.914  1.00  0.00     0.049 A 
ATOM     61  C   UNL A   1      48.332  28.469  26.896  1.00  0.00     0.074 A 
ATOM     62  C   UNL A   1      43.933  31.178  30.506  1.00  0.00     0.029 A 
ATOM     63  N   UNL A   1      45.085  29.813  29.186  1.00  0.00    -0.354 N 
ATOM     64  N   UNL A   1      47.385  28.955  27.661  1.00  0.00    -0.248 NA
ATOM     65  C   UNL A   1      49.374  29.449  26.544  1.00  0.00     0.031 C 
ATOM     66  C   UNL A   1      45.090  31.845  30.091  1.00  0.00     0.029 A 
ATOM     67  C   UNL A   1      45.814  30.989  29.278  1.00  0.00     0.049 A 
ATOM     68  H   UNL A   1      45.361  29.017  28.677  1.00  0.00     0.167 HD
ATOM     69  C   UNL A   1      47.731  30.285  27.897  1.00  0.00     0.074 A 
ATOM     70  C   UNL A   1      48.981  30.524  27.212  1.00  0.00     0.031 C 
ATOM     71  C   UNL A   1      47.067  31.226  28.611  1.00  0.00     0.037 A 
BRANCH  58  72
ATOM     72  C   UNL A   1      41.642  29.268  30.752  1.00  0.00     0.058 A 
ATOM     73  C   UNL A   1      40.472  29.668  30.090  1.00  0.00     0.135 A 
ATOM     74  C   UNL A   1      41.587  29.107  32.146  1.00  0.00     0.135 A 
ATOM     75  F   UNL A   1      40.477  29.849  28.760  1.00  0.00    -0.206 F 
ATOM     76  C   UNL A   1      39.290  29.902  30.785  1.00  0.00     0.059 A 
ATOM     77  C   UNL A   1      40.412  29.315  32.860  1.00  0.00     0.059 A 
ATOM     78  F   UNL A   1      42.681  28.726  32.824  1.00  0.00    -0.206 F 
ATOM     79  C   UNL A   1      39.270  29.716  32.169  1.00  0.00     0.060 A 
BRANCH  79  80
ATOM     80  S   UNL A   1      37.716  29.982  33.051  1.00  0.00     0.124 S 
ATOM     81  O   UNL A   1      37.010  30.872  32.134  1.00  0.00    -0.237 OA
ATOM     82  O   UNL A   1      37.182  28.627  33.156  1.00  0.00    -0.237 OA
ATOM     83  O   UNL A   1      38.138  30.586  34.310  1.00  0.00    -0.744 OA
ENDBRANCH  79  80
ENDBRANCH  58  72
BRANCH  59  84
ATOM     84  C   UNL A   1      49.637  26.785  25.439  1.00  0.00     0.058 A 
ATOM     85  C   UNL A   1      50.851  26.289  25.939  1.00  0.00     0.135 A 
ATOM     86  C   UNL A   1      49.585  27.162  24.089  1.00  0.00     0.135 A 
ATOM     87  F   UNL A   1      50.946  25.928  27.228  1.00  0.00    -0.206 F 
ATOM     88  C   UNL A   1      52.001  26.260  25.154  1.00  0.00     0.059 A 
ATOM     89  C   UNL A   1      50.711  27.116  23.280  1.00  0.00     0.059 A 
ATOM     90  F   UNL A   1      48.442  27.621  23.558  1.00  0.00    -0.206 F 
ATOM     91  C   UNL A   1      51.923  26.707  23.835  1.00  0.00     0.060 A 
BRANCH  91  92
ATOM     92  S   UNL A   1      53.403  26.857  22.817  1.00  0.00     0.124 S 
ATOM     93  O   UNL A   1      53.535  28.305  22.701  1.00  0.00    -0.237 OA
ATOM     94  O   UNL A   1      54.424  26.195  23.618  1.00  0.00    -0.237 OA
ATOM     95  O   UNL A   1      53.004  26.159  21.599  1.00  0.00    -0.744 OA
ENDBRANCH  91  92
ENDBRANCH  59  84
BRANCH  71  96
ATOM     96  C   UNL A   1      47.686  32.593  28.724  1.00  0.00     0.058 A 
ATOM     97  C   UNL A   1      48.644  32.891  29.705  1.00  0.00     0.135 A 
ATOM     98  C   UNL A   1      47.354  33.606  27.809  1.00  0.00     0.135 A 
ATOM     99  F   UNL A   1      48.993  31.964  30.612  1.00  0.00    -0.206 F 
ATOM    100  C   UNL A   1      49.240  34.147  29.786  1.00  0.00     0.059 A 
ATOM    101  C   UNL A   1      47.956  34.861  27.854  1.00  0.00     0.059 A 
ATOM    102  F   UNL A   1      46.450  33.374  26.843  1.00  0.00    -0.206 F 
ATOM    103  C   UNL A   1      48.891  35.125  28.853  1.00  0.00     0.060 A 
BRANCH 103 104
ATOM    104  S   UNL A   1      49.702  36.737  28.940  1.00  0.00     0.124 S 
ATOM    105  O   UNL A   1      50.601  36.678  27.792  1.00  0.00    -0.237 OA
ATOM    106  O   UNL A   1      48.579  37.661  28.819  1.00  0.00    -0.237 OA
ATOM    107  O   UNL A   1      50.353  36.721  30.246  1.00  0.00    -0.744 OA
ENDBRANCH 103 104
ENDBRANCH  71  96
ENDBRANCH  45  46
ENDBRANCH  38  40
ENDBRANCH  37  38
ENDBRANCH  36  37
ENDBRANCH  35  36
ENDBRANCH  34  35
ENDBRANCH  33  34
ENDBRANCH   1  33
TORSDOF 26
ENDMDL
MODEL 2
REMARK VINA RESULT:     -10.0      2.366      4.332
REMARK SMILES O=C(COc1cc(-c2ccccc2)nc(NCc2ccc(Cl)c(Cl)c2)n1)OCCOCCOCCOC(=O)c1ccc(-c2c3nc(c(-c4c(F)cc(S(=O)(=O)[O-])cc4F)c4ccc([nH]4)c(-c4c(F)cc(S(=O)(=O)[O-])cc4F)c4nc(c(-c5c(F)cc(S(=O)(=O)[O-])cc5F)c5ccc2[nH]5)C=C4)C=C3)cc1
REMARK SMILES IDX 31 1 30 2 29 3 28 4 27 5 2 6 1 7 3 8 4 9 5 10 6 11 26 12
REMARK SMILES IDX 7 13 15 14 14 15 8 16 9 17 13 18 10 19 12 20 11 21 16 22
REMARK SMILES IDX 17 24 18 25 19 26 25 27 20 28 23 29 21 30 24 31 22 32 32 33
REMARK SMILES IDX 33 34 34 35 35 36 36 37 37 38 38 39 39 40 40 41 104 42 41 43
REMARK SMILES IDX 103 44 42 45 43 46 44 47 97 48 45 49 102 50 96 51 98 52
REMARK SMILES IDX 46 53 101 54 95 55 94 56 47 58 81 59 60 60 80 61 61 62 64 63
REMARK SMILES IDX 79 64 99 65 62 66 63 67 78 69 100 70 65 71 48 72 49 73 58 74
REMARK SMILES IDX 50 75 51 76 57 77 59 78 52 79 53 80 54 81 55 82 56 83 82 84
REMARK SMILES IDX 83 85 92 86 84 87 85 88 91 89 93 90 86 91 87 92 88 93 89 94
REMARK SMILES IDX 90 95 66 96 67 97 76 98 68 99 69 100 75 101 77 102 70 103
REMARK SMILES IDX 71 104 72 105 73 106 74 107
REMARK H PARENT 16 23 98 57 64 68
REMARK Flexibility Score: inf
ROOT
ATOM      1  C   UNL A   1      35.916  23.721  25.365  1.00  0.00     0.188 C 
ENDROOT
BRANCH   1   2
ATOM      2  O   UNL A   1      34.625  24.296  25.530  1.00  0.00    -0.376 OA
BRANCH   2   3
ATOM      3  C   UNL A   1      34.424  25.543  24.894  1.00  0.00     0.202 C 
BRANCH   3   4
ATOM      4  C   UNL A   1      33.975  26.596  25.903  1.00  0.00     0.261 C 
BRANCH   4   5
ATOM      5  O   UNL A   1      34.369  27.961  25.605  1.00  0.00    -0.461 OA
BRANCH   5   6
ATOM      6  C   UNL A   1      34.373  29.036  26.427  1.00  0.00     0.344 C 
ATOM      7  O   UNL A   1      35.274  29.164  27.253  1.00  0.00    -0.248 OA
BRANCH   6   8
ATOM      8  C   UNL A   1      33.253  30.058  26.326  1.00  0.00     0.353 C 
BRANCH   8   9
ATOM      9  O   UNL A   1      31.966  29.567  26.657  1.00  0.00    -0.466 OA
BRANCH   9  10
ATOM     10  C   UNL A   1      31.282  29.211  25.538  1.00  0.00     0.219 A 
ATOM     11  C   UNL A   1      30.727  30.126  24.694  1.00  0.00     0.097 A 
ATOM     12  N   UNL A   1      31.166  27.904  25.387  1.00  0.00    -0.177 NA
ATOM     13  C   UNL A   1      29.896  29.621  23.727  1.00  0.00     0.080 A 
ATOM     14  C   UNL A   1      30.363  27.477  24.416  1.00  0.00     0.226 A 
ATOM     15  N   UNL A   1      29.689  28.293  23.584  1.00  0.00    -0.213 NA
BRANCH  13  16
ATOM     16  C   UNL A   1      29.118  30.580  22.925  1.00  0.00     0.000 A 
ATOM     17  C   UNL A   1      28.857  31.873  23.397  1.00  0.00     0.010 A 
ATOM     18  C   UNL A   1      28.805  30.291  21.579  1.00  0.00     0.010 A 
ATOM     19  C   UNL A   1      28.345  32.856  22.541  1.00  0.00     0.001 A 
ATOM     20  C   UNL A   1      28.297  31.271  20.726  1.00  0.00     0.001 A 
ATOM     21  C   UNL A   1      28.077  32.557  21.206  1.00  0.00     0.000 A 
ENDBRANCH  13  16
BRANCH  14  22
ATOM     22  N   UNL A   1      30.179  26.130  24.308  1.00  0.00    -0.350 N 
ATOM     23  H   UNL A   1      29.937  25.736  23.439  1.00  0.00     0.164 HD
BRANCH  22  24
ATOM     24  C   UNL A   1      30.338  25.272  25.468  1.00  0.00     0.152 C 
BRANCH  24  25
ATOM     25  C   UNL A   1      30.879  23.949  24.998  1.00  0.00    -0.027 A 
ATOM     26  C   UNL A   1      30.841  22.822  25.823  1.00  0.00     0.007 A 
ATOM     27  C   UNL A   1      31.497  23.860  23.739  1.00  0.00     0.027 A 
ATOM     28  C   UNL A   1      31.523  21.664  25.447  1.00  0.00     0.022 A 
ATOM     29  C   UNL A   1      32.186  22.705  23.367  1.00  0.00     0.060 A 
ATOM     30  C   UNL A   1      32.243  21.623  24.248  1.00  0.00     0.059 A 
ATOM     31  Cl  UNL A   1      33.012  22.729  21.850  1.00  0.00    -0.083 Cl
ATOM     32  Cl  UNL A   1      33.287  20.271  23.987  1.00  0.00    -0.083 Cl
ENDBRANCH  24  25
ENDBRANCH  22  24
ENDBRANCH  14  22
ENDBRANCH   9  10
ENDBRANCH   8   9
ENDBRANCH   6   8
ENDBRANCH   5   6
ENDBRANCH   4   5
ENDBRANCH   3   4
ENDBRANCH   2   3
ENDBRANCH   1   2
BRANCH   1  33
ATOM     33  C   UNL A   1      35.866  22.186  25.361  1.00  0.00     0.188 C 
BRANCH  33  34
ATOM     34  O   UNL A   1      36.948  21.449  25.925  1.00  0.00    -0.376 OA
BRANCH  34  35
ATOM     35  C   UNL A   1      38.261  21.657  25.430  1.00  0.00     0.202 C 
BRANCH  35  36
ATOM     36  C   UNL A   1      39.410  21.359  26.401  1.00  0.00     0.261 C 
BRANCH  36  37
ATOM     37  O   UNL A   1      40.483  20.572  25.844  1.00  0.00    -0.460 OA
BRANCH  37  38
ATOM     38  C   UNL A   1      41.516  20.297  26.676  1.00  0.00     0.338 C 
ATOM     39  O   UNL A   1      41.827  19.192  27.110  1.00  0.00    -0.246 OA
BRANCH  38  40
ATOM     40  C   UNL A   1      42.358  21.500  26.890  1.00  0.00     0.060 A 
ATOM     41  C   UNL A   1      42.686  21.857  28.207  1.00  0.00     0.016 A 
ATOM     42  C   UNL A   1      42.770  22.314  25.832  1.00  0.00     0.016 A 
ATOM     43  C   UNL A   1      43.394  23.035  28.471  1.00  0.00     0.010 A 
ATOM     44  C   UNL A   1      43.462  23.507  26.101  1.00  0.00     0.010 A 
ATOM     45  C   UNL A   1      43.758  23.891  27.423  1.00  0.00    -0.014 A 
BRANCH  45  46
ATOM     46  C   UNL A   1      44.330  25.237  27.707  1.00  0.00     0.031 A 
ATOM     47  C   UNL A   1      43.428  26.331  28.223  1.00  0.00     0.074 A 
ATOM     48  C   UNL A   1      45.633  25.507  27.498  1.00  0.00     0.049 A 
ATOM     49  N   UNL A   1      43.692  27.596  28.428  1.00  0.00    -0.248 NA
ATOM     50  C   UNL A   1      42.046  25.945  28.551  1.00  0.00     0.031 C 
ATOM     51  C   UNL A   1      46.636  24.551  27.033  1.00  0.00     0.029 A 
ATOM     52  N   UNL A   1      46.330  26.686  27.627  1.00  0.00    -0.354 N 
ATOM     53  C   UNL A   1      42.511  28.161  28.896  1.00  0.00     0.074 A 
ATOM     54  C   UNL A   1      41.525  27.102  28.936  1.00  0.00     0.031 C 
ATOM     55  C   UNL A   1      47.808  25.193  26.871  1.00  0.00     0.029 A 
ATOM     56  C   UNL A   1      47.632  26.609  27.192  1.00  0.00     0.049 A 
ATOM     57  H   UNL A   1      45.933  27.509  27.995  1.00  0.00     0.167 HD
ATOM     58  C   UNL A   1      42.267  29.443  29.263  1.00  0.00     0.037 A 
ATOM     59  C   UNL A   1      48.560  27.574  27.023  1.00  0.00     0.037 A 
ATOM     60  C   UNL A   1      43.239  30.506  29.241  1.00  0.00     0.049 A 
ATOM     61  C   UNL A   1      48.232  29.014  27.347  1.00  0.00     0.074 A 
ATOM     62  C   UNL A   1      43.080  31.820  29.652  1.00  0.00     0.029 A 
ATOM     63  N   UNL A   1      44.535  30.390  28.772  1.00  0.00    -0.354 N 
ATOM     64  N   UNL A   1      47.129  29.520  27.844  1.00  0.00    -0.248 NA
ATOM     65  C   UNL A   1      49.276  30.016  27.073  1.00  0.00     0.031 C 
ATOM     66  C   UNL A   1      44.265  32.512  29.381  1.00  0.00     0.029 A 
ATOM     67  C   UNL A   1      45.175  31.618  28.843  1.00  0.00     0.049 A 
ATOM     68  H   UNL A   1      44.943  29.559  28.437  1.00  0.00     0.167 HD
ATOM     69  C   UNL A   1      47.360  30.891  27.961  1.00  0.00     0.074 A 
ATOM     70  C   UNL A   1      48.708  31.134  27.503  1.00  0.00     0.031 C 
ATOM     71  C   UNL A   1      46.523  31.861  28.403  1.00  0.00     0.037 A 
BRANCH  58  72
ATOM     72  C   UNL A   1      40.878  29.794  29.710  1.00  0.00     0.058 A 
ATOM     73  C   UNL A   1      39.802  29.826  28.810  1.00  0.00     0.135 A 
ATOM     74  C   UNL A   1      40.604  30.003  31.071  1.00  0.00     0.135 A 
ATOM     75  F   UNL A   1      40.015  29.645  27.497  1.00  0.00    -0.206 F 
ATOM     76  C   UNL A   1      38.501  30.058  29.244  1.00  0.00     0.059 A 
ATOM     77  C   UNL A   1      39.309  30.217  31.531  1.00  0.00     0.059 A 
ATOM     78  F   UNL A   1      41.600  29.983  31.970  1.00  0.00    -0.206 F 
ATOM     79  C   UNL A   1      38.265  30.246  30.607  1.00  0.00     0.060 A 
BRANCH  79  80
ATOM     80  S   UNL A   1      36.565  30.503  31.159  1.00  0.00     0.124 S 
ATOM     81  O   UNL A   1      36.722  30.469  32.610  1.00  0.00    -0.237 OA
ATOM     82  O   UNL A   1      36.246  31.808  30.587  1.00  0.00    -0.237 OA
ATOM     83  O   UNL A   1      35.845  29.374  30.580  1.00  0.00    -0.744 OA
ENDBRANCH  79  80
ENDBRANCH  58  72
BRANCH  59  84
ATOM     84  C   UNL A   1      49.877  27.262  26.406  1.00  0.00     0.058 A 
ATOM     85  C   UNL A   1      50.027  27.159  25.014  1.00  0.00     0.135 A 
ATOM     86  C   UNL A   1      50.966  26.901  27.214  1.00  0.00     0.135 A 
ATOM     87  F   UNL A   1      49.006  27.485  24.206  1.00  0.00    -0.206 F 
ATOM     88  C   UNL A   1      51.180  26.624  24.445  1.00  0.00     0.059 A 
ATOM     89  C   UNL A   1      52.134  26.390  26.669  1.00  0.00     0.059 A 
ATOM     90  F   UNL A   1      50.881  27.002  28.549  1.00  0.00    -0.206 F 
ATOM     91  C   UNL A   1      52.214  26.214  25.288  1.00  0.00     0.060 A 
BRANCH  91  92
ATOM     92  S   UNL A   1      53.659  25.359  24.634  1.00  0.00     0.124 S 
ATOM     93  O   UNL A   1      54.742  26.010  25.362  1.00  0.00    -0.237 OA
ATOM     94  O   UNL A   1      53.410  23.969  24.990  1.00  0.00    -0.237 OA
ATOM     95  O   UNL A   1      53.577  25.671  23.211  1.00  0.00    -0.744 OA
ENDBRANCH  91  92
ENDBRANCH  59  84
BRANCH  71  96
ATOM     96  C   UNL A   1      47.043  33.273  28.448  1.00  0.00     0.058 A 
ATOM     97  C   UNL A   1      47.762  33.760  29.550  1.00  0.00     0.135 A 
ATOM     98  C   UNL A   1      46.862  34.136  27.354  1.00  0.00     0.135 A 
ATOM     99  F   UNL A   1      47.956  32.982  30.626  1.00  0.00    -0.206 F 
ATOM    100  C   UNL A   1      48.270  35.056  29.574  1.00  0.00     0.059 A 
ATOM    101  C   UNL A   1      47.384  35.427  27.345  1.00  0.00     0.059 A 
ATOM    102  F   UNL A   1      46.190  33.720  26.268  1.00  0.00    -0.206 F 
ATOM    103  C   UNL A   1      48.079  35.882  28.465  1.00  0.00     0.060 A 
BRANCH 103 104
ATOM    104  S   UNL A   1      48.781  37.546  28.489  1.00  0.00     0.124 S 
ATOM    105  O   UNL A   1      49.895  37.385  29.417  1.00  0.00    -0.237 OA
ATOM    106  O   UNL A   1      49.146  37.753  27.090  1.00  0.00    -0.237 OA
ATOM    107  O   UNL A   1      47.679  38.374  28.969  1.00  0.00    -0.744 OA
ENDBRANCH 103 104
ENDBRANCH  71  96
ENDBRANCH  45  46
ENDBRANCH  38  40
ENDBRANCH  37  38
ENDBRANCH  36  37
ENDBRANCH  35  36
ENDBRANCH  34  35
ENDBRANCH  33  34
ENDBRANCH   1  33
TORSDOF 26
ENDMDL
MODEL 3
REMARK VINA RESULT:      -9.8      6.269     10.247
REMARK SMILES O=C(COc1cc(-c2ccccc2)nc(NCc2ccc(Cl)c(Cl)c2)n1)OCCOCCOCCOC(=O)c1ccc(-c2c3nc(c(-c4c(F)cc(S(=O)(=O)[O-])cc4F)c4ccc([nH]4)c(-c4c(F)cc(S(=O)(=O)[O-])cc4F)c4nc(c(-c5c(F)cc(S(=O)(=O)[O-])cc5F)c5ccc2[nH]5)C=C4)C=C3)cc1
REMARK SMILES IDX 31 1 30 2 29 3 28 4 27 5 2 6 1 7 3 8 4 9 5 10 6 11 26 12
REMARK SMILES IDX 7 13 15 14 14 15 8 16 9 17 13 18 10 19 12 20 11 21 16 22
REMARK SMILES IDX 17 24 18 25 19 26 25 27 20 28 23 29 21 30 24 31 22 32 32 33
REMARK SMILES IDX 33 34 34 35 35 36 36 37 37 38 38 39 39 40 40 41 104 42 41 43
REMARK SMILES IDX 103 44 42 45 43 46 44 47 97 48 45 49 102 50 96 51 98 52
REMARK SMILES IDX 46 53 101 54 95 55 94 56 47 58 81 59 60 60 80 61 61 62 64 63
REMARK SMILES IDX 79 64 99 65 62 66 63 67 78 69 100 70 65 71 48 72 49 73 58 74
REMARK SMILES IDX 50 75 51 76 57 77 59 78 52 79 53 80 54 81 55 82 56 83 82 84
REMARK SMILES IDX 83 85 92 86 84 87 85 88 91 89 93 90 86 91 87 92 88 93 89 94
REMARK SMILES IDX 90 95 66 96 67 97 76 98 68 99 69 100 75 101 77 102 70 103
REMARK SMILES IDX 71 104 72 105 73 106 74 107
REMARK H PARENT 16 23 98 57 64 68
REMARK Flexibility Score: inf
ROOT
ATOM      1  C   UNL A   1      34.998  23.842  25.375  1.00  0.00     0.188 C 
ENDROOT
BRANCH   1   2
ATOM      2  O   UNL A   1      34.135  24.706  26.104  1.00  0.00    -0.376 OA
BRANCH   2   3
ATOM      3  C   UNL A   1      34.219  26.078  25.770  1.00  0.00     0.202 C 
BRANCH   3   4
ATOM      4  C   UNL A   1      33.104  26.867  26.451  1.00  0.00     0.261 C 
BRANCH   4   5
ATOM      5  O   UNL A   1      32.911  28.224  25.972  1.00  0.00    -0.461 OA
BRANCH   5   6
ATOM      6  C   UNL A   1      33.587  28.880  25.001  1.00  0.00     0.344 C 
ATOM      7  O   UNL A   1      34.728  29.280  25.221  1.00  0.00    -0.248 OA
BRANCH   6   8
ATOM      8  C   UNL A   1      32.916  29.127  23.660  1.00  0.00     0.353 C 
BRANCH   8   9
ATOM      9  O   UNL A   1      32.858  27.999  22.805  1.00  0.00    -0.466 OA
BRANCH   9  10
ATOM     10  C   UNL A   1      31.937  27.103  23.250  1.00  0.00     0.219 A 
ATOM     11  C   UNL A   1      32.224  25.783  23.432  1.00  0.00     0.097 A 
ATOM     12  N   UNL A   1      30.739  27.629  23.431  1.00  0.00    -0.177 NA
ATOM     13  C   UNL A   1      31.151  24.967  23.682  1.00  0.00     0.080 A 
ATOM     14  C   UNL A   1      29.743  26.786  23.694  1.00  0.00     0.226 A 
ATOM     15  N   UNL A   1      29.895  25.452  23.801  1.00  0.00    -0.213 NA
BRANCH  13  16
ATOM     16  C   UNL A   1      31.383  23.513  23.684  1.00  0.00     0.000 A 
ATOM     17  C   UNL A   1      32.016  22.881  22.605  1.00  0.00     0.010 A 
ATOM     18  C   UNL A   1      31.169  22.761  24.859  1.00  0.00     0.010 A 
ATOM     19  C   UNL A   1      32.461  21.558  22.714  1.00  0.00     0.001 A 
ATOM     20  C   UNL A   1      31.615  21.444  24.969  1.00  0.00     0.001 A 
ATOM     21  C   UNL A   1      32.271  20.846  23.898  1.00  0.00     0.000 A 
ENDBRANCH  13  16
BRANCH  14  22
ATOM     22  N   UNL A   1      28.492  27.317  23.802  1.00  0.00    -0.350 N 
ATOM     23  H   UNL A   1      28.000  27.243  24.653  1.00  0.00     0.164 HD
BRANCH  22  24
ATOM     24  C   UNL A   1      27.879  27.990  22.672  1.00  0.00     0.152 C 
BRANCH  24  25
ATOM     25  C   UNL A   1      28.322  29.428  22.691  1.00  0.00    -0.027 A 
ATOM     26  C   UNL A   1      28.935  29.977  23.819  1.00  0.00     0.007 A 
ATOM     27  C   UNL A   1      28.050  30.251  21.585  1.00  0.00     0.027 A 
ATOM     28  C   UNL A   1      29.155  31.354  23.887  1.00  0.00     0.022 A 
ATOM     29  C   UNL A   1      28.262  31.629  21.656  1.00  0.00     0.060 A 
ATOM     30  C   UNL A   1      28.767  32.187  22.832  1.00  0.00     0.059 A 
ATOM     31  Cl  UNL A   1      27.791  32.575  20.290  1.00  0.00    -0.083 Cl
ATOM     32  Cl  UNL A   1      28.807  33.894  23.104  1.00  0.00    -0.083 Cl
ENDBRANCH  24  25
ENDBRANCH  22  24
ENDBRANCH  14  22
ENDBRANCH   9  10
ENDBRANCH   8   9
ENDBRANCH   6   8
ENDBRANCH   5   6
ENDBRANCH   4   5
ENDBRANCH   3   4
ENDBRANCH   2   3
ENDBRANCH   1   2
BRANCH   1  33
ATOM     33  C   UNL A   1      35.794  22.909  26.299  1.00  0.00     0.188 C 
BRANCH  33  34
ATOM     34  O   UNL A   1      36.944  22.235  25.793  1.00  0.00    -0.376 OA
BRANCH  34  35
ATOM     35  C   UNL A   1      38.202  22.890  25.828  1.00  0.00     0.202 C 
BRANCH  35  36
ATOM     36  C   UNL A   1      39.377  22.078  26.385  1.00  0.00     0.261 C 
BRANCH  36  37
ATOM     37  O   UNL A   1      40.122  22.733  27.432  1.00  0.00    -0.460 OA
BRANCH  37  38
ATOM     38  C   UNL A   1      41.011  23.674  27.034  1.00  0.00     0.338 C 
ATOM     39  O   UNL A   1      41.805  23.577  26.103  1.00  0.00    -0.246 OA
BRANCH  38  40
ATOM     40  C   UNL A   1      40.809  24.942  27.777  1.00  0.00     0.060 A 
ATOM     41  C   UNL A   1      41.887  25.836  27.876  1.00  0.00     0.016 A 
ATOM     42  C   UNL A   1      39.609  25.235  28.430  1.00  0.00     0.016 A 
ATOM     43  C   UNL A   1      41.780  27.000  28.646  1.00  0.00     0.010 A 
ATOM     44  C   UNL A   1      39.511  26.393  29.220  1.00  0.00     0.010 A 
ATOM     45  C   UNL A   1      40.603  27.272  29.356  1.00  0.00    -0.014 A 
BRANCH  45  46
ATOM     46  C   UNL A   1      40.550  28.395  30.333  1.00  0.00     0.031 A 
ATOM     47  C   UNL A   1      41.422  28.349  31.563  1.00  0.00     0.074 A 
ATOM     48  C   UNL A   1      39.727  29.447  30.153  1.00  0.00     0.049 A 
ATOM     49  N   UNL A   1      41.451  29.159  32.591  1.00  0.00    -0.248 NA
ATOM     50  C   UNL A   1      42.388  27.242  31.643  1.00  0.00     0.031 C 
ATOM     51  C   UNL A   1      38.846  29.651  29.004  1.00  0.00     0.029 A 
ATOM     52  N   UNL A   1      39.479  30.532  30.961  1.00  0.00    -0.354 N 
ATOM     53  C   UNL A   1      42.426  28.657  33.445  1.00  0.00     0.074 A 
ATOM     54  C   UNL A   1      42.960  27.466  32.819  1.00  0.00     0.031 C 
ATOM     55  C   UNL A   1      38.122  30.768  29.203  1.00  0.00     0.029 A 
ATOM     56  C   UNL A   1      38.465  31.341  30.505  1.00  0.00     0.049 A 
ATOM     57  H   UNL A   1      39.980  30.713  31.790  1.00  0.00     0.167 HD
ATOM     58  C   UNL A   1      42.844  29.142  34.639  1.00  0.00     0.037 A 
ATOM     59  C   UNL A   1      37.849  32.390  31.088  1.00  0.00     0.037 A 
ATOM     60  C   UNL A   1      42.334  30.332  35.270  1.00  0.00     0.049 A 
ATOM     61  C   UNL A   1      38.268  32.852  32.466  1.00  0.00     0.074 A 
ATOM     62  C   UNL A   1      42.748  30.919  36.456  1.00  0.00     0.029 A 
ATOM     63  N   UNL A   1      41.293  31.105  34.787  1.00  0.00    -0.354 N 
ATOM     64  N   UNL A   1      39.231  32.402  33.232  1.00  0.00    -0.248 NA
ATOM     65  C   UNL A   1      37.502  33.961  33.061  1.00  0.00     0.031 C 
ATOM     66  C   UNL A   1      41.921  32.016  36.716  1.00  0.00     0.029 A 
ATOM     67  C   UNL A   1      41.023  32.139  35.670  1.00  0.00     0.049 A 
ATOM     68  H   UNL A   1      40.815  30.946  33.941  1.00  0.00     0.167 HD
ATOM     69  C   UNL A   1      39.198  33.188  34.384  1.00  0.00     0.074 A 
ATOM     70  C   UNL A   1      38.136  34.152  34.209  1.00  0.00     0.031 C 
ATOM     71  C   UNL A   1      39.976  33.111  35.491  1.00  0.00     0.037 A 
BRANCH  58  72
ATOM     72  C   UNL A   1      43.907  28.379  35.375  1.00  0.00     0.058 A 
ATOM     73  C   UNL A   1      43.583  27.383  36.308  1.00  0.00     0.135 A 
ATOM     74  C   UNL A   1      45.263  28.580  35.069  1.00  0.00     0.135 A 
ATOM     75  F   UNL A   1      42.302  27.162  36.643  1.00  0.00    -0.206 F 
ATOM     76  C   UNL A   1      44.568  26.613  36.917  1.00  0.00     0.059 A 
ATOM     77  C   UNL A   1      46.263  27.808  35.650  1.00  0.00     0.059 A 
ATOM     78  F   UNL A   1      45.622  29.522  34.183  1.00  0.00    -0.206 F 
ATOM     79  C   UNL A   1      45.905  26.830  36.576  1.00  0.00     0.060 A 
BRANCH  79  80
ATOM     80  S   UNL A   1      47.169  25.793  37.343  1.00  0.00     0.124 S 
ATOM     81  O   UNL A   1      46.664  25.682  38.709  1.00  0.00    -0.237 OA
ATOM     82  O   UNL A   1      47.101  24.575  36.542  1.00  0.00    -0.237 OA
ATOM     83  O   UNL A   1      48.391  26.574  37.189  1.00  0.00    -0.744 OA
ENDBRANCH  79  80
ENDBRANCH  58  72
BRANCH  59  84
ATOM     84  C   UNL A   1      36.672  33.035  30.445  1.00  0.00     0.058 A 
ATOM     85  C   UNL A   1      36.827  33.981  29.419  1.00  0.00     0.135 A 
ATOM     86  C   UNL A   1      35.386  32.832  30.966  1.00  0.00     0.135 A 
ATOM     87  F   UNL A   1      38.043  34.212  28.902  1.00  0.00    -0.206 F 
ATOM     88  C   UNL A   1      35.761  34.769  28.993  1.00  0.00     0.059 A 
ATOM     89  C   UNL A   1      34.304  33.587  30.538  1.00  0.00     0.059 A 
ATOM     90  F   UNL A   1      35.182  31.924  31.932  1.00  0.00    -0.206 F 
ATOM     91  C   UNL A   1      34.511  34.583  29.584  1.00  0.00     0.060 A 
BRANCH  91  92
ATOM     92  S   UNL A   1      33.132  35.679  29.204  1.00  0.00     0.124 S 
ATOM     93  O   UNL A   1      32.354  34.864  28.279  1.00  0.00    -0.237 OA
ATOM     94  O   UNL A   1      32.522  35.907  30.506  1.00  0.00    -0.237 OA
ATOM     95  O   UNL A   1      33.813  36.828  28.615  1.00  0.00    -0.744 OA
ENDBRANCH  91  92
ENDBRANCH  59  84
BRANCH  71  96
ATOM     96  C   UNL A   1      39.738  34.111  36.592  1.00  0.00     0.058 A 
ATOM     97  C   UNL A   1      39.016  33.779  37.747  1.00  0.00     0.135 A 
ATOM     98  C   UNL A   1      40.282  35.404  36.511  1.00  0.00     0.135 A 
ATOM     99  F   UNL A   1      38.466  32.560  37.873  1.00  0.00    -0.206 F 
ATOM    100  C   UNL A   1      38.827  34.696  38.777  1.00  0.00     0.059 A 
ATOM    101  C   UNL A   1      40.128  36.329  37.540  1.00  0.00     0.059 A 
ATOM    102  F   UNL A   1      40.991  35.774  35.431  1.00  0.00    -0.206 F 
ATOM    103  C   UNL A   1      39.389  35.969  38.666  1.00  0.00     0.060 A 
BRANCH 103 104
ATOM    104  S   UNL A   1      39.175  37.136  40.028  1.00  0.00     0.124 S 
ATOM    105  O   UNL A   1      38.398  36.345  40.977  1.00  0.00    -0.237 OA
ATOM    106  O   UNL A   1      40.553  37.419  40.419  1.00  0.00    -0.237 OA
ATOM    107  O   UNL A   1      38.464  38.252  39.412  1.00  0.00    -0.744 OA
ENDBRANCH 103 104
ENDBRANCH  71  96
ENDBRANCH  45  46
ENDBRANCH  38  40
ENDBRANCH  37  38
ENDBRANCH  36  37
ENDBRANCH  35  36
ENDBRANCH  34  35
ENDBRANCH  33  34
ENDBRANCH   1  33
TORSDOF 26
ENDMDL
