MODEL 1
REMARK VINA RESULT:     -10.0      0.000      0.000
REMARK SMILES COc1cccc(NC(=O)COc2csc(C(=O)OCCOCCOCCOC(=O)c3ccc(-c4c5nc(c(-c6c(F)cc(S(=O)(=O)[O-])cc6F)c6ccc([nH]6)c(-c6c(F)cc(S(=O)(=O)[O-])cc6F)c6nc(c(-c7c(F)cc(S(=O)(=O)[O-])cc7F)c7ccc4[nH]7)C=C6)C=C5)cc3)c2)c1
REMARK SMILES IDX 23 1 22 2 21 3 20 4 19 5 17 6 18 7 16 8 13 9 14 10 97 11
REMARK SMILES IDX 15 12 12 13 11 14 9 15 8 16 10 18 7 19 3 20 4 21 98 22 5 23
REMARK SMILES IDX 6 24 2 25 1 26 24 27 25 28 26 29 27 30 28 31 29 32 30 33
REMARK SMILES IDX 31 34 32 35 96 36 33 37 95 38 34 39 35 40 36 41 89 42 37 43
REMARK SMILES IDX 94 44 88 45 90 46 38 47 93 48 87 49 86 50 39 52 73 53 52 54
REMARK SMILES IDX 72 55 53 56 56 57 71 58 91 59 54 60 55 61 70 63 92 64 57 65
REMARK SMILES IDX 40 66 41 67 50 68 42 69 43 70 49 71 51 72 44 73 45 74 46 75
REMARK SMILES IDX 47 76 48 77 74 78 75 79 84 80 76 81 77 82 83 83 85 84 78 85
REMARK SMILES IDX 79 86 80 87 81 88 82 89 58 90 59 91 68 92 60 93 61 94 67 95
REMARK SMILES IDX 69 96 62 97 63 98 64 99 65 100 66 101
REMARK H PARENT 8 17 90 51 56 62
REMARK Flexibility Score: inf
ROOT
ATOM      1  C   UNL A   1      29.917  25.536  25.441  1.00  0.00     0.188 C 
ENDROOT
BRANCH   1   2
ATOM      2  O   UNL A   1      29.860  25.814  24.045  1.00  0.00    -0.376 OA
BRANCH   2   3
ATOM      3  C   UNL A   1      29.703  27.156  23.603  1.00  0.00     0.202 C 
BRANCH   3   4
ATOM      4  C   UNL A   1      30.851  27.765  22.793  1.00  0.00     0.261 C 
BRANCH   4   5
ATOM      5  O   UNL A   1      31.810  26.782  22.368  1.00  0.00    -0.459 OA
BRANCH   5   6
ATOM      6  C   UNL A   1      33.030  26.852  22.981  1.00  0.00     0.348 C 
ATOM      7  O   UNL A   1      33.598  27.895  23.279  1.00  0.00    -0.245 OA
BRANCH   6   8
ATOM      8  C   UNL A   1      33.486  25.518  23.310  1.00  0.00     0.116 A 
ATOM      9  C   UNL A   1      34.522  23.668  24.298  1.00  0.00     0.131 A 
ATOM     10  C   UNL A   1      33.989  23.106  23.161  1.00  0.00     0.112 A 
ATOM     11  C   UNL A   1      34.254  25.069  24.368  1.00  0.00     0.074 A 
ATOM     12  S   UNL A   1      33.088  24.238  22.245  1.00  0.00    -0.133 S 
BRANCH   9  13
ATOM     13  O   UNL A   1      35.184  23.037  25.299  1.00  0.00    -0.483 OA
BRANCH  13  14
ATOM     14  C   UNL A   1      34.580  21.895  25.870  1.00  0.00     0.329 C 
BRANCH  14  15
ATOM     15  C   UNL A   1      33.071  21.771  26.118  1.00  0.00     0.262 C 
ATOM     16  N   UNL A   1      32.306  20.725  25.707  1.00  0.00    -0.323 N 
ATOM     17  H   UNL A   1      31.383  20.775  26.046  1.00  0.00     0.170 HD
ATOM     18  O   UNL A   1      32.490  22.667  26.745  1.00  0.00    -0.271 OA
BRANCH  16  19
ATOM     19  C   UNL A   1      32.527  19.592  24.910  1.00  0.00     0.044 A 
ATOM     20  C   UNL A   1      33.194  17.249  24.887  1.00  0.00     0.120 A 
ATOM     21  C   UNL A   1      33.077  17.225  23.501  1.00  0.00     0.046 A 
ATOM     22  C   UNL A   1      32.939  18.431  25.585  1.00  0.00     0.072 A 
ATOM     23  C   UNL A   1      32.636  18.360  22.826  1.00  0.00     0.006 A 
ATOM     24  C   UNL A   1      32.342  19.532  23.531  1.00  0.00     0.026 A 
BRANCH  20  25
ATOM     25  O   UNL A   1      33.620  16.091  25.480  1.00  0.00    -0.497 OA
ATOM     26  C   UNL A   1      35.001  15.813  25.258  1.00  0.00     0.278 C 
ENDBRANCH  20  25
ENDBRANCH  16  19
ENDBRANCH  14  15
ENDBRANCH  13  14
ENDBRANCH   9  13
ENDBRANCH   6   8
ENDBRANCH   5   6
ENDBRANCH   4   5
ENDBRANCH   3   4
ENDBRANCH   2   3
ENDBRANCH   1   2
BRANCH   1  27
ATOM     27  C   UNL A   1      31.186  25.904  26.234  1.00  0.00     0.188 C 
BRANCH  27  28
ATOM     28  O   UNL A   1      31.076  27.102  26.987  1.00  0.00    -0.376 OA
BRANCH  28  29
ATOM     29  C   UNL A   1      31.910  28.176  26.574  1.00  0.00     0.202 C 
BRANCH  29  30
ATOM     30  C   UNL A   1      33.402  27.949  26.840  1.00  0.00     0.261 C 
BRANCH  30  31
ATOM     31  O   UNL A   1      34.273  28.977  26.342  1.00  0.00    -0.460 OA
BRANCH  31  32
ATOM     32  C   UNL A   1      34.427  30.076  27.115  1.00  0.00     0.338 C 
ATOM     33  O   UNL A   1      33.623  30.975  27.280  1.00  0.00    -0.246 OA
BRANCH  32  34
ATOM     34  C   UNL A   1      35.692  29.929  27.864  1.00  0.00     0.060 A 
ATOM     35  C   UNL A   1      36.905  30.118  27.193  1.00  0.00     0.016 A 
ATOM     36  C   UNL A   1      35.675  29.597  29.221  1.00  0.00     0.016 A 
ATOM     37  C   UNL A   1      38.111  29.948  27.878  1.00  0.00     0.010 A 
ATOM     38  C   UNL A   1      36.882  29.412  29.901  1.00  0.00     0.010 A 
ATOM     39  C   UNL A   1      38.106  29.561  29.226  1.00  0.00    -0.014 A 
BRANCH  39  40
ATOM     40  C   UNL A   1      39.367  29.153  29.892  1.00  0.00     0.031 A 
ATOM     41  C   UNL A   1      39.803  29.898  31.125  1.00  0.00     0.074 A 
ATOM     42  C   UNL A   1      40.118  28.147  29.411  1.00  0.00     0.049 A 
ATOM     43  N   UNL A   1      40.880  29.745  31.850  1.00  0.00    -0.248 NA
ATOM     44  C   UNL A   1      38.902  30.961  31.600  1.00  0.00     0.031 C 
ATOM     45  C   UNL A   1      39.797  27.337  28.237  1.00  0.00     0.029 A 
ATOM     46  N   UNL A   1      41.317  27.642  29.850  1.00  0.00    -0.354 N 
ATOM     47  C   UNL A   1      40.787  30.687  32.868  1.00  0.00     0.074 A 
ATOM     48  C   UNL A   1      39.563  31.426  32.651  1.00  0.00     0.031 C 
ATOM     49  C   UNL A   1      40.785  26.444  28.041  1.00  0.00     0.029 A 
ATOM     50  C   UNL A   1      41.815  26.634  29.061  1.00  0.00     0.049 A 
ATOM     51  H   UNL A   1      41.778  27.973  30.656  1.00  0.00     0.167 HD
ATOM     52  C   UNL A   1      41.640  30.912  33.895  1.00  0.00     0.037 A 
ATOM     53  C   UNL A   1      42.977  25.954  29.144  1.00  0.00     0.037 A 
ATOM     54  C   UNL A   1      42.864  30.187  34.106  1.00  0.00     0.049 A 
ATOM     55  C   UNL A   1      43.938  26.259  30.264  1.00  0.00     0.074 A 
ATOM     56  C   UNL A   1      43.789  30.336  35.125  1.00  0.00     0.029 A 
ATOM     57  N   UNL A   1      43.339  29.181  33.278  1.00  0.00    -0.354 N 
ATOM     58  N   UNL A   1      43.822  27.131  31.238  1.00  0.00    -0.248 NA
ATOM     59  C   UNL A   1      45.189  25.486  30.299  1.00  0.00     0.031 C 
ATOM     60  C   UNL A   1      44.842  29.443  34.893  1.00  0.00     0.029 A 
ATOM     61  C   UNL A   1      44.553  28.712  33.752  1.00  0.00     0.049 A 
ATOM     62  H   UNL A   1      42.881  28.850  32.472  1.00  0.00     0.167 HD
ATOM     63  C   UNL A   1      44.969  26.992  32.014  1.00  0.00     0.074 A 
ATOM     64  C   UNL A   1      45.765  25.950  31.401  1.00  0.00     0.031 C 
ATOM     65  C   UNL A   1      45.329  27.665  33.136  1.00  0.00     0.037 A 
BRANCH  52  66
ATOM     66  C   UNL A   1      41.280  32.005  34.859  1.00  0.00     0.058 A 
ATOM     67  C   UNL A   1      41.777  33.309  34.707  1.00  0.00     0.135 A 
ATOM     68  C   UNL A   1      40.421  31.751  35.938  1.00  0.00     0.135 A 
ATOM     69  F   UNL A   1      42.619  33.600  33.703  1.00  0.00    -0.206 F 
ATOM     70  C   UNL A   1      41.454  34.319  35.609  1.00  0.00     0.059 A 
ATOM     71  C   UNL A   1      40.067  32.750  36.840  1.00  0.00     0.059 A 
ATOM     72  F   UNL A   1      39.922  30.519  36.131  1.00  0.00    -0.206 F 
ATOM     73  C   UNL A   1      40.601  34.028  36.675  1.00  0.00     0.060 A 
BRANCH  73  74
ATOM     74  S   UNL A   1      40.195  35.344  37.841  1.00  0.00     0.124 S 
ATOM     75  O   UNL A   1      38.977  34.821  38.454  1.00  0.00    -0.237 OA
ATOM     76  O   UNL A   1      41.373  35.378  38.702  1.00  0.00    -0.237 OA
ATOM     77  O   UNL A   1      40.014  36.513  36.985  1.00  0.00    -0.744 OA
ENDBRANCH  73  74
ENDBRANCH  52  66
BRANCH  53  78
ATOM     78  C   UNL A   1      43.306  24.916  28.132  1.00  0.00     0.058 A 
ATOM     79  C   UNL A   1      42.891  23.587  28.296  1.00  0.00     0.135 A 
ATOM     80  C   UNL A   1      44.051  25.233  26.985  1.00  0.00     0.135 A 
ATOM     81  F   UNL A   1      42.189  23.234  29.383  1.00  0.00    -0.206 F 
ATOM     82  C   UNL A   1      43.215  22.602  27.367  1.00  0.00     0.059 A 
ATOM     83  C   UNL A   1      44.370  24.271  26.032  1.00  0.00     0.059 A 
ATOM     84  F   UNL A   1      44.467  26.491  26.779  1.00  0.00    -0.206 F 
ATOM     85  C   UNL A   1      43.955  22.954  26.237  1.00  0.00     0.060 A 
BRANCH  85  86
ATOM     86  S   UNL A   1      44.337  21.680  25.016  1.00  0.00     0.124 S 
ATOM     87  O   UNL A   1      44.037  22.371  23.767  1.00  0.00    -0.237 OA
ATOM     88  O   UNL A   1      45.748  21.415  25.275  1.00  0.00    -0.237 OA
ATOM     89  O   UNL A   1      43.427  20.594  25.372  1.00  0.00    -0.744 OA
ENDBRANCH  85  86
ENDBRANCH  53  78
BRANCH  65  90
ATOM     90  C   UNL A   1      46.620  27.275  33.798  1.00  0.00     0.058 A 
ATOM     91  C   UNL A   1      46.678  26.253  34.758  1.00  0.00     0.135 A 
ATOM     92  C   UNL A   1      47.825  27.891  33.423  1.00  0.00     0.135 A 
ATOM     93  F   UNL A   1      45.554  25.635  35.154  1.00  0.00    -0.206 F 
ATOM     94  C   UNL A   1      47.884  25.867  35.336  1.00  0.00     0.059 A 
ATOM     95  C   UNL A   1      49.044  27.506  33.972  1.00  0.00     0.059 A 
ATOM     96  F   UNL A   1      47.826  28.867  32.500  1.00  0.00    -0.206 F 
ATOM     97  C   UNL A   1      49.062  26.500  34.936  1.00  0.00     0.060 A 
BRANCH  97  98
ATOM     98  S   UNL A   1      50.627  25.966  35.663  1.00  0.00     0.124 S 
ATOM     99  O   UNL A   1      50.714  24.588  35.193  1.00  0.00    -0.237 OA
ATOM    100  O   UNL A   1      51.583  26.899  35.076  1.00  0.00    -0.237 OA
ATOM    101  O   UNL A   1      50.406  26.127  37.097  1.00  0.00    -0.744 OA
ENDBRANCH  97  98
ENDBRANCH  65  90
ENDBRANCH  39  40
ENDBRANCH  32  34
ENDBRANCH  31  32
ENDBRANCH  30  31
ENDBRANCH  29  30
ENDBRANCH  28  29
ENDBRANCH  27  28
ENDBRANCH   1  27
TORSDOF 25
ENDMDL
MODEL 2
REMARK VINA RESULT:      -9.7      5.076      9.312
REMARK SMILES COc1cccc(NC(=O)COc2csc(C(=O)OCCOCCOCCOC(=O)c3ccc(-c4c5nc(c(-c6c(F)cc(S(=O)(=O)[O-])cc6F)c6ccc([nH]6)c(-c6c(F)cc(S(=O)(=O)[O-])cc6F)c6nc(c(-c7c(F)cc(S(=O)(=O)[O-])cc7F)c7ccc4[nH]7)C=C6)C=C5)cc3)c2)c1
REMARK SMILES IDX 23 1 22 2 21 3 20 4 19 5 17 6 18 7 16 8 13 9 14 10 97 11
REMARK SMILES IDX 15 12 12 13 11 14 9 15 8 16 10 18 7 19 3 20 4 21 98 22 5 23
REMARK SMILES IDX 6 24 2 25 1 26 24 27 25 28 26 29 27 30 28 31 29 32 30 33
REMARK SMILES IDX 31 34 32 35 96 36 33 37 95 38 34 39 35 40 36 41 89 42 37 43
REMARK SMILES IDX 94 44 88 45 90 46 38 47 93 48 87 49 86 50 39 52 73 53 52 54
REMARK SMILES IDX 72 55 53 56 56 57 71 58 91 59 54 60 55 61 70 63 92 64 57 65
REMARK SMILES IDX 40 66 41 67 50 68 42 69 43 70 49 71 51 72 44 73 45 74 46 75
REMARK SMILES IDX 47 76 48 77 74 78 75 79 84 80 76 81 77 82 83 83 85 84 78 85
REMARK SMILES IDX 79 86 80 87 81 88 82 89 58 90 59 91 68 92 60 93 61 94 67 95
REMARK SMILES IDX 69 96 62 97 63 98 64 99 65 100 66 101
REMARK H PARENT 8 17 90 51 56 62
REMARK Flexibility Score: inf
ROOT
ATOM      1  C   UNL A   1      35.003  30.403  27.635  1.00  0.00     0.188 C 
ENDROOT
BRANCH   1   2
ATOM      2  O   UNL A   1      33.987  29.474  27.269  1.00  0.00    -0.376 OA
BRANCH   2   3
ATOM      3  C   UNL A   1      33.225  29.695  26.089  1.00  0.00     0.202 C 
BRANCH   3   4
ATOM      4  C   UNL A   1      32.871  28.469  25.244  1.00  0.00     0.261 C 
BRANCH   4   5
ATOM      5  O   UNL A   1      31.507  28.052  25.419  1.00  0.00    -0.459 OA
BRANCH   5   6
ATOM      6  C   UNL A   1      31.294  27.156  26.430  1.00  0.00     0.348 C 
ATOM      7  O   UNL A   1      31.072  27.463  27.594  1.00  0.00    -0.245 OA
BRANCH   6   8
ATOM      8  C   UNL A   1      31.270  25.812  25.891  1.00  0.00     0.116 A 
ATOM      9  C   UNL A   1      31.544  23.514  25.548  1.00  0.00     0.131 A 
ATOM     10  C   UNL A   1      31.030  23.911  24.335  1.00  0.00     0.112 A 
ATOM     11  C   UNL A   1      31.710  24.620  26.437  1.00  0.00     0.074 A 
ATOM     12  S   UNL A   1      30.654  25.581  24.311  1.00  0.00    -0.133 S 
BRANCH   9  13
ATOM     13  O   UNL A   1      31.836  22.252  25.948  1.00  0.00    -0.483 OA
BRANCH  13  14
ATOM     14  C   UNL A   1      32.143  21.300  24.950  1.00  0.00     0.329 C 
BRANCH  14  15
ATOM     15  C   UNL A   1      32.842  19.966  25.240  1.00  0.00     0.262 C 
ATOM     16  N   UNL A   1      34.186  19.815  25.380  1.00  0.00    -0.323 N 
ATOM     17  H   UNL A   1      34.438  18.905  25.662  1.00  0.00     0.170 HD
ATOM     18  O   UNL A   1      32.156  18.944  25.372  1.00  0.00    -0.271 OA
BRANCH  16  19
ATOM     19  C   UNL A   1      35.298  20.654  25.214  1.00  0.00     0.044 A 
ATOM     20  C   UNL A   1      36.086  22.959  25.157  1.00  0.00     0.120 A 
ATOM     21  C   UNL A   1      37.370  22.517  24.861  1.00  0.00     0.046 A 
ATOM     22  C   UNL A   1      35.051  22.034  25.314  1.00  0.00     0.072 A 
ATOM     23  C   UNL A   1      37.632  21.151  24.794  1.00  0.00     0.006 A 
ATOM     24  C   UNL A   1      36.603  20.224  24.991  1.00  0.00     0.026 A 
BRANCH  20  25
ATOM     25  O   UNL A   1      35.910  24.315  25.220  1.00  0.00    -0.497 OA
ATOM     26  C   UNL A   1      34.772  24.775  24.494  1.00  0.00     0.278 C 
ENDBRANCH  20  25
ENDBRANCH  16  19
ENDBRANCH  14  15
ENDBRANCH  13  14
ENDBRANCH   9  13
ENDBRANCH   6   8
ENDBRANCH   5   6
ENDBRANCH   4   5
ENDBRANCH   3   4
ENDBRANCH   2   3
ENDBRANCH   1   2
BRANCH   1  27
ATOM     27  C   UNL A   1      34.615  31.858  27.961  1.00  0.00     0.188 C 
BRANCH  27  28
ATOM     28  O   UNL A   1      34.396  32.108  29.341  1.00  0.00    -0.376 OA
BRANCH  28  29
ATOM     29  C   UNL A   1      35.267  33.052  29.949  1.00  0.00     0.202 C 
BRANCH  29  30
ATOM     30  C   UNL A   1      36.673  32.513  30.236  1.00  0.00     0.261 C 
BRANCH  30  31
ATOM     31  O   UNL A   1      36.742  31.506  31.258  1.00  0.00    -0.460 OA
BRANCH  31  32
ATOM     32  C   UNL A   1      36.934  30.232  30.849  1.00  0.00     0.338 C 
ATOM     33  O   UNL A   1      36.107  29.339  30.818  1.00  0.00    -0.246 OA
BRANCH  32  34
ATOM     34  C   UNL A   1      38.298  30.137  30.290  1.00  0.00     0.060 A 
ATOM     35  C   UNL A   1      38.457  29.831  28.934  1.00  0.00     0.016 A 
ATOM     36  C   UNL A   1      39.413  30.342  31.107  1.00  0.00     0.016 A 
ATOM     37  C   UNL A   1      39.741  29.702  28.397  1.00  0.00     0.010 A 
ATOM     38  C   UNL A   1      40.696  30.198  30.572  1.00  0.00     0.010 A 
ATOM     39  C   UNL A   1      40.866  29.852  29.221  1.00  0.00    -0.014 A 
BRANCH  39  40
ATOM     40  C   UNL A   1      42.214  29.490  28.719  1.00  0.00     0.031 A 
ATOM     41  C   UNL A   1      42.477  28.060  28.330  1.00  0.00     0.074 A 
ATOM     42  C   UNL A   1      43.191  30.408  28.615  1.00  0.00     0.049 A 
ATOM     43  N   UNL A   1      43.581  27.506  27.903  1.00  0.00    -0.248 NA
ATOM     44  C   UNL A   1      41.340  27.131  28.442  1.00  0.00     0.031 C 
ATOM     45  C   UNL A   1      43.059  31.827  28.943  1.00  0.00     0.029 A 
ATOM     46  N   UNL A   1      44.497  30.277  28.213  1.00  0.00    -0.354 N 
ATOM     47  C   UNL A   1      43.274  26.167  27.692  1.00  0.00     0.074 A 
ATOM     48  C   UNL A   1      41.889  25.986  28.065  1.00  0.00     0.031 C 
ATOM     49  C   UNL A   1      44.243  32.433  28.740  1.00  0.00     0.029 A 
ATOM     50  C   UNL A   1      45.220  31.442  28.291  1.00  0.00     0.049 A 
ATOM     51  H   UNL A   1      44.880  29.426  27.898  1.00  0.00     0.167 HD
ATOM     52  C   UNL A   1      44.071  25.178  27.223  1.00  0.00     0.037 A 
ATOM     53  C   UNL A   1      46.525  31.678  28.044  1.00  0.00     0.037 A 
ATOM     54  C   UNL A   1      45.453  25.353  26.863  1.00  0.00     0.049 A 
ATOM     55  C   UNL A   1      47.408  30.550  27.575  1.00  0.00     0.074 A 
ATOM     56  C   UNL A   1      46.340  24.413  26.368  1.00  0.00     0.029 A 
ATOM     57  N   UNL A   1      46.151  26.546  26.967  1.00  0.00    -0.354 N 
ATOM     58  N   UNL A   1      47.096  29.295  27.350  1.00  0.00    -0.248 NA
ATOM     59  C   UNL A   1      48.822  30.869  27.324  1.00  0.00     0.031 C 
ATOM     60  C   UNL A   1      47.586  25.030  26.206  1.00  0.00     0.029 A 
ATOM     61  C   UNL A   1      47.464  26.363  26.563  1.00  0.00     0.049 A 
ATOM     62  H   UNL A   1      45.771  27.397  27.282  1.00  0.00     0.167 HD
ATOM     63  C   UNL A   1      48.266  28.685  26.906  1.00  0.00     0.074 A 
ATOM     64  C   UNL A   1      49.291  29.706  26.890  1.00  0.00     0.031 C 
ATOM     65  C   UNL A   1      48.471  27.394  26.542  1.00  0.00     0.037 A 
BRANCH  52  66
ATOM     66  C   UNL A   1      43.465  23.811  27.092  1.00  0.00     0.058 A 
ATOM     67  C   UNL A   1      43.012  23.325  25.855  1.00  0.00     0.135 A 
ATOM     68  C   UNL A   1      43.348  22.972  28.210  1.00  0.00     0.135 A 
ATOM     69  F   UNL A   1      43.083  24.096  24.759  1.00  0.00    -0.206 F 
ATOM     70  C   UNL A   1      42.438  22.064  25.737  1.00  0.00     0.059 A 
ATOM     71  C   UNL A   1      42.798  21.698  28.111  1.00  0.00     0.059 A 
ATOM     72  F   UNL A   1      43.762  23.391  29.416  1.00  0.00    -0.206 F 
ATOM     73  C   UNL A   1      42.331  21.259  26.872  1.00  0.00     0.060 A 
BRANCH  73  74
ATOM     74  S   UNL A   1      41.580  19.626  26.707  1.00  0.00     0.124 S 
ATOM     75  O   UNL A   1      42.033  19.232  25.377  1.00  0.00    -0.237 OA
ATOM     76  O   UNL A   1      42.171  18.892  27.821  1.00  0.00    -0.237 OA
ATOM     77  O   UNL A   1      40.150  19.896  26.828  1.00  0.00    -0.744 OA
ENDBRANCH  73  74
ENDBRANCH  52  66
BRANCH  53  78
ATOM     78  C   UNL A   1      47.086  33.041  28.239  1.00  0.00     0.058 A 
ATOM     79  C   UNL A   1      47.599  33.442  29.481  1.00  0.00     0.135 A 
ATOM     80  C   UNL A   1      47.109  33.972  27.190  1.00  0.00     0.135 A 
ATOM     81  F   UNL A   1      47.584  32.592  30.518  1.00  0.00    -0.206 F 
ATOM     82  C   UNL A   1      48.102  34.724  29.682  1.00  0.00     0.059 A 
ATOM     83  C   UNL A   1      47.627  35.252  27.359  1.00  0.00     0.059 A 
ATOM     84  F   UNL A   1      46.635  33.635  25.981  1.00  0.00    -0.206 F 
ATOM     85  C   UNL A   1      48.112  35.623  28.614  1.00  0.00     0.060 A 
BRANCH  85  86
ATOM     86  S   UNL A   1      48.805  37.271  28.871  1.00  0.00     0.124 S 
ATOM     87  O   UNL A   1      48.222  38.011  27.757  1.00  0.00    -0.237 OA
ATOM     88  O   UNL A   1      48.303  37.614  30.197  1.00  0.00    -0.237 OA
ATOM     89  O   UNL A   1      50.245  37.043  28.794  1.00  0.00    -0.744 OA
ENDBRANCH  85  86
ENDBRANCH  53  78
BRANCH  65  90
ATOM     90  C   UNL A   1      49.843  27.017  26.060  1.00  0.00     0.058 A 
ATOM     91  C   UNL A   1      50.812  26.491  26.928  1.00  0.00     0.135 A 
ATOM     92  C   UNL A   1      50.173  27.127  24.699  1.00  0.00     0.135 A 
ATOM     93  F   UNL A   1      50.548  26.369  28.239  1.00  0.00    -0.206 F 
ATOM     94  C   UNL A   1      52.067  26.103  26.468  1.00  0.00     0.059 A 
ATOM     95  C   UNL A   1      51.414  26.725  24.214  1.00  0.00     0.059 A 
ATOM     96  F   UNL A   1      49.278  27.614  23.824  1.00  0.00    -0.206 F 
ATOM     97  C   UNL A   1      52.358  26.225  25.108  1.00  0.00     0.060 A 
BRANCH  97  98
ATOM     98  S   UNL A   1      53.975  25.683  24.513  1.00  0.00     0.124 S 
ATOM     99  O   UNL A   1      53.875  25.970  23.086  1.00  0.00    -0.237 OA
ATOM    100  O   UNL A   1      54.891  26.531  25.268  1.00  0.00    -0.237 OA
ATOM    101  O   UNL A   1      54.009  24.266  24.867  1.00  0.00    -0.744 OA
ENDBRANCH  97  98
ENDBRANCH  65  90
ENDBRANCH  39  40
ENDBRANCH  32  34
ENDBRANCH  31  32
ENDBRANCH  30  31
ENDBRANCH  29  30
ENDBRANCH  28  29
ENDBRANCH  27  28
ENDBRANCH   1  27
TORSDOF 25
ENDMDL
MODEL 3
REMARK VINA RESULT:      -9.5      4.890      6.406
REMARK SMILES COc1cccc(NC(=O)COc2csc(C(=O)OCCOCCOCCOC(=O)c3ccc(-c4c5nc(c(-c6c(F)cc(S(=O)(=O)[O-])cc6F)c6ccc([nH]6)c(-c6c(F)cc(S(=O)(=O)[O-])cc6F)c6nc(c(-c7c(F)cc(S(=O)(=O)[O-])cc7F)c7ccc4[nH]7)C=C6)C=C5)cc3)c2)c1
REMARK SMILES IDX 23 1 22 2 21 3 20 4 19 5 17 6 18 7 16 8 13 9 14 10 97 11
REMARK SMILES IDX 15 12 12 13 11 14 9 15 8 16 10 18 7 19 3 20 4 21 98 22 5 23
REMARK SMILES IDX 6 24 2 25 1 26 24 27 25 28 26 29 27 30 28 31 29 32 30 33
REMARK SMILES IDX 31 34 32 35 96 36 33 37 95 38 34 39 35 40 36 41 89 42 37 43
REMARK SMILES IDX 94 44 88 45 90 46 38 47 93 48 87 49 86 50 39 52 73 53 52 54
REMARK SMILES IDX 72 55 53 56 56 57 71 58 91 59 54 60 55 61 70 63 92 64 57 65
REMARK SMILES IDX 40 66 41 67 50 68 42 69 43 70 49 71 51 72 44 73 45 74 46 75
REMARK SMILES IDX 47 76 48 77 74 78 75 79 84 80 76 81 77 82 83 83 85 84 78 85
REMARK SMILES IDX 79 86 80 87 81 88 82 89 58 90 59 91 68 92 60 93 61 94 67 95
REMARK SMILES IDX 69 96 62 97 63 98 64 99 65 100 66 101
REMARK H PARENT 8 17 90 51 56 62
REMARK Flexibility Score: inf
ROOT
ATOM      1  C   UNL A   1      34.076  31.079  27.620  1.00  0.00     0.188 C 
ENDROOT
BRANCH   1   2
ATOM      2  O   UNL A   1      32.999  30.170  27.413  1.00  0.00    -0.376 OA
BRANCH   2   3
ATOM      3  C   UNL A   1      32.265  30.217  26.196  1.00  0.00     0.202 C 
BRANCH   3   4
ATOM      4  C   UNL A   1      32.792  29.380  25.028  1.00  0.00     0.261 C 
BRANCH   4   5
ATOM      5  O   UNL A   1      31.800  28.488  24.494  1.00  0.00    -0.459 OA
BRANCH   5   6
ATOM      6  C   UNL A   1      31.668  27.298  25.155  1.00  0.00     0.348 C 
ATOM      7  O   UNL A   1      30.917  27.112  26.103  1.00  0.00    -0.245 OA
BRANCH   6   8
ATOM      8  C   UNL A   1      32.467  26.285  24.497  1.00  0.00     0.116 A 
ATOM      9  C   UNL A   1      34.195  24.856  23.832  1.00  0.00     0.131 A 
ATOM     10  C   UNL A   1      33.244  24.598  22.872  1.00  0.00     0.112 A 
ATOM     11  C   UNL A   1      33.754  25.854  24.754  1.00  0.00     0.074 A 
ATOM     12  S   UNL A   1      31.798  25.473  23.146  1.00  0.00    -0.133 S 
BRANCH   9  13
ATOM     13  O   UNL A   1      35.399  24.251  23.986  1.00  0.00    -0.483 OA
BRANCH  13  14
ATOM     14  C   UNL A   1      35.828  23.968  25.301  1.00  0.00     0.329 C 
BRANCH  14  15
ATOM     15  C   UNL A   1      36.802  22.834  25.647  1.00  0.00     0.262 C 
ATOM     16  N   UNL A   1      36.524  21.510  25.508  1.00  0.00    -0.323 N 
ATOM     17  H   UNL A   1      37.306  20.938  25.685  1.00  0.00     0.170 HD
ATOM     18  O   UNL A   1      37.929  23.119  26.073  1.00  0.00    -0.271 OA
BRANCH  16  19
ATOM     19  C   UNL A   1      35.380  20.771  25.172  1.00  0.00     0.044 A 
ATOM     20  C   UNL A   1      34.521  18.594  24.494  1.00  0.00     0.120 A 
ATOM     21  C   UNL A   1      33.236  19.121  24.417  1.00  0.00     0.046 A 
ATOM     22  C   UNL A   1      35.590  19.419  24.851  1.00  0.00     0.072 A 
ATOM     23  C   UNL A   1      33.013  20.449  24.768  1.00  0.00     0.006 A 
ATOM     24  C   UNL A   1      34.079  21.265  25.164  1.00  0.00     0.026 A 
BRANCH  20  25
ATOM     25  O   UNL A   1      34.659  17.277  24.147  1.00  0.00    -0.497 OA
ATOM     26  C   UNL A   1      33.464  16.698  23.625  1.00  0.00     0.278 C 
ENDBRANCH  20  25
ENDBRANCH  16  19
ENDBRANCH  14  15
ENDBRANCH  13  14
ENDBRANCH   9  13
ENDBRANCH   6   8
ENDBRANCH   5   6
ENDBRANCH   4   5
ENDBRANCH   3   4
ENDBRANCH   2   3
ENDBRANCH   1   2
BRANCH   1  27
ATOM     27  C   UNL A   1      33.782  32.486  28.176  1.00  0.00     0.188 C 
BRANCH  27  28
ATOM     28  O   UNL A   1      34.126  32.655  29.544  1.00  0.00    -0.376 OA
BRANCH  28  29
ATOM     29  C   UNL A   1      35.204  33.541  29.810  1.00  0.00     0.202 C 
BRANCH  29  30
ATOM     30  C   UNL A   1      36.548  32.842  30.041  1.00  0.00     0.261 C 
BRANCH  30  31
ATOM     31  O   UNL A   1      36.570  31.915  31.138  1.00  0.00    -0.460 OA
BRANCH  31  32
ATOM     32  C   UNL A   1      36.676  30.603  30.828  1.00  0.00     0.338 C 
ATOM     33  O   UNL A   1      35.782  29.775  30.824  1.00  0.00    -0.246 OA
BRANCH  32  34
ATOM     34  C   UNL A   1      38.048  30.364  30.335  1.00  0.00     0.060 A 
ATOM     35  C   UNL A   1      38.248  30.127  28.970  1.00  0.00     0.016 A 
ATOM     36  C   UNL A   1      39.128  30.367  31.222  1.00  0.00     0.016 A 
ATOM     37  C   UNL A   1      39.535  29.865  28.493  1.00  0.00     0.010 A 
ATOM     38  C   UNL A   1      40.412  30.089  30.745  1.00  0.00     0.010 A 
ATOM     39  C   UNL A   1      40.618  29.810  29.383  1.00  0.00    -0.014 A 
BRANCH  39  40
ATOM     40  C   UNL A   1      41.936  29.306  28.927  1.00  0.00     0.031 A 
ATOM     41  C   UNL A   1      43.082  30.276  28.827  1.00  0.00     0.074 A 
ATOM     42  C   UNL A   1      42.115  28.014  28.600  1.00  0.00     0.049 A 
ATOM     43  N   UNL A   1      44.308  30.074  28.420  1.00  0.00    -0.248 NA
ATOM     44  C   UNL A   1      42.804  31.662  29.239  1.00  0.00     0.031 C 
ATOM     45  C   UNL A   1      41.092  26.972  28.670  1.00  0.00     0.029 A 
ATOM     46  N   UNL A   1      43.228  27.361  28.130  1.00  0.00    -0.354 N 
ATOM     47  C   UNL A   1      44.950  31.302  28.529  1.00  0.00     0.074 A 
ATOM     48  C   UNL A   1      43.970  32.250  29.012  1.00  0.00     0.031 C 
ATOM     49  C   UNL A   1      41.622  25.811  28.245  1.00  0.00     0.029 A 
ATOM     50  C   UNL A   1      43.013  26.032  27.852  1.00  0.00     0.049 A 
ATOM     51  H   UNL A   1      44.099  27.803  28.004  1.00  0.00     0.167 HD
ATOM     52  C   UNL A   1      46.239  31.612  28.257  1.00  0.00     0.037 A 
ATOM     53  C   UNL A   1      43.841  25.106  27.325  1.00  0.00     0.037 A 
ATOM     54  C   UNL A   1      47.211  30.674  27.764  1.00  0.00     0.049 A 
ATOM     55  C   UNL A   1      45.257  25.487  26.979  1.00  0.00     0.074 A 
ATOM     56  C   UNL A   1      48.546  30.891  27.470  1.00  0.00     0.029 A 
ATOM     57  N   UNL A   1      46.952  29.340  27.485  1.00  0.00    -0.354 N 
ATOM     58  N   UNL A   1      45.859  26.645  27.117  1.00  0.00    -0.248 NA
ATOM     59  C   UNL A   1      46.110  24.434  26.406  1.00  0.00     0.031 C 
ATOM     60  C   UNL A   1      49.086  29.696  26.977  1.00  0.00     0.029 A 
ATOM     61  C   UNL A   1      48.097  28.726  27.003  1.00  0.00     0.049 A 
ATOM     62  H   UNL A   1      46.083  28.897  27.609  1.00  0.00     0.167 HD
ATOM     63  C   UNL A   1      47.165  26.452  26.675  1.00  0.00     0.074 A 
ATOM     64  C   UNL A   1      47.268  25.066  26.269  1.00  0.00     0.031 C 
ATOM     65  C   UNL A   1      48.187  27.342  26.613  1.00  0.00     0.037 A 
BRANCH  52  66
ATOM     66  C   UNL A   1      46.664  33.035  28.473  1.00  0.00     0.058 A 
ATOM     67  C   UNL A   1      46.571  33.991  27.449  1.00  0.00     0.135 A 
ATOM     68  C   UNL A   1      47.156  33.453  29.719  1.00  0.00     0.135 A 
ATOM     69  F   UNL A   1      46.125  33.639  26.233  1.00  0.00    -0.206 F 
ATOM     70  C   UNL A   1      46.977  35.308  27.645  1.00  0.00     0.059 A 
ATOM     71  C   UNL A   1      47.547  34.769  29.944  1.00  0.00     0.059 A 
ATOM     72  F   UNL A   1      47.269  32.576  30.729  1.00  0.00    -0.206 F 
ATOM     73  C   UNL A   1      47.468  35.686  28.896  1.00  0.00     0.060 A 
BRANCH  73  74
ATOM     74  S   UNL A   1      47.998  37.394  29.137  1.00  0.00     0.124 S 
ATOM     75  O   UNL A   1      48.500  37.351  30.507  1.00  0.00    -0.237 OA
ATOM     76  O   UNL A   1      49.008  37.562  28.097  1.00  0.00    -0.237 OA
ATOM     77  O   UNL A   1      46.770  38.161  28.943  1.00  0.00    -0.744 OA
ENDBRANCH  73  74
ENDBRANCH  52  66
BRANCH  53  78
ATOM     78  C   UNL A   1      43.353  23.723  27.085  1.00  0.00     0.058 A 
ATOM     79  C   UNL A   1      42.986  23.297  25.800  1.00  0.00     0.135 A 
ATOM     80  C   UNL A   1      43.234  22.803  28.138  1.00  0.00     0.135 A 
ATOM     81  F   UNL A   1      43.068  24.145  24.764  1.00  0.00    -0.206 F 
ATOM     82  C   UNL A   1      42.504  22.013  25.568  1.00  0.00     0.059 A 
ATOM     83  C   UNL A   1      42.775  21.507  27.928  1.00  0.00     0.059 A 
ATOM     84  F   UNL A   1      43.577  23.160  29.385  1.00  0.00    -0.206 F 
ATOM     85  C   UNL A   1      42.402  21.123  26.640  1.00  0.00     0.060 A 
BRANCH  85  86
ATOM     86  S   UNL A   1      41.814  19.445  26.324  1.00  0.00     0.124 S 
ATOM     87  O   UNL A   1      42.462  19.141  25.053  1.00  0.00    -0.237 OA
ATOM     88  O   UNL A   1      42.316  18.718  27.486  1.00  0.00    -0.237 OA
ATOM     89  O   UNL A   1      40.363  19.604  26.272  1.00  0.00    -0.744 OA
ENDBRANCH  85  86
ENDBRANCH  53  78
BRANCH  65  90
ATOM     90  C   UNL A   1      49.517  26.842  26.124  1.00  0.00     0.058 A 
ATOM     91  C   UNL A   1      49.952  27.067  24.809  1.00  0.00     0.135 A 
ATOM     92  C   UNL A   1      50.393  26.180  27.001  1.00  0.00     0.135 A 
ATOM     93  F   UNL A   1      49.150  27.691  23.931  1.00  0.00    -0.206 F 
ATOM     94  C   UNL A   1      51.202  26.638  24.374  1.00  0.00     0.059 A 
ATOM     95  C   UNL A   1      51.656  25.763  26.593  1.00  0.00     0.059 A 
ATOM     96  F   UNL A   1      50.030  25.950  28.273  1.00  0.00    -0.206 F 
ATOM     97  C   UNL A   1      52.048  25.987  25.274  1.00  0.00     0.060 A 
BRANCH  97  98
ATOM     98  S   UNL A   1      53.685  25.470  24.712  1.00  0.00     0.124 S 
ATOM     99  O   UNL A   1      54.540  26.475  25.334  1.00  0.00    -0.237 OA
ATOM    100  O   UNL A   1      53.794  24.120  25.256  1.00  0.00    -0.237 OA
ATOM    101  O   UNL A   1      53.582  25.544  23.258  1.00  0.00    -0.744 OA
ENDBRANCH  97  98
ENDBRANCH  65  90
ENDBRANCH  39  40
ENDBRANCH  32  34
ENDBRANCH  31  32
ENDBRANCH  30  31
ENDBRANCH  29  30
ENDBRANCH  28  29
ENDBRANCH  27  28
ENDBRANCH   1  27
TORSDOF 25
ENDMDL
