MODEL 1
REMARK VINA RESULT:     -10.0      0.000      0.000
REMARK SMILES O=C(OCCOCCOCCOC(=O)c1cncc(Nc2cccnc2)n1)c1ccc(-c2c3nc(c(-c4c(F)cc(S(=O)(=O)[O-])cc4F)c4ccc([nH]4)c(-c4c(F)cc(S(=O)(=O)[O-])cc4F)c4nc(c(-c5c(F)cc(S(=O)(=O)[O-])cc5F)c5ccc2[nH]5)C=C4)C=C3)cc1
REMARK SMILES IDX 7 1 6 2 5 3 4 4 3 5 2 6 1 7 28 8 29 9 93 10 30 11 92 12
REMARK SMILES IDX 31 13 32 14 33 15 86 16 34 17 91 18 85 19 87 20 35 21 90 22
REMARK SMILES IDX 84 23 83 24 36 26 70 27 49 28 69 29 50 30 53 31 68 32 88 33
REMARK SMILES IDX 51 34 52 35 67 37 89 38 54 39 37 40 38 41 47 42 39 43 40 44
REMARK SMILES IDX 46 45 48 46 41 47 42 48 43 49 44 50 45 51 71 52 72 53 81 54
REMARK SMILES IDX 73 55 74 56 80 57 82 58 75 59 76 60 77 61 78 62 79 63 55 64
REMARK SMILES IDX 56 65 65 66 57 67 58 68 64 69 66 70 59 71 60 72 61 73 62 74
REMARK SMILES IDX 63 75 8 76 9 77 10 78 11 79 12 80 13 81 14 82 15 83 16 84
REMARK SMILES IDX 27 85 17 86 19 87 18 88 20 89 21 91 22 92 26 93 23 94 25 95
REMARK SMILES IDX 24 96
REMARK H PARENT 87 25 53 36 20 90
REMARK Flexibility Score: inf
ROOT
ATOM      1  C   UNL A   1      35.074  29.813  27.567  1.00  0.00     0.188 C 
ENDROOT
BRANCH   1   2
ATOM      2  O   UNL A   1      35.444  31.190  27.724  1.00  0.00    -0.376 OA
BRANCH   2   3
ATOM      3  C   UNL A   1      34.808  31.842  28.825  1.00  0.00     0.202 C 
BRANCH   3   4
ATOM      4  C   UNL A   1      35.643  32.956  29.467  1.00  0.00     0.261 C 
BRANCH   4   5
ATOM      5  O   UNL A   1      36.329  32.497  30.643  1.00  0.00    -0.460 OA
BRANCH   5   6
ATOM      6  C   UNL A   1      36.742  31.234  30.920  1.00  0.00     0.338 C 
ATOM      7  O   UNL A   1      35.966  30.475  31.500  1.00  0.00    -0.246 OA
BRANCH   6   8
ATOM      8  C   UNL A   1      38.074  30.694  30.508  1.00  0.00     0.060 A 
ATOM      9  C   UNL A   1      39.085  30.305  31.388  1.00  0.00     0.016 A 
ATOM     10  C   UNL A   1      38.289  30.505  29.132  1.00  0.00     0.016 A 
ATOM     11  C   UNL A   1      40.320  29.864  30.920  1.00  0.00     0.010 A 
ATOM     12  C   UNL A   1      39.503  29.993  28.657  1.00  0.00     0.010 A 
ATOM     13  C   UNL A   1      40.539  29.703  29.554  1.00  0.00    -0.014 A 
BRANCH  13  14
ATOM     14  C   UNL A   1      41.875  29.284  29.077  1.00  0.00     0.031 A 
ATOM     15  C   UNL A   1      42.976  30.299  29.005  1.00  0.00     0.074 A 
ATOM     16  C   UNL A   1      42.113  27.991  28.784  1.00  0.00     0.049 A 
ATOM     17  N   UNL A   1      44.190  30.166  28.545  1.00  0.00    -0.248 NA
ATOM     18  C   UNL A   1      42.674  31.639  29.538  1.00  0.00     0.031 C 
ATOM     19  C   UNL A   1      41.142  26.906  28.928  1.00  0.00     0.029 A 
ATOM     20  N   UNL A   1      43.241  27.368  28.314  1.00  0.00    -0.354 N 
ATOM     21  C   UNL A   1      44.793  31.405  28.713  1.00  0.00     0.074 A 
ATOM     22  C   UNL A   1      43.811  32.282  29.310  1.00  0.00     0.031 C 
ATOM     23  C   UNL A   1      41.715  25.753  28.547  1.00  0.00     0.029 A 
ATOM     24  C   UNL A   1      43.057  26.030  28.058  1.00  0.00     0.049 A 
ATOM     25  H   UNL A   1      44.096  27.834  28.174  1.00  0.00     0.167 HD
ATOM     26  C   UNL A   1      46.056  31.770  28.395  1.00  0.00     0.037 A 
ATOM     27  C   UNL A   1      43.858  25.136  27.449  1.00  0.00     0.037 A 
ATOM     28  C   UNL A   1      47.021  30.879  27.812  1.00  0.00     0.049 A 
ATOM     29  C   UNL A   1      45.215  25.593  26.996  1.00  0.00     0.074 A 
ATOM     30  C   UNL A   1      48.328  31.140  27.448  1.00  0.00     0.029 A 
ATOM     31  N   UNL A   1      46.774  29.549  27.500  1.00  0.00    -0.354 N 
ATOM     32  N   UNL A   1      45.771  26.773  27.146  1.00  0.00    -0.248 NA
ATOM     33  C   UNL A   1      46.050  24.616  26.288  1.00  0.00     0.031 C 
ATOM     34  C   UNL A   1      48.860  29.977  26.880  1.00  0.00     0.029 A 
ATOM     35  C   UNL A   1      47.894  28.983  26.919  1.00  0.00     0.049 A 
ATOM     36  H   UNL A   1      45.926  29.077  27.668  1.00  0.00     0.167 HD
ATOM     37  C   UNL A   1      47.026  26.677  26.560  1.00  0.00     0.074 A 
ATOM     38  C   UNL A   1      47.153  25.320  26.066  1.00  0.00     0.031 C 
ATOM     39  C   UNL A   1      47.987  27.626  26.442  1.00  0.00     0.037 A 
BRANCH  26  40
ATOM     40  C   UNL A   1      46.435  33.203  28.630  1.00  0.00     0.058 A 
ATOM     41  C   UNL A   1      46.922  33.650  29.868  1.00  0.00     0.135 A 
ATOM     42  C   UNL A   1      46.293  34.147  27.599  1.00  0.00     0.135 A 
ATOM     43  F   UNL A   1      47.050  32.792  30.893  1.00  0.00    -0.206 F 
ATOM     44  C   UNL A   1      47.233  34.989  30.084  1.00  0.00     0.059 A 
ATOM     45  C   UNL A   1      46.615  35.487  27.788  1.00  0.00     0.059 A 
ATOM     46  F   UNL A   1      45.820  33.771  26.401  1.00  0.00    -0.206 F 
ATOM     47  C   UNL A   1      47.070  35.900  29.040  1.00  0.00     0.060 A 
BRANCH  47  48
ATOM     48  S   UNL A   1      47.456  37.639  29.340  1.00  0.00     0.124 S 
ATOM     49  O   UNL A   1      46.135  38.251  29.241  1.00  0.00    -0.237 OA
ATOM     50  O   UNL A   1      48.038  37.604  30.677  1.00  0.00    -0.237 OA
ATOM     51  O   UNL A   1      48.385  37.970  28.264  1.00  0.00    -0.744 OA
ENDBRANCH  47  48
ENDBRANCH  26  40
BRANCH  27  52
ATOM     52  C   UNL A   1      43.363  23.760  27.166  1.00  0.00     0.058 A 
ATOM     53  C   UNL A   1      43.386  22.755  28.142  1.00  0.00     0.135 A 
ATOM     54  C   UNL A   1      42.850  23.426  25.900  1.00  0.00     0.135 A 
ATOM     55  F   UNL A   1      43.867  23.018  29.366  1.00  0.00    -0.206 F 
ATOM     56  C   UNL A   1      42.937  21.464  27.870  1.00  0.00     0.059 A 
ATOM     57  C   UNL A   1      42.374  22.151  25.611  1.00  0.00     0.059 A 
ATOM     58  F   UNL A   1      42.787  24.355  24.933  1.00  0.00    -0.206 F 
ATOM     59  C   UNL A   1      42.436  21.171  26.599  1.00  0.00     0.060 A 
BRANCH  59  60
ATOM     60  S   UNL A   1      41.844  19.499  26.256  1.00  0.00     0.124 S 
ATOM     61  O   UNL A   1      42.610  19.158  25.063  1.00  0.00    -0.237 OA
ATOM     62  O   UNL A   1      42.211  18.783  27.474  1.00  0.00    -0.237 OA
ATOM     63  O   UNL A   1      40.410  19.683  26.052  1.00  0.00    -0.744 OA
ENDBRANCH  59  60
ENDBRANCH  27  52
BRANCH  39  64
ATOM     64  C   UNL A   1      49.260  27.224  25.762  1.00  0.00     0.058 A 
ATOM     65  C   UNL A   1      49.399  27.312  24.369  1.00  0.00     0.135 A 
ATOM     66  C   UNL A   1      50.371  26.821  26.516  1.00  0.00     0.135 A 
ATOM     67  F   UNL A   1      48.357  27.683  23.608  1.00  0.00    -0.206 F 
ATOM     68  C   UNL A   1      50.603  27.011  23.744  1.00  0.00     0.059 A 
ATOM     69  C   UNL A   1      51.591  26.534  25.913  1.00  0.00     0.059 A 
ATOM     70  F   UNL A   1      50.284  26.727  27.853  1.00  0.00    -0.206 F 
ATOM     71  C   UNL A   1      51.695  26.629  24.526  1.00  0.00     0.060 A 
BRANCH  71  72
ATOM     72  S   UNL A   1      53.273  26.308  23.712  1.00  0.00     0.124 S 
ATOM     73  O   UNL A   1      52.858  26.144  22.323  1.00  0.00    -0.237 OA
ATOM     74  O   UNL A   1      54.033  27.517  24.009  1.00  0.00    -0.237 OA
ATOM     75  O   UNL A   1      53.752  25.096  24.371  1.00  0.00    -0.744 OA
ENDBRANCH  71  72
ENDBRANCH  39  64
ENDBRANCH  13  14
ENDBRANCH   6   8
ENDBRANCH   5   6
ENDBRANCH   4   5
ENDBRANCH   3   4
ENDBRANCH   2   3
ENDBRANCH   1   2
BRANCH   1  76
ATOM     76  C   UNL A   1      33.589  29.692  27.207  1.00  0.00     0.188 C 
BRANCH  76  77
ATOM     77  O   UNL A   1      33.027  28.391  27.415  1.00  0.00    -0.376 OA
BRANCH  77  78
ATOM     78  C   UNL A   1      32.295  27.831  26.330  1.00  0.00     0.202 C 
BRANCH  78  79
ATOM     79  C   UNL A   1      31.769  26.405  26.511  1.00  0.00     0.261 C 
BRANCH  79  80
ATOM     80  O   UNL A   1      32.756  25.365  26.433  1.00  0.00    -0.458 OA
BRANCH  80  81
ATOM     81  C   UNL A   1      32.258  24.114  26.626  1.00  0.00     0.358 C 
ATOM     82  O   UNL A   1      31.323  23.803  27.348  1.00  0.00    -0.244 OA
BRANCH  81  83
ATOM     83  C   UNL A   1      33.129  23.110  25.995  1.00  0.00     0.169 A 
ATOM     84  C   UNL A   1      34.469  23.171  26.338  1.00  0.00     0.147 A 
ATOM     85  N   UNL A   1      32.580  22.102  25.252  1.00  0.00    -0.220 NA
ATOM     86  N   UNL A   1      35.343  22.228  25.942  1.00  0.00    -0.258 NA
ATOM     87  C   UNL A   1      33.443  21.118  24.891  1.00  0.00     0.149 A 
ATOM     88  C   UNL A   1      34.802  21.211  25.230  1.00  0.00     0.158 A 
BRANCH  87  89
ATOM     89  N   UNL A   1      32.939  20.032  24.165  1.00  0.00    -0.338 N 
ATOM     90  H   UNL A   1      32.385  20.270  23.386  1.00  0.00     0.168 HD
BRANCH  89  91
ATOM     91  C   UNL A   1      33.104  18.656  24.382  1.00  0.00     0.058 A 
ATOM     92  C   UNL A   1      33.510  17.780  23.369  1.00  0.00     0.029 A 
ATOM     93  C   UNL A   1      32.783  18.071  25.607  1.00  0.00     0.137 A 
ATOM     94  C   UNL A   1      33.537  16.404  23.590  1.00  0.00     0.022 A 
ATOM     95  N   UNL A   1      32.822  16.739  25.864  1.00  0.00    -0.263 NA
ATOM     96  C   UNL A   1      33.174  15.935  24.838  1.00  0.00     0.111 A 
ENDBRANCH  89  91
ENDBRANCH  87  89
ENDBRANCH  81  83
ENDBRANCH  80  81
ENDBRANCH  79  80
ENDBRANCH  78  79
ENDBRANCH  77  78
ENDBRANCH  76  77
ENDBRANCH   1  76
TORSDOF 22
ENDMDL
MODEL 2
REMARK VINA RESULT:      -9.9      6.897     12.093
REMARK SMILES O=C(OCCOCCOCCOC(=O)c1cncc(Nc2cccnc2)n1)c1ccc(-c2c3nc(c(-c4c(F)cc(S(=O)(=O)[O-])cc4F)c4ccc([nH]4)c(-c4c(F)cc(S(=O)(=O)[O-])cc4F)c4nc(c(-c5c(F)cc(S(=O)(=O)[O-])cc5F)c5ccc2[nH]5)C=C4)C=C3)cc1
REMARK SMILES IDX 7 1 6 2 5 3 4 4 3 5 2 6 1 7 28 8 29 9 93 10 30 11 92 12
REMARK SMILES IDX 31 13 32 14 33 15 86 16 34 17 91 18 85 19 87 20 35 21 90 22
REMARK SMILES IDX 84 23 83 24 36 26 70 27 49 28 69 29 50 30 53 31 68 32 88 33
REMARK SMILES IDX 51 34 52 35 67 37 89 38 54 39 37 40 38 41 47 42 39 43 40 44
REMARK SMILES IDX 46 45 48 46 41 47 42 48 43 49 44 50 45 51 71 52 72 53 81 54
REMARK SMILES IDX 73 55 74 56 80 57 82 58 75 59 76 60 77 61 78 62 79 63 55 64
REMARK SMILES IDX 56 65 65 66 57 67 58 68 64 69 66 70 59 71 60 72 61 73 62 74
REMARK SMILES IDX 63 75 8 76 9 77 10 78 11 79 12 80 13 81 14 82 15 83 16 84
REMARK SMILES IDX 27 85 17 86 19 87 18 88 20 89 21 91 22 92 26 93 23 94 25 95
REMARK SMILES IDX 24 96
REMARK H PARENT 87 25 53 36 20 90
REMARK Flexibility Score: inf
ROOT
ATOM      1  C   UNL A   1      36.549  21.144  25.060  1.00  0.00     0.188 C 
ENDROOT
BRANCH   1   2
ATOM      2  O   UNL A   1      37.429  22.214  24.686  1.00  0.00    -0.376 OA
BRANCH   2   3
ATOM      3  C   UNL A   1      37.592  23.212  25.695  1.00  0.00     0.202 C 
BRANCH   3   4
ATOM      4  C   UNL A   1      38.961  23.196  26.385  1.00  0.00     0.261 C 
BRANCH   4   5
ATOM      5  O   UNL A   1      39.686  24.415  26.157  1.00  0.00    -0.460 OA
BRANCH   5   6
ATOM      6  C   UNL A   1      40.776  24.867  26.829  1.00  0.00     0.338 C 
ATOM      7  O   UNL A   1      41.885  24.444  26.506  1.00  0.00    -0.246 OA
BRANCH   6   8
ATOM      8  C   UNL A   1      40.706  25.898  27.910  1.00  0.00     0.060 A 
ATOM      9  C   UNL A   1      41.676  26.873  28.148  1.00  0.00     0.016 A 
ATOM     10  C   UNL A   1      39.542  25.921  28.698  1.00  0.00     0.016 A 
ATOM     11  C   UNL A   1      41.562  27.762  29.213  1.00  0.00     0.010 A 
ATOM     12  C   UNL A   1      39.388  26.859  29.725  1.00  0.00     0.010 A 
ATOM     13  C   UNL A   1      40.418  27.764  30.009  1.00  0.00    -0.014 A 
BRANCH  13  14
ATOM     14  C   UNL A   1      40.342  28.681  31.166  1.00  0.00     0.031 A 
ATOM     15  C   UNL A   1      39.350  29.805  31.143  1.00  0.00     0.074 A 
ATOM     16  C   UNL A   1      41.104  28.461  32.254  1.00  0.00     0.049 A 
ATOM     17  N   UNL A   1      39.172  30.765  32.010  1.00  0.00    -0.248 NA
ATOM     18  C   UNL A   1      38.422  29.843  29.999  1.00  0.00     0.031 C 
ATOM     19  C   UNL A   1      42.020  27.331  32.423  1.00  0.00     0.029 A 
ATOM     20  N   UNL A   1      41.226  29.165  33.424  1.00  0.00    -0.354 N 
ATOM     21  C   UNL A   1      38.129  31.533  31.510  1.00  0.00     0.074 A 
ATOM     22  C   UNL A   1      37.716  30.934  30.261  1.00  0.00     0.031 C 
ATOM     23  C   UNL A   1      42.613  27.426  33.623  1.00  0.00     0.029 A 
ATOM     24  C   UNL A   1      42.185  28.657  34.269  1.00  0.00     0.049 A 
ATOM     25  H   UNL A   1      40.682  29.957  33.638  1.00  0.00     0.167 HD
ATOM     26  C   UNL A   1      37.570  32.638  32.053  1.00  0.00     0.037 A 
ATOM     27  C   UNL A   1      42.702  29.152  35.409  1.00  0.00     0.037 A 
ATOM     28  C   UNL A   1      37.989  33.211  33.303  1.00  0.00     0.049 A 
ATOM     29  C   UNL A   1      42.147  30.445  35.935  1.00  0.00     0.074 A 
ATOM     30  C   UNL A   1      37.495  34.329  33.949  1.00  0.00     0.029 A 
ATOM     31  N   UNL A   1      39.013  32.709  34.094  1.00  0.00    -0.354 N 
ATOM     32  N   UNL A   1      41.169  31.173  35.447  1.00  0.00    -0.248 NA
ATOM     33  C   UNL A   1      42.761  30.993  37.150  1.00  0.00     0.031 C 
ATOM     34  C   UNL A   1      38.248  34.525  35.112  1.00  0.00     0.029 A 
ATOM     35  C   UNL A   1      39.189  33.511  35.207  1.00  0.00     0.049 A 
ATOM     36  H   UNL A   1      39.537  31.900  33.893  1.00  0.00     0.167 HD
ATOM     37  C   UNL A   1      41.043  32.260  36.301  1.00  0.00     0.074 A 
ATOM     38  C   UNL A   1      42.035  32.087  37.344  1.00  0.00     0.031 C 
ATOM     39  C   UNL A   1      40.185  33.307  36.229  1.00  0.00     0.037 A 
BRANCH  26  40
ATOM     40  C   UNL A   1      36.486  33.315  31.268  1.00  0.00     0.058 A 
ATOM     41  C   UNL A   1      36.759  34.043  30.100  1.00  0.00     0.135 A 
ATOM     42  C   UNL A   1      35.152  33.243  31.702  1.00  0.00     0.135 A 
ATOM     43  F   UNL A   1      38.021  34.164  29.658  1.00  0.00    -0.206 F 
ATOM     44  C   UNL A   1      35.749  34.698  29.401  1.00  0.00     0.059 A 
ATOM     45  C   UNL A   1      34.125  33.875  31.009  1.00  0.00     0.059 A 
ATOM     46  F   UNL A   1      34.841  32.569  32.820  1.00  0.00    -0.206 F 
ATOM     47  C   UNL A   1      34.436  34.614  29.868  1.00  0.00     0.060 A 
BRANCH  47  48
ATOM     48  S   UNL A   1      33.139  35.487  28.965  1.00  0.00     0.124 S 
ATOM     49  O   UNL A   1      33.919  36.445  28.190  1.00  0.00    -0.237 OA
ATOM     50  O   UNL A   1      32.513  34.414  28.199  1.00  0.00    -0.237 OA
ATOM     51  O   UNL A   1      32.315  36.059  30.025  1.00  0.00    -0.744 OA
ENDBRANCH  47  48
ENDBRANCH  26  40
BRANCH  27  52
ATOM     52  C   UNL A   1      43.846  28.467  36.072  1.00  0.00     0.058 A 
ATOM     53  C   UNL A   1      43.650  27.419  36.981  1.00  0.00     0.135 A 
ATOM     54  C   UNL A   1      45.170  28.851  35.797  1.00  0.00     0.135 A 
ATOM     55  F   UNL A   1      42.406  27.015  37.281  1.00  0.00    -0.206 F 
ATOM     56  C   UNL A   1      44.722  26.790  37.611  1.00  0.00     0.059 A 
ATOM     57  C   UNL A   1      46.259  28.223  36.395  1.00  0.00     0.059 A 
ATOM     58  F   UNL A   1      45.418  29.836  34.919  1.00  0.00    -0.206 F 
ATOM     59  C   UNL A   1      46.024  27.203  37.314  1.00  0.00     0.060 A 
BRANCH  59  60
ATOM     60  S   UNL A   1      47.410  26.376  38.125  1.00  0.00     0.124 S 
ATOM     61  O   UNL A   1      46.729  25.307  38.848  1.00  0.00    -0.237 OA
ATOM     62  O   UNL A   1      48.229  25.956  36.991  1.00  0.00    -0.237 OA
ATOM     63  O   UNL A   1      47.991  27.426  38.955  1.00  0.00    -0.744 OA
ENDBRANCH  59  60
ENDBRANCH  27  52
BRANCH  39  64
ATOM     64  C   UNL A   1      40.275  34.335  37.314  1.00  0.00     0.058 A 
ATOM     65  C   UNL A   1      41.031  35.505  37.145  1.00  0.00     0.135 A 
ATOM     66  C   UNL A   1      39.538  34.186  38.498  1.00  0.00     0.135 A 
ATOM     67  F   UNL A   1      41.760  35.683  36.032  1.00  0.00    -0.206 F 
ATOM     68  C   UNL A   1      41.056  36.495  38.119  1.00  0.00     0.059 A 
ATOM     69  C   UNL A   1      39.532  35.173  39.477  1.00  0.00     0.059 A 
ATOM     70  F   UNL A   1      38.797  33.085  38.699  1.00  0.00    -0.206 F 
ATOM     71  C   UNL A   1      40.298  36.322  39.280  1.00  0.00     0.060 A 
BRANCH  71  72
ATOM     72  S   UNL A   1      40.281  37.644  40.507  1.00  0.00     0.124 S 
ATOM     73  O   UNL A   1      38.852  37.914  40.628  1.00  0.00    -0.237 OA
ATOM     74  O   UNL A   1      40.907  37.010  41.663  1.00  0.00    -0.237 OA
ATOM     75  O   UNL A   1      41.069  38.700  39.877  1.00  0.00    -0.744 OA
ENDBRANCH  71  72
ENDBRANCH  39  64
ENDBRANCH  13  14
ENDBRANCH   6   8
ENDBRANCH   5   6
ENDBRANCH   4   5
ENDBRANCH   3   4
ENDBRANCH   2   3
ENDBRANCH   1   2
BRANCH   1  76
ATOM     76  C   UNL A   1      35.173  21.692  25.455  1.00  0.00     0.188 C 
BRANCH  76  77
ATOM     77  O   UNL A   1      34.077  21.148  24.711  1.00  0.00    -0.376 OA
BRANCH  77  78
ATOM     78  C   UNL A   1      33.538  21.967  23.678  1.00  0.00     0.202 C 
BRANCH  78  79
ATOM     79  C   UNL A   1      33.945  23.444  23.681  1.00  0.00     0.261 C 
BRANCH  79  80
ATOM     80  O   UNL A   1      32.864  24.384  23.583  1.00  0.00    -0.458 OA
BRANCH  80  81
ATOM     81  C   UNL A   1      33.118  25.434  22.756  1.00  0.00     0.358 C 
ATOM     82  O   UNL A   1      33.899  25.453  21.816  1.00  0.00    -0.244 OA
BRANCH  81  83
ATOM     83  C   UNL A   1      32.468  26.654  23.258  1.00  0.00     0.169 A 
ATOM     84  C   UNL A   1      31.543  27.240  22.411  1.00  0.00     0.147 A 
ATOM     85  N   UNL A   1      32.675  27.055  24.549  1.00  0.00    -0.220 NA
ATOM     86  N   UNL A   1      30.780  28.275  22.804  1.00  0.00    -0.258 NA
ATOM     87  C   UNL A   1      31.874  28.066  24.974  1.00  0.00     0.149 A 
ATOM     88  C   UNL A   1      30.959  28.660  24.090  1.00  0.00     0.158 A 
BRANCH  87  89
ATOM     89  N   UNL A   1      32.003  28.498  26.300  1.00  0.00    -0.338 N 
ATOM     90  H   UNL A   1      31.300  28.181  26.913  1.00  0.00     0.168 HD
BRANCH  89  91
ATOM     91  C   UNL A   1      32.983  29.314  26.884  1.00  0.00     0.058 A 
ATOM     92  C   UNL A   1      32.775  30.675  27.133  1.00  0.00     0.029 A 
ATOM     93  C   UNL A   1      34.259  28.827  27.167  1.00  0.00     0.137 A 
ATOM     94  C   UNL A   1      33.815  31.479  27.594  1.00  0.00     0.022 A 
ATOM     95  N   UNL A   1      35.287  29.575  27.639  1.00  0.00    -0.263 NA
ATOM     96  C   UNL A   1      35.046  30.892  27.817  1.00  0.00     0.111 A 
ENDBRANCH  89  91
ENDBRANCH  87  89
ENDBRANCH  81  83
ENDBRANCH  80  81
ENDBRANCH  79  80
ENDBRANCH  78  79
ENDBRANCH  77  78
ENDBRANCH  76  77
ENDBRANCH   1  76
TORSDOF 22
ENDMDL
MODEL 3
REMARK VINA RESULT:      -9.8      6.458     11.888
REMARK SMILES O=C(OCCOCCOCCOC(=O)c1cncc(Nc2cccnc2)n1)c1ccc(-c2c3nc(c(-c4c(F)cc(S(=O)(=O)[O-])cc4F)c4ccc([nH]4)c(-c4c(F)cc(S(=O)(=O)[O-])cc4F)c4nc(c(-c5c(F)cc(S(=O)(=O)[O-])cc5F)c5ccc2[nH]5)C=C4)C=C3)cc1
REMARK SMILES IDX 7 1 6 2 5 3 4 4 3 5 2 6 1 7 28 8 29 9 93 10 30 11 92 12
REMARK SMILES IDX 31 13 32 14 33 15 86 16 34 17 91 18 85 19 87 20 35 21 90 22
REMARK SMILES IDX 84 23 83 24 36 26 70 27 49 28 69 29 50 30 53 31 68 32 88 33
REMARK SMILES IDX 51 34 52 35 67 37 89 38 54 39 37 40 38 41 47 42 39 43 40 44
REMARK SMILES IDX 46 45 48 46 41 47 42 48 43 49 44 50 45 51 71 52 72 53 81 54
REMARK SMILES IDX 73 55 74 56 80 57 82 58 75 59 76 60 77 61 78 62 79 63 55 64
REMARK SMILES IDX 56 65 65 66 57 67 58 68 64 69 66 70 59 71 60 72 61 73 62 74
REMARK SMILES IDX 63 75 8 76 9 77 10 78 11 79 12 80 13 81 14 82 15 83 16 84
REMARK SMILES IDX 27 85 17 86 19 87 18 88 20 89 21 91 22 92 26 93 23 94 25 95
REMARK SMILES IDX 24 96
REMARK H PARENT 87 25 53 36 20 90
REMARK Flexibility Score: inf
ROOT
ATOM      1  C   UNL A   1      40.365  20.964  26.330  1.00  0.00     0.188 C 
ENDROOT
BRANCH   1   2
ATOM      2  O   UNL A   1      41.462  21.653  26.946  1.00  0.00    -0.376 OA
BRANCH   2   3
ATOM      3  C   UNL A   1      42.583  21.852  26.083  1.00  0.00     0.202 C 
BRANCH   3   4
ATOM      4  C   UNL A   1      42.822  23.313  25.684  1.00  0.00     0.261 C 
BRANCH   4   5
ATOM      5  O   UNL A   1      41.840  24.189  26.260  1.00  0.00    -0.460 OA
BRANCH   5   6
ATOM      6  C   UNL A   1      41.756  25.537  26.130  1.00  0.00     0.338 C 
ATOM      7  O   UNL A   1      41.817  26.026  25.001  1.00  0.00    -0.246 OA
BRANCH   6   8
ATOM      8  C   UNL A   1      41.539  26.464  27.283  1.00  0.00     0.060 A 
ATOM      9  C   UNL A   1      42.168  27.700  27.445  1.00  0.00     0.016 A 
ATOM     10  C   UNL A   1      40.577  26.085  28.236  1.00  0.00     0.016 A 
ATOM     11  C   UNL A   1      41.952  28.478  28.578  1.00  0.00     0.010 A 
ATOM     12  C   UNL A   1      40.301  26.898  29.341  1.00  0.00     0.010 A 
ATOM     13  C   UNL A   1      41.017  28.086  29.534  1.00  0.00    -0.014 A 
BRANCH  13  14
ATOM     14  C   UNL A   1      40.842  28.901  30.755  1.00  0.00     0.031 A 
ATOM     15  C   UNL A   1      39.774  29.953  30.784  1.00  0.00     0.074 A 
ATOM     16  C   UNL A   1      41.586  28.649  31.849  1.00  0.00     0.049 A 
ATOM     17  N   UNL A   1      39.503  30.827  31.715  1.00  0.00    -0.248 NA
ATOM     18  C   UNL A   1      38.879  30.018  29.615  1.00  0.00     0.031 C 
ATOM     19  C   UNL A   1      42.574  27.575  31.962  1.00  0.00     0.029 A 
ATOM     20  N   UNL A   1      41.624  29.266  33.073  1.00  0.00    -0.354 N 
ATOM     21  C   UNL A   1      38.423  31.559  31.240  1.00  0.00     0.074 A 
ATOM     22  C   UNL A   1      38.090  31.033  29.935  1.00  0.00     0.031 C 
ATOM     23  C   UNL A   1      43.124  27.615  33.185  1.00  0.00     0.029 A 
ATOM     24  C   UNL A   1      42.591  28.759  33.909  1.00  0.00     0.049 A 
ATOM     25  H   UNL A   1      41.019  29.999  33.328  1.00  0.00     0.167 HD
ATOM     26  C   UNL A   1      37.771  32.577  31.847  1.00  0.00     0.037 A 
ATOM     27  C   UNL A   1      43.038  29.197  35.100  1.00  0.00     0.037 A 
ATOM     28  C   UNL A   1      38.112  33.077  33.151  1.00  0.00     0.049 A 
ATOM     29  C   UNL A   1      42.378  30.403  35.704  1.00  0.00     0.074 A 
ATOM     30  C   UNL A   1      37.522  34.104  33.862  1.00  0.00     0.029 A 
ATOM     31  N   UNL A   1      39.146  32.585  33.936  1.00  0.00    -0.354 N 
ATOM     32  N   UNL A   1      41.366  31.099  35.240  1.00  0.00    -0.248 NA
ATOM     33  C   UNL A   1      42.916  30.895  36.978  1.00  0.00     0.031 C 
ATOM     34  C   UNL A   1      38.225  34.259  35.063  1.00  0.00     0.029 A 
ATOM     35  C   UNL A   1      39.232  33.307  35.112  1.00  0.00     0.049 A 
ATOM     36  H   UNL A   1      39.731  31.832  33.691  1.00  0.00     0.167 HD
ATOM     37  C   UNL A   1      41.138  32.104  36.170  1.00  0.00     0.074 A 
ATOM     38  C   UNL A   1      42.109  31.918  37.231  1.00  0.00     0.031 C 
ATOM     39  C   UNL A   1      40.210  33.092  36.149  1.00  0.00     0.037 A 
BRANCH  26  40
ATOM     40  C   UNL A   1      36.665  33.237  31.079  1.00  0.00     0.058 A 
ATOM     41  C   UNL A   1      36.921  34.093  29.995  1.00  0.00     0.135 A 
ATOM     42  C   UNL A   1      35.326  33.020  31.444  1.00  0.00     0.135 A 
ATOM     43  F   UNL A   1      38.184  34.354  29.624  1.00  0.00    -0.206 F 
ATOM     44  C   UNL A   1      35.887  34.729  29.315  1.00  0.00     0.059 A 
ATOM     45  C   UNL A   1      34.277  33.632  30.766  1.00  0.00     0.059 A 
ATOM     46  F   UNL A   1      35.031  32.220  32.480  1.00  0.00    -0.206 F 
ATOM     47  C   UNL A   1      34.569  34.498  29.713  1.00  0.00     0.060 A 
BRANCH  47  48
ATOM     48  S   UNL A   1      33.239  35.347  28.835  1.00  0.00     0.124 S 
ATOM     49  O   UNL A   1      33.988  36.304  28.028  1.00  0.00    -0.237 OA
ATOM     50  O   UNL A   1      32.603  34.260  28.100  1.00  0.00    -0.237 OA
ATOM     51  O   UNL A   1      32.438  35.925  29.911  1.00  0.00    -0.744 OA
ENDBRANCH  47  48
ENDBRANCH  26  40
BRANCH  27  52
ATOM     52  C   UNL A   1      44.208  28.542  35.747  1.00  0.00     0.058 A 
ATOM     53  C   UNL A   1      45.523  28.929  35.456  1.00  0.00     0.135 A 
ATOM     54  C   UNL A   1      44.027  27.508  36.684  1.00  0.00     0.135 A 
ATOM     55  F   UNL A   1      45.753  29.908  34.568  1.00  0.00    -0.206 F 
ATOM     56  C   UNL A   1      46.616  28.303  36.051  1.00  0.00     0.059 A 
ATOM     57  C   UNL A   1      45.102  26.883  37.309  1.00  0.00     0.059 A 
ATOM     58  F   UNL A   1      42.789  27.110  37.016  1.00  0.00    -0.206 F 
ATOM     59  C   UNL A   1      46.395  27.278  36.974  1.00  0.00     0.060 A 
BRANCH  59  60
ATOM     60  S   UNL A   1      47.816  26.478  37.751  1.00  0.00     0.124 S 
ATOM     61  O   UNL A   1      48.385  25.740  36.630  1.00  0.00    -0.237 OA
ATOM     62  O   UNL A   1      48.596  27.619  38.223  1.00  0.00    -0.237 OA
ATOM     63  O   UNL A   1      47.213  25.662  38.801  1.00  0.00    -0.744 OA
ENDBRANCH  59  60
ENDBRANCH  27  52
BRANCH  39  64
ATOM     64  C   UNL A   1      40.195  34.036  37.312  1.00  0.00     0.058 A 
ATOM     65  C   UNL A   1      40.924  35.234  37.284  1.00  0.00     0.135 A 
ATOM     66  C   UNL A   1      39.386  33.776  38.428  1.00  0.00     0.135 A 
ATOM     67  F   UNL A   1      41.719  35.516  36.241  1.00  0.00    -0.206 F 
ATOM     68  C   UNL A   1      40.852  36.146  38.330  1.00  0.00     0.059 A 
ATOM     69  C   UNL A   1      39.284  34.684  39.476  1.00  0.00     0.059 A 
ATOM     70  F   UNL A   1      38.668  32.644  38.494  1.00  0.00    -0.206 F 
ATOM     71  C   UNL A   1      40.024  35.864  39.419  1.00  0.00     0.060 A 
BRANCH  71  72
ATOM     72  S   UNL A   1      39.884  37.086  40.739  1.00  0.00     0.124 S 
ATOM     73  O   UNL A   1      39.883  38.335  39.984  1.00  0.00    -0.237 OA
ATOM     74  O   UNL A   1      38.619  36.725  41.370  1.00  0.00    -0.237 OA
ATOM     75  O   UNL A   1      41.074  36.844  41.550  1.00  0.00    -0.744 OA
ENDBRANCH  71  72
ENDBRANCH  39  64
ENDBRANCH  13  14
ENDBRANCH   6   8
ENDBRANCH   5   6
ENDBRANCH   4   5
ENDBRANCH   3   4
ENDBRANCH   2   3
ENDBRANCH   1   2
BRANCH   1  76
ATOM     76  C   UNL A   1      39.227  21.940  26.010  1.00  0.00     0.188 C 
BRANCH  76  77
ATOM     77  O   UNL A   1      37.997  21.318  25.622  1.00  0.00    -0.376 OA
BRANCH  77  78
ATOM     78  C   UNL A   1      36.905  22.186  25.336  1.00  0.00     0.202 C 
BRANCH  78  79
ATOM     79  C   UNL A   1      35.513  21.716  25.769  1.00  0.00     0.261 C 
BRANCH  79  80
ATOM     80  O   UNL A   1      34.412  22.470  25.239  1.00  0.00    -0.458 OA
BRANCH  80  81
ATOM     81  C   UNL A   1      33.237  21.785  25.208  1.00  0.00     0.358 C 
ATOM     82  O   UNL A   1      33.065  20.646  24.802  1.00  0.00    -0.244 OA
BRANCH  81  83
ATOM     83  C   UNL A   1      32.115  22.672  25.551  1.00  0.00     0.169 A 
ATOM     84  C   UNL A   1      31.923  22.911  26.902  1.00  0.00     0.147 A 
ATOM     85  N   UNL A   1      31.434  23.325  24.561  1.00  0.00    -0.220 NA
ATOM     86  N   UNL A   1      31.024  23.810  27.340  1.00  0.00    -0.258 NA
ATOM     87  C   UNL A   1      30.561  24.271  24.990  1.00  0.00     0.149 A 
ATOM     88  C   UNL A   1      30.366  24.481  26.365  1.00  0.00     0.158 A 
BRANCH  87  89
ATOM     89  N   UNL A   1      29.860  25.008  24.027  1.00  0.00    -0.338 N 
ATOM     90  H   UNL A   1      29.114  24.531  23.596  1.00  0.00     0.168 HD
BRANCH  89  91
ATOM     91  C   UNL A   1      30.063  26.324  23.584  1.00  0.00     0.058 A 
ATOM     92  C   UNL A   1      29.018  27.246  23.468  1.00  0.00     0.029 A 
ATOM     93  C   UNL A   1      31.315  26.757  23.148  1.00  0.00     0.137 A 
ATOM     94  C   UNL A   1      29.238  28.500  22.902  1.00  0.00     0.022 A 
ATOM     95  N   UNL A   1      31.571  27.979  22.616  1.00  0.00    -0.263 NA
ATOM     96  C   UNL A   1      30.517  28.813  22.482  1.00  0.00     0.111 A 
ENDBRANCH  89  91
ENDBRANCH  87  89
ENDBRANCH  81  83
ENDBRANCH  80  81
ENDBRANCH  79  80
ENDBRANCH  78  79
ENDBRANCH  77  78
ENDBRANCH  76  77
ENDBRANCH   1  76
TORSDOF 22
ENDMDL
