MODEL 1
REMARK VINA RESULT:     -10.5      0.000      0.000
REMARK SMILES C[C@H]1[C@@H](C(=O)OCCOCCOCCOC(=O)c2ccc(-c3c4nc(c(-c5c(F)cc(S(=O)(=O)[O-])cc5F)c5ccc([nH]5)c(-c5c(F)cc(S(=O)(=O)[O-])cc5F)c5nc(c(-c6c(F)cc(S(=O)(=O)[O-])cc6F)c6ccc3[nH]6)C=C5)C=C4)cc2)CCN1C(=O)NC1CCCCC1
REMARK SMILES IDX 11 1 10 2 9 3 8 4 7 5 6 6 4 7 5 8 3 9 1 10 2 11 86 12 84 13
REMARK SMILES IDX 85 14 87 15 88 16 89 17 90 19 91 20 95 21 92 22 94 23 93 24
REMARK SMILES IDX 12 25 13 26 14 27 15 28 16 29 17 30 18 31 19 32 83 33 20 34
REMARK SMILES IDX 82 35 21 36 22 37 23 38 76 39 24 40 81 41 75 42 77 43 25 44
REMARK SMILES IDX 80 45 74 46 73 47 26 49 60 50 39 51 59 52 40 53 43 54 58 55
REMARK SMILES IDX 78 56 41 57 42 58 57 60 79 61 44 62 27 63 28 64 37 65 29 66
REMARK SMILES IDX 30 67 36 68 38 69 31 70 32 71 33 72 34 73 35 74 61 75 62 76
REMARK SMILES IDX 71 77 63 78 64 79 70 80 72 81 65 82 66 83 67 84 68 85 69 86
REMARK SMILES IDX 45 87 46 88 55 89 47 90 48 91 54 92 56 93 49 94 50 95 51 96
REMARK SMILES IDX 52 97 53 98
REMARK H PARENT 89 18 77 48 43 59
REMARK Flexibility Score: inf
ROOT
ATOM      1  C   UNL A   1      42.372  21.346  26.700  1.00  0.00     0.188 C 
ENDROOT
BRANCH   1   2
ATOM      2  C   UNL A   1      40.945  20.886  27.038  1.00  0.00     0.188 C 
BRANCH   2   3
ATOM      3  O   UNL A   1      39.902  21.063  26.095  1.00  0.00    -0.376 OA
BRANCH   3   4
ATOM      4  C   UNL A   1      39.011  22.162  26.229  1.00  0.00     0.202 C 
BRANCH   4   5
ATOM      5  C   UNL A   1      37.783  22.198  25.318  1.00  0.00     0.261 C 
BRANCH   5   6
ATOM      6  O   UNL A   1      36.779  21.286  25.791  1.00  0.00    -0.463 OA
BRANCH   6   7
ATOM      7  C   UNL A   1      35.490  21.684  25.787  1.00  0.00     0.311 C 
ATOM      8  O   UNL A   1      34.866  22.009  26.788  1.00  0.00    -0.252 OA
BRANCH   7   9
ATOM      9  C   UNL A   1      34.880  21.728  24.401  1.00  0.00     0.123 C 
ATOM     10  C   UNL A   1      34.935  24.410  24.297  1.00  0.00     0.032 C 
ATOM     11  C   UNL A   1      34.761  23.043  23.617  1.00  0.00     0.098 C 
ATOM     12  N   UNL A   1      33.535  22.978  22.838  1.00  0.00    -0.321 N 
ATOM     13  C   UNL A   1      33.519  21.047  24.276  1.00  0.00     0.039 C 
ATOM     14  C   UNL A   1      32.686  21.906  23.331  1.00  0.00     0.122 C 
BRANCH  12  15
ATOM     15  C   UNL A   1      33.087  23.722  21.789  1.00  0.00     0.317 C 
ATOM     16  O   UNL A   1      33.370  23.392  20.630  1.00  0.00    -0.249 OA
ATOM     17  N   UNL A   1      32.361  24.854  21.875  1.00  0.00    -0.335 N 
ATOM     18  H   UNL A   1      32.240  25.216  20.967  1.00  0.00     0.165 HD
BRANCH  17  19
ATOM     19  C   UNL A   1      31.675  25.759  22.836  1.00  0.00     0.083 C 
ATOM     20  C   UNL A   1      31.055  27.000  22.223  1.00  0.00     0.025 C 
ATOM     21  C   UNL A   1      30.575  24.984  23.592  1.00  0.00     0.025 C 
ATOM     22  C   UNL A   1      30.151  27.860  23.068  1.00  0.00     0.002 C 
ATOM     23  C   UNL A   1      29.722  25.889  24.491  1.00  0.00     0.002 C 
ATOM     24  C   UNL A   1      29.079  27.034  23.715  1.00  0.00     0.000 C 
ENDBRANCH  17  19
ENDBRANCH  12  15
ENDBRANCH   7   9
ENDBRANCH   6   7
ENDBRANCH   5   6
ENDBRANCH   4   5
ENDBRANCH   3   4
ENDBRANCH   2   3
ENDBRANCH   1   2
BRANCH   1  25
ATOM     25  O   UNL A   1      42.760  21.658  25.376  1.00  0.00    -0.376 OA
BRANCH  25  26
ATOM     26  C   UNL A   1      42.951  23.020  25.038  1.00  0.00     0.202 C 
BRANCH  26  27
ATOM     27  C   UNL A   1      42.767  24.081  26.129  1.00  0.00     0.261 C 
BRANCH  27  28
ATOM     28  O   UNL A   1      41.612  24.914  25.947  1.00  0.00    -0.460 OA
BRANCH  28  29
ATOM     29  C   UNL A   1      41.846  26.251  25.926  1.00  0.00     0.338 C 
ATOM     30  O   UNL A   1      41.937  26.969  24.943  1.00  0.00    -0.246 OA
BRANCH  29  31
ATOM     31  C   UNL A   1      41.756  26.768  27.307  1.00  0.00     0.060 A 
ATOM     32  C   UNL A   1      40.808  26.218  28.185  1.00  0.00     0.016 A 
ATOM     33  C   UNL A   1      42.599  27.794  27.727  1.00  0.00     0.016 A 
ATOM     34  C   UNL A   1      40.698  26.693  29.492  1.00  0.00     0.010 A 
ATOM     35  C   UNL A   1      42.457  28.299  29.019  1.00  0.00     0.010 A 
ATOM     36  C   UNL A   1      41.494  27.768  29.897  1.00  0.00    -0.014 A 
BRANCH  36  37
ATOM     37  C   UNL A   1      41.195  28.511  31.142  1.00  0.00     0.031 A 
ATOM     38  C   UNL A   1      40.084  29.520  31.094  1.00  0.00     0.074 A 
ATOM     39  C   UNL A   1      41.930  28.351  32.255  1.00  0.00     0.049 A 
ATOM     40  N   UNL A   1      39.798  30.482  31.928  1.00  0.00    -0.248 NA
ATOM     41  C   UNL A   1      39.184  29.438  29.931  1.00  0.00     0.031 C 
ATOM     42  C   UNL A   1      42.972  27.346  32.448  1.00  0.00     0.029 A 
ATOM     43  N   UNL A   1      41.930  29.068  33.427  1.00  0.00    -0.354 N 
ATOM     44  C   UNL A   1      38.710  31.145  31.374  1.00  0.00     0.074 A 
ATOM     45  C   UNL A   1      38.388  30.477  30.134  1.00  0.00     0.031 C 
ATOM     46  C   UNL A   1      43.541  27.535  33.651  1.00  0.00     0.029 A 
ATOM     47  C   UNL A   1      42.945  28.711  34.284  1.00  0.00     0.049 A 
ATOM     48  H   UNL A   1      41.270  29.769  33.633  1.00  0.00     0.167 HD
ATOM     49  C   UNL A   1      38.051  32.223  31.857  1.00  0.00     0.037 A 
ATOM     50  C   UNL A   1      43.374  29.305  35.417  1.00  0.00     0.037 A 
ATOM     51  C   UNL A   1      38.391  32.874  33.094  1.00  0.00     0.049 A 
ATOM     52  C   UNL A   1      42.684  30.561  35.896  1.00  0.00     0.074 A 
ATOM     53  C   UNL A   1      37.793  33.975  33.678  1.00  0.00     0.029 A 
ATOM     54  N   UNL A   1      39.425  32.484  33.933  1.00  0.00    -0.354 N 
ATOM     55  N   UNL A   1      41.671  31.201  35.359  1.00  0.00    -0.248 NA
ATOM     56  C   UNL A   1      43.199  31.182  37.125  1.00  0.00     0.031 C 
ATOM     57  C   UNL A   1      38.500  34.285  34.843  1.00  0.00     0.029 A 
ATOM     58  C   UNL A   1      39.495  33.334  35.021  1.00  0.00     0.049 A 
ATOM     59  H   UNL A   1      40.021  31.714  33.777  1.00  0.00     0.167 HD
ATOM     60  C   UNL A   1      41.402  32.272  36.207  1.00  0.00     0.074 A 
ATOM     61  C   UNL A   1      42.363  32.200  37.287  1.00  0.00     0.031 C 
ATOM     62  C   UNL A   1      40.440  33.222  36.105  1.00  0.00     0.037 A 
BRANCH  49  63
ATOM     63  C   UNL A   1      36.938  32.793  31.024  1.00  0.00     0.058 A 
ATOM     64  C   UNL A   1      37.179  33.692  29.974  1.00  0.00     0.135 A 
ATOM     65  C   UNL A   1      35.608  32.411  31.268  1.00  0.00     0.135 A 
ATOM     66  F   UNL A   1      38.428  34.108  29.712  1.00  0.00    -0.206 F 
ATOM     67  C   UNL A   1      36.137  34.212  29.210  1.00  0.00     0.059 A 
ATOM     68  C   UNL A   1      34.556  32.893  30.498  1.00  0.00     0.059 A 
ATOM     69  F   UNL A   1      35.321  31.560  32.266  1.00  0.00    -0.206 F 
ATOM     70  C   UNL A   1      34.830  33.805  29.479  1.00  0.00     0.060 A 
BRANCH  70  71
ATOM     71  S   UNL A   1      33.492  34.480  28.473  1.00  0.00     0.124 S 
ATOM     72  O   UNL A   1      32.583  34.983  29.498  1.00  0.00    -0.237 OA
ATOM     73  O   UNL A   1      34.181  35.496  27.683  1.00  0.00    -0.237 OA
ATOM     74  O   UNL A   1      33.013  33.323  27.722  1.00  0.00    -0.744 OA
ENDBRANCH  70  71
ENDBRANCH  49  63
BRANCH  50  75
ATOM     75  C   UNL A   1      44.539  28.748  36.159  1.00  0.00     0.058 A 
ATOM     76  C   UNL A   1      45.834  29.243  35.950  1.00  0.00     0.135 A 
ATOM     77  C   UNL A   1      44.384  27.707  37.090  1.00  0.00     0.135 A 
ATOM     78  F   UNL A   1      46.039  30.225  35.060  1.00  0.00    -0.206 F 
ATOM     79  C   UNL A   1      46.935  28.721  36.624  1.00  0.00     0.059 A 
ATOM     80  C   UNL A   1      45.464  27.188  37.798  1.00  0.00     0.059 A 
ATOM     81  F   UNL A   1      43.166  27.197  37.333  1.00  0.00    -0.206 F 
ATOM     82  C   UNL A   1      46.738  27.696  37.550  1.00  0.00     0.060 A 
BRANCH  82  83
ATOM     83  S   UNL A   1      48.168  27.059  38.452  1.00  0.00     0.124 S 
ATOM     84  O   UNL A   1      47.573  26.702  39.734  1.00  0.00    -0.237 OA
ATOM     85  O   UNL A   1      48.587  25.944  37.610  1.00  0.00    -0.237 OA
ATOM     86  O   UNL A   1      49.084  28.196  38.477  1.00  0.00    -0.744 OA
ENDBRANCH  82  83
ENDBRANCH  50  75
BRANCH  62  87
ATOM     87  C   UNL A   1      40.311  34.226  37.218  1.00  0.00     0.058 A 
ATOM     88  C   UNL A   1      40.958  35.469  37.179  1.00  0.00     0.135 A 
ATOM     89  C   UNL A   1      39.418  33.983  38.276  1.00  0.00     0.135 A 
ATOM     90  F   UNL A   1      41.827  35.749  36.194  1.00  0.00    -0.206 F 
ATOM     91  C   UNL A   1      40.720  36.440  38.148  1.00  0.00     0.059 A 
ATOM     92  C   UNL A   1      39.145  34.949  39.238  1.00  0.00     0.059 A 
ATOM     93  F   UNL A   1      38.766  32.812  38.354  1.00  0.00    -0.206 F 
ATOM     94  C   UNL A   1      39.800  36.176  39.165  1.00  0.00     0.060 A 
BRANCH  94  95
ATOM     95  S   UNL A   1      39.430  37.479  40.359  1.00  0.00     0.124 S 
ATOM     96  O   UNL A   1      40.761  37.996  40.654  1.00  0.00    -0.237 OA
ATOM     97  O   UNL A   1      38.561  38.366  39.591  1.00  0.00    -0.237 OA
ATOM     98  O   UNL A   1      38.778  36.765  41.453  1.00  0.00    -0.744 OA
ENDBRANCH  94  95
ENDBRANCH  62  87
ENDBRANCH  36  37
ENDBRANCH  29  31
ENDBRANCH  28  29
ENDBRANCH  27  28
ENDBRANCH  26  27
ENDBRANCH  25  26
ENDBRANCH   1  25
TORSDOF 22
ENDMDL
MODEL 2
REMARK VINA RESULT:     -10.5      1.410      2.012
REMARK SMILES C[C@H]1[C@@H](C(=O)OCCOCCOCCOC(=O)c2ccc(-c3c4nc(c(-c5c(F)cc(S(=O)(=O)[O-])cc5F)c5ccc([nH]5)c(-c5c(F)cc(S(=O)(=O)[O-])cc5F)c5nc(c(-c6c(F)cc(S(=O)(=O)[O-])cc6F)c6ccc3[nH]6)C=C5)C=C4)cc2)CCN1C(=O)NC1CCCCC1
REMARK SMILES IDX 11 1 10 2 9 3 8 4 7 5 6 6 4 7 5 8 3 9 1 10 2 11 86 12 84 13
REMARK SMILES IDX 85 14 87 15 88 16 89 17 90 19 91 20 95 21 92 22 94 23 93 24
REMARK SMILES IDX 12 25 13 26 14 27 15 28 16 29 17 30 18 31 19 32 83 33 20 34
REMARK SMILES IDX 82 35 21 36 22 37 23 38 76 39 24 40 81 41 75 42 77 43 25 44
REMARK SMILES IDX 80 45 74 46 73 47 26 49 60 50 39 51 59 52 40 53 43 54 58 55
REMARK SMILES IDX 78 56 41 57 42 58 57 60 79 61 44 62 27 63 28 64 37 65 29 66
REMARK SMILES IDX 30 67 36 68 38 69 31 70 32 71 33 72 34 73 35 74 61 75 62 76
REMARK SMILES IDX 71 77 63 78 64 79 70 80 72 81 65 82 66 83 67 84 68 85 69 86
REMARK SMILES IDX 45 87 46 88 55 89 47 90 48 91 54 92 56 93 49 94 50 95 51 96
REMARK SMILES IDX 52 97 53 98
REMARK H PARENT 89 18 77 48 43 59
REMARK Flexibility Score: inf
ROOT
ATOM      1  C   UNL A   1      41.821  21.534  26.306  1.00  0.00     0.188 C 
ENDROOT
BRANCH   1   2
ATOM      2  C   UNL A   1      40.336  21.584  26.696  1.00  0.00     0.188 C 
BRANCH   2   3
ATOM      3  O   UNL A   1      39.662  22.829  26.758  1.00  0.00    -0.376 OA
BRANCH   3   4
ATOM      4  C   UNL A   1      38.413  22.988  26.100  1.00  0.00     0.202 C 
BRANCH   4   5
ATOM      5  C   UNL A   1      37.807  21.763  25.415  1.00  0.00     0.261 C 
BRANCH   5   6
ATOM      6  O   UNL A   1      36.506  21.478  25.953  1.00  0.00    -0.463 OA
BRANCH   6   7
ATOM      7  C   UNL A   1      35.679  20.673  25.254  1.00  0.00     0.311 C 
ATOM      8  O   UNL A   1      36.017  19.613  24.744  1.00  0.00    -0.252 OA
BRANCH   7   9
ATOM      9  C   UNL A   1      34.256  21.189  25.184  1.00  0.00     0.123 C 
ATOM     10  C   UNL A   1      34.943  23.330  23.717  1.00  0.00     0.032 C 
ATOM     11  C   UNL A   1      33.879  22.389  24.304  1.00  0.00     0.098 C 
ATOM     12  N   UNL A   1      32.828  23.122  24.991  1.00  0.00    -0.321 N 
ATOM     13  C   UNL A   1      33.599  21.445  26.538  1.00  0.00     0.039 C 
ATOM     14  C   UNL A   1      32.760  22.710  26.383  1.00  0.00     0.122 C 
BRANCH  12  15
ATOM     15  C   UNL A   1      31.959  24.078  24.560  1.00  0.00     0.317 C 
ATOM     16  O   UNL A   1      31.173  23.829  23.636  1.00  0.00    -0.249 OA
ATOM     17  N   UNL A   1      31.875  25.339  25.026  1.00  0.00    -0.335 N 
ATOM     18  H   UNL A   1      31.212  25.827  24.486  1.00  0.00     0.165 HD
BRANCH  17  19
ATOM     19  C   UNL A   1      32.415  26.267  26.057  1.00  0.00     0.083 C 
ATOM     20  C   UNL A   1      33.556  27.152  25.593  1.00  0.00     0.025 C 
ATOM     21  C   UNL A   1      31.283  27.167  26.597  1.00  0.00     0.025 C 
ATOM     22  C   UNL A   1      34.020  28.274  26.485  1.00  0.00     0.002 C 
ATOM     23  C   UNL A   1      31.794  28.254  27.553  1.00  0.00     0.002 C 
ATOM     24  C   UNL A   1      32.865  29.130  26.912  1.00  0.00     0.000 C 
ENDBRANCH  17  19
ENDBRANCH  12  15
ENDBRANCH   7   9
ENDBRANCH   6   7
ENDBRANCH   5   6
ENDBRANCH   4   5
ENDBRANCH   3   4
ENDBRANCH   2   3
ENDBRANCH   1   2
BRANCH   1  25
ATOM     25  O   UNL A   1      42.379  22.446  25.380  1.00  0.00    -0.376 OA
BRANCH  25  26
ATOM     26  C   UNL A   1      43.015  23.607  25.883  1.00  0.00     0.202 C 
BRANCH  26  27
ATOM     27  C   UNL A   1      42.982  24.886  25.041  1.00  0.00     0.261 C 
BRANCH  27  28
ATOM     28  O   UNL A   1      41.918  25.787  25.384  1.00  0.00    -0.460 OA
BRANCH  28  29
ATOM     29  C   UNL A   1      42.268  27.093  25.512  1.00  0.00     0.338 C 
ATOM     30  O   UNL A   1      42.512  27.882  24.613  1.00  0.00    -0.246 OA
BRANCH  29  31
ATOM     31  C   UNL A   1      42.092  27.493  26.922  1.00  0.00     0.060 A 
ATOM     32  C   UNL A   1      41.248  26.735  27.751  1.00  0.00     0.016 A 
ATOM     33  C   UNL A   1      42.752  28.614  27.420  1.00  0.00     0.016 A 
ATOM     34  C   UNL A   1      41.059  27.096  29.085  1.00  0.00     0.010 A 
ATOM     35  C   UNL A   1      42.528  28.999  28.741  1.00  0.00     0.010 A 
ATOM     36  C   UNL A   1      41.666  28.258  29.570  1.00  0.00    -0.014 A 
BRANCH  36  37
ATOM     37  C   UNL A   1      41.247  28.855  30.858  1.00  0.00     0.031 A 
ATOM     38  C   UNL A   1      40.087  29.809  30.832  1.00  0.00     0.074 A 
ATOM     39  C   UNL A   1      41.916  28.619  31.999  1.00  0.00     0.049 A 
ATOM     40  N   UNL A   1      39.696  30.667  31.735  1.00  0.00    -0.248 NA
ATOM     41  C   UNL A   1      39.270  29.803  29.607  1.00  0.00     0.031 C 
ATOM     42  C   UNL A   1      42.997  27.651  32.164  1.00  0.00     0.029 A 
ATOM     43  N   UNL A   1      41.801  29.212  33.233  1.00  0.00    -0.354 N 
ATOM     44  C   UNL A   1      38.611  31.329  31.174  1.00  0.00     0.074 A 
ATOM     45  C   UNL A   1      38.406  30.776  29.855  1.00  0.00     0.031 C 
ATOM     46  C   UNL A   1      43.477  27.744  33.417  1.00  0.00     0.029 A 
ATOM     47  C   UNL A   1      42.777  28.820  34.119  1.00  0.00     0.049 A 
ATOM     48  H   UNL A   1      41.091  29.855  33.460  1.00  0.00     0.167 HD
ATOM     49  C   UNL A   1      37.864  32.319  31.714  1.00  0.00     0.037 A 
ATOM     50  C   UNL A   1      43.098  29.315  35.332  1.00  0.00     0.037 A 
ATOM     51  C   UNL A   1      38.087  32.857  33.029  1.00  0.00     0.049 A 
ATOM     52  C   UNL A   1      42.311  30.481  35.882  1.00  0.00     0.074 A 
ATOM     53  C   UNL A   1      37.393  33.863  33.675  1.00  0.00     0.029 A 
ATOM     54  N   UNL A   1      39.085  32.434  33.895  1.00  0.00    -0.354 N 
ATOM     55  N   UNL A   1      41.301  31.122  35.342  1.00  0.00    -0.248 NA
ATOM     56  C   UNL A   1      42.711  30.998  37.199  1.00  0.00     0.031 C 
ATOM     57  C   UNL A   1      38.006  34.086  34.912  1.00  0.00     0.029 A 
ATOM     58  C   UNL A   1      39.038  33.172  35.064  1.00  0.00     0.049 A 
ATOM     59  H   UNL A   1      39.730  31.714  33.707  1.00  0.00     0.167 HD
ATOM     60  C   UNL A   1      40.919  32.087  36.270  1.00  0.00     0.074 A 
ATOM     61  C   UNL A   1      41.811  31.953  37.402  1.00  0.00     0.031 C 
ATOM     62  C   UNL A   1      39.915  32.996  36.195  1.00  0.00     0.037 A 
BRANCH  49  63
ATOM     63  C   UNL A   1      36.777  32.916  30.865  1.00  0.00     0.058 A 
ATOM     64  C   UNL A   1      37.054  33.821  29.829  1.00  0.00     0.135 A 
ATOM     65  C   UNL A   1      35.436  32.556  31.080  1.00  0.00     0.135 A 
ATOM     66  F   UNL A   1      38.315  34.218  29.594  1.00  0.00    -0.206 F 
ATOM     67  C   UNL A   1      36.037  34.366  29.050  1.00  0.00     0.059 A 
ATOM     68  C   UNL A   1      34.408  33.064  30.294  1.00  0.00     0.059 A 
ATOM     69  F   UNL A   1      35.115  31.701  32.063  1.00  0.00    -0.206 F 
ATOM     70  C   UNL A   1      34.717  33.980  29.290  1.00  0.00     0.060 A 
BRANCH  70  71
ATOM     71  S   UNL A   1      33.411  34.688  28.265  1.00  0.00     0.124 S 
ATOM     72  O   UNL A   1      32.561  35.318  29.270  1.00  0.00    -0.237 OA
ATOM     73  O   UNL A   1      34.154  35.600  27.401  1.00  0.00    -0.237 OA
ATOM     74  O   UNL A   1      32.834  33.525  27.597  1.00  0.00    -0.744 OA
ENDBRANCH  70  71
ENDBRANCH  49  63
BRANCH  50  75
ATOM     75  C   UNL A   1      44.242  28.742  36.094  1.00  0.00     0.058 A 
ATOM     76  C   UNL A   1      44.061  27.657  36.964  1.00  0.00     0.135 A 
ATOM     77  C   UNL A   1      45.539  29.267  35.973  1.00  0.00     0.135 A 
ATOM     78  F   UNL A   1      42.839  27.128  37.129  1.00  0.00    -0.206 F 
ATOM     79  C   UNL A   1      45.118  27.121  37.696  1.00  0.00     0.059 A 
ATOM     80  C   UNL A   1      46.617  28.731  36.671  1.00  0.00     0.059 A 
ATOM     81  F   UNL A   1      45.772  30.303  35.151  1.00  0.00    -0.206 F 
ATOM     82  C   UNL A   1      46.394  27.663  37.538  1.00  0.00     0.060 A 
BRANCH  82  83
ATOM     83  S   UNL A   1      47.764  26.929  38.458  1.00  0.00     0.124 S 
ATOM     84  O   UNL A   1      47.269  25.579  38.697  1.00  0.00    -0.237 OA
ATOM     85  O   UNL A   1      48.866  27.047  37.510  1.00  0.00    -0.237 OA
ATOM     86  O   UNL A   1      47.870  27.780  39.640  1.00  0.00    -0.744 OA
ENDBRANCH  82  83
ENDBRANCH  50  75
BRANCH  62  87
ATOM     87  C   UNL A   1      39.659  33.874  37.389  1.00  0.00     0.058 A 
ATOM     88  C   UNL A   1      38.844  33.466  38.454  1.00  0.00     0.135 A 
ATOM     89  C   UNL A   1      40.351  35.091  37.520  1.00  0.00     0.135 A 
ATOM     90  F   UNL A   1      38.154  32.316  38.376  1.00  0.00    -0.206 F 
ATOM     91  C   UNL A   1      38.727  34.230  39.611  1.00  0.00     0.059 A 
ATOM     92  C   UNL A   1      40.271  35.856  38.678  1.00  0.00     0.059 A 
ATOM     93  F   UNL A   1      41.152  35.522  36.533  1.00  0.00    -0.206 F 
ATOM     94  C   UNL A   1      39.457  35.416  39.721  1.00  0.00     0.060 A 
BRANCH  94  95
ATOM     95  S   UNL A   1      39.370  36.348  41.264  1.00  0.00     0.124 S 
ATOM     96  O   UNL A   1      39.022  37.682  40.786  1.00  0.00    -0.237 OA
ATOM     97  O   UNL A   1      38.321  35.643  41.994  1.00  0.00    -0.237 OA
ATOM     98  O   UNL A   1      40.713  36.213  41.821  1.00  0.00    -0.744 OA
ENDBRANCH  94  95
ENDBRANCH  62  87
ENDBRANCH  36  37
ENDBRANCH  29  31
ENDBRANCH  28  29
ENDBRANCH  27  28
ENDBRANCH  26  27
ENDBRANCH  25  26
ENDBRANCH   1  25
TORSDOF 22
ENDMDL
MODEL 3
REMARK VINA RESULT:     -10.4      1.731      2.543
REMARK SMILES C[C@H]1[C@@H](C(=O)OCCOCCOCCOC(=O)c2ccc(-c3c4nc(c(-c5c(F)cc(S(=O)(=O)[O-])cc5F)c5ccc([nH]5)c(-c5c(F)cc(S(=O)(=O)[O-])cc5F)c5nc(c(-c6c(F)cc(S(=O)(=O)[O-])cc6F)c6ccc3[nH]6)C=C5)C=C4)cc2)CCN1C(=O)NC1CCCCC1
REMARK SMILES IDX 11 1 10 2 9 3 8 4 7 5 6 6 4 7 5 8 3 9 1 10 2 11 86 12 84 13
REMARK SMILES IDX 85 14 87 15 88 16 89 17 90 19 91 20 95 21 92 22 94 23 93 24
REMARK SMILES IDX 12 25 13 26 14 27 15 28 16 29 17 30 18 31 19 32 83 33 20 34
REMARK SMILES IDX 82 35 21 36 22 37 23 38 76 39 24 40 81 41 75 42 77 43 25 44
REMARK SMILES IDX 80 45 74 46 73 47 26 49 60 50 39 51 59 52 40 53 43 54 58 55
REMARK SMILES IDX 78 56 41 57 42 58 57 60 79 61 44 62 27 63 28 64 37 65 29 66
REMARK SMILES IDX 30 67 36 68 38 69 31 70 32 71 33 72 34 73 35 74 61 75 62 76
REMARK SMILES IDX 71 77 63 78 64 79 70 80 72 81 65 82 66 83 67 84 68 85 69 86
REMARK SMILES IDX 45 87 46 88 55 89 47 90 48 91 54 92 56 93 49 94 50 95 51 96
REMARK SMILES IDX 52 97 53 98
REMARK H PARENT 89 18 77 48 43 59
REMARK Flexibility Score: inf
ROOT
ATOM      1  C   UNL A   1      40.315  21.568  26.601  1.00  0.00     0.188 C 
ENDROOT
BRANCH   1   2
ATOM      2  C   UNL A   1      39.420  22.815  26.667  1.00  0.00     0.188 C 
BRANCH   2   3
ATOM      3  O   UNL A   1      38.087  22.756  26.189  1.00  0.00    -0.376 OA
BRANCH   3   4
ATOM      4  C   UNL A   1      37.703  21.719  25.296  1.00  0.00     0.202 C 
BRANCH   4   5
ATOM      5  C   UNL A   1      36.603  22.023  24.280  1.00  0.00     0.261 C 
BRANCH   5   6
ATOM      6  O   UNL A   1      36.163  23.384  24.407  1.00  0.00    -0.463 OA
BRANCH   6   7
ATOM      7  C   UNL A   1      35.100  23.791  23.684  1.00  0.00     0.311 C 
ATOM      8  O   UNL A   1      34.756  23.290  22.621  1.00  0.00    -0.252 OA
BRANCH   7   9
ATOM      9  C   UNL A   1      34.329  24.923  24.334  1.00  0.00     0.123 C 
ATOM     10  C   UNL A   1      32.848  23.258  25.830  1.00  0.00     0.032 C 
ATOM     11  C   UNL A   1      33.351  24.669  25.490  1.00  0.00     0.098 C 
ATOM     12  N   UNL A   1      32.257  25.616  25.352  1.00  0.00    -0.321 N 
ATOM     13  C   UNL A   1      33.592  25.839  23.360  1.00  0.00     0.039 C 
ATOM     14  C   UNL A   1      32.264  26.197  24.020  1.00  0.00     0.122 C 
BRANCH  12  15
ATOM     15  C   UNL A   1      31.285  26.012  26.221  1.00  0.00     0.317 C 
ATOM     16  O   UNL A   1      30.225  25.377  26.294  1.00  0.00    -0.249 OA
ATOM     17  N   UNL A   1      31.335  27.090  27.026  1.00  0.00    -0.335 N 
ATOM     18  H   UNL A   1      30.471  27.173  27.490  1.00  0.00     0.165 HD
BRANCH  17  19
ATOM     19  C   UNL A   1      32.217  28.202  27.475  1.00  0.00     0.083 C 
ATOM     20  C   UNL A   1      33.677  28.065  27.085  1.00  0.00     0.025 C 
ATOM     21  C   UNL A   1      31.687  29.544  26.928  1.00  0.00     0.025 C 
ATOM     22  C   UNL A   1      34.603  29.234  27.293  1.00  0.00     0.002 C 
ATOM     23  C   UNL A   1      32.631  30.719  27.222  1.00  0.00     0.002 C 
ATOM     24  C   UNL A   1      34.036  30.481  26.679  1.00  0.00     0.000 C 
ENDBRANCH  17  19
ENDBRANCH  12  15
ENDBRANCH   7   9
ENDBRANCH   6   7
ENDBRANCH   5   6
ENDBRANCH   4   5
ENDBRANCH   3   4
ENDBRANCH   2   3
ENDBRANCH   1   2
BRANCH   1  25
ATOM     25  O   UNL A   1      41.444  21.505  25.752  1.00  0.00    -0.376 OA
BRANCH  25  26
ATOM     26  C   UNL A   1      42.646  22.111  26.191  1.00  0.00     0.202 C 
BRANCH  26  27
ATOM     27  C   UNL A   1      42.977  23.526  25.704  1.00  0.00     0.261 C 
BRANCH  27  28
ATOM     28  O   UNL A   1      42.692  24.557  26.662  1.00  0.00    -0.460 OA
BRANCH  28  29
ATOM     29  C   UNL A   1      42.147  25.694  26.160  1.00  0.00     0.338 C 
ATOM     30  O   UNL A   1      41.893  25.938  24.990  1.00  0.00    -0.246 OA
BRANCH  29  31
ATOM     31  C   UNL A   1      41.688  26.534  27.285  1.00  0.00     0.060 A 
ATOM     32  C   UNL A   1      42.341  27.750  27.544  1.00  0.00     0.016 A 
ATOM     33  C   UNL A   1      40.624  26.118  28.081  1.00  0.00     0.016 A 
ATOM     34  C   UNL A   1      41.932  28.559  28.605  1.00  0.00     0.010 A 
ATOM     35  C   UNL A   1      40.245  26.905  29.168  1.00  0.00     0.010 A 
ATOM     36  C   UNL A   1      40.910  28.114  29.448  1.00  0.00    -0.014 A 
BRANCH  36  37
ATOM     37  C   UNL A   1      40.662  28.764  30.754  1.00  0.00     0.031 A 
ATOM     38  C   UNL A   1      39.586  29.811  30.811  1.00  0.00     0.074 A 
ATOM     39  C   UNL A   1      41.412  28.491  31.834  1.00  0.00     0.049 A 
ATOM     40  N   UNL A   1      39.351  30.712  31.725  1.00  0.00    -0.248 NA
ATOM     41  C   UNL A   1      38.661  29.853  29.665  1.00  0.00     0.031 C 
ATOM     42  C   UNL A   1      42.422  27.439  31.923  1.00  0.00     0.029 A 
ATOM     43  N   UNL A   1      41.460  29.111  33.059  1.00  0.00    -0.354 N 
ATOM     44  C   UNL A   1      38.276  31.453  31.250  1.00  0.00     0.074 A 
ATOM     45  C   UNL A   1      37.906  30.898  29.968  1.00  0.00     0.031 C 
ATOM     46  C   UNL A   1      43.021  27.512  33.125  1.00  0.00     0.029 A 
ATOM     47  C   UNL A   1      42.478  28.653  33.862  1.00  0.00     0.049 A 
ATOM     48  H   UNL A   1      40.829  29.815  33.334  1.00  0.00     0.167 HD
ATOM     49  C   UNL A   1      37.665  32.511  31.832  1.00  0.00     0.037 A 
ATOM     50  C   UNL A   1      42.950  29.139  35.029  1.00  0.00     0.037 A 
ATOM     51  C   UNL A   1      38.051  33.048  33.108  1.00  0.00     0.049 A 
ATOM     52  C   UNL A   1      42.314  30.375  35.621  1.00  0.00     0.074 A 
ATOM     53  C   UNL A   1      37.504  34.118  33.792  1.00  0.00     0.029 A 
ATOM     54  N   UNL A   1      39.088  32.557  33.890  1.00  0.00    -0.354 N 
ATOM     55  N   UNL A   1      41.314  31.090  35.160  1.00  0.00    -0.248 NA
ATOM     56  C   UNL A   1      42.875  30.878  36.884  1.00  0.00     0.031 C 
ATOM     57  C   UNL A   1      38.244  34.309  34.961  1.00  0.00     0.029 A 
ATOM     58  C   UNL A   1      39.209  33.315  35.040  1.00  0.00     0.049 A 
ATOM     59  H   UNL A   1      39.652  31.784  33.661  1.00  0.00     0.167 HD
ATOM     60  C   UNL A   1      41.099  32.097  36.096  1.00  0.00     0.074 A 
ATOM     61  C   UNL A   1      42.078  31.907  37.145  1.00  0.00     0.031 C 
ATOM     62  C   UNL A   1      40.169  33.085  36.092  1.00  0.00     0.037 A 
BRANCH  49  63
ATOM     63  C   UNL A   1      36.556  33.182  31.072  1.00  0.00     0.058 A 
ATOM     64  C   UNL A   1      35.212  33.071  31.462  1.00  0.00     0.135 A 
ATOM     65  C   UNL A   1      36.849  33.970  29.946  1.00  0.00     0.135 A 
ATOM     66  F   UNL A   1      34.874  32.313  32.516  1.00  0.00    -0.206 F 
ATOM     67  C   UNL A   1      34.195  33.699  30.748  1.00  0.00     0.059 A 
ATOM     68  C   UNL A   1      35.852  34.631  29.237  1.00  0.00     0.059 A 
ATOM     69  F   UNL A   1      38.116  34.102  29.525  1.00  0.00    -0.206 F 
ATOM     70  C   UNL A   1      34.526  34.478  29.638  1.00  0.00     0.060 A 
BRANCH  70  71
ATOM     71  S   UNL A   1      33.196  35.293  28.730  1.00  0.00     0.124 S 
ATOM     72  O   UNL A   1      32.403  35.856  29.818  1.00  0.00    -0.237 OA
ATOM     73  O   UNL A   1      33.924  36.257  27.912  1.00  0.00    -0.237 OA
ATOM     74  O   UNL A   1      32.565  34.200  27.996  1.00  0.00    -0.744 OA
ENDBRANCH  70  71
ENDBRANCH  49  63
BRANCH  50  75
ATOM     75  C   UNL A   1      44.108  28.485  35.698  1.00  0.00     0.058 A 
ATOM     76  C   UNL A   1      45.426  28.854  35.387  1.00  0.00     0.135 A 
ATOM     77  C   UNL A   1      43.926  27.478  36.659  1.00  0.00     0.135 A 
ATOM     78  F   UNL A   1      45.656  29.799  34.464  1.00  0.00    -0.206 F 
ATOM     79  C   UNL A   1      46.519  28.240  35.993  1.00  0.00     0.059 A 
ATOM     80  C   UNL A   1      45.001  26.870  37.300  1.00  0.00     0.059 A 
ATOM     81  F   UNL A   1      42.686  27.088  36.999  1.00  0.00    -0.206 F 
ATOM     82  C   UNL A   1      46.295  27.252  36.952  1.00  0.00     0.060 A 
BRANCH  82  83
ATOM     83  S   UNL A   1      47.722  26.496  37.763  1.00  0.00     0.124 S 
ATOM     84  O   UNL A   1      48.826  27.027  36.972  1.00  0.00    -0.237 OA
ATOM     85  O   UNL A   1      47.607  27.009  39.124  1.00  0.00    -0.237 OA
ATOM     86  O   UNL A   1      47.473  25.065  37.617  1.00  0.00    -0.744 OA
ENDBRANCH  82  83
ENDBRANCH  50  75
BRANCH  62  87
ATOM     87  C   UNL A   1      40.097  34.000  37.283  1.00  0.00     0.058 A 
ATOM     88  C   UNL A   1      40.848  35.181  37.362  1.00  0.00     0.135 A 
ATOM     89  C   UNL A   1      39.160  33.747  38.300  1.00  0.00     0.135 A 
ATOM     90  F   UNL A   1      41.763  35.466  36.421  1.00  0.00    -0.206 F 
ATOM     91  C   UNL A   1      40.668  36.085  38.405  1.00  0.00     0.059 A 
ATOM     92  C   UNL A   1      38.945  34.649  39.336  1.00  0.00     0.059 A 
ATOM     93  F   UNL A   1      38.411  32.635  38.266  1.00  0.00    -0.206 F 
ATOM     94  C   UNL A   1      39.704  35.818  39.380  1.00  0.00     0.060 A 
BRANCH  94  95
ATOM     95  S   UNL A   1      39.415  37.043  40.673  1.00  0.00     0.124 S 
ATOM     96  O   UNL A   1      40.778  37.406  41.047  1.00  0.00    -0.237 OA
ATOM     97  O   UNL A   1      38.658  38.071  39.964  1.00  0.00    -0.237 OA
ATOM     98  O   UNL A   1      38.664  36.304  41.683  1.00  0.00    -0.744 OA
ENDBRANCH  94  95
ENDBRANCH  62  87
ENDBRANCH  36  37
ENDBRANCH  29  31
ENDBRANCH  28  29
ENDBRANCH  27  28
ENDBRANCH  26  27
ENDBRANCH  25  26
ENDBRANCH   1  25
TORSDOF 22
ENDMDL
