MODEL 1
REMARK VINA RESULT:     -10.0      0.000      0.000
REMARK SMILES O=C(Cc1c(F)cc(Cl)cc1F)OCCOCCOCCOC(=O)c1ccc(-c2c3nc(c(-c4c(F)cc(S(=O)(=O)[O-])cc4F)c4ccc([nH]4)c(-c4c(F)cc(S(=O)(=O)[O-])cc4F)c4nc(c(-c5c(F)cc(S(=O)(=O)[O-])cc5F)c5ccc2[nH]5)C=C4)C=C3)cc1
REMARK SMILES IDX 18 1 17 2 16 3 15 4 14 5 13 6 2 7 1 8 3 9 4 10 5 11 11 12
REMARK SMILES IDX 6 13 7 14 10 15 12 16 8 17 9 18 19 19 20 20 21 21 22 22
REMARK SMILES IDX 23 23 24 24 25 25 26 26 90 27 27 28 89 29 28 30 29 31 30 32
REMARK SMILES IDX 83 33 31 34 88 35 82 36 84 37 32 38 87 39 81 40 80 41 33 43
REMARK SMILES IDX 67 44 46 45 66 46 47 47 50 48 65 49 85 50 48 51 49 52 64 54
REMARK SMILES IDX 86 55 51 56 34 57 35 58 44 59 36 60 37 61 43 62 45 63 38 64
REMARK SMILES IDX 39 65 40 66 41 67 42 68 68 69 69 70 78 71 70 72 71 73 77 74
REMARK SMILES IDX 79 75 72 76 73 77 74 78 75 79 76 80 52 81 53 82 62 83 54 84
REMARK SMILES IDX 55 85 61 86 63 87 56 88 57 89 58 90 59 91 60 92
REMARK H PARENT 84 42 50 53
REMARK Flexibility Score: inf
ROOT
ATOM      1  C   UNL A   1      37.391  20.896  24.967  1.00  0.00     0.188 C 
ENDROOT
BRANCH   1   2
ATOM      2  C   UNL A   1      35.901  21.155  25.236  1.00  0.00     0.188 C 
BRANCH   2   3
ATOM      3  O   UNL A   1      35.042  20.196  24.651  1.00  0.00    -0.376 OA
BRANCH   3   4
ATOM      4  C   UNL A   1      33.841  19.923  25.339  1.00  0.00     0.202 C 
BRANCH   4   5
ATOM      5  C   UNL A   1      33.454  21.047  26.294  1.00  0.00     0.261 C 
BRANCH   5   6
ATOM      6  O   UNL A   1      32.625  22.104  25.757  1.00  0.00    -0.463 OA
BRANCH   6   7
ATOM      7  C   UNL A   1      32.289  23.311  26.256  1.00  0.00     0.310 C 
ATOM      8  O   UNL A   1      32.058  23.404  27.462  1.00  0.00    -0.252 OA
BRANCH   7   9
ATOM      9  C   UNL A   1      32.030  24.490  25.350  1.00  0.00     0.164 C 
BRANCH   9  10
ATOM     10  C   UNL A   1      32.296  25.869  25.871  1.00  0.00     0.035 A 
ATOM     11  C   UNL A   1      33.597  26.381  25.846  1.00  0.00     0.131 A 
ATOM     12  C   UNL A   1      31.275  26.702  26.323  1.00  0.00     0.131 A 
ATOM     13  F   UNL A   1      34.603  25.607  25.413  1.00  0.00    -0.207 F 
ATOM     14  C   UNL A   1      33.888  27.659  26.302  1.00  0.00     0.060 A 
ATOM     15  C   UNL A   1      31.543  27.980  26.796  1.00  0.00     0.060 A 
ATOM     16  F   UNL A   1      30.014  26.255  26.357  1.00  0.00    -0.207 F 
ATOM     17  C   UNL A   1      32.853  28.453  26.785  1.00  0.00     0.046 A 
ATOM     18  Cl  UNL A   1      33.191  30.024  27.395  1.00  0.00    -0.084 Cl
ENDBRANCH   9  10
ENDBRANCH   7   9
ENDBRANCH   6   7
ENDBRANCH   5   6
ENDBRANCH   4   5
ENDBRANCH   3   4
ENDBRANCH   2   3
ENDBRANCH   1   2
BRANCH   1  19
ATOM     19  O   UNL A   1      38.381  21.723  25.565  1.00  0.00    -0.376 OA
BRANCH  19  20
ATOM     20  C   UNL A   1      39.549  21.135  26.116  1.00  0.00     0.202 C 
BRANCH  20  21
ATOM     21  C   UNL A   1      40.748  22.040  26.435  1.00  0.00     0.261 C 
BRANCH  21  22
ATOM     22  O   UNL A   1      40.435  23.331  26.992  1.00  0.00    -0.460 OA
BRANCH  22  23
ATOM     23  C   UNL A   1      41.379  24.296  26.828  1.00  0.00     0.338 C 
ATOM     24  O   UNL A   1      42.286  24.300  26.017  1.00  0.00    -0.246 OA
BRANCH  23  25
ATOM     25  C   UNL A   1      41.079  25.459  27.697  1.00  0.00     0.060 A 
ATOM     26  C   UNL A   1      42.070  26.432  27.889  1.00  0.00     0.016 A 
ATOM     27  C   UNL A   1      39.859  25.563  28.367  1.00  0.00     0.016 A 
ATOM     28  C   UNL A   1      41.850  27.502  28.763  1.00  0.00     0.010 A 
ATOM     29  C   UNL A   1      39.649  26.623  29.261  1.00  0.00     0.010 A 
ATOM     30  C   UNL A   1      40.652  27.585  29.485  1.00  0.00    -0.014 A 
BRANCH  30  31
ATOM     31  C   UNL A   1      40.517  28.585  30.580  1.00  0.00     0.031 A 
ATOM     32  C   UNL A   1      41.430  28.489  31.773  1.00  0.00     0.074 A 
ATOM     33  C   UNL A   1      39.614  29.581  30.513  1.00  0.00     0.049 A 
ATOM     34  N   UNL A   1      41.505  29.265  32.824  1.00  0.00    -0.248 NA
ATOM     35  C   UNL A   1      42.380  27.366  31.782  1.00  0.00     0.031 C 
ATOM     36  C   UNL A   1      38.684  29.801  29.408  1.00  0.00     0.029 A 
ATOM     37  N   UNL A   1      39.331  30.594  31.399  1.00  0.00    -0.354 N 
ATOM     38  C   UNL A   1      42.511  28.725  33.619  1.00  0.00     0.074 A 
ATOM     39  C   UNL A   1      42.984  27.534  32.948  1.00  0.00     0.031 C 
ATOM     40  C   UNL A   1      37.933  30.883  29.681  1.00  0.00     0.029 A 
ATOM     41  C   UNL A   1      38.311  31.419  30.990  1.00  0.00     0.049 A 
ATOM     42  H   UNL A   1      39.816  30.718  32.246  1.00  0.00     0.167 HD
ATOM     43  C   UNL A   1      43.006  29.187  34.793  1.00  0.00     0.037 A 
ATOM     44  C   UNL A   1      37.739  32.480  31.600  1.00  0.00     0.037 A 
ATOM     45  C   UNL A   1      42.526  30.367  35.464  1.00  0.00     0.049 A 
ATOM     46  C   UNL A   1      38.255  32.945  32.937  1.00  0.00     0.074 A 
ATOM     47  C   UNL A   1      42.988  30.932  36.640  1.00  0.00     0.029 A 
ATOM     48  N   UNL A   1      41.465  31.152  35.034  1.00  0.00    -0.354 N 
ATOM     49  N   UNL A   1      39.243  32.459  33.650  1.00  0.00    -0.248 NA
ATOM     50  C   UNL A   1      37.587  34.102  33.554  1.00  0.00     0.031 C 
ATOM     51  C   UNL A   1      42.165  32.016  36.957  1.00  0.00     0.029 A 
ATOM     52  C   UNL A   1      41.233  32.172  35.942  1.00  0.00     0.049 A 
ATOM     53  H   UNL A   1      40.954  31.005  34.206  1.00  0.00     0.167 HD
ATOM     54  C   UNL A   1      39.332  33.263  34.783  1.00  0.00     0.074 A 
ATOM     55  C   UNL A   1      38.297  34.268  34.664  1.00  0.00     0.031 C 
ATOM     56  C   UNL A   1      40.203  33.176  35.820  1.00  0.00     0.037 A 
BRANCH  43  57
ATOM     57  C   UNL A   1      44.108  28.394  35.442  1.00  0.00     0.058 A 
ATOM     58  C   UNL A   1      43.838  27.341  36.331  1.00  0.00     0.135 A 
ATOM     59  C   UNL A   1      45.453  28.679  35.157  1.00  0.00     0.135 A 
ATOM     60  F   UNL A   1      42.571  27.029  36.647  1.00  0.00    -0.206 F 
ATOM     61  C   UNL A   1      44.862  26.631  36.951  1.00  0.00     0.059 A 
ATOM     62  C   UNL A   1      46.493  27.962  35.740  1.00  0.00     0.059 A 
ATOM     63  F   UNL A   1      45.769  29.672  34.309  1.00  0.00    -0.206 F 
ATOM     64  C   UNL A   1      46.187  26.954  36.653  1.00  0.00     0.060 A 
BRANCH  64  65
ATOM     65  S   UNL A   1      47.502  26.047  37.493  1.00  0.00     0.124 S 
ATOM     66  O   UNL A   1      47.668  26.837  38.708  1.00  0.00    -0.237 OA
ATOM     67  O   UNL A   1      46.905  24.728  37.671  1.00  0.00    -0.237 OA
ATOM     68  O   UNL A   1      48.615  26.107  36.550  1.00  0.00    -0.744 OA
ENDBRANCH  64  65
ENDBRANCH  43  57
BRANCH  44  69
ATOM     69  C   UNL A   1      36.622  33.187  30.916  1.00  0.00     0.058 A 
ATOM     70  C   UNL A   1      35.295  33.021  31.338  1.00  0.00     0.135 A 
ATOM     71  C   UNL A   1      36.869  34.109  29.886  1.00  0.00     0.135 A 
ATOM     72  F   UNL A   1      35.005  32.137  32.305  1.00  0.00    -0.206 F 
ATOM     73  C   UNL A   1      34.256  33.766  30.788  1.00  0.00     0.059 A 
ATOM     74  C   UNL A   1      35.851  34.881  29.333  1.00  0.00     0.059 A 
ATOM     75  F   UNL A   1      38.122  34.305  29.447  1.00  0.00    -0.206 F 
ATOM     76  C   UNL A   1      34.548  34.710  29.800  1.00  0.00     0.060 A 
BRANCH  76  77
ATOM     77  S   UNL A   1      33.214  35.768  29.197  1.00  0.00     0.124 S 
ATOM     78  O   UNL A   1      33.947  36.748  28.404  1.00  0.00    -0.237 OA
ATOM     79  O   UNL A   1      32.396  34.820  28.447  1.00  0.00    -0.237 OA
ATOM     80  O   UNL A   1      32.605  36.274  30.423  1.00  0.00    -0.744 OA
ENDBRANCH  76  77
ENDBRANCH  44  69
BRANCH  56  81
ATOM     81  C   UNL A   1      40.114  34.195  36.926  1.00  0.00     0.058 A 
ATOM     82  C   UNL A   1      40.771  35.431  36.842  1.00  0.00     0.135 A 
ATOM     83  C   UNL A   1      39.232  33.994  38.003  1.00  0.00     0.135 A 
ATOM     84  F   UNL A   1      41.630  35.674  35.840  1.00  0.00    -0.206 F 
ATOM     85  C   UNL A   1      40.544  36.440  37.776  1.00  0.00     0.059 A 
ATOM     86  C   UNL A   1      38.972  34.995  38.934  1.00  0.00     0.059 A 
ATOM     87  F   UNL A   1      38.572  32.831  38.126  1.00  0.00    -0.206 F 
ATOM     88  C   UNL A   1      39.629  36.218  38.807  1.00  0.00     0.060 A 
BRANCH  88  89
ATOM     89  S   UNL A   1      39.267  37.574  39.946  1.00  0.00     0.124 S 
ATOM     90  O   UNL A   1      40.554  38.258  40.011  1.00  0.00    -0.237 OA
ATOM     91  O   UNL A   1      38.205  38.289  39.246  1.00  0.00    -0.237 OA
ATOM     92  O   UNL A   1      38.857  36.894  41.170  1.00  0.00    -0.744 OA
ENDBRANCH  88  89
ENDBRANCH  56  81
ENDBRANCH  30  31
ENDBRANCH  23  25
ENDBRANCH  22  23
ENDBRANCH  21  22
ENDBRANCH  20  21
ENDBRANCH  19  20
ENDBRANCH   1  19
TORSDOF 21
ENDMDL
MODEL 2
REMARK VINA RESULT:      -9.9      2.784      8.896
REMARK SMILES O=C(Cc1c(F)cc(Cl)cc1F)OCCOCCOCCOC(=O)c1ccc(-c2c3nc(c(-c4c(F)cc(S(=O)(=O)[O-])cc4F)c4ccc([nH]4)c(-c4c(F)cc(S(=O)(=O)[O-])cc4F)c4nc(c(-c5c(F)cc(S(=O)(=O)[O-])cc5F)c5ccc2[nH]5)C=C4)C=C3)cc1
REMARK SMILES IDX 18 1 17 2 16 3 15 4 14 5 13 6 2 7 1 8 3 9 4 10 5 11 11 12
REMARK SMILES IDX 6 13 7 14 10 15 12 16 8 17 9 18 19 19 20 20 21 21 22 22
REMARK SMILES IDX 23 23 24 24 25 25 26 26 90 27 27 28 89 29 28 30 29 31 30 32
REMARK SMILES IDX 83 33 31 34 88 35 82 36 84 37 32 38 87 39 81 40 80 41 33 43
REMARK SMILES IDX 67 44 46 45 66 46 47 47 50 48 65 49 85 50 48 51 49 52 64 54
REMARK SMILES IDX 86 55 51 56 34 57 35 58 44 59 36 60 37 61 43 62 45 63 38 64
REMARK SMILES IDX 39 65 40 66 41 67 42 68 68 69 69 70 78 71 70 72 71 73 77 74
REMARK SMILES IDX 79 75 72 76 73 77 74 78 75 79 76 80 52 81 53 82 62 83 54 84
REMARK SMILES IDX 55 85 61 86 63 87 56 88 57 89 58 90 59 91 60 92
REMARK H PARENT 84 42 50 53
REMARK Flexibility Score: inf
ROOT
ATOM      1  C   UNL A   1      33.378  29.662  26.748  1.00  0.00     0.188 C 
ENDROOT
BRANCH   1   2
ATOM      2  C   UNL A   1      34.098  28.326  26.512  1.00  0.00     0.188 C 
BRANCH   2   3
ATOM      3  O   UNL A   1      33.962  27.832  25.194  1.00  0.00    -0.376 OA
BRANCH   3   4
ATOM      4  C   UNL A   1      33.737  26.446  25.061  1.00  0.00     0.202 C 
BRANCH   4   5
ATOM      5  C   UNL A   1      32.756  25.917  26.100  1.00  0.00     0.261 C 
BRANCH   5   6
ATOM      6  O   UNL A   1      31.412  26.451  26.060  1.00  0.00    -0.463 OA
BRANCH   6   7
ATOM      7  C   UNL A   1      30.251  25.908  25.638  1.00  0.00     0.310 C 
ATOM      8  O   UNL A   1      29.549  25.314  26.458  1.00  0.00    -0.252 OA
BRANCH   7   9
ATOM      9  C   UNL A   1      29.890  25.869  24.173  1.00  0.00     0.164 C 
BRANCH   9  10
ATOM     10  C   UNL A   1      29.438  27.134  23.511  1.00  0.00     0.035 A 
ATOM     11  C   UNL A   1      28.098  27.524  23.602  1.00  0.00     0.131 A 
ATOM     12  C   UNL A   1      30.324  27.989  22.859  1.00  0.00     0.131 A 
ATOM     13  F   UNL A   1      27.219  26.727  24.227  1.00  0.00    -0.207 F 
ATOM     14  C   UNL A   1      27.637  28.698  23.021  1.00  0.00     0.060 A 
ATOM     15  C   UNL A   1      29.884  29.161  22.258  1.00  0.00     0.060 A 
ATOM     16  F   UNL A   1      31.616  27.658  22.755  1.00  0.00    -0.207 F 
ATOM     17  C   UNL A   1      28.539  29.510  22.341  1.00  0.00     0.046 A 
ATOM     18  Cl  UNL A   1      27.988  30.947  21.575  1.00  0.00    -0.084 Cl
ENDBRANCH   9  10
ENDBRANCH   7   9
ENDBRANCH   6   7
ENDBRANCH   5   6
ENDBRANCH   4   5
ENDBRANCH   3   4
ENDBRANCH   2   3
ENDBRANCH   1   2
BRANCH   1  19
ATOM     19  O   UNL A   1      34.128  30.855  26.938  1.00  0.00    -0.376 OA
BRANCH  19  20
ATOM     20  C   UNL A   1      33.770  31.752  27.979  1.00  0.00     0.202 C 
BRANCH  20  21
ATOM     21  C   UNL A   1      32.807  32.904  27.659  1.00  0.00     0.261 C 
BRANCH  21  22
ATOM     22  O   UNL A   1      33.385  34.224  27.642  1.00  0.00    -0.460 OA
BRANCH  22  23
ATOM     23  C   UNL A   1      33.376  34.894  28.825  1.00  0.00     0.338 C 
ATOM     24  O   UNL A   1      32.524  35.667  29.220  1.00  0.00    -0.246 OA
BRANCH  23  25
ATOM     25  C   UNL A   1      34.504  34.445  29.676  1.00  0.00     0.060 A 
ATOM     26  C   UNL A   1      35.807  34.521  29.163  1.00  0.00     0.016 A 
ATOM     27  C   UNL A   1      34.282  33.897  30.940  1.00  0.00     0.016 A 
ATOM     28  C   UNL A   1      36.888  34.034  29.907  1.00  0.00     0.010 A 
ATOM     29  C   UNL A   1      35.363  33.388  31.673  1.00  0.00     0.010 A 
ATOM     30  C   UNL A   1      36.669  33.429  31.151  1.00  0.00    -0.014 A 
BRANCH  30  31
ATOM     31  C   UNL A   1      37.782  32.708  31.828  1.00  0.00     0.031 A 
ATOM     32  C   UNL A   1      38.270  33.203  33.163  1.00  0.00     0.074 A 
ATOM     33  C   UNL A   1      38.343  31.612  31.281  1.00  0.00     0.049 A 
ATOM     34  N   UNL A   1      39.204  32.714  33.939  1.00  0.00    -0.248 NA
ATOM     35  C   UNL A   1      37.619  34.412  33.690  1.00  0.00     0.031 C 
ATOM     36  C   UNL A   1      37.955  31.017  30.005  1.00  0.00     0.029 A 
ATOM     37  N   UNL A   1      39.364  30.809  31.732  1.00  0.00    -0.354 N 
ATOM     38  C   UNL A   1      39.253  33.555  35.045  1.00  0.00     0.074 A 
ATOM     39  C   UNL A   1      38.284  34.606  34.818  1.00  0.00     0.031 C 
ATOM     40  C   UNL A   1      38.728  29.940  29.775  1.00  0.00     0.029 A 
ATOM     41  C   UNL A   1      39.682  29.783  30.874  1.00  0.00     0.049 A 
ATOM     42  H   UNL A   1      39.823  30.955  32.590  1.00  0.00     0.167 HD
ATOM     43  C   UNL A   1      40.022  33.453  36.157  1.00  0.00     0.037 A 
ATOM     44  C   UNL A   1      40.635  28.830  30.958  1.00  0.00     0.037 A 
ATOM     45  C   UNL A   1      40.991  32.412  36.376  1.00  0.00     0.049 A 
ATOM     46  C   UNL A   1      41.529  28.766  32.170  1.00  0.00     0.074 A 
ATOM     47  C   UNL A   1      41.793  32.208  37.486  1.00  0.00     0.029 A 
ATOM     48  N   UNL A   1      41.308  31.414  35.465  1.00  0.00    -0.354 N 
ATOM     49  N   UNL A   1      41.525  29.534  33.234  1.00  0.00    -0.248 NA
ATOM     50  C   UNL A   1      42.553  27.709  32.199  1.00  0.00     0.031 C 
ATOM     51  C   UNL A   1      42.641  31.129  37.219  1.00  0.00     0.029 A 
ATOM     52  C   UNL A   1      42.321  30.616  35.971  1.00  0.00     0.049 A 
ATOM     53  H   UNL A   1      40.876  31.292  34.589  1.00  0.00     0.167 HD
ATOM     54  C   UNL A   1      42.524  29.039  34.069  1.00  0.00     0.074 A 
ATOM     55  C   UNL A   1      43.114  27.906  33.387  1.00  0.00     0.031 C 
ATOM     56  C   UNL A   1      42.905  29.484  35.292  1.00  0.00     0.037 A 
BRANCH  43  57
ATOM     57  C   UNL A   1      39.863  34.516  37.210  1.00  0.00     0.058 A 
ATOM     58  C   UNL A   1      40.597  35.712  37.171  1.00  0.00     0.135 A 
ATOM     59  C   UNL A   1      38.951  34.344  38.264  1.00  0.00     0.135 A 
ATOM     60  F   UNL A   1      41.490  35.928  36.191  1.00  0.00    -0.206 F 
ATOM     61  C   UNL A   1      40.468  36.678  38.165  1.00  0.00     0.059 A 
ATOM     62  C   UNL A   1      38.782  35.310  39.251  1.00  0.00     0.059 A 
ATOM     63  F   UNL A   1      38.219  33.222  38.348  1.00  0.00    -0.206 F 
ATOM     64  C   UNL A   1      39.562  36.464  39.204  1.00  0.00     0.060 A 
BRANCH  64  65
ATOM     65  S   UNL A   1      39.434  37.711  40.503  1.00  0.00     0.124 S 
ATOM     66  O   UNL A   1      39.081  36.892  41.657  1.00  0.00    -0.237 OA
ATOM     67  O   UNL A   1      40.777  38.283  40.519  1.00  0.00    -0.237 OA
ATOM     68  O   UNL A   1      38.382  38.600  40.021  1.00  0.00    -0.744 OA
ENDBRANCH  64  65
ENDBRANCH  43  57
BRANCH  44  69
ATOM     69  C   UNL A   1      40.762  27.840  29.854  1.00  0.00     0.058 A 
ATOM     70  C   UNL A   1      39.813  26.822  29.683  1.00  0.00     0.135 A 
ATOM     71  C   UNL A   1      41.785  27.948  28.897  1.00  0.00     0.135 A 
ATOM     72  F   UNL A   1      38.829  26.665  30.581  1.00  0.00    -0.206 F 
ATOM     73  C   UNL A   1      39.853  25.965  28.586  1.00  0.00     0.059 A 
ATOM     74  C   UNL A   1      41.834  27.116  27.781  1.00  0.00     0.059 A 
ATOM     75  F   UNL A   1      42.716  28.906  29.014  1.00  0.00    -0.206 F 
ATOM     76  C   UNL A   1      40.855  26.135  27.629  1.00  0.00     0.060 A 
BRANCH  76  77
ATOM     77  S   UNL A   1      40.812  25.110  26.142  1.00  0.00     0.124 S 
ATOM     78  O   UNL A   1      41.280  26.042  25.124  1.00  0.00    -0.237 OA
ATOM     79  O   UNL A   1      41.729  24.031  26.494  1.00  0.00    -0.237 OA
ATOM     80  O   UNL A   1      39.408  24.719  26.044  1.00  0.00    -0.744 OA
ENDBRANCH  76  77
ENDBRANCH  44  69
BRANCH  56  81
ATOM     81  C   UNL A   1      44.005  28.753  36.017  1.00  0.00     0.058 A 
ATOM     82  C   UNL A   1      45.331  29.211  35.995  1.00  0.00     0.135 A 
ATOM     83  C   UNL A   1      43.698  27.679  36.870  1.00  0.00     0.135 A 
ATOM     84  F   UNL A   1      45.682  30.227  35.192  1.00  0.00    -0.206 F 
ATOM     85  C   UNL A   1      46.310  28.641  36.806  1.00  0.00     0.059 A 
ATOM     86  C   UNL A   1      44.654  27.111  37.707  1.00  0.00     0.059 A 
ATOM     87  F   UNL A   1      42.443  27.207  36.935  1.00  0.00    -0.206 F 
ATOM     88  C   UNL A   1      45.957  27.605  37.673  1.00  0.00     0.060 A 
BRANCH  88  89
ATOM     89  S   UNL A   1      47.214  26.951  38.794  1.00  0.00     0.124 S 
ATOM     90  O   UNL A   1      47.301  25.560  38.364  1.00  0.00    -0.237 OA
ATOM     91  O   UNL A   1      48.371  27.784  38.480  1.00  0.00    -0.237 OA
ATOM     92  O   UNL A   1      46.636  27.162  40.118  1.00  0.00    -0.744 OA
ENDBRANCH  88  89
ENDBRANCH  56  81
ENDBRANCH  30  31
ENDBRANCH  23  25
ENDBRANCH  22  23
ENDBRANCH  21  22
ENDBRANCH  20  21
ENDBRANCH  19  20
ENDBRANCH   1  19
TORSDOF 21
ENDMDL
MODEL 3
REMARK VINA RESULT:      -9.7      1.429      8.577
REMARK SMILES O=C(Cc1c(F)cc(Cl)cc1F)OCCOCCOCCOC(=O)c1ccc(-c2c3nc(c(-c4c(F)cc(S(=O)(=O)[O-])cc4F)c4ccc([nH]4)c(-c4c(F)cc(S(=O)(=O)[O-])cc4F)c4nc(c(-c5c(F)cc(S(=O)(=O)[O-])cc5F)c5ccc2[nH]5)C=C4)C=C3)cc1
REMARK SMILES IDX 18 1 17 2 16 3 15 4 14 5 13 6 2 7 1 8 3 9 4 10 5 11 11 12
REMARK SMILES IDX 6 13 7 14 10 15 12 16 8 17 9 18 19 19 20 20 21 21 22 22
REMARK SMILES IDX 23 23 24 24 25 25 26 26 90 27 27 28 89 29 28 30 29 31 30 32
REMARK SMILES IDX 83 33 31 34 88 35 82 36 84 37 32 38 87 39 81 40 80 41 33 43
REMARK SMILES IDX 67 44 46 45 66 46 47 47 50 48 65 49 85 50 48 51 49 52 64 54
REMARK SMILES IDX 86 55 51 56 34 57 35 58 44 59 36 60 37 61 43 62 45 63 38 64
REMARK SMILES IDX 39 65 40 66 41 67 42 68 68 69 69 70 78 71 70 72 71 73 77 74
REMARK SMILES IDX 79 75 72 76 73 77 74 78 75 79 76 80 52 81 53 82 62 83 54 84
REMARK SMILES IDX 55 85 61 86 63 87 56 88 57 89 58 90 59 91 60 92
REMARK H PARENT 84 42 50 53
REMARK Flexibility Score: inf
ROOT
ATOM      1  C   UNL A   1      40.597  20.735  26.352  1.00  0.00     0.188 C 
ENDROOT
BRANCH   1   2
ATOM      2  C   UNL A   1      39.378  21.619  26.050  1.00  0.00     0.188 C 
BRANCH   2   3
ATOM      3  O   UNL A   1      38.361  20.956  25.324  1.00  0.00    -0.376 OA
BRANCH   3   4
ATOM      4  C   UNL A   1      37.409  21.776  24.681  1.00  0.00     0.202 C 
BRANCH   4   5
ATOM      5  C   UNL A   1      36.409  22.378  25.661  1.00  0.00     0.261 C 
BRANCH   5   6
ATOM      6  O   UNL A   1      35.464  21.469  26.270  1.00  0.00    -0.463 OA
BRANCH   6   7
ATOM      7  C   UNL A   1      34.144  21.594  26.519  1.00  0.00     0.310 C 
ATOM      8  O   UNL A   1      33.365  20.823  25.956  1.00  0.00    -0.252 OA
BRANCH   7   9
ATOM      9  C   UNL A   1      33.603  22.750  27.325  1.00  0.00     0.164 C 
BRANCH   9  10
ATOM     10  C   UNL A   1      32.762  23.777  26.632  1.00  0.00     0.035 A 
ATOM     11  C   UNL A   1      31.367  23.691  26.698  1.00  0.00     0.131 A 
ATOM     12  C   UNL A   1      33.318  24.870  25.972  1.00  0.00     0.131 A 
ATOM     13  F   UNL A   1      30.798  22.654  27.329  1.00  0.00    -0.207 F 
ATOM     14  C   UNL A   1      30.547  24.630  26.087  1.00  0.00     0.060 A 
ATOM     15  C   UNL A   1      32.519  25.815  25.341  1.00  0.00     0.060 A 
ATOM     16  F   UNL A   1      34.648  24.995  25.890  1.00  0.00    -0.207 F 
ATOM     17  C   UNL A   1      31.133  25.689  25.401  1.00  0.00     0.046 A 
ATOM     18  Cl  UNL A   1      30.143  26.842  24.598  1.00  0.00    -0.084 Cl
ENDBRANCH   9  10
ENDBRANCH   7   9
ENDBRANCH   6   7
ENDBRANCH   5   6
ENDBRANCH   4   5
ENDBRANCH   3   4
ENDBRANCH   2   3
ENDBRANCH   1   2
BRANCH   1  19
ATOM     19  O   UNL A   1      41.863  21.043  25.780  1.00  0.00    -0.376 OA
BRANCH  19  20
ATOM     20  C   UNL A   1      42.703  22.001  26.406  1.00  0.00     0.202 C 
BRANCH  20  21
ATOM     21  C   UNL A   1      42.746  23.426  25.834  1.00  0.00     0.261 C 
BRANCH  21  22
ATOM     22  O   UNL A   1      41.685  24.307  26.253  1.00  0.00    -0.460 OA
BRANCH  22  23
ATOM     23  C   UNL A   1      41.905  25.635  26.063  1.00  0.00     0.338 C 
ATOM     24  O   UNL A   1      41.999  26.216  24.998  1.00  0.00    -0.246 OA
BRANCH  23  25
ATOM     25  C   UNL A   1      41.875  26.349  27.363  1.00  0.00     0.060 A 
ATOM     26  C   UNL A   1      40.876  26.022  28.290  1.00  0.00     0.016 A 
ATOM     27  C   UNL A   1      42.781  27.372  27.645  1.00  0.00     0.016 A 
ATOM     28  C   UNL A   1      40.770  26.728  29.493  1.00  0.00     0.010 A 
ATOM     29  C   UNL A   1      42.659  28.094  28.841  1.00  0.00     0.010 A 
ATOM     30  C   UNL A   1      41.637  27.795  29.761  1.00  0.00    -0.014 A 
BRANCH  30  31
ATOM     31  C   UNL A   1      41.374  28.687  30.923  1.00  0.00     0.031 A 
ATOM     32  C   UNL A   1      40.243  29.677  30.844  1.00  0.00     0.074 A 
ATOM     33  C   UNL A   1      42.111  28.610  32.048  1.00  0.00     0.049 A 
ATOM     34  N   UNL A   1      39.820  30.528  31.743  1.00  0.00    -0.248 NA
ATOM     35  C   UNL A   1      39.493  29.713  29.579  1.00  0.00     0.031 C 
ATOM     36  C   UNL A   1      43.220  27.685  32.265  1.00  0.00     0.029 A 
ATOM     37  N   UNL A   1      42.035  29.327  33.219  1.00  0.00    -0.354 N 
ATOM     38  C   UNL A   1      38.755  31.201  31.155  1.00  0.00     0.074 A 
ATOM     39  C   UNL A   1      38.626  30.688  29.808  1.00  0.00     0.031 C 
ATOM     40  C   UNL A   1      43.722  27.889  33.496  1.00  0.00     0.029 A 
ATOM     41  C   UNL A   1      42.986  28.975  34.146  1.00  0.00     0.049 A 
ATOM     42  H   UNL A   1      41.360  30.026  33.378  1.00  0.00     0.167 HD
ATOM     43  C   UNL A   1      37.948  32.149  31.690  1.00  0.00     0.037 A 
ATOM     44  C   UNL A   1      43.243  29.473  35.376  1.00  0.00     0.037 A 
ATOM     45  C   UNL A   1      38.084  32.664  33.027  1.00  0.00     0.049 A 
ATOM     46  C   UNL A   1      42.378  30.573  35.936  1.00  0.00     0.074 A 
ATOM     47  C   UNL A   1      37.293  33.601  33.669  1.00  0.00     0.029 A 
ATOM     48  N   UNL A   1      39.086  32.309  33.920  1.00  0.00    -0.354 N 
ATOM     49  N   UNL A   1      41.340  31.160  35.389  1.00  0.00    -0.248 NA
ATOM     50  C   UNL A   1      42.713  31.078  37.277  1.00  0.00     0.031 C 
ATOM     51  C   UNL A   1      37.854  33.861  34.923  1.00  0.00     0.029 A 
ATOM     52  C   UNL A   1      38.955  33.036  35.092  1.00  0.00     0.049 A 
ATOM     53  H   UNL A   1      39.785  31.638  33.746  1.00  0.00     0.167 HD
ATOM     54  C   UNL A   1      40.882  32.082  36.327  1.00  0.00     0.074 A 
ATOM     55  C   UNL A   1      41.757  31.978  37.475  1.00  0.00     0.031 C 
ATOM     56  C   UNL A   1      39.825  32.928  36.239  1.00  0.00     0.037 A 
BRANCH  43  57
ATOM     57  C   UNL A   1      36.859  32.709  30.815  1.00  0.00     0.058 A 
ATOM     58  C   UNL A   1      37.098  33.765  29.921  1.00  0.00     0.135 A 
ATOM     59  C   UNL A   1      35.563  32.170  30.858  1.00  0.00     0.135 A 
ATOM     60  F   UNL A   1      38.317  34.325  29.844  1.00  0.00    -0.206 F 
ATOM     61  C   UNL A   1      36.080  34.299  29.137  1.00  0.00     0.059 A 
ATOM     62  C   UNL A   1      34.537  32.667  30.060  1.00  0.00     0.059 A 
ATOM     63  F   UNL A   1      35.280  31.155  31.690  1.00  0.00    -0.206 F 
ATOM     64  C   UNL A   1      34.801  33.746  29.218  1.00  0.00     0.060 A 
BRANCH  64  65
ATOM     65  S   UNL A   1      33.486  34.474  28.220  1.00  0.00     0.124 S 
ATOM     66  O   UNL A   1      32.875  33.285  27.634  1.00  0.00    -0.237 OA
ATOM     67  O   UNL A   1      32.684  35.169  29.222  1.00  0.00    -0.237 OA
ATOM     68  O   UNL A   1      34.202  35.336  27.285  1.00  0.00    -0.744 OA
ENDBRANCH  64  65
ENDBRANCH  43  57
BRANCH  44  69
ATOM     69  C   UNL A   1      44.367  28.899  36.164  1.00  0.00     0.058 A 
ATOM     70  C   UNL A   1      45.641  29.484  36.142  1.00  0.00     0.135 A 
ATOM     71  C   UNL A   1      44.165  27.806  37.024  1.00  0.00     0.135 A 
ATOM     72  F   UNL A   1      45.889  30.517  35.322  1.00  0.00    -0.206 F 
ATOM     73  C   UNL A   1      46.667  29.030  36.965  1.00  0.00     0.059 A 
ATOM     74  C   UNL A   1      45.169  27.347  37.872  1.00  0.00     0.059 A 
ATOM     75  F   UNL A   1      42.964  27.212  37.084  1.00  0.00    -0.206 F 
ATOM     76  C   UNL A   1      46.414  27.974  37.843  1.00  0.00     0.060 A 
BRANCH  76  77
ATOM     77  S   UNL A   1      47.709  27.489  39.005  1.00  0.00     0.124 S 
ATOM     78  O   UNL A   1      48.808  27.158  38.106  1.00  0.00    -0.237 OA
ATOM     79  O   UNL A   1      47.872  28.704  39.797  1.00  0.00    -0.237 OA
ATOM     80  O   UNL A   1      47.116  26.361  39.720  1.00  0.00    -0.744 OA
ENDBRANCH  76  77
ENDBRANCH  44  69
BRANCH  56  81
ATOM     81  C   UNL A   1      39.513  33.819  37.413  1.00  0.00     0.058 A 
ATOM     82  C   UNL A   1      38.758  33.361  38.503  1.00  0.00     0.135 A 
ATOM     83  C   UNL A   1      40.113  35.086  37.519  1.00  0.00     0.135 A 
ATOM     84  F   UNL A   1      38.156  32.162  38.453  1.00  0.00    -0.206 F 
ATOM     85  C   UNL A   1      38.622  34.120  39.663  1.00  0.00     0.059 A 
ATOM     86  C   UNL A   1      40.010  35.851  38.677  1.00  0.00     0.059 A 
ATOM     87  F   UNL A   1      40.852  35.568  36.507  1.00  0.00    -0.206 F 
ATOM     88  C   UNL A   1      39.268  35.355  39.747  1.00  0.00     0.060 A 
BRANCH  88  89
ATOM     89  S   UNL A   1      39.170  36.277  41.298  1.00  0.00     0.124 S 
ATOM     90  O   UNL A   1      40.465  35.980  41.901  1.00  0.00    -0.237 OA
ATOM     91  O   UNL A   1      38.989  37.648  40.832  1.00  0.00    -0.237 OA
ATOM     92  O   UNL A   1      38.016  35.692  41.974  1.00  0.00    -0.744 OA
ENDBRANCH  88  89
ENDBRANCH  56  81
ENDBRANCH  30  31
ENDBRANCH  23  25
ENDBRANCH  22  23
ENDBRANCH  21  22
ENDBRANCH  20  21
ENDBRANCH  19  20
ENDBRANCH   1  19
TORSDOF 21
ENDMDL
