MODEL 1
REMARK VINA RESULT:     -13.6      0.000      0.000
REMARK SMILES Cc1ccc(-c2cc(C(=O)OCCOCCOCCOC(=O)c3ccc(-c4c5nc(c(-c6c(F)cc(S(=O)(=O)[O-])cc6F)c6ccc([nH]6)c(-c6c(F)cc(S(=O)(=O)[O-])cc6F)c6nc(c(-c7c(F)cc(S(=O)(=O)[O-])cc7F)c7ccc4[nH]7)C=C6)C=C5)cc3)c3c(-c4cccc([N+](=O)[O-])c4)[nH]nc3n2)cc1
REMARK SMILES IDX 16 1 15 2 14 3 13 4 12 5 11 6 9 7 10 8 8 9 6 10 7 11 103 12
REMARK SMILES IDX 102 13 89 14 101 15 90 16 100 17 5 19 1 20 2 21 3 22 105 23
REMARK SMILES IDX 4 24 104 25 91 26 92 27 99 28 93 29 95 30 94 31 96 32 97 33
REMARK SMILES IDX 98 34 17 35 18 36 19 37 20 38 21 39 22 40 23 41 24 42 88 43
REMARK SMILES IDX 25 44 87 45 26 46 27 47 28 48 81 49 29 50 86 51 80 52 82 53
REMARK SMILES IDX 30 54 85 55 79 56 78 57 31 59 65 60 44 61 64 62 45 63 48 64
REMARK SMILES IDX 63 65 83 66 46 67 47 68 62 70 84 71 49 72 32 73 33 74 42 75
REMARK SMILES IDX 34 76 35 77 41 78 43 79 36 80 37 81 38 82 39 83 40 84 66 85
REMARK SMILES IDX 67 86 76 87 68 88 69 89 75 90 77 91 70 92 71 93 72 94 73 95
REMARK SMILES IDX 74 96 50 97 51 98 60 99 52 100 53 101 59 102 61 103 54 104
REMARK SMILES IDX 55 105 56 106 57 107 58 108
REMARK H PARENT 100 18 82 58 48 69
REMARK Flexibility Score: inf
ROOT
ATOM      1  C   UNL A   1      34.845  32.744  27.919  1.00  0.00     0.188 C 
ENDROOT
BRANCH   1   2
ATOM      2  C   UNL A   1      34.738  31.277  27.446  1.00  0.00     0.188 C 
BRANCH   2   3
ATOM      3  O   UNL A   1      33.707  30.321  27.792  1.00  0.00    -0.376 OA
BRANCH   3   4
ATOM      4  C   UNL A   1      33.121  29.276  26.985  1.00  0.00     0.202 C 
BRANCH   4   5
ATOM      5  C   UNL A   1      32.484  27.642  27.412  1.00  0.00     0.261 C 
BRANCH   5   6
ATOM      6  O   UNL A   1      31.078  26.659  26.818  1.00  0.00    -0.460 OA
BRANCH   6   7
ATOM      7  C   UNL A   1      30.686  25.568  25.801  1.00  0.00     0.339 C 
ATOM      8  O   UNL A   1      30.496  24.363  25.971  1.00  0.00    -0.246 OA
BRANCH   7   9
ATOM      9  C   UNL A   1      30.619  25.820  24.365  1.00  0.00     0.075 A 
ATOM     10  C   UNL A   1      30.052  27.777  23.045  1.00  0.00     0.074 A 
ATOM     11  C   UNL A   1      29.939  27.012  24.202  1.00  0.00     0.045 A 
ATOM     12  N   UNL A   1      30.688  27.443  21.910  1.00  0.00    -0.226 NA
ATOM     13  C   UNL A   1      31.385  26.288  21.999  1.00  0.00     0.182 A 
ATOM     14  C   UNL A   1      31.454  25.441  23.207  1.00  0.00     0.061 A 
ATOM     15  N   UNL A   1      32.098  25.834  20.980  1.00  0.00    -0.154 NA
ATOM     16  C   UNL A   1      32.426  24.470  22.811  1.00  0.00     0.076 A 
ATOM     17  N   UNL A   1      32.690  24.772  21.482  1.00  0.00    -0.275 N 
ATOM     18  H   UNL A   1      33.293  24.215  20.940  1.00  0.00     0.190 HD
BRANCH  10  19
ATOM     19  C   UNL A   1      29.347  29.043  23.075  1.00  0.00     0.000 A 
ATOM     20  C   UNL A   1      28.329  33.129  22.362  1.00  0.00     0.044 C 
ATOM     21  C   UNL A   1      28.607  31.688  22.650  1.00  0.00    -0.051 A 
ATOM     22  C   UNL A   1      29.451  31.354  23.719  1.00  0.00     0.004 A 
ATOM     23  C   UNL A   1      28.061  30.683  21.846  1.00  0.00     0.004 A 
ATOM     24  C   UNL A   1      29.813  30.034  23.936  1.00  0.00     0.010 A 
ATOM     25  C   UNL A   1      28.424  29.360  22.063  1.00  0.00     0.010 A 
ENDBRANCH  10  19
BRANCH  16  26
ATOM     26  C   UNL A   1      33.282  23.308  23.207  1.00  0.00     0.007 A 
ATOM     27  C   UNL A   1      32.689  22.070  23.533  1.00  0.00     0.011 A 
ATOM     28  C   UNL A   1      34.595  23.520  23.714  1.00  0.00     0.096 A 
ATOM     29  C   UNL A   1      33.390  21.057  24.234  1.00  0.00     0.008 A 
ATOM     30  C   UNL A   1      35.297  22.492  24.397  1.00  0.00     0.270 A 
ATOM     31  C   UNL A   1      34.704  21.254  24.650  1.00  0.00     0.085 A 
BRANCH  30  32
ATOM     32  N   UNL A   1      36.673  22.703  24.868  1.00  0.00     0.062 N 
ATOM     33  O   UNL A   1      37.044  23.876  25.010  1.00  0.00    -0.258 OA
ATOM     34  O   UNL A   1      37.321  21.698  25.197  1.00  0.00    -0.258 OA
ENDBRANCH  30  32
ENDBRANCH  16  26
ENDBRANCH   7   9
ENDBRANCH   6   7
ENDBRANCH   5   6
ENDBRANCH   4   5
ENDBRANCH   3   4
ENDBRANCH   2   3
ENDBRANCH   1   2
BRANCH   1  35
ATOM     35  O   UNL A   1      33.644  33.490  27.799  1.00  0.00    -0.376 OA
BRANCH  35  36
ATOM     36  C   UNL A   1      33.471  34.541  28.749  1.00  0.00     0.202 C 
BRANCH  36  37
ATOM     37  C   UNL A   1      34.082  34.376  30.174  1.00  0.00     0.261 C 
BRANCH  37  38
ATOM     38  O   UNL A   1      34.124  33.018  30.718  1.00  0.00    -0.460 OA
BRANCH  38  39
ATOM     39  C   UNL A   1      34.521  32.804  32.025  1.00  0.00     0.338 C 
ATOM     40  O   UNL A   1      33.724  32.838  32.969  1.00  0.00    -0.246 OA
BRANCH  39  41
ATOM     41  C   UNL A   1      35.868  32.193  32.126  1.00  0.00     0.060 A 
ATOM     42  C   UNL A   1      36.826  32.151  33.139  1.00  0.00     0.016 A 
ATOM     43  C   UNL A   1      36.216  31.531  31.016  1.00  0.00     0.016 A 
ATOM     44  C   UNL A   1      38.202  31.651  32.919  1.00  0.00     0.010 A 
ATOM     45  C   UNL A   1      37.566  31.295  30.804  1.00  0.00     0.010 A 
ATOM     46  C   UNL A   1      38.707  31.243  31.683  1.00  0.00    -0.014 A 
BRANCH  46  47
ATOM     47  C   UNL A   1      40.270  30.450  31.341  1.00  0.00     0.031 A 
ATOM     48  C   UNL A   1      40.669  28.870  30.548  1.00  0.00     0.074 A 
ATOM     49  C   UNL A   1      41.416  31.042  31.760  1.00  0.00     0.049 A 
ATOM     50  N   UNL A   1      41.814  28.223  30.657  1.00  0.00    -0.248 NA
ATOM     51  C   UNL A   1      39.828  27.979  29.622  1.00  0.00     0.031 C 
ATOM     52  C   UNL A   1      42.796  30.666  31.439  1.00  0.00     0.029 A 
ATOM     53  N   UNL A   1      41.586  32.071  32.689  1.00  0.00    -0.354 N 
ATOM     54  C   UNL A   1      41.879  27.155  29.736  1.00  0.00     0.074 A 
ATOM     55  C   UNL A   1      40.622  27.057  29.121  1.00  0.00     0.031 C 
ATOM     56  C   UNL A   1      43.613  31.145  32.388  1.00  0.00     0.029 A 
ATOM     57  C   UNL A   1      42.780  31.774  33.387  1.00  0.00     0.049 A 
ATOM     58  H   UNL A   1      40.995  32.847  32.830  1.00  0.00     0.167 HD
ATOM     59  C   UNL A   1      43.009  26.450  29.450  1.00  0.00     0.037 A 
ATOM     60  C   UNL A   1      42.756  31.475  34.717  1.00  0.00     0.037 A 
ATOM     61  C   UNL A   1      44.007  26.753  30.437  1.00  0.00     0.049 A 
ATOM     62  C   UNL A   1      43.256  30.055  35.036  1.00  0.00     0.074 A 
ATOM     63  C   UNL A   1      45.071  27.632  30.482  1.00  0.00     0.029 A 
ATOM     64  N   UNL A   1      43.726  26.390  31.744  1.00  0.00    -0.354 N 
ATOM     65  N   UNL A   1      43.677  29.181  34.156  1.00  0.00    -0.248 NA
ATOM     66  C   UNL A   1      43.318  29.499  36.389  1.00  0.00     0.031 C 
ATOM     67  C   UNL A   1      45.374  27.865  31.849  1.00  0.00     0.029 A 
ATOM     68  C   UNL A   1      44.518  27.100  32.620  1.00  0.00     0.049 A 
ATOM     69  H   UNL A   1      43.055  25.721  32.009  1.00  0.00     0.167 HD
ATOM     70  C   UNL A   1      43.980  27.978  34.763  1.00  0.00     0.074 A 
ATOM     71  C   UNL A   1      43.781  28.252  36.171  1.00  0.00     0.031 C 
ATOM     72  C   UNL A   1      44.360  26.866  34.047  1.00  0.00     0.037 A 
BRANCH  59  73
ATOM     73  C   UNL A   1      43.227  25.756  28.100  1.00  0.00     0.058 A 
ATOM     74  C   UNL A   1      42.716  24.458  27.892  1.00  0.00     0.135 A 
ATOM     75  C   UNL A   1      44.038  26.225  27.038  1.00  0.00     0.135 A 
ATOM     76  F   UNL A   1      41.823  23.923  28.733  1.00  0.00    -0.206 F 
ATOM     77  C   UNL A   1      43.113  23.638  26.827  1.00  0.00     0.059 A 
ATOM     78  C   UNL A   1      44.514  25.400  26.005  1.00  0.00     0.059 A 
ATOM     79  F   UNL A   1      44.371  27.521  26.939  1.00  0.00    -0.206 F 
ATOM     80  C   UNL A   1      44.055  24.096  25.917  1.00  0.00     0.060 A 
BRANCH  80  81
ATOM     81  S   UNL A   1      44.666  22.972  24.640  1.00  0.00     0.124 S 
ATOM     82  O   UNL A   1      45.659  23.788  23.947  1.00  0.00    -0.237 OA
ATOM     83  O   UNL A   1      45.194  21.871  25.438  1.00  0.00    -0.237 OA
ATOM     84  O   UNL A   1      43.470  22.666  23.859  1.00  0.00    -0.744 OA
ENDBRANCH  80  81
ENDBRANCH  59  73
BRANCH  60  85
ATOM     85  C   UNL A   1      41.656  32.236  35.402  1.00  0.00     0.058 A 
ATOM     86  C   UNL A   1      40.428  31.631  35.739  1.00  0.00     0.135 A 
ATOM     87  C   UNL A   1      42.011  33.330  36.178  1.00  0.00     0.135 A 
ATOM     88  F   UNL A   1      40.031  30.537  35.073  1.00  0.00    -0.206 F 
ATOM     89  C   UNL A   1      39.644  32.048  36.834  1.00  0.00     0.059 A 
ATOM     90  C   UNL A   1      41.234  33.765  37.259  1.00  0.00     0.059 A 
ATOM     91  F   UNL A   1      43.231  33.849  36.009  1.00  0.00    -0.206 F 
ATOM     92  C   UNL A   1      40.078  33.104  37.620  1.00  0.00     0.060 A 
BRANCH  92  93
ATOM     93  S   UNL A   1      39.292  33.500  39.209  1.00  0.00     0.124 S 
ATOM     94  O   UNL A   1      40.083  32.699  40.145  1.00  0.00    -0.237 OA
ATOM     95  O   UNL A   1      39.473  34.951  39.294  1.00  0.00    -0.237 OA
ATOM     96  O   UNL A   1      37.920  33.075  39.047  1.00  0.00    -0.744 OA
ENDBRANCH  92  93
ENDBRANCH  60  85
BRANCH  72  97
ATOM     97  C   UNL A   1      44.658  25.439  34.527  1.00  0.00     0.058 A 
ATOM     98  C   UNL A   1      43.706  24.457  34.836  1.00  0.00     0.135 A 
ATOM     99  C   UNL A   1      46.011  24.978  34.561  1.00  0.00     0.135 A 
ATOM    100  F   UNL A   1      42.394  24.712  34.761  1.00  0.00    -0.206 F 
ATOM    101  C   UNL A   1      44.064  23.147  35.203  1.00  0.00     0.059 A 
ATOM    102  C   UNL A   1      46.382  23.668  34.852  1.00  0.00     0.059 A 
ATOM    103  F   UNL A   1      47.044  25.795  34.309  1.00  0.00    -0.206 F 
ATOM    104  C   UNL A   1      45.403  22.763  35.211  1.00  0.00     0.060 A 
BRANCH 104 105
ATOM    105  S   UNL A   1      45.890  21.087  35.671  1.00  0.00     0.124 S 
ATOM    106  O   UNL A   1      44.890  20.292  34.964  1.00  0.00    -0.237 OA
ATOM    107  O   UNL A   1      47.252  20.989  35.157  1.00  0.00    -0.237 OA
ATOM    108  O   UNL A   1      45.775  21.094  37.126  1.00  0.00    -0.744 OA
ENDBRANCH 104 105
ENDBRANCH  72  97
ENDBRANCH  46  47
ENDBRANCH  39  41
ENDBRANCH  38  39
ENDBRANCH  37  38
ENDBRANCH  36  37
ENDBRANCH  35  36
ENDBRANCH   1  35
TORSDOF 23
ENDMDL
MODEL 2
REMARK VINA RESULT:     -13.6      1.616      2.085
REMARK SMILES Cc1ccc(-c2cc(C(=O)OCCOCCOCCOC(=O)c3ccc(-c4c5nc(c(-c6c(F)cc(S(=O)(=O)[O-])cc6F)c6ccc([nH]6)c(-c6c(F)cc(S(=O)(=O)[O-])cc6F)c6nc(c(-c7c(F)cc(S(=O)(=O)[O-])cc7F)c7ccc4[nH]7)C=C6)C=C5)cc3)c3c(-c4cccc([N+](=O)[O-])c4)[nH]nc3n2)cc1
REMARK SMILES IDX 16 1 15 2 14 3 13 4 12 5 11 6 9 7 10 8 8 9 6 10 7 11 103 12
REMARK SMILES IDX 102 13 89 14 101 15 90 16 100 17 5 19 1 20 2 21 3 22 105 23
REMARK SMILES IDX 4 24 104 25 91 26 92 27 99 28 93 29 95 30 94 31 96 32 97 33
REMARK SMILES IDX 98 34 17 35 18 36 19 37 20 38 21 39 22 40 23 41 24 42 88 43
REMARK SMILES IDX 25 44 87 45 26 46 27 47 28 48 81 49 29 50 86 51 80 52 82 53
REMARK SMILES IDX 30 54 85 55 79 56 78 57 31 59 65 60 44 61 64 62 45 63 48 64
REMARK SMILES IDX 63 65 83 66 46 67 47 68 62 70 84 71 49 72 32 73 33 74 42 75
REMARK SMILES IDX 34 76 35 77 41 78 43 79 36 80 37 81 38 82 39 83 40 84 66 85
REMARK SMILES IDX 67 86 76 87 68 88 69 89 75 90 77 91 70 92 71 93 72 94 73 95
REMARK SMILES IDX 74 96 50 97 51 98 60 99 52 100 53 101 59 102 61 103 54 104
REMARK SMILES IDX 55 105 56 106 57 107 58 108
REMARK H PARENT 100 18 82 58 48 69
REMARK Flexibility Score: inf
ROOT
ATOM      1  C   UNL A   1      35.886  31.418  27.830  1.00  0.00     0.188 C 
ENDROOT
BRANCH   1   2
ATOM      2  C   UNL A   1      35.563  29.942  28.153  1.00  0.00     0.188 C 
BRANCH   2   3
ATOM      3  O   UNL A   1      34.606  29.091  27.478  1.00  0.00    -0.376 OA
BRANCH   3   4
ATOM      4  C   UNL A   1      33.200  29.313  27.229  1.00  0.00     0.202 C 
BRANCH   4   5
ATOM      5  C   UNL A   1      31.769  28.223  27.367  1.00  0.00     0.261 C 
BRANCH   5   6
ATOM      6  O   UNL A   1      31.534  26.438  27.125  1.00  0.00    -0.460 OA
BRANCH   6   7
ATOM      7  C   UNL A   1      30.792  25.404  26.254  1.00  0.00     0.339 C 
ATOM      8  O   UNL A   1      30.164  24.398  26.587  1.00  0.00    -0.246 OA
BRANCH   7   9
ATOM      9  C   UNL A   1      30.861  25.411  24.797  1.00  0.00     0.075 A 
ATOM     10  C   UNL A   1      30.488  27.128  23.123  1.00  0.00     0.074 A 
ATOM     11  C   UNL A   1      30.244  26.573  24.375  1.00  0.00     0.045 A 
ATOM     12  N   UNL A   1      31.208  26.593  22.123  1.00  0.00    -0.226 NA
ATOM     13  C   UNL A   1      31.849  25.453  22.468  1.00  0.00     0.182 A 
ATOM     14  C   UNL A   1      31.779  24.822  23.801  1.00  0.00     0.061 A 
ATOM     15  N   UNL A   1      32.631  24.817  21.609  1.00  0.00    -0.154 NA
ATOM     16  C   UNL A   1      32.744  23.775  23.665  1.00  0.00     0.076 A 
ATOM     17  N   UNL A   1      33.135  23.841  22.334  1.00  0.00    -0.275 N 
ATOM     18  H   UNL A   1      33.761  23.187  21.951  1.00  0.00     0.190 HD
BRANCH  10  19
ATOM     19  C   UNL A   1      29.833  28.398  22.875  1.00  0.00     0.000 A 
ATOM     20  C   UNL A   1      27.765  31.571  20.903  1.00  0.00     0.044 C 
ATOM     21  C   UNL A   1      28.479  30.504  21.669  1.00  0.00    -0.051 A 
ATOM     22  C   UNL A   1      29.878  30.437  21.608  1.00  0.00     0.004 A 
ATOM     23  C   UNL A   1      27.763  29.561  22.413  1.00  0.00     0.004 A 
ATOM     24  C   UNL A   1      30.554  29.391  22.216  1.00  0.00     0.010 A 
ATOM     25  C   UNL A   1      28.439  28.513  23.023  1.00  0.00     0.010 A 
ENDBRANCH  10  19
BRANCH  16  26
ATOM     26  C   UNL A   1      33.516  22.678  24.326  1.00  0.00     0.007 A 
ATOM     27  C   UNL A   1      34.912  22.795  24.493  1.00  0.00     0.011 A 
ATOM     28  C   UNL A   1      32.996  21.354  24.365  1.00  0.00     0.096 A 
ATOM     29  C   UNL A   1      35.735  21.679  24.785  1.00  0.00     0.008 A 
ATOM     30  C   UNL A   1      33.825  20.244  24.678  1.00  0.00     0.270 A 
ATOM     31  C   UNL A   1      35.193  20.402  24.901  1.00  0.00     0.085 A 
BRANCH  30  32
ATOM     32  N   UNL A   1      33.266  18.888  24.771  1.00  0.00     0.062 N 
ATOM     33  O   UNL A   1      34.056  17.972  25.035  1.00  0.00    -0.258 OA
ATOM     34  O   UNL A   1      32.033  18.775  24.691  1.00  0.00    -0.258 OA
ENDBRANCH  30  32
ENDBRANCH  16  26
ENDBRANCH   7   9
ENDBRANCH   6   7
ENDBRANCH   5   6
ENDBRANCH   4   5
ENDBRANCH   3   4
ENDBRANCH   2   3
ENDBRANCH   1   2
BRANCH   1  35
ATOM     35  O   UNL A   1      35.674  32.316  28.908  1.00  0.00    -0.376 OA
BRANCH  35  36
ATOM     36  C   UNL A   1      34.769  31.869  29.917  1.00  0.00     0.202 C 
BRANCH  36  37
ATOM     37  C   UNL A   1      34.785  32.574  31.307  1.00  0.00     0.261 C 
BRANCH  37  38
ATOM     38  O   UNL A   1      35.779  33.630  31.498  1.00  0.00    -0.460 OA
BRANCH  38  39
ATOM     39  C   UNL A   1      36.796  33.471  32.421  1.00  0.00     0.338 C 
ATOM     40  O   UNL A   1      36.606  33.588  33.637  1.00  0.00    -0.246 OA
BRANCH  39  41
ATOM     41  C   UNL A   1      37.996  32.814  31.852  1.00  0.00     0.060 A 
ATOM     42  C   UNL A   1      38.610  32.860  30.599  1.00  0.00     0.016 A 
ATOM     43  C   UNL A   1      38.623  32.032  32.739  1.00  0.00     0.016 A 
ATOM     44  C   UNL A   1      39.695  31.933  30.205  1.00  0.00     0.010 A 
ATOM     45  C   UNL A   1      39.468  31.049  32.247  1.00  0.00     0.010 A 
ATOM     46  C   UNL A   1      40.166  30.884  30.997  1.00  0.00    -0.014 A 
BRANCH  46  47
ATOM     47  C   UNL A   1      41.583  29.838  30.706  1.00  0.00     0.031 A 
ATOM     48  C   UNL A   1      41.725  28.169  30.015  1.00  0.00     0.074 A 
ATOM     49  C   UNL A   1      42.812  30.270  31.087  1.00  0.00     0.049 A 
ATOM     50  N   UNL A   1      42.757  27.360  30.165  1.00  0.00    -0.248 NA
ATOM     51  C   UNL A   1      40.746  27.363  29.148  1.00  0.00     0.031 C 
ATOM     52  C   UNL A   1      44.113  29.664  30.790  1.00  0.00     0.029 A 
ATOM     53  N   UNL A   1      43.148  31.316  31.949  1.00  0.00    -0.354 N 
ATOM     54  C   UNL A   1      42.646  26.240  29.313  1.00  0.00     0.074 A 
ATOM     55  C   UNL A   1      41.383  26.300  28.706  1.00  0.00     0.031 C 
ATOM     56  C   UNL A   1      45.004  30.069  31.707  1.00  0.00     0.029 A 
ATOM     57  C   UNL A   1      44.289  30.882  32.664  1.00  0.00     0.049 A 
ATOM     58  H   UNL A   1      42.686  32.181  32.041  1.00  0.00     0.167 HD
ATOM     59  C   UNL A   1      43.649  25.350  29.072  1.00  0.00     0.037 A 
ATOM     60  C   UNL A   1      44.231  30.673  34.010  1.00  0.00     0.037 A 
ATOM     61  C   UNL A   1      44.692  25.555  30.039  1.00  0.00     0.049 A 
ATOM     62  C   UNL A   1      44.509  29.216  34.419  1.00  0.00     0.074 A 
ATOM     63  C   UNL A   1      45.880  26.259  30.028  1.00  0.00     0.029 A 
ATOM     64  N   UNL A   1      44.372  25.324  31.365  1.00  0.00    -0.354 N 
ATOM     65  N   UNL A   1      44.780  28.234  33.596  1.00  0.00    -0.248 NA
ATOM     66  C   UNL A   1      44.497  28.742  35.805  1.00  0.00     0.031 C 
ATOM     67  C   UNL A   1      46.229  26.528  31.377  1.00  0.00     0.029 A 
ATOM     68  C   UNL A   1      45.273  25.955  32.195  1.00  0.00     0.049 A 
ATOM     69  H   UNL A   1      43.607  24.785  31.673  1.00  0.00     0.167 HD
ATOM     70  C   UNL A   1      44.899  27.038  34.278  1.00  0.00     0.074 A 
ATOM     71  C   UNL A   1      44.759  27.428  35.666  1.00  0.00     0.031 C 
ATOM     72  C   UNL A   1      45.095  25.839  33.634  1.00  0.00     0.037 A 
BRANCH  59  73
ATOM     73  C   UNL A   1      43.744  24.548  27.769  1.00  0.00     0.058 A 
ATOM     74  C   UNL A   1      43.294  23.211  27.739  1.00  0.00     0.135 A 
ATOM     75  C   UNL A   1      44.388  24.959  26.577  1.00  0.00     0.135 A 
ATOM     76  F   UNL A   1      42.545  22.711  28.728  1.00  0.00    -0.206 F 
ATOM     77  C   UNL A   1      43.609  22.319  26.705  1.00  0.00     0.059 A 
ATOM     78  C   UNL A   1      44.784  24.069  25.565  1.00  0.00     0.059 A 
ATOM     79  F   UNL A   1      44.625  26.256  26.327  1.00  0.00    -0.206 F 
ATOM     80  C   UNL A   1      44.401  22.740  25.646  1.00  0.00     0.060 A 
BRANCH  80  81
ATOM     81  S   UNL A   1      44.921  21.537  24.402  1.00  0.00     0.124 S 
ATOM     82  O   UNL A   1      44.104  20.371  24.727  1.00  0.00    -0.237 OA
ATOM     83  O   UNL A   1      44.581  22.224  23.161  1.00  0.00    -0.237 OA
ATOM     84  O   UNL A   1      46.349  21.377  24.662  1.00  0.00    -0.744 OA
ENDBRANCH  80  81
ENDBRANCH  59  73
BRANCH  60  85
ATOM     85  C   UNL A   1      43.270  31.638  34.646  1.00  0.00     0.058 A 
ATOM     86  C   UNL A   1      41.986  31.240  35.070  1.00  0.00     0.135 A 
ATOM     87  C   UNL A   1      43.796  32.740  35.304  1.00  0.00     0.135 A 
ATOM     88  F   UNL A   1      41.421  30.154  34.524  1.00  0.00    -0.206 F 
ATOM     89  C   UNL A   1      41.307  31.860  36.140  1.00  0.00     0.059 A 
ATOM     90  C   UNL A   1      43.126  33.375  36.357  1.00  0.00     0.059 A 
ATOM     91  F   UNL A   1      45.068  33.070  35.055  1.00  0.00    -0.206 F 
ATOM     92  C   UNL A   1      41.907  32.914  36.808  1.00  0.00     0.060 A 
BRANCH  92  93
ATOM     93  S   UNL A   1      41.242  33.559  38.371  1.00  0.00     0.124 S 
ATOM     94  O   UNL A   1      40.381  32.460  38.810  1.00  0.00    -0.237 OA
ATOM     95  O   UNL A   1      42.456  33.777  39.160  1.00  0.00    -0.237 OA
ATOM     96  O   UNL A   1      40.546  34.769  37.993  1.00  0.00    -0.744 OA
ENDBRANCH  92  93
ENDBRANCH  60  85
BRANCH  72  97
ATOM     97  C   UNL A   1      45.172  24.415  34.203  1.00  0.00     0.058 A 
ATOM     98  C   UNL A   1      44.082  23.612  34.567  1.00  0.00     0.135 A 
ATOM     99  C   UNL A   1      46.438  23.755  34.274  1.00  0.00     0.135 A 
ATOM    100  F   UNL A   1      42.824  24.059  34.469  1.00  0.00    -0.206 F 
ATOM    101  C   UNL A   1      44.236  22.288  35.017  1.00  0.00     0.059 A 
ATOM    102  C   UNL A   1      46.605  22.425  34.648  1.00  0.00     0.059 A 
ATOM    103  F   UNL A   1      47.584  24.388  33.978  1.00  0.00    -0.206 F 
ATOM    104  C   UNL A   1      45.501  21.704  35.056  1.00  0.00     0.060 A 
BRANCH 104 105
ATOM    105  S   UNL A   1      45.726  20.006  35.623  1.00  0.00     0.124 S 
ATOM    106  O   UNL A   1      47.035  19.685  35.060  1.00  0.00    -0.237 OA
ATOM    107  O   UNL A   1      45.680  20.136  37.076  1.00  0.00    -0.237 OA
ATOM    108  O   UNL A   1      44.594  19.302  35.027  1.00  0.00    -0.744 OA
ENDBRANCH 104 105
ENDBRANCH  72  97
ENDBRANCH  46  47
ENDBRANCH  39  41
ENDBRANCH  38  39
ENDBRANCH  37  38
ENDBRANCH  36  37
ENDBRANCH  35  36
ENDBRANCH   1  35
TORSDOF 23
ENDMDL
MODEL 3
REMARK VINA RESULT:     -12.6      4.080      9.705
REMARK SMILES Cc1ccc(-c2cc(C(=O)OCCOCCOCCOC(=O)c3ccc(-c4c5nc(c(-c6c(F)cc(S(=O)(=O)[O-])cc6F)c6ccc([nH]6)c(-c6c(F)cc(S(=O)(=O)[O-])cc6F)c6nc(c(-c7c(F)cc(S(=O)(=O)[O-])cc7F)c7ccc4[nH]7)C=C6)C=C5)cc3)c3c(-c4cccc([N+](=O)[O-])c4)[nH]nc3n2)cc1
REMARK SMILES IDX 16 1 15 2 14 3 13 4 12 5 11 6 9 7 10 8 8 9 6 10 7 11 103 12
REMARK SMILES IDX 102 13 89 14 101 15 90 16 100 17 5 19 1 20 2 21 3 22 105 23
REMARK SMILES IDX 4 24 104 25 91 26 92 27 99 28 93 29 95 30 94 31 96 32 97 33
REMARK SMILES IDX 98 34 17 35 18 36 19 37 20 38 21 39 22 40 23 41 24 42 88 43
REMARK SMILES IDX 25 44 87 45 26 46 27 47 28 48 81 49 29 50 86 51 80 52 82 53
REMARK SMILES IDX 30 54 85 55 79 56 78 57 31 59 65 60 44 61 64 62 45 63 48 64
REMARK SMILES IDX 63 65 83 66 46 67 47 68 62 70 84 71 49 72 32 73 33 74 42 75
REMARK SMILES IDX 34 76 35 77 41 78 43 79 36 80 37 81 38 82 39 83 40 84 66 85
REMARK SMILES IDX 67 86 76 87 68 88 69 89 75 90 77 91 70 92 71 93 72 94 73 95
REMARK SMILES IDX 74 96 50 97 51 98 60 99 52 100 53 101 59 102 61 103 54 104
REMARK SMILES IDX 55 105 56 106 57 107 58 108
REMARK H PARENT 100 18 82 58 48 69
REMARK Flexibility Score: inf
ROOT
ATOM      1  C   UNL A   1      40.767  21.479  27.228  1.00  0.00     0.188 C 
ENDROOT
BRANCH   1   2
ATOM      2  C   UNL A   1      39.734  21.806  26.127  1.00  0.00     0.188 C 
BRANCH   2   3
ATOM      3  O   UNL A   1      38.484  22.519  26.288  1.00  0.00    -0.376 OA
BRANCH   3   4
ATOM      4  C   UNL A   1      37.256  22.390  25.539  1.00  0.00     0.202 C 
BRANCH   4   5
ATOM      5  C   UNL A   1      36.881  22.647  23.792  1.00  0.00     0.261 C 
BRANCH   5   6
ATOM      6  O   UNL A   1      35.574  23.557  22.920  1.00  0.00    -0.460 OA
BRANCH   6   7
ATOM      7  C   UNL A   1      34.243  24.306  23.139  1.00  0.00     0.339 C 
ATOM      8  O   UNL A   1      33.722  25.199  22.470  1.00  0.00    -0.246 OA
BRANCH   7   9
ATOM      9  C   UNL A   1      33.432  24.132  24.338  1.00  0.00     0.075 A 
ATOM     10  C   UNL A   1      31.924  25.597  25.552  1.00  0.00     0.074 A 
ATOM     11  C   UNL A   1      33.030  25.394  24.733  1.00  0.00     0.045 A 
ATOM     12  N   UNL A   1      31.189  24.658  26.171  1.00  0.00    -0.226 NA
ATOM     13  C   UNL A   1      31.522  23.394  25.825  1.00  0.00     0.182 A 
ATOM     14  C   UNL A   1      32.592  23.040  24.871  1.00  0.00     0.061 A 
ATOM     15  N   UNL A   1      30.871  22.352  26.318  1.00  0.00    -0.154 NA
ATOM     16  C   UNL A   1      32.405  21.627  24.756  1.00  0.00     0.076 A 
ATOM     17  N   UNL A   1      31.411  21.336  25.679  1.00  0.00    -0.275 N 
ATOM     18  H   UNL A   1      31.123  20.410  25.848  1.00  0.00     0.190 HD
BRANCH  10  19
ATOM     19  C   UNL A   1      31.584  26.985  25.794  1.00  0.00     0.000 A 
ATOM     20  C   UNL A   1      31.951  31.185  26.474  1.00  0.00     0.044 C 
ATOM     21  C   UNL A   1      31.736  29.726  26.228  1.00  0.00    -0.051 A 
ATOM     22  C   UNL A   1      31.773  28.836  27.311  1.00  0.00     0.004 A 
ATOM     23  C   UNL A   1      31.531  29.244  24.932  1.00  0.00     0.004 A 
ATOM     24  C   UNL A   1      31.690  27.470  27.096  1.00  0.00     0.010 A 
ATOM     25  C   UNL A   1      31.447  27.876  24.715  1.00  0.00     0.010 A 
ENDBRANCH  10  19
BRANCH  16  26
ATOM     26  C   UNL A   1      32.793  20.355  24.069  1.00  0.00     0.007 A 
ATOM     27  C   UNL A   1      32.227  20.024  22.819  1.00  0.00     0.011 A 
ATOM     28  C   UNL A   1      33.329  19.268  24.815  1.00  0.00     0.096 A 
ATOM     29  C   UNL A   1      32.279  18.711  22.290  1.00  0.00     0.008 A 
ATOM     30  C   UNL A   1      33.395  17.959  24.268  1.00  0.00     0.270 A 
ATOM     31  C   UNL A   1      32.882  17.677  23.001  1.00  0.00     0.085 A 
BRANCH  30  32
ATOM     32  N   UNL A   1      34.001  16.855  25.025  1.00  0.00     0.062 N 
ATOM     33  O   UNL A   1      33.228  16.064  25.580  1.00  0.00    -0.258 OA
ATOM     34  O   UNL A   1      35.234  16.731  24.958  1.00  0.00    -0.258 OA
ENDBRANCH  30  32
ENDBRANCH  16  26
ENDBRANCH   7   9
ENDBRANCH   6   7
ENDBRANCH   5   6
ENDBRANCH   4   5
ENDBRANCH   3   4
ENDBRANCH   2   3
ENDBRANCH   1   2
BRANCH   1  35
ATOM     35  O   UNL A   1      41.898  22.335  27.248  1.00  0.00    -0.376 OA
BRANCH  35  36
ATOM     36  C   UNL A   1      41.658  23.686  26.855  1.00  0.00     0.202 C 
BRANCH  36  37
ATOM     37  C   UNL A   1      41.255  24.726  27.944  1.00  0.00     0.261 C 
BRANCH  37  38
ATOM     38  O   UNL A   1      41.602  26.122  27.681  1.00  0.00    -0.460 OA
BRANCH  38  39
ATOM     39  C   UNL A   1      40.795  27.141  28.152  1.00  0.00     0.338 C 
ATOM     40  O   UNL A   1      39.600  27.230  27.847  1.00  0.00    -0.246 OA
BRANCH  39  41
ATOM     41  C   UNL A   1      41.391  27.868  29.298  1.00  0.00     0.060 A 
ATOM     42  C   UNL A   1      42.446  27.586  30.167  1.00  0.00     0.016 A 
ATOM     43  C   UNL A   1      40.798  29.047  29.523  1.00  0.00     0.016 A 
ATOM     44  C   UNL A   1      42.716  28.384  31.384  1.00  0.00     0.010 A 
ATOM     45  C   UNL A   1      40.947  29.612  30.780  1.00  0.00     0.010 A 
ATOM     46  C   UNL A   1      41.920  29.441  31.829  1.00  0.00    -0.014 A 
BRANCH  46  47
ATOM     47  C   UNL A   1      42.254  30.584  33.160  1.00  0.00     0.031 A 
ATOM     48  C   UNL A   1      42.748  30.313  34.882  1.00  0.00     0.074 A 
ATOM     49  C   UNL A   1      42.083  31.913  32.947  1.00  0.00     0.049 A 
ATOM     50  N   UNL A   1      42.629  31.189  35.862  1.00  0.00    -0.248 NA
ATOM     51  C   UNL A   1      43.383  29.087  35.556  1.00  0.00     0.031 C 
ATOM     52  C   UNL A   1      42.463  33.023  33.826  1.00  0.00     0.029 A 
ATOM     53  N   UNL A   1      41.404  32.558  31.911  1.00  0.00    -0.354 N 
ATOM     54  C   UNL A   1      43.318  30.751  37.015  1.00  0.00     0.074 A 
ATOM     55  C   UNL A   1      43.767  29.446  36.763  1.00  0.00     0.031 C 
ATOM     56  C   UNL A   1      41.720  34.097  33.521  1.00  0.00     0.029 A 
ATOM     57  C   UNL A   1      40.788  33.690  32.494  1.00  0.00     0.049 A 
ATOM     58  H   UNL A   1      41.362  32.282  30.967  1.00  0.00     0.167 HD
ATOM     59  C   UNL A   1      43.570  31.527  38.105  1.00  0.00     0.037 A 
ATOM     60  C   UNL A   1      39.430  33.791  32.556  1.00  0.00     0.037 A 
ATOM     61  C   UNL A   1      42.773  32.719  38.021  1.00  0.00     0.049 A 
ATOM     62  C   UNL A   1      38.884  33.851  33.994  1.00  0.00     0.074 A 
ATOM     63  C   UNL A   1      43.017  34.002  37.572  1.00  0.00     0.029 A 
ATOM     64  N   UNL A   1      41.398  32.557  38.055  1.00  0.00    -0.354 N 
ATOM     65  N   UNL A   1      39.608  33.814  35.084  1.00  0.00    -0.248 NA
ATOM     66  C   UNL A   1      37.460  33.953  34.320  1.00  0.00     0.031 C 
ATOM     67  C   UNL A   1      41.764  34.587  37.250  1.00  0.00     0.029 A 
ATOM     68  C   UNL A   1      40.770  33.670  37.540  1.00  0.00     0.049 A 
ATOM     69  H   UNL A   1      40.935  31.759  38.398  1.00  0.00     0.167 HD
ATOM     70  C   UNL A   1      38.805  33.808  36.209  1.00  0.00     0.074 A 
ATOM     71  C   UNL A   1      37.468  33.945  35.668  1.00  0.00     0.031 C 
ATOM     72  C   UNL A   1      39.316  33.684  37.480  1.00  0.00     0.037 A 
BRANCH  59  73
ATOM     73  C   UNL A   1      44.767  31.282  39.032  1.00  0.00     0.058 A 
ATOM     74  C   UNL A   1      46.074  31.304  38.504  1.00  0.00     0.135 A 
ATOM     75  C   UNL A   1      44.707  30.876  40.387  1.00  0.00     0.135 A 
ATOM     76  F   UNL A   1      46.319  31.796  37.283  1.00  0.00    -0.206 F 
ATOM     77  C   UNL A   1      47.189  30.804  39.191  1.00  0.00     0.059 A 
ATOM     78  C   UNL A   1      45.790  30.297  41.070  1.00  0.00     0.059 A 
ATOM     79  F   UNL A   1      43.599  31.063  41.120  1.00  0.00    -0.206 F 
ATOM     80  C   UNL A   1      47.030  30.251  40.453  1.00  0.00     0.060 A 
BRANCH  80  81
ATOM     81  S   UNL A   1      48.450  29.476  41.260  1.00  0.00     0.124 S 
ATOM     82  O   UNL A   1      47.869  28.959  42.496  1.00  0.00    -0.237 OA
ATOM     83  O   UNL A   1      48.844  28.473  40.276  1.00  0.00    -0.237 OA
ATOM     84  O   UNL A   1      49.385  30.584  41.437  1.00  0.00    -0.744 OA
ENDBRANCH  80  81
ENDBRANCH  59  73
BRANCH  60  85
ATOM     85  C   UNL A   1      38.803  33.127  31.363  1.00  0.00     0.058 A 
ATOM     86  C   UNL A   1      38.141  31.887  31.463  1.00  0.00     0.135 A 
ATOM     87  C   UNL A   1      38.394  33.934  30.312  1.00  0.00     0.135 A 
ATOM     88  F   UNL A   1      38.437  31.064  32.479  1.00  0.00    -0.206 F 
ATOM     89  C   UNL A   1      37.082  31.513  30.609  1.00  0.00     0.059 A 
ATOM     90  C   UNL A   1      37.355  33.569  29.447  1.00  0.00     0.059 A 
ATOM     91  F   UNL A   1      38.873  35.181  30.256  1.00  0.00    -0.206 F 
ATOM     92  C   UNL A   1      36.667  32.385  29.617  1.00  0.00     0.060 A 
BRANCH  92  93
ATOM     93  S   UNL A   1      35.131  32.115  28.686  1.00  0.00     0.124 S 
ATOM     94  O   UNL A   1      35.309  33.008  27.541  1.00  0.00    -0.237 OA
ATOM     95  O   UNL A   1      35.191  30.680  28.395  1.00  0.00    -0.237 OA
ATOM     96  O   UNL A   1      34.082  32.497  29.604  1.00  0.00    -0.744 OA
ENDBRANCH  92  93
ENDBRANCH  60  85
BRANCH  72  97
ATOM     97  C   UNL A   1      38.592  33.579  38.829  1.00  0.00     0.058 A 
ATOM     98  C   UNL A   1      38.673  34.501  39.882  1.00  0.00     0.135 A 
ATOM     99  C   UNL A   1      37.642  32.531  39.036  1.00  0.00     0.135 A 
ATOM    100  F   UNL A   1      39.452  35.587  39.798  1.00  0.00    -0.206 F 
ATOM    101  C   UNL A   1      37.920  34.367  41.063  1.00  0.00     0.059 A 
ATOM    102  C   UNL A   1      36.837  32.421  40.167  1.00  0.00     0.059 A 
ATOM    103  F   UNL A   1      37.456  31.556  38.134  1.00  0.00    -0.206 F 
ATOM    104  C   UNL A   1      37.007  33.323  41.197  1.00  0.00     0.060 A 
BRANCH 104 105
ATOM    105  S   UNL A   1      36.025  33.131  42.698  1.00  0.00     0.124 S 
ATOM    106  O   UNL A   1      35.785  31.691  42.704  1.00  0.00    -0.237 OA
ATOM    107  O   UNL A   1      36.918  33.626  43.740  1.00  0.00    -0.237 OA
ATOM    108  O   UNL A   1      34.854  33.964  42.439  1.00  0.00    -0.744 OA
ENDBRANCH 104 105
ENDBRANCH  72  97
ENDBRANCH  46  47
ENDBRANCH  39  41
ENDBRANCH  38  39
ENDBRANCH  37  38
ENDBRANCH  36  37
ENDBRANCH  35  36
ENDBRANCH   1  35
TORSDOF 23
ENDMDL
