MODEL 1
REMARK VINA RESULT:     -10.0      0.000      0.000
REMARK SMILES Cc1cc(CS(=O)(=O)N[C@@H]2C=C[C@H](C(=O)OCCOCCOCCOC(=O)c3ccc(-c4c5nc(c(-c6c(F)cc(S(=O)(=O)[O-])cc6F)c6ccc([nH]6)c(-c6c(F)cc(S(=O)(=O)[O-])cc6F)c6nc(c(-c7c(F)cc(S(=O)(=O)[O-])cc7F)c7ccc4[nH]7)C=C6)C=C5)cc3)C2)no1
REMARK SMILES IDX 20 1 19 2 18 3 17 4 16 5 14 6 15 7 13 8 10 9 11 10 94 11
REMARK SMILES IDX 12 12 9 13 6 15 7 16 8 17 5 18 4 19 1 20 2 21 3 22 96 23
REMARK SMILES IDX 95 24 21 25 22 26 23 27 24 28 25 29 26 30 27 31 28 32 29 33
REMARK SMILES IDX 93 34 30 35 92 36 31 37 32 38 33 39 86 40 34 41 91 42 85 43
REMARK SMILES IDX 87 44 35 45 90 46 84 47 83 48 36 50 70 51 49 52 69 53 50 54
REMARK SMILES IDX 53 55 68 56 88 57 51 58 52 59 67 61 89 62 54 63 37 64 38 65
REMARK SMILES IDX 47 66 39 67 40 68 46 69 48 70 41 71 42 72 43 73 44 74 45 75
REMARK SMILES IDX 71 76 72 77 81 78 73 79 74 80 80 81 82 82 75 83 76 84 77 85
REMARK SMILES IDX 78 86 79 87 55 88 56 89 65 90 57 91 58 92 64 93 66 94 59 95
REMARK SMILES IDX 60 96 61 97 62 98 63 99
REMARK H PARENT 9 14 87 49 53 60
REMARK Flexibility Score: inf
ROOT
ATOM      1  C   UNL A   1      31.512  29.810  25.683  1.00  0.00     0.188 C 
ENDROOT
BRANCH   1   2
ATOM      2  O   UNL A   1      31.761  29.393  24.360  1.00  0.00    -0.376 OA
BRANCH   2   3
ATOM      3  C   UNL A   1      30.713  29.345  23.404  1.00  0.00     0.202 C 
BRANCH   3   4
ATOM      4  C   UNL A   1      29.744  28.161  23.208  1.00  0.00     0.261 C 
BRANCH   4   5
ATOM      5  O   UNL A   1      29.641  27.273  24.315  1.00  0.00    -0.463 OA
BRANCH   5   6
ATOM      6  C   UNL A   1      30.514  26.227  24.373  1.00  0.00     0.312 C 
ATOM      7  O   UNL A   1      31.026  25.674  23.412  1.00  0.00    -0.252 OA
BRANCH   6   8
ATOM      8  C   UNL A   1      30.807  25.916  25.835  1.00  0.00     0.123 C 
ATOM      9  C   UNL A   1      32.660  24.392  26.138  1.00  0.00     0.093 C 
ATOM     10  C   UNL A   1      31.341  23.701  26.280  1.00  0.00    -0.011 C 
ATOM     11  C   UNL A   1      32.294  25.867  26.163  1.00  0.00     0.043 C 
ATOM     12  C   UNL A   1      30.316  24.541  26.152  1.00  0.00    -0.015 C 
BRANCH   9  13
ATOM     13  N   UNL A   1      33.200  23.960  24.856  1.00  0.00    -0.208 NA
ATOM     14  H   UNL A   1      32.409  23.776  24.239  1.00  0.00     0.141 HD
BRANCH  13  15
ATOM     15  S   UNL A   1      34.175  22.593  24.845  1.00  0.00     0.218 S 
ATOM     16  O   UNL A   1      35.446  22.964  25.425  1.00  0.00    -0.212 OA
ATOM     17  O   UNL A   1      34.111  22.114  23.480  1.00  0.00    -0.212 OA
BRANCH  15  18
ATOM     18  C   UNL A   1      33.303  21.383  25.878  1.00  0.00     0.213 C 
BRANCH  18  19
ATOM     19  C   UNL A   1      33.207  20.016  25.307  1.00  0.00     0.100 A 
ATOM     20  C   UNL A   1      34.009  17.136  23.189  1.00  0.00     0.091 C 
ATOM     21  C   UNL A   1      33.597  18.190  24.136  1.00  0.00     0.133 A 
ATOM     22  C   UNL A   1      34.251  19.200  24.798  1.00  0.00     0.073 A 
ATOM     23  O   UNL A   1      32.266  18.281  24.396  1.00  0.00    -0.361 OA
ATOM     24  N   UNL A   1      32.026  19.400  25.173  1.00  0.00    -0.084 NA
ENDBRANCH  18  19
ENDBRANCH  15  18
ENDBRANCH  13  15
ENDBRANCH   9  13
ENDBRANCH   6   8
ENDBRANCH   5   6
ENDBRANCH   4   5
ENDBRANCH   3   4
ENDBRANCH   2   3
ENDBRANCH   1   2
BRANCH   1  25
ATOM     25  C   UNL A   1      32.783  29.949  26.560  1.00  0.00     0.188 C 
BRANCH  25  26
ATOM     26  O   UNL A   1      32.958  31.098  27.367  1.00  0.00    -0.376 OA
BRANCH  26  27
ATOM     27  C   UNL A   1      34.277  31.529  27.661  1.00  0.00     0.202 C 
BRANCH  27  28
ATOM     28  C   UNL A   1      35.244  30.702  28.538  1.00  0.00     0.261 C 
BRANCH  28  29
ATOM     29  O   UNL A   1      35.922  31.383  29.606  1.00  0.00    -0.460 OA
BRANCH  29  30
ATOM     30  C   UNL A   1      36.559  30.589  30.504  1.00  0.00     0.338 C 
ATOM     31  O   UNL A   1      36.049  29.965  31.420  1.00  0.00    -0.246 OA
BRANCH  30  32
ATOM     32  C   UNL A   1      37.974  30.414  30.105  1.00  0.00     0.060 A 
ATOM     33  C   UNL A   1      38.280  30.258  28.745  1.00  0.00     0.016 A 
ATOM     34  C   UNL A   1      38.983  30.340  31.065  1.00  0.00     0.016 A 
ATOM     35  C   UNL A   1      39.593  30.005  28.342  1.00  0.00     0.010 A 
ATOM     36  C   UNL A   1      40.295  30.062  30.661  1.00  0.00     0.010 A 
ATOM     37  C   UNL A   1      40.602  29.864  29.301  1.00  0.00    -0.014 A 
BRANCH  37  38
ATOM     38  C   UNL A   1      41.938  29.340  28.913  1.00  0.00     0.031 A 
ATOM     39  C   UNL A   1      43.098  30.299  28.849  1.00  0.00     0.074 A 
ATOM     40  C   UNL A   1      42.125  28.040  28.619  1.00  0.00     0.049 A 
ATOM     41  N   UNL A   1      44.326  30.093  28.451  1.00  0.00    -0.248 NA
ATOM     42  C   UNL A   1      42.830  31.679  29.288  1.00  0.00     0.031 C 
ATOM     43  C   UNL A   1      41.099  27.002  28.686  1.00  0.00     0.029 A 
ATOM     44  N   UNL A   1      43.248  27.376  28.188  1.00  0.00    -0.354 N 
ATOM     45  C   UNL A   1      44.975  31.317  28.579  1.00  0.00     0.074 A 
ATOM     46  C   UNL A   1      43.997  32.265  29.065  1.00  0.00     0.031 C 
ATOM     47  C   UNL A   1      41.634  25.833  28.290  1.00  0.00     0.029 A 
ATOM     48  C   UNL A   1      43.030  26.047  27.906  1.00  0.00     0.049 A 
ATOM     49  H   UNL A   1      44.127  27.810  28.091  1.00  0.00     0.167 HD
ATOM     50  C   UNL A   1      46.269  31.621  28.317  1.00  0.00     0.037 A 
ATOM     51  C   UNL A   1      43.851  25.120  27.372  1.00  0.00     0.037 A 
ATOM     52  C   UNL A   1      47.240  30.675  27.830  1.00  0.00     0.049 A 
ATOM     53  C   UNL A   1      45.268  25.500  27.018  1.00  0.00     0.074 A 
ATOM     54  C   UNL A   1      48.580  30.883  27.555  1.00  0.00     0.029 A 
ATOM     55  N   UNL A   1      46.974  29.345  27.536  1.00  0.00    -0.354 N 
ATOM     56  N   UNL A   1      45.876  26.655  27.162  1.00  0.00    -0.248 NA
ATOM     57  C   UNL A   1      46.114  24.450  26.429  1.00  0.00     0.031 C 
ATOM     58  C   UNL A   1      49.110  29.697  27.038  1.00  0.00     0.029 A 
ATOM     59  C   UNL A   1      48.118  28.729  27.054  1.00  0.00     0.049 A 
ATOM     60  H   UNL A   1      46.102  28.904  27.652  1.00  0.00     0.167 HD
ATOM     61  C   UNL A   1      47.181  26.459  26.715  1.00  0.00     0.074 A 
ATOM     62  C   UNL A   1      47.276  25.075  26.303  1.00  0.00     0.031 C 
ATOM     63  C   UNL A   1      48.206  27.345  26.655  1.00  0.00     0.037 A 
BRANCH  50  64
ATOM     64  C   UNL A   1      46.707  33.047  28.522  1.00  0.00     0.058 A 
ATOM     65  C   UNL A   1      47.211  33.500  29.752  1.00  0.00     0.135 A 
ATOM     66  C   UNL A   1      46.653  33.966  27.461  1.00  0.00     0.135 A 
ATOM     67  F   UNL A   1      47.267  32.671  30.807  1.00  0.00    -0.206 F 
ATOM     68  C   UNL A   1      47.621  34.817  29.930  1.00  0.00     0.059 A 
ATOM     69  C   UNL A   1      47.087  35.280  27.607  1.00  0.00     0.059 A 
ATOM     70  F   UNL A   1      46.178  33.587  26.263  1.00  0.00    -0.206 F 
ATOM     71  C   UNL A   1      47.556  35.699  28.849  1.00  0.00     0.060 A 
BRANCH  71  72
ATOM     72  S   UNL A   1      48.098  37.404  29.096  1.00  0.00     0.124 S 
ATOM     73  O   UNL A   1      47.098  38.141  28.330  1.00  0.00    -0.237 OA
ATOM     74  O   UNL A   1      48.019  37.548  30.545  1.00  0.00    -0.237 OA
ATOM     75  O   UNL A   1      49.448  37.418  28.539  1.00  0.00    -0.744 OA
ENDBRANCH  71  72
ENDBRANCH  50  64
BRANCH  51  76
ATOM     76  C   UNL A   1      43.354  23.740  27.118  1.00  0.00     0.058 A 
ATOM     77  C   UNL A   1      42.904  23.350  25.848  1.00  0.00     0.135 A 
ATOM     78  C   UNL A   1      43.304  22.785  28.147  1.00  0.00     0.135 A 
ATOM     79  F   UNL A   1      42.915  24.231  24.835  1.00  0.00    -0.206 F 
ATOM     80  C   UNL A   1      42.410  22.072  25.607  1.00  0.00     0.059 A 
ATOM     81  C   UNL A   1      42.841  21.491  27.925  1.00  0.00     0.059 A 
ATOM     82  F   UNL A   1      43.727  23.102  29.381  1.00  0.00    -0.206 F 
ATOM     83  C   UNL A   1      42.385  21.147  26.653  1.00  0.00     0.060 A 
BRANCH  83  84
ATOM     84  S   UNL A   1      41.778  19.479  26.322  1.00  0.00     0.124 S 
ATOM     85  O   UNL A   1      42.188  18.772  27.530  1.00  0.00    -0.237 OA
ATOM     86  O   UNL A   1      40.344  19.701  26.167  1.00  0.00    -0.237 OA
ATOM     87  O   UNL A   1      42.483  19.102  25.101  1.00  0.00    -0.744 OA
ENDBRANCH  83  84
ENDBRANCH  51  76
BRANCH  63  88
ATOM     88  C   UNL A   1      49.543  26.842  26.172  1.00  0.00     0.058 A 
ATOM     89  C   UNL A   1      49.985  27.054  24.856  1.00  0.00     0.135 A 
ATOM     90  C   UNL A   1      50.418  26.191  27.058  1.00  0.00     0.135 A 
ATOM     91  F   UNL A   1      49.190  27.667  23.965  1.00  0.00    -0.206 F 
ATOM     92  C   UNL A   1      51.236  26.617  24.431  1.00  0.00     0.059 A 
ATOM     93  C   UNL A   1      51.685  25.775  26.663  1.00  0.00     0.059 A 
ATOM     94  F   UNL A   1      50.052  25.973  28.331  1.00  0.00    -0.206 F 
ATOM     95  C   UNL A   1      52.081  25.981  25.342  1.00  0.00     0.060 A 
BRANCH  95  96
ATOM     96  S   UNL A   1      53.716  25.451  24.786  1.00  0.00     0.124 S 
ATOM     97  O   UNL A   1      54.581  26.423  25.448  1.00  0.00    -0.237 OA
ATOM     98  O   UNL A   1      53.791  24.086  25.296  1.00  0.00    -0.237 OA
ATOM     99  O   UNL A   1      53.637  25.568  23.334  1.00  0.00    -0.744 OA
ENDBRANCH  95  96
ENDBRANCH  63  88
ENDBRANCH  37  38
ENDBRANCH  30  32
ENDBRANCH  29  30
ENDBRANCH  28  29
ENDBRANCH  27  28
ENDBRANCH  26  27
ENDBRANCH  25  26
ENDBRANCH   1  25
TORSDOF 24
ENDMDL
MODEL 2
REMARK VINA RESULT:      -9.8      0.572      8.152
REMARK SMILES Cc1cc(CS(=O)(=O)N[C@@H]2C=C[C@H](C(=O)OCCOCCOCCOC(=O)c3ccc(-c4c5nc(c(-c6c(F)cc(S(=O)(=O)[O-])cc6F)c6ccc([nH]6)c(-c6c(F)cc(S(=O)(=O)[O-])cc6F)c6nc(c(-c7c(F)cc(S(=O)(=O)[O-])cc7F)c7ccc4[nH]7)C=C6)C=C5)cc3)C2)no1
REMARK SMILES IDX 20 1 19 2 18 3 17 4 16 5 14 6 15 7 13 8 10 9 11 10 94 11
REMARK SMILES IDX 12 12 9 13 6 15 7 16 8 17 5 18 4 19 1 20 2 21 3 22 96 23
REMARK SMILES IDX 95 24 21 25 22 26 23 27 24 28 25 29 26 30 27 31 28 32 29 33
REMARK SMILES IDX 93 34 30 35 92 36 31 37 32 38 33 39 86 40 34 41 91 42 85 43
REMARK SMILES IDX 87 44 35 45 90 46 84 47 83 48 36 50 70 51 49 52 69 53 50 54
REMARK SMILES IDX 53 55 68 56 88 57 51 58 52 59 67 61 89 62 54 63 37 64 38 65
REMARK SMILES IDX 47 66 39 67 40 68 46 69 48 70 41 71 42 72 43 73 44 74 45 75
REMARK SMILES IDX 71 76 72 77 81 78 73 79 74 80 80 81 82 82 75 83 76 84 77 85
REMARK SMILES IDX 78 86 79 87 55 88 56 89 65 90 57 91 58 92 64 93 66 94 59 95
REMARK SMILES IDX 60 96 61 97 62 98 63 99
REMARK H PARENT 9 14 87 49 53 60
REMARK Flexibility Score: inf
ROOT
ATOM      1  C   UNL A   1      31.503  29.719  25.755  1.00  0.00     0.188 C 
ENDROOT
BRANCH   1   2
ATOM      2  O   UNL A   1      31.712  29.360  24.407  1.00  0.00    -0.376 OA
BRANCH   2   3
ATOM      3  C   UNL A   1      30.627  29.298  23.494  1.00  0.00     0.202 C 
BRANCH   3   4
ATOM      4  C   UNL A   1      29.718  28.072  23.278  1.00  0.00     0.261 C 
BRANCH   4   5
ATOM      5  O   UNL A   1      29.662  27.160  24.368  1.00  0.00    -0.463 OA
BRANCH   5   6
ATOM      6  C   UNL A   1      30.574  26.146  24.396  1.00  0.00     0.312 C 
ATOM      7  O   UNL A   1      31.159  25.690  23.425  1.00  0.00    -0.252 OA
BRANCH   6   8
ATOM      8  C   UNL A   1      30.801  25.732  25.843  1.00  0.00     0.123 C 
ATOM      9  C   UNL A   1      32.624  24.165  26.118  1.00  0.00     0.093 C 
ATOM     10  C   UNL A   1      31.292  23.484  26.157  1.00  0.00    -0.011 C 
ATOM     11  C   UNL A   1      32.273  25.640  26.228  1.00  0.00     0.043 C 
ATOM     12  C   UNL A   1      30.283  24.344  26.045  1.00  0.00    -0.015 C 
BRANCH   9  13
ATOM     13  N   UNL A   1      33.213  23.815  24.832  1.00  0.00    -0.208 NA
ATOM     14  H   UNL A   1      32.450  23.729  24.160  1.00  0.00     0.141 HD
BRANCH  13  15
ATOM     15  S   UNL A   1      34.115  22.401  24.752  1.00  0.00     0.218 S 
ATOM     16  O   UNL A   1      35.413  22.684  25.322  1.00  0.00    -0.212 OA
ATOM     17  O   UNL A   1      34.004  21.980  23.371  1.00  0.00    -0.212 OA
BRANCH  15  18
ATOM     18  C   UNL A   1      33.199  21.199  25.753  1.00  0.00     0.213 C 
BRANCH  18  19
ATOM     19  C   UNL A   1      33.226  19.802  25.249  1.00  0.00     0.100 A 
ATOM     20  C   UNL A   1      34.221  16.930  23.203  1.00  0.00     0.091 C 
ATOM     21  C   UNL A   1      33.749  17.976  24.131  1.00  0.00     0.133 A 
ATOM     22  C   UNL A   1      34.323  19.085  24.704  1.00  0.00     0.073 A 
ATOM     23  O   UNL A   1      32.436  17.930  24.477  1.00  0.00    -0.361 OA
ATOM     24  N   UNL A   1      32.117  19.052  25.220  1.00  0.00    -0.084 NA
ENDBRANCH  18  19
ENDBRANCH  15  18
ENDBRANCH  13  15
ENDBRANCH   9  13
ENDBRANCH   6   8
ENDBRANCH   5   6
ENDBRANCH   4   5
ENDBRANCH   3   4
ENDBRANCH   2   3
ENDBRANCH   1   2
BRANCH   1  25
ATOM     25  C   UNL A   1      32.789  29.738  26.620  1.00  0.00     0.188 C 
BRANCH  25  26
ATOM     26  O   UNL A   1      33.076  30.863  27.426  1.00  0.00    -0.376 OA
BRANCH  26  27
ATOM     27  C   UNL A   1      34.431  31.240  27.612  1.00  0.00     0.202 C 
BRANCH  27  28
ATOM     28  C   UNL A   1      35.442  30.353  28.374  1.00  0.00     0.261 C 
BRANCH  28  29
ATOM     29  O   UNL A   1      36.173  30.954  29.455  1.00  0.00    -0.460 OA
BRANCH  29  30
ATOM     30  C   UNL A   1      36.889  30.100  30.231  1.00  0.00     0.338 C 
ATOM     31  O   UNL A   1      36.449  29.334  31.072  1.00  0.00    -0.246 OA
BRANCH  30  32
ATOM     32  C   UNL A   1      38.299  30.076  29.782  1.00  0.00     0.060 A 
ATOM     33  C   UNL A   1      38.571  29.966  28.410  1.00  0.00     0.016 A 
ATOM     34  C   UNL A   1      39.343  30.096  30.706  1.00  0.00     0.016 A 
ATOM     35  C   UNL A   1      39.888  29.853  27.959  1.00  0.00     0.010 A 
ATOM     36  C   UNL A   1      40.662  29.958  30.254  1.00  0.00     0.010 A 
ATOM     37  C   UNL A   1      40.940  29.807  28.882  1.00  0.00    -0.014 A 
BRANCH  37  38
ATOM     38  C   UNL A   1      42.307  29.427  28.441  1.00  0.00     0.031 A 
ATOM     39  C   UNL A   1      42.566  27.997  28.045  1.00  0.00     0.074 A 
ATOM     40  C   UNL A   1      43.306  30.327  28.392  1.00  0.00     0.049 A 
ATOM     41  N   UNL A   1      43.689  27.414  27.716  1.00  0.00    -0.248 NA
ATOM     42  C   UNL A   1      41.396  27.102  28.025  1.00  0.00     0.031 C 
ATOM     43  C   UNL A   1      43.178  31.749  28.704  1.00  0.00     0.029 A 
ATOM     44  N   UNL A   1      44.634  30.170  28.075  1.00  0.00    -0.354 N 
ATOM     45  C   UNL A   1      43.367  26.085  27.463  1.00  0.00     0.074 A 
ATOM     46  C   UNL A   1      41.947  25.942  27.703  1.00  0.00     0.031 C 
ATOM     47  C   UNL A   1      44.385  32.333  28.582  1.00  0.00     0.029 A 
ATOM     48  C   UNL A   1      45.376  31.319  28.220  1.00  0.00     0.049 A 
ATOM     49  H   UNL A   1      45.018  29.316  27.771  1.00  0.00     0.167 HD
ATOM     50  C   UNL A   1      44.180  25.077  27.064  1.00  0.00     0.037 A 
ATOM     51  C   UNL A   1      46.705  31.522  28.105  1.00  0.00     0.037 A 
ATOM     52  C   UNL A   1      45.593  25.223  26.830  1.00  0.00     0.049 A 
ATOM     53  C   UNL A   1      47.602  30.368  27.732  1.00  0.00     0.074 A 
ATOM     54  C   UNL A   1      46.497  24.265  26.404  1.00  0.00     0.029 A 
ATOM     55  N   UNL A   1      46.311  26.397  27.009  1.00  0.00    -0.354 N 
ATOM     56  N   UNL A   1      47.283  29.120  27.476  1.00  0.00    -0.248 NA
ATOM     57  C   UNL A   1      49.043  30.648  27.632  1.00  0.00     0.031 C 
ATOM     58  C   UNL A   1      47.770  24.843  26.384  1.00  0.00     0.029 A 
ATOM     59  C   UNL A   1      47.651  26.179  26.732  1.00  0.00     0.049 A 
ATOM     60  H   UNL A   1      45.925  27.257  27.293  1.00  0.00     0.167 HD
ATOM     61  C   UNL A   1      48.477  28.479  27.151  1.00  0.00     0.074 A 
ATOM     62  C   UNL A   1      49.522  29.477  27.236  1.00  0.00     0.031 C 
ATOM     63  C   UNL A   1      48.685  27.183  26.810  1.00  0.00     0.037 A 
BRANCH  50  64
ATOM     64  C   UNL A   1      43.565  23.714  26.886  1.00  0.00     0.058 A 
ATOM     65  C   UNL A   1      43.165  23.239  25.627  1.00  0.00     0.135 A 
ATOM     66  C   UNL A   1      43.409  22.857  27.987  1.00  0.00     0.135 A 
ATOM     67  F   UNL A   1      43.273  24.023  24.541  1.00  0.00    -0.206 F 
ATOM     68  C   UNL A   1      42.606  21.974  25.470  1.00  0.00     0.059 A 
ATOM     69  C   UNL A   1      42.882  21.576  27.849  1.00  0.00     0.059 A 
ATOM     70  F   UNL A   1      43.773  23.260  29.215  1.00  0.00    -0.206 F 
ATOM     71  C   UNL A   1      42.471  21.150  26.588  1.00  0.00     0.060 A 
BRANCH  71  72
ATOM     72  S   UNL A   1      41.749  19.509  26.366  1.00  0.00     0.124 S 
ATOM     73  O   UNL A   1      42.433  19.051  25.160  1.00  0.00    -0.237 OA
ATOM     74  O   UNL A   1      42.127  18.835  27.604  1.00  0.00    -0.237 OA
ATOM     75  O   UNL A   1      40.324  19.781  26.213  1.00  0.00    -0.744 OA
ENDBRANCH  71  72
ENDBRANCH  50  64
BRANCH  51  76
ATOM     76  C   UNL A   1      47.278  32.872  28.362  1.00  0.00     0.058 A 
ATOM     77  C   UNL A   1      47.663  33.266  29.653  1.00  0.00     0.135 A 
ATOM     78  C   UNL A   1      47.440  33.803  27.324  1.00  0.00     0.135 A 
ATOM     79  F   UNL A   1      47.512  32.419  30.683  1.00  0.00    -0.206 F 
ATOM     80  C   UNL A   1      48.172  34.535  29.909  1.00  0.00     0.059 A 
ATOM     81  C   UNL A   1      47.974  35.069  27.549  1.00  0.00     0.059 A 
ATOM     82  F   UNL A   1      47.094  33.477  26.068  1.00  0.00    -0.206 F 
ATOM     83  C   UNL A   1      48.326  35.430  28.848  1.00  0.00     0.060 A 
BRANCH  83  84
ATOM     84  S   UNL A   1      49.024  37.061  29.184  1.00  0.00     0.124 S 
ATOM     85  O   UNL A   1      50.104  36.734  30.109  1.00  0.00    -0.237 OA
ATOM     86  O   UNL A   1      49.434  37.498  27.853  1.00  0.00    -0.237 OA
ATOM     87  O   UNL A   1      47.901  37.795  29.760  1.00  0.00    -0.744 OA
ENDBRANCH  83  84
ENDBRANCH  51  76
BRANCH  63  88
ATOM     88  C   UNL A   1      50.089  26.767  26.452  1.00  0.00     0.058 A 
ATOM     89  C   UNL A   1      51.015  26.362  27.426  1.00  0.00     0.135 A 
ATOM     90  C   UNL A   1      50.492  26.717  25.107  1.00  0.00     0.135 A 
ATOM     91  F   UNL A   1      50.686  26.393  28.727  1.00  0.00    -0.206 F 
ATOM     92  C   UNL A   1      52.298  25.946  27.080  1.00  0.00     0.059 A 
ATOM     93  C   UNL A   1      51.758  26.274  24.737  1.00  0.00     0.059 A 
ATOM     94  F   UNL A   1      49.643  27.081  24.132  1.00  0.00    -0.206 F 
ATOM     95  C   UNL A   1      52.660  25.902  25.733  1.00  0.00     0.060 A 
BRANCH  95  96
ATOM     96  S   UNL A   1      54.315  25.325  25.296  1.00  0.00     0.124 S 
ATOM     97  O   UNL A   1      54.067  23.918  24.995  1.00  0.00    -0.237 OA
ATOM     98  O   UNL A   1      54.648  26.169  24.153  1.00  0.00    -0.237 OA
ATOM     99  O   UNL A   1      55.094  25.580  26.504  1.00  0.00    -0.744 OA
ENDBRANCH  95  96
ENDBRANCH  63  88
ENDBRANCH  37  38
ENDBRANCH  30  32
ENDBRANCH  29  30
ENDBRANCH  28  29
ENDBRANCH  27  28
ENDBRANCH  26  27
ENDBRANCH  25  26
ENDBRANCH   1  25
TORSDOF 24
ENDMDL
MODEL 3
REMARK VINA RESULT:      -9.3      5.433     12.527
REMARK SMILES Cc1cc(CS(=O)(=O)N[C@@H]2C=C[C@H](C(=O)OCCOCCOCCOC(=O)c3ccc(-c4c5nc(c(-c6c(F)cc(S(=O)(=O)[O-])cc6F)c6ccc([nH]6)c(-c6c(F)cc(S(=O)(=O)[O-])cc6F)c6nc(c(-c7c(F)cc(S(=O)(=O)[O-])cc7F)c7ccc4[nH]7)C=C6)C=C5)cc3)C2)no1
REMARK SMILES IDX 20 1 19 2 18 3 17 4 16 5 14 6 15 7 13 8 10 9 11 10 94 11
REMARK SMILES IDX 12 12 9 13 6 15 7 16 8 17 5 18 4 19 1 20 2 21 3 22 96 23
REMARK SMILES IDX 95 24 21 25 22 26 23 27 24 28 25 29 26 30 27 31 28 32 29 33
REMARK SMILES IDX 93 34 30 35 92 36 31 37 32 38 33 39 86 40 34 41 91 42 85 43
REMARK SMILES IDX 87 44 35 45 90 46 84 47 83 48 36 50 70 51 49 52 69 53 50 54
REMARK SMILES IDX 53 55 68 56 88 57 51 58 52 59 67 61 89 62 54 63 37 64 38 65
REMARK SMILES IDX 47 66 39 67 40 68 46 69 48 70 41 71 42 72 43 73 44 74 45 75
REMARK SMILES IDX 71 76 72 77 81 78 73 79 74 80 80 81 82 82 75 83 76 84 77 85
REMARK SMILES IDX 78 86 79 87 55 88 56 89 65 90 57 91 58 92 64 93 66 94 59 95
REMARK SMILES IDX 60 96 61 97 62 98 63 99
REMARK H PARENT 9 14 87 49 53 60
REMARK Flexibility Score: inf
ROOT
ATOM      1  C   UNL A   1      44.212  20.769  24.942  1.00  0.00     0.188 C 
ENDROOT
BRANCH   1   2
ATOM      2  O   UNL A   1      43.686  21.951  24.381  1.00  0.00    -0.376 OA
BRANCH   2   3
ATOM      3  C   UNL A   1      44.514  23.083  24.162  1.00  0.00     0.202 C 
BRANCH   3   4
ATOM      4  C   UNL A   1      45.060  24.011  25.266  1.00  0.00     0.261 C 
BRANCH   4   5
ATOM      5  O   UNL A   1      46.135  24.854  24.872  1.00  0.00    -0.463 OA
BRANCH   5   6
ATOM      6  C   UNL A   1      46.062  26.174  25.204  1.00  0.00     0.312 C 
ATOM      7  O   UNL A   1      45.594  27.059  24.504  1.00  0.00    -0.252 OA
BRANCH   6   8
ATOM      8  C   UNL A   1      46.586  26.351  26.623  1.00  0.00     0.123 C 
ATOM      9  C   UNL A   1      46.519  28.644  27.391  1.00  0.00     0.093 C 
ATOM     10  C   UNL A   1      47.893  28.240  26.960  1.00  0.00    -0.011 C 
ATOM     11  C   UNL A   1      45.765  27.325  27.460  1.00  0.00     0.043 C 
ATOM     12  C   UNL A   1      47.947  26.968  26.571  1.00  0.00    -0.015 C 
BRANCH   9  13
ATOM     13  N   UNL A   1      46.019  29.532  26.350  1.00  0.00    -0.208 NA
ATOM     14  H   UNL A   1      46.606  29.396  25.526  1.00  0.00     0.141 HD
BRANCH  13  15
ATOM     15  S   UNL A   1      45.991  31.177  26.682  1.00  0.00     0.218 S 
ATOM     16  O   UNL A   1      47.170  31.760  26.081  1.00  0.00    -0.212 OA
ATOM     17  O   UNL A   1      45.792  31.253  28.114  1.00  0.00    -0.212 OA
BRANCH  15  18
ATOM     18  C   UNL A   1      44.475  31.792  25.898  1.00  0.00     0.213 C 
BRANCH  18  19
ATOM     19  C   UNL A   1      44.258  33.257  26.000  1.00  0.00     0.100 A 
ATOM     20  C   UNL A   1      43.912  36.557  27.554  1.00  0.00     0.091 C 
ATOM     21  C   UNL A   1      44.068  35.309  26.782  1.00  0.00     0.133 A 
ATOM     22  C   UNL A   1      44.811  34.164  26.942  1.00  0.00     0.073 A 
ATOM     23  O   UNL A   1      43.265  35.166  25.695  1.00  0.00    -0.361 OA
ATOM     24  N   UNL A   1      43.420  33.895  25.173  1.00  0.00    -0.084 NA
ENDBRANCH  18  19
ENDBRANCH  15  18
ENDBRANCH  13  15
ENDBRANCH   9  13
ENDBRANCH   6   8
ENDBRANCH   5   6
ENDBRANCH   4   5
ENDBRANCH   3   4
ENDBRANCH   2   3
ENDBRANCH   1   2
BRANCH   1  25
ATOM     25  C   UNL A   1      43.255  20.044  25.922  1.00  0.00     0.188 C 
BRANCH  25  26
ATOM     26  O   UNL A   1      41.995  19.590  25.467  1.00  0.00    -0.376 OA
BRANCH  26  27
ATOM     27  C   UNL A   1      40.828  20.021  26.149  1.00  0.00     0.202 C 
BRANCH  27  28
ATOM     28  C   UNL A   1      40.722  21.412  26.814  1.00  0.00     0.261 C 
BRANCH  28  29
ATOM     29  O   UNL A   1      40.539  22.549  25.955  1.00  0.00    -0.460 OA
BRANCH  29  30
ATOM     30  C   UNL A   1      39.362  23.212  26.094  1.00  0.00     0.338 C 
ATOM     31  O   UNL A   1      38.253  22.807  25.786  1.00  0.00    -0.246 OA
BRANCH  30  32
ATOM     32  C   UNL A   1      39.575  24.454  26.870  1.00  0.00     0.060 A 
ATOM     33  C   UNL A   1      40.456  25.424  26.369  1.00  0.00     0.016 A 
ATOM     34  C   UNL A   1      38.962  24.636  28.110  1.00  0.00     0.016 A 
ATOM     35  C   UNL A   1      40.746  26.568  27.116  1.00  0.00     0.010 A 
ATOM     36  C   UNL A   1      39.273  25.772  28.868  1.00  0.00     0.010 A 
ATOM     37  C   UNL A   1      40.188  26.729  28.389  1.00  0.00    -0.014 A 
BRANCH  37  38
ATOM     38  C   UNL A   1      40.685  27.797  29.296  1.00  0.00     0.031 A 
ATOM     39  C   UNL A   1      39.828  29.016  29.512  1.00  0.00     0.074 A 
ATOM     40  C   UNL A   1      41.874  27.694  29.917  1.00  0.00     0.049 A 
ATOM     41  N   UNL A   1      40.088  30.108  30.181  1.00  0.00    -0.248 NA
ATOM     42  C   UNL A   1      38.497  28.999  28.882  1.00  0.00     0.031 C 
ATOM     43  C   UNL A   1      42.779  26.550  29.829  1.00  0.00     0.029 A 
ATOM     44  N   UNL A   1      42.533  28.581  30.735  1.00  0.00    -0.354 N 
ATOM     45  C   UNL A   1      38.963  30.915  30.042  1.00  0.00     0.074 A 
ATOM     46  C   UNL A   1      38.030  30.196  29.203  1.00  0.00     0.031 C 
ATOM     47  C   UNL A   1      43.885  26.811  30.548  1.00  0.00     0.029 A 
ATOM     48  C   UNL A   1      43.784  28.156  31.117  1.00  0.00     0.049 A 
ATOM     49  H   UNL A   1      42.145  29.439  31.022  1.00  0.00     0.167 HD
ATOM     50  C   UNL A   1      38.730  32.141  30.569  1.00  0.00     0.037 A 
ATOM     51  C   UNL A   1      44.747  28.789  31.817  1.00  0.00     0.037 A 
ATOM     52  C   UNL A   1      39.664  32.855  31.402  1.00  0.00     0.049 A 
ATOM     53  C   UNL A   1      44.494  30.185  32.332  1.00  0.00     0.074 A 
ATOM     54  C   UNL A   1      39.509  34.093  31.999  1.00  0.00     0.029 A 
ATOM     55  N   UNL A   1      40.928  32.400  31.747  1.00  0.00    -0.354 N 
ATOM     56  N   UNL A   1      43.419  30.930  32.211  1.00  0.00    -0.248 NA
ATOM     57  C   UNL A   1      45.585  30.829  33.080  1.00  0.00     0.031 C 
ATOM     58  C   UNL A   1      40.702  34.414  32.656  1.00  0.00     0.029 A 
ATOM     59  C   UNL A   1      41.576  33.347  32.525  1.00  0.00     0.049 A 
ATOM     60  H   UNL A   1      41.310  31.533  31.479  1.00  0.00     0.167 HD
ATOM     61  C   UNL A   1      43.693  32.112  32.895  1.00  0.00     0.074 A 
ATOM     62  C   UNL A   1      45.030  31.980  33.434  1.00  0.00     0.031 C 
ATOM     63  C   UNL A   1      42.906  33.203  33.065  1.00  0.00     0.037 A 
BRANCH  50  64
ATOM     64  C   UNL A   1      37.422  32.807  30.234  1.00  0.00     0.058 A 
ATOM     65  C   UNL A   1      37.288  33.672  29.136  1.00  0.00     0.135 A 
ATOM     66  C   UNL A   1      36.276  32.547  31.003  1.00  0.00     0.135 A 
ATOM     67  F   UNL A   1      38.355  33.973  28.377  1.00  0.00    -0.206 F 
ATOM     68  C   UNL A   1      36.073  34.276  28.829  1.00  0.00     0.059 A 
ATOM     69  C   UNL A   1      35.043  33.114  30.696  1.00  0.00     0.059 A 
ATOM     70  F   UNL A   1      36.346  31.729  32.065  1.00  0.00    -0.206 F 
ATOM     71  C   UNL A   1      34.955  33.989  29.615  1.00  0.00     0.060 A 
BRANCH  71  72
ATOM     72  S   UNL A   1      33.384  34.776  29.199  1.00  0.00     0.124 S 
ATOM     73  O   UNL A   1      33.835  36.040  28.623  1.00  0.00    -0.237 OA
ATOM     74  O   UNL A   1      32.800  33.825  28.259  1.00  0.00    -0.237 OA
ATOM     75  O   UNL A   1      32.704  34.881  30.486  1.00  0.00    -0.744 OA
ENDBRANCH  71  72
ENDBRANCH  50  64
BRANCH  51  76
ATOM     76  C   UNL A   1      46.055  28.120  32.063  1.00  0.00     0.058 A 
ATOM     77  C   UNL A   1      46.237  27.259  33.156  1.00  0.00     0.135 A 
ATOM     78  C   UNL A   1      47.154  28.340  31.218  1.00  0.00     0.135 A 
ATOM     79  F   UNL A   1      45.222  27.029  34.003  1.00  0.00    -0.206 F 
ATOM     80  C   UNL A   1      47.462  26.652  33.412  1.00  0.00     0.059 A 
ATOM     81  C   UNL A   1      48.383  27.723  31.436  1.00  0.00     0.059 A 
ATOM     82  F   UNL A   1      47.034  29.151  30.154  1.00  0.00    -0.206 F 
ATOM     83  C   UNL A   1      48.530  26.889  32.543  1.00  0.00     0.060 A 
BRANCH  83  84
ATOM     84  S   UNL A   1      50.106  26.066  32.862  1.00  0.00     0.124 S 
ATOM     85  O   UNL A   1      50.086  25.945  34.315  1.00  0.00    -0.237 OA
ATOM     86  O   UNL A   1      49.956  24.820  32.115  1.00  0.00    -0.237 OA
ATOM     87  O   UNL A   1      51.088  27.000  32.320  1.00  0.00    -0.744 OA
ENDBRANCH  83  84
ENDBRANCH  51  76
BRANCH  63  88
ATOM     88  C   UNL A   1      43.442  34.333  33.908  1.00  0.00     0.058 A 
ATOM     89  C   UNL A   1      44.035  35.469  33.336  1.00  0.00     0.135 A 
ATOM     90  C   UNL A   1      43.304  34.301  35.306  1.00  0.00     0.135 A 
ATOM     91  F   UNL A   1      44.196  35.552  32.006  1.00  0.00    -0.206 F 
ATOM     92  C   UNL A   1      44.495  36.522  34.122  1.00  0.00     0.059 A 
ATOM     93  C   UNL A   1      43.727  35.356  36.108  1.00  0.00     0.059 A 
ATOM     94  F   UNL A   1      42.733  33.245  35.906  1.00  0.00    -0.206 F 
ATOM     95  C   UNL A   1      44.333  36.459  35.507  1.00  0.00     0.060 A 
BRANCH  95  96
ATOM     96  S   UNL A   1      44.901  37.848  36.512  1.00  0.00     0.124 S 
ATOM     97  O   UNL A   1      46.007  37.246  37.250  1.00  0.00    -0.237 OA
ATOM     98  O   UNL A   1      45.276  38.832  35.500  1.00  0.00    -0.237 OA
ATOM     99  O   UNL A   1      43.729  38.195  37.309  1.00  0.00    -0.744 OA
ENDBRANCH  95  96
ENDBRANCH  63  88
ENDBRANCH  37  38
ENDBRANCH  30  32
ENDBRANCH  29  30
ENDBRANCH  28  29
ENDBRANCH  27  28
ENDBRANCH  26  27
ENDBRANCH  25  26
ENDBRANCH   1  25
TORSDOF 24
ENDMDL
