MODEL 1
REMARK VINA RESULT:      -8.9      0.000      0.000
REMARK SMILES C[N@@H+]1CC[N@H+](Cc2ccc(C#CC(C)(C)O)s2)C[C@H]1C(=O)OCCOCCOCCOC(=O)c1ccc(-c2c3nc(c(-c4c(F)cc(S(=O)(=O)[O-])cc4F)c4ccc([nH]4)c(-c4c(F)cc(S(=O)(=O)[O-])cc4F)c4nc(c(-c5c(F)cc(S(=O)(=O)[O-])cc5F)c5ccc2[nH]5)C=C4)C=C3)cc1
REMARK SMILES IDX 26 1 25 2 24 3 23 4 22 5 20 6 21 7 19 8 1 9 2 10 3 11 4 13
REMARK SMILES IDX 18 14 5 15 6 17 7 18 8 19 17 20 9 21 10 22 11 23 12 24 13 25
REMARK SMILES IDX 14 26 15 27 16 28 27 30 28 31 29 32 30 33 31 34 32 35 33 36
REMARK SMILES IDX 34 37 35 38 99 39 36 40 98 41 37 42 38 43 39 44 92 45 40 46
REMARK SMILES IDX 97 47 91 48 93 49 41 50 96 51 90 52 89 53 42 55 76 56 55 57
REMARK SMILES IDX 75 58 56 59 59 60 74 61 94 62 57 63 58 64 73 66 95 67 60 68
REMARK SMILES IDX 43 69 44 70 53 71 45 72 46 73 52 74 54 75 47 76 48 77 49 78
REMARK SMILES IDX 50 79 51 80 77 81 78 82 87 83 79 84 80 85 86 86 88 87 81 88
REMARK SMILES IDX 82 89 83 90 84 91 85 92 61 93 62 94 71 95 63 96 64 97 70 98
REMARK SMILES IDX 72 99 65 100 66 101 67 102 68 103 69 104
REMARK H PARENT 2 12 5 16 16 29 93 54 59 65
REMARK Flexibility Score: inf
ROOT
ATOM      1  C   UNL A   1      40.108  26.794  27.953  1.00  0.00     0.188 C 
ENDROOT
BRANCH   1   2
ATOM      2  O   UNL A   1      40.011  25.375  27.855  1.00  0.00    -0.376 OA
BRANCH   2   3
ATOM      3  C   UNL A   1      39.505  24.855  26.633  1.00  0.00     0.202 C 
BRANCH   3   4
ATOM      4  C   UNL A   1      38.196  24.034  26.670  1.00  0.00     0.261 C 
BRANCH   4   5
ATOM      5  O   UNL A   1      37.596  23.662  25.407  1.00  0.00    -0.459 OA
BRANCH   5   6
ATOM      6  C   UNL A   1      36.241  23.674  25.387  1.00  0.00     0.371 C 
ATOM      7  O   UNL A   1      35.586  24.663  25.725  1.00  0.00    -0.245 OA
BRANCH   6   8
ATOM      8  C   UNL A   1      35.535  22.404  24.861  1.00  0.00     0.350 C 
ATOM      9  C   UNL A   1      37.302  20.719  24.672  1.00  0.00     0.333 C 
ATOM     10  N   UNL A   1      36.024  21.058  25.316  1.00  0.00    -0.316 N 
ATOM     11  C   UNL A   1      35.072  19.993  24.909  1.00  0.00     0.325 C 
ATOM     12  H   UNL A   1      36.122  21.109  26.330  1.00  0.00     0.348 HD
ATOM     13  C   UNL A   1      33.587  20.261  25.214  1.00  0.00     0.324 C 
ATOM     14  C   UNL A   1      34.041  22.624  25.243  1.00  0.00     0.341 C 
ATOM     15  N   UNL A   1      33.090  21.582  24.838  1.00  0.00    -0.320 N 
ATOM     16  H   UNL A   1      32.233  21.712  25.377  1.00  0.00     0.348 HD
BRANCH  15  17
ATOM     17  C   UNL A   1      32.550  21.731  23.481  1.00  0.00     0.310 C 
BRANCH  17  18
ATOM     18  C   UNL A   1      32.341  23.128  22.962  1.00  0.00     0.060 A 
ATOM     19  C   UNL A   1      33.116  23.842  22.067  1.00  0.00     0.022 A 
ATOM     20  S   UNL A   1      30.932  24.021  23.389  1.00  0.00    -0.126 S 
ATOM     21  C   UNL A   1      32.652  25.180  21.891  1.00  0.00     0.029 A 
ATOM     22  C   UNL A   1      31.496  25.425  22.595  1.00  0.00     0.077 A 
BRANCH  22  23
ATOM     23  C   UNL A   1      30.772  26.653  22.577  1.00  0.00    -0.053 C 
ATOM     24  C   UNL A   1      30.334  27.881  22.557  1.00  0.00    -0.063 C 
BRANCH  24  25
ATOM     25  C   UNL A   1      29.823  29.312  22.533  1.00  0.00     0.120 C 
ATOM     26  C   UNL A   1      28.306  29.316  22.363  1.00  0.00     0.056 C 
ATOM     27  C   UNL A   1      30.243  30.035  23.812  1.00  0.00     0.056 C 
BRANCH  25  28
ATOM     28  O   UNL A   1      30.422  29.972  21.422  1.00  0.00    -0.378 OA
ATOM     29  H   UNL A   1      30.295  30.929  21.507  1.00  0.00     0.212 HD
ENDBRANCH  25  28
ENDBRANCH  24  25
ENDBRANCH  22  23
ENDBRANCH  17  18
ENDBRANCH  15  17
ENDBRANCH   6   8
ENDBRANCH   5   6
ENDBRANCH   4   5
ENDBRANCH   3   4
ENDBRANCH   2   3
ENDBRANCH   1   2
BRANCH   1  30
ATOM     30  C   UNL A   1      39.381  27.471  29.130  1.00  0.00     0.188 C 
BRANCH  30  31
ATOM     31  O   UNL A   1      38.928  28.783  28.823  1.00  0.00    -0.376 OA
BRANCH  31  32
ATOM     32  C   UNL A   1      37.613  29.029  28.340  1.00  0.00     0.202 C 
BRANCH  32  33
ATOM     33  C   UNL A   1      37.124  30.466  28.325  1.00  0.00     0.261 C 
BRANCH  33  34
ATOM     34  O   UNL A   1      35.912  30.676  29.041  1.00  0.00    -0.460 OA
BRANCH  34  35
ATOM     35  C   UNL A   1      35.366  31.906  29.152  1.00  0.00     0.338 C 
ATOM     36  O   UNL A   1      34.644  32.495  28.370  1.00  0.00    -0.246 OA
BRANCH  35  37
ATOM     37  C   UNL A   1      35.783  32.387  30.478  1.00  0.00     0.060 A 
ATOM     38  C   UNL A   1      36.483  33.588  30.554  1.00  0.00     0.016 A 
ATOM     39  C   UNL A   1      35.631  31.537  31.592  1.00  0.00     0.016 A 
ATOM     40  C   UNL A   1      37.280  33.784  31.661  1.00  0.00     0.010 A 
ATOM     41  C   UNL A   1      36.407  31.735  32.696  1.00  0.00     0.010 A 
ATOM     42  C   UNL A   1      37.318  32.778  32.636  1.00  0.00    -0.014 A 
BRANCH  42  43
ATOM     43  C   UNL A   1      38.534  32.635  33.399  1.00  0.00     0.031 A 
ATOM     44  C   UNL A   1      38.554  33.266  34.726  1.00  0.00     0.074 A 
ATOM     45  C   UNL A   1      39.499  31.813  32.942  1.00  0.00     0.049 A 
ATOM     46  N   UNL A   1      39.273  34.263  35.114  1.00  0.00    -0.248 NA
ATOM     47  C   UNL A   1      37.567  32.805  35.713  1.00  0.00     0.031 C 
ATOM     48  C   UNL A   1      39.415  30.832  31.847  1.00  0.00     0.029 A 
ATOM     49  N   UNL A   1      40.735  31.595  33.451  1.00  0.00    -0.354 N 
ATOM     50  C   UNL A   1      38.975  34.431  36.460  1.00  0.00     0.074 A 
ATOM     51  C   UNL A   1      37.798  33.645  36.720  1.00  0.00     0.031 C 
ATOM     52  C   UNL A   1      40.466  29.987  31.931  1.00  0.00     0.029 A 
ATOM     53  C   UNL A   1      41.343  30.437  32.998  1.00  0.00     0.049 A 
ATOM     54  H   UNL A   1      41.164  32.209  34.090  1.00  0.00     0.167 HD
ATOM     55  C   UNL A   1      39.848  35.026  37.316  1.00  0.00     0.037 A 
ATOM     56  C   UNL A   1      42.422  29.843  33.564  1.00  0.00     0.037 A 
ATOM     57  C   UNL A   1      40.890  35.729  36.612  1.00  0.00     0.049 A 
ATOM     58  C   UNL A   1      43.094  30.871  34.411  1.00  0.00     0.074 A 
ATOM     59  C   UNL A   1      40.901  36.766  35.698  1.00  0.00     0.029 A 
ATOM     60  N   UNL A   1      42.128  35.138  36.521  1.00  0.00    -0.354 N 
ATOM     61  N   UNL A   1      43.674  31.948  33.945  1.00  0.00    -0.248 NA
ATOM     62  C   UNL A   1      42.724  30.935  35.819  1.00  0.00     0.031 C 
ATOM     63  C   UNL A   1      41.953  36.453  34.790  1.00  0.00     0.029 A 
ATOM     64  C   UNL A   1      42.545  35.263  35.218  1.00  0.00     0.049 A 
ATOM     65  H   UNL A   1      42.624  34.706  37.254  1.00  0.00     0.167 HD
ATOM     66  C   UNL A   1      43.388  32.948  34.869  1.00  0.00     0.074 A 
ATOM     67  C   UNL A   1      42.879  32.243  36.041  1.00  0.00     0.031 C 
ATOM     68  C   UNL A   1      43.318  34.265  34.505  1.00  0.00     0.037 A 
BRANCH  55  69
ATOM     69  C   UNL A   1      39.927  34.710  38.785  1.00  0.00     0.058 A 
ATOM     70  C   UNL A   1      39.667  35.723  39.726  1.00  0.00     0.135 A 
ATOM     71  C   UNL A   1      40.484  33.518  39.302  1.00  0.00     0.135 A 
ATOM     72  F   UNL A   1      39.152  36.900  39.337  1.00  0.00    -0.206 F 
ATOM     73  C   UNL A   1      39.992  35.584  41.075  1.00  0.00     0.059 A 
ATOM     74  C   UNL A   1      40.755  33.335  40.651  1.00  0.00     0.059 A 
ATOM     75  F   UNL A   1      40.887  32.516  38.510  1.00  0.00    -0.206 F 
ATOM     76  C   UNL A   1      40.551  34.391  41.521  1.00  0.00     0.060 A 
BRANCH  76  77
ATOM     77  S   UNL A   1      41.098  34.252  43.232  1.00  0.00     0.124 S 
ATOM     78  O   UNL A   1      42.232  35.168  43.243  1.00  0.00    -0.237 OA
ATOM     79  O   UNL A   1      39.916  34.686  43.968  1.00  0.00    -0.237 OA
ATOM     80  O   UNL A   1      41.424  32.835  43.362  1.00  0.00    -0.744 OA
ENDBRANCH  76  77
ENDBRANCH  55  69
BRANCH  56  81
ATOM     81  C   UNL A   1      42.627  28.378  33.721  1.00  0.00     0.058 A 
ATOM     82  C   UNL A   1      43.563  27.684  32.940  1.00  0.00     0.135 A 
ATOM     83  C   UNL A   1      42.076  27.662  34.808  1.00  0.00     0.135 A 
ATOM     84  F   UNL A   1      44.166  28.296  31.909  1.00  0.00    -0.206 F 
ATOM     85  C   UNL A   1      43.947  26.368  33.230  1.00  0.00     0.059 A 
ATOM     86  C   UNL A   1      42.425  26.348  35.104  1.00  0.00     0.059 A 
ATOM     87  F   UNL A   1      41.241  28.249  35.679  1.00  0.00    -0.206 F 
ATOM     88  C   UNL A   1      43.379  25.712  34.323  1.00  0.00     0.060 A 
BRANCH  88  89
ATOM     89  S   UNL A   1      43.971  24.070  34.788  1.00  0.00     0.124 S 
ATOM     90  O   UNL A   1      44.314  24.260  36.193  1.00  0.00    -0.237 OA
ATOM     91  O   UNL A   1      42.803  23.237  34.521  1.00  0.00    -0.237 OA
ATOM     92  O   UNL A   1      45.106  23.852  33.894  1.00  0.00    -0.744 OA
ENDBRANCH  88  89
ENDBRANCH  56  81
BRANCH  68  93
ATOM     93  C   UNL A   1      43.828  34.666  33.142  1.00  0.00     0.058 A 
ATOM     94  C   UNL A   1      45.182  34.918  32.860  1.00  0.00     0.135 A 
ATOM     95  C   UNL A   1      42.951  34.600  32.048  1.00  0.00     0.135 A 
ATOM     96  F   UNL A   1      46.105  34.886  33.830  1.00  0.00    -0.206 F 
ATOM     97  C   UNL A   1      45.638  35.128  31.557  1.00  0.00     0.059 A 
ATOM     98  C   UNL A   1      43.389  34.774  30.735  1.00  0.00     0.059 A 
ATOM     99  F   UNL A   1      41.657  34.295  32.242  1.00  0.00    -0.206 F 
ATOM    100  C   UNL A   1      44.735  35.048  30.499  1.00  0.00     0.060 A 
BRANCH 100 101
ATOM    101  S   UNL A   1      45.352  35.196  28.807  1.00  0.00     0.124 S 
ATOM    102  O   UNL A   1      46.186  36.391  28.890  1.00  0.00    -0.237 OA
ATOM    103  O   UNL A   1      46.068  33.937  28.616  1.00  0.00    -0.237 OA
ATOM    104  O   UNL A   1      44.136  35.337  28.011  1.00  0.00    -0.744 OA
ENDBRANCH 100 101
ENDBRANCH  68  93
ENDBRANCH  42  43
ENDBRANCH  35  37
ENDBRANCH  34  35
ENDBRANCH  33  34
ENDBRANCH  32  33
ENDBRANCH  31  32
ENDBRANCH  30  31
ENDBRANCH   1  30
TORSDOF 25
ENDMDL
MODEL 2
REMARK VINA RESULT:      -8.8      2.770      8.255
REMARK SMILES C[N@@H+]1CC[N@H+](Cc2ccc(C#CC(C)(C)O)s2)C[C@H]1C(=O)OCCOCCOCCOC(=O)c1ccc(-c2c3nc(c(-c4c(F)cc(S(=O)(=O)[O-])cc4F)c4ccc([nH]4)c(-c4c(F)cc(S(=O)(=O)[O-])cc4F)c4nc(c(-c5c(F)cc(S(=O)(=O)[O-])cc5F)c5ccc2[nH]5)C=C4)C=C3)cc1
REMARK SMILES IDX 26 1 25 2 24 3 23 4 22 5 20 6 21 7 19 8 1 9 2 10 3 11 4 13
REMARK SMILES IDX 18 14 5 15 6 17 7 18 8 19 17 20 9 21 10 22 11 23 12 24 13 25
REMARK SMILES IDX 14 26 15 27 16 28 27 30 28 31 29 32 30 33 31 34 32 35 33 36
REMARK SMILES IDX 34 37 35 38 99 39 36 40 98 41 37 42 38 43 39 44 92 45 40 46
REMARK SMILES IDX 97 47 91 48 93 49 41 50 96 51 90 52 89 53 42 55 76 56 55 57
REMARK SMILES IDX 75 58 56 59 59 60 74 61 94 62 57 63 58 64 73 66 95 67 60 68
REMARK SMILES IDX 43 69 44 70 53 71 45 72 46 73 52 74 54 75 47 76 48 77 49 78
REMARK SMILES IDX 50 79 51 80 77 81 78 82 87 83 79 84 80 85 86 86 88 87 81 88
REMARK SMILES IDX 82 89 83 90 84 91 85 92 61 93 62 94 71 95 63 96 64 97 70 98
REMARK SMILES IDX 72 99 65 100 66 101 67 102 68 103 69 104
REMARK H PARENT 2 12 5 16 16 29 93 54 59 65
REMARK Flexibility Score: inf
ROOT
ATOM      1  C   UNL A   1      39.760  28.455  28.915  1.00  0.00     0.188 C 
ENDROOT
BRANCH   1   2
ATOM      2  O   UNL A   1      40.682  27.555  28.307  1.00  0.00    -0.376 OA
BRANCH   2   3
ATOM      3  C   UNL A   1      41.640  26.949  29.165  1.00  0.00     0.202 C 
BRANCH   3   4
ATOM      4  C   UNL A   1      42.631  25.931  28.557  1.00  0.00     0.261 C 
BRANCH   4   5
ATOM      5  O   UNL A   1      42.242  24.538  28.539  1.00  0.00    -0.459 OA
BRANCH   5   6
ATOM      6  C   UNL A   1      42.947  23.753  27.687  1.00  0.00     0.371 C 
ATOM      7  O   UNL A   1      44.177  23.806  27.609  1.00  0.00    -0.245 OA
BRANCH   6   8
ATOM      8  C   UNL A   1      42.147  22.733  26.848  1.00  0.00     0.350 C 
ATOM      9  C   UNL A   1      43.828  21.231  25.891  1.00  0.00     0.333 C 
ATOM     10  N   UNL A   1      42.643  21.317  26.757  1.00  0.00    -0.316 N 
ATOM     11  C   UNL A   1      41.619  20.445  26.127  1.00  0.00     0.325 C 
ATOM     12  H   UNL A   1      42.857  21.020  27.709  1.00  0.00     0.348 HD
ATOM     13  C   UNL A   1      40.186  20.580  26.677  1.00  0.00     0.324 C 
ATOM     14  C   UNL A   1      40.714  22.794  27.454  1.00  0.00     0.341 C 
ATOM     15  N   UNL A   1      39.691  21.944  26.834  1.00  0.00    -0.320 N 
ATOM     16  H   UNL A   1      38.906  21.874  27.482  1.00  0.00     0.348 HD
BRANCH  15  17
ATOM     17  C   UNL A   1      39.005  22.542  25.682  1.00  0.00     0.310 C 
BRANCH  17  18
ATOM     18  C   UNL A   1      37.567  22.165  25.453  1.00  0.00     0.060 A 
ATOM     19  C   UNL A   1      37.048  20.959  25.018  1.00  0.00     0.022 A 
ATOM     20  S   UNL A   1      36.299  23.262  25.847  1.00  0.00    -0.126 S 
ATOM     21  C   UNL A   1      35.635  21.011  24.827  1.00  0.00     0.029 A 
ATOM     22  C   UNL A   1      35.106  22.227  25.194  1.00  0.00     0.077 A 
BRANCH  22  23
ATOM     23  C   UNL A   1      33.720  22.559  25.162  1.00  0.00    -0.053 C 
ATOM     24  C   UNL A   1      32.532  23.089  25.075  1.00  0.00    -0.063 C 
BRANCH  24  25
ATOM     25  C   UNL A   1      31.148  23.707  24.973  1.00  0.00     0.120 C 
ATOM     26  C   UNL A   1      31.170  25.123  25.545  1.00  0.00     0.056 C 
ATOM     27  C   UNL A   1      30.681  23.700  23.519  1.00  0.00     0.056 C 
BRANCH  25  28
ATOM     28  O   UNL A   1      30.254  22.905  25.740  1.00  0.00    -0.378 OA
ATOM     29  H   UNL A   1      29.339  23.155  25.536  1.00  0.00     0.212 HD
ENDBRANCH  25  28
ENDBRANCH  24  25
ENDBRANCH  22  23
ENDBRANCH  17  18
ENDBRANCH  15  17
ENDBRANCH   6   8
ENDBRANCH   5   6
ENDBRANCH   4   5
ENDBRANCH   3   4
ENDBRANCH   2   3
ENDBRANCH   1   2
BRANCH   1  30
ATOM     30  C   UNL A   1      38.323  28.476  28.361  1.00  0.00     0.188 C 
BRANCH  30  31
ATOM     31  O   UNL A   1      37.687  29.739  28.514  1.00  0.00    -0.376 OA
BRANCH  31  32
ATOM     32  C   UNL A   1      36.614  30.145  27.674  1.00  0.00     0.202 C 
BRANCH  32  33
ATOM     33  C   UNL A   1      35.940  31.470  27.981  1.00  0.00     0.261 C 
BRANCH  33  34
ATOM     34  O   UNL A   1      34.883  31.380  28.930  1.00  0.00    -0.460 OA
BRANCH  34  35
ATOM     35  C   UNL A   1      34.446  32.468  29.600  1.00  0.00     0.338 C 
ATOM     36  O   UNL A   1      33.668  33.329  29.236  1.00  0.00    -0.246 OA
BRANCH  35  37
ATOM     37  C   UNL A   1      35.074  32.373  30.927  1.00  0.00     0.060 A 
ATOM     38  C   UNL A   1      35.076  33.503  31.739  1.00  0.00     0.016 A 
ATOM     39  C   UNL A   1      35.809  31.215  31.254  1.00  0.00     0.016 A 
ATOM     40  C   UNL A   1      36.049  33.579  32.712  1.00  0.00     0.010 A 
ATOM     41  C   UNL A   1      36.764  31.280  32.226  1.00  0.00     0.010 A 
ATOM     42  C   UNL A   1      36.952  32.514  32.830  1.00  0.00    -0.014 A 
BRANCH  42  43
ATOM     43  C   UNL A   1      38.276  32.812  33.318  1.00  0.00     0.031 A 
ATOM     44  C   UNL A   1      39.261  33.249  32.319  1.00  0.00     0.074 A 
ATOM     45  C   UNL A   1      38.491  32.836  34.649  1.00  0.00     0.049 A 
ATOM     46  N   UNL A   1      40.320  32.624  31.931  1.00  0.00    -0.248 NA
ATOM     47  C   UNL A   1      38.972  34.481  31.573  1.00  0.00     0.031 C 
ATOM     48  C   UNL A   1      37.495  32.815  35.731  1.00  0.00     0.029 A 
ATOM     49  N   UNL A   1      39.658  33.011  35.313  1.00  0.00    -0.354 N 
ATOM     50  C   UNL A   1      40.944  33.479  31.032  1.00  0.00     0.074 A 
ATOM     51  C   UNL A   1      39.986  34.505  30.711  1.00  0.00     0.031 C 
ATOM     52  C   UNL A   1      38.089  33.194  36.885  1.00  0.00     0.029 A 
ATOM     53  C   UNL A   1      39.511  33.365  36.643  1.00  0.00     0.049 A 
ATOM     54  H   UNL A   1      40.538  32.896  34.885  1.00  0.00     0.167 HD
ATOM     55  C   UNL A   1      42.280  33.410  30.789  1.00  0.00     0.037 A 
ATOM     56  C   UNL A   1      40.485  33.882  37.431  1.00  0.00     0.037 A 
ATOM     57  C   UNL A   1      42.848  32.181  31.283  1.00  0.00     0.049 A 
ATOM     58  C   UNL A   1      41.790  33.554  36.787  1.00  0.00     0.074 A 
ATOM     59  C   UNL A   1      42.615  30.843  31.026  1.00  0.00     0.029 A 
ATOM     60  N   UNL A   1      43.553  32.218  32.463  1.00  0.00    -0.354 N 
ATOM     61  N   UNL A   1      42.261  32.341  36.648  1.00  0.00    -0.248 NA
ATOM     62  C   UNL A   1      42.366  34.542  35.884  1.00  0.00     0.031 C 
ATOM     63  C   UNL A   1      42.775  30.188  32.281  1.00  0.00     0.029 A 
ATOM     64  C   UNL A   1      43.129  31.156  33.224  1.00  0.00     0.049 A 
ATOM     65  H   UNL A   1      44.235  32.882  32.715  1.00  0.00     0.167 HD
ATOM     66  C   UNL A   1      42.884  32.329  35.405  1.00  0.00     0.074 A 
ATOM     67  C   UNL A   1      42.993  33.734  35.025  1.00  0.00     0.031 C 
ATOM     68  C   UNL A   1      42.998  31.182  34.668  1.00  0.00     0.037 A 
BRANCH  55  69
ATOM     69  C   UNL A   1      43.119  34.589  30.379  1.00  0.00     0.058 A 
ATOM     70  C   UNL A   1      43.269  35.674  31.263  1.00  0.00     0.135 A 
ATOM     71  C   UNL A   1      43.581  34.802  29.060  1.00  0.00     0.135 A 
ATOM     72  F   UNL A   1      42.850  35.581  32.534  1.00  0.00    -0.206 F 
ATOM     73  C   UNL A   1      43.785  36.901  30.850  1.00  0.00     0.059 A 
ATOM     74  C   UNL A   1      44.158  35.994  28.645  1.00  0.00     0.059 A 
ATOM     75  F   UNL A   1      43.399  33.900  28.086  1.00  0.00    -0.206 F 
ATOM     76  C   UNL A   1      44.210  37.054  29.533  1.00  0.00     0.060 A 
BRANCH  76  77
ATOM     77  S   UNL A   1      44.752  38.672  28.957  1.00  0.00     0.124 S 
ATOM     78  O   UNL A   1      43.931  38.838  27.764  1.00  0.00    -0.237 OA
ATOM     79  O   UNL A   1      44.418  39.528  30.089  1.00  0.00    -0.237 OA
ATOM     80  O   UNL A   1      46.180  38.480  28.722  1.00  0.00    -0.744 OA
ENDBRANCH  76  77
ENDBRANCH  55  69
BRANCH  56  81
ATOM     81  C   UNL A   1      40.308  34.960  38.440  1.00  0.00     0.058 A 
ATOM     82  C   UNL A   1      40.726  34.793  39.769  1.00  0.00     0.135 A 
ATOM     83  C   UNL A   1      39.936  36.273  38.069  1.00  0.00     0.135 A 
ATOM     84  F   UNL A   1      41.133  33.589  40.200  1.00  0.00    -0.206 F 
ATOM     85  C   UNL A   1      40.795  35.863  40.670  1.00  0.00     0.059 A 
ATOM     86  C   UNL A   1      39.975  37.348  38.951  1.00  0.00     0.059 A 
ATOM     87  F   UNL A   1      39.607  36.574  36.805  1.00  0.00    -0.206 F 
ATOM     88  C   UNL A   1      40.426  37.142  40.246  1.00  0.00     0.060 A 
BRANCH  88  89
ATOM     89  S   UNL A   1      40.645  38.550  41.356  1.00  0.00     0.124 S 
ATOM     90  O   UNL A   1      39.282  38.783  41.821  1.00  0.00    -0.237 OA
ATOM     91  O   UNL A   1      41.577  38.018  42.345  1.00  0.00    -0.237 OA
ATOM     92  O   UNL A   1      41.192  39.588  40.485  1.00  0.00    -0.744 OA
ENDBRANCH  88  89
ENDBRANCH  56  81
BRANCH  68  93
ATOM     93  C   UNL A   1      42.688  29.862  35.332  1.00  0.00     0.058 A 
ATOM     94  C   UNL A   1      41.401  29.301  35.388  1.00  0.00     0.135 A 
ATOM     95  C   UNL A   1      43.755  29.050  35.749  1.00  0.00     0.135 A 
ATOM     96  F   UNL A   1      40.341  29.962  34.906  1.00  0.00    -0.206 F 
ATOM     97  C   UNL A   1      41.178  28.009  35.867  1.00  0.00     0.059 A 
ATOM     98  C   UNL A   1      43.561  27.745  36.201  1.00  0.00     0.059 A 
ATOM     99  F   UNL A   1      45.018  29.501  35.658  1.00  0.00    -0.206 F 
ATOM    100  C   UNL A   1      42.266  27.234  36.265  1.00  0.00     0.060 A 
BRANCH 100 101
ATOM    101  S   UNL A   1      41.985  25.521  36.765  1.00  0.00     0.124 S 
ATOM    102  O   UNL A   1      43.262  25.168  37.376  1.00  0.00    -0.237 OA
ATOM    103  O   UNL A   1      40.854  25.637  37.682  1.00  0.00    -0.237 OA
ATOM    104  O   UNL A   1      41.686  24.843  35.507  1.00  0.00    -0.744 OA
ENDBRANCH 100 101
ENDBRANCH  68  93
ENDBRANCH  42  43
ENDBRANCH  35  37
ENDBRANCH  34  35
ENDBRANCH  33  34
ENDBRANCH  32  33
ENDBRANCH  31  32
ENDBRANCH  30  31
ENDBRANCH   1  30
TORSDOF 25
ENDMDL
MODEL 3
REMARK VINA RESULT:      -8.6      2.054      3.312
REMARK SMILES C[N@@H+]1CC[N@H+](Cc2ccc(C#CC(C)(C)O)s2)C[C@H]1C(=O)OCCOCCOCCOC(=O)c1ccc(-c2c3nc(c(-c4c(F)cc(S(=O)(=O)[O-])cc4F)c4ccc([nH]4)c(-c4c(F)cc(S(=O)(=O)[O-])cc4F)c4nc(c(-c5c(F)cc(S(=O)(=O)[O-])cc5F)c5ccc2[nH]5)C=C4)C=C3)cc1
REMARK SMILES IDX 26 1 25 2 24 3 23 4 22 5 20 6 21 7 19 8 1 9 2 10 3 11 4 13
REMARK SMILES IDX 18 14 5 15 6 17 7 18 8 19 17 20 9 21 10 22 11 23 12 24 13 25
REMARK SMILES IDX 14 26 15 27 16 28 27 30 28 31 29 32 30 33 31 34 32 35 33 36
REMARK SMILES IDX 34 37 35 38 99 39 36 40 98 41 37 42 38 43 39 44 92 45 40 46
REMARK SMILES IDX 97 47 91 48 93 49 41 50 96 51 90 52 89 53 42 55 76 56 55 57
REMARK SMILES IDX 75 58 56 59 59 60 74 61 94 62 57 63 58 64 73 66 95 67 60 68
REMARK SMILES IDX 43 69 44 70 53 71 45 72 46 73 52 74 54 75 47 76 48 77 49 78
REMARK SMILES IDX 50 79 51 80 77 81 78 82 87 83 79 84 80 85 86 86 88 87 81 88
REMARK SMILES IDX 82 89 83 90 84 91 85 92 61 93 62 94 71 95 63 96 64 97 70 98
REMARK SMILES IDX 72 99 65 100 66 101 67 102 68 103 69 104
REMARK H PARENT 2 12 5 16 16 29 93 54 59 65
REMARK Flexibility Score: inf
ROOT
ATOM      1  C   UNL A   1      39.588  27.953  29.199  1.00  0.00     0.188 C 
ENDROOT
BRANCH   1   2
ATOM      2  O   UNL A   1      40.579  28.386  28.271  1.00  0.00    -0.376 OA
BRANCH   2   3
ATOM      3  C   UNL A   1      40.566  27.766  26.992  1.00  0.00     0.202 C 
BRANCH   3   4
ATOM      4  C   UNL A   1      40.527  26.222  26.925  1.00  0.00     0.261 C 
BRANCH   4   5
ATOM      5  O   UNL A   1      41.788  25.518  26.833  1.00  0.00    -0.459 OA
BRANCH   5   6
ATOM      6  C   UNL A   1      41.843  24.344  27.509  1.00  0.00     0.371 C 
ATOM      7  O   UNL A   1      42.070  24.292  28.720  1.00  0.00    -0.245 OA
BRANCH   6   8
ATOM      8  C   UNL A   1      41.549  23.057  26.706  1.00  0.00     0.350 C 
ATOM      9  C   UNL A   1      43.740  22.241  25.978  1.00  0.00     0.333 C 
ATOM     10  N   UNL A   1      42.535  21.925  26.759  1.00  0.00    -0.316 N 
ATOM     11  C   UNL A   1      41.960  20.704  26.140  1.00  0.00     0.325 C 
ATOM     12  H   UNL A   1      42.760  21.778  27.744  1.00  0.00     0.348 HD
ATOM     13  C   UNL A   1      40.537  20.324  26.589  1.00  0.00     0.324 C 
ATOM     14  C   UNL A   1      40.147  22.613  27.217  1.00  0.00     0.341 C 
ATOM     15  N   UNL A   1      39.564  21.413  26.606  1.00  0.00    -0.320 N 
ATOM     16  H   UNL A   1      38.806  21.090  27.207  1.00  0.00     0.348 HD
BRANCH  15  17
ATOM     17  C   UNL A   1      38.809  21.653  25.369  1.00  0.00     0.310 C 
BRANCH  17  18
ATOM     18  C   UNL A   1      37.312  21.746  25.473  1.00  0.00     0.060 A 
ATOM     19  C   UNL A   1      36.373  20.736  25.367  1.00  0.00     0.022 A 
ATOM     20  S   UNL A   1      36.552  23.238  25.876  1.00  0.00    -0.126 S 
ATOM     21  C   UNL A   1      35.035  21.227  25.424  1.00  0.00     0.029 A 
ATOM     22  C   UNL A   1      34.989  22.584  25.648  1.00  0.00     0.077 A 
BRANCH  22  23
ATOM     23  C   UNL A   1      33.795  23.347  25.802  1.00  0.00    -0.053 C 
ATOM     24  C   UNL A   1      32.589  23.827  25.926  1.00  0.00    -0.063 C 
BRANCH  24  25
ATOM     25  C   UNL A   1      31.183  24.387  26.070  1.00  0.00     0.120 C 
ATOM     26  C   UNL A   1      30.639  24.777  24.698  1.00  0.00     0.056 C 
ATOM     27  C   UNL A   1      30.283  23.360  26.755  1.00  0.00     0.056 C 
BRANCH  25  28
ATOM     28  O   UNL A   1      31.257  25.546  26.894  1.00  0.00    -0.378 OA
ATOM     29  H   UNL A   1      31.056  26.333  26.363  1.00  0.00     0.212 HD
ENDBRANCH  25  28
ENDBRANCH  24  25
ENDBRANCH  22  23
ENDBRANCH  17  18
ENDBRANCH  15  17
ENDBRANCH   6   8
ENDBRANCH   5   6
ENDBRANCH   4   5
ENDBRANCH   3   4
ENDBRANCH   2   3
ENDBRANCH   1   2
BRANCH   1  30
ATOM     30  C   UNL A   1      38.201  28.617  29.112  1.00  0.00     0.188 C 
BRANCH  30  31
ATOM     31  O   UNL A   1      38.175  29.738  28.236  1.00  0.00    -0.376 OA
BRANCH  31  32
ATOM     32  C   UNL A   1      37.083  29.980  27.358  1.00  0.00     0.202 C 
BRANCH  32  33
ATOM     33  C   UNL A   1      35.832  30.609  27.945  1.00  0.00     0.261 C 
BRANCH  33  34
ATOM     34  O   UNL A   1      36.077  31.464  29.056  1.00  0.00    -0.460 OA
BRANCH  34  35
ATOM     35  C   UNL A   1      35.128  32.309  29.514  1.00  0.00     0.338 C 
ATOM     36  O   UNL A   1      34.096  32.664  28.977  1.00  0.00    -0.246 OA
BRANCH  35  37
ATOM     37  C   UNL A   1      35.576  32.685  30.864  1.00  0.00     0.060 A 
ATOM     38  C   UNL A   1      36.238  33.898  31.027  1.00  0.00     0.016 A 
ATOM     39  C   UNL A   1      35.490  31.734  31.901  1.00  0.00     0.016 A 
ATOM     40  C   UNL A   1      37.066  34.022  32.121  1.00  0.00     0.010 A 
ATOM     41  C   UNL A   1      36.297  31.860  32.994  1.00  0.00     0.010 A 
ATOM     42  C   UNL A   1      37.171  32.936  32.999  1.00  0.00    -0.014 A 
BRANCH  42  43
ATOM     43  C   UNL A   1      38.417  32.768  33.708  1.00  0.00     0.031 A 
ATOM     44  C   UNL A   1      38.475  33.311  35.072  1.00  0.00     0.074 A 
ATOM     45  C   UNL A   1      39.379  31.998  33.162  1.00  0.00     0.049 A 
ATOM     46  N   UNL A   1      39.189  34.296  35.498  1.00  0.00    -0.248 NA
ATOM     47  C   UNL A   1      37.533  32.767  36.060  1.00  0.00     0.031 C 
ATOM     48  C   UNL A   1      39.273  31.090  32.009  1.00  0.00     0.029 A 
ATOM     49  N   UNL A   1      40.637  31.773  33.611  1.00  0.00    -0.354 N 
ATOM     50  C   UNL A   1      38.939  34.370  36.863  1.00  0.00     0.074 A 
ATOM     51  C   UNL A   1      37.786  33.543  37.112  1.00  0.00     0.031 C 
ATOM     52  C   UNL A   1      40.342  30.263  31.999  1.00  0.00     0.029 A 
ATOM     53  C   UNL A   1      41.249  30.660  33.061  1.00  0.00     0.049 A 
ATOM     54  H   UNL A   1      41.079  32.353  34.273  1.00  0.00     0.167 HD
ATOM     55  C   UNL A   1      39.832  34.924  37.724  1.00  0.00     0.037 A 
ATOM     56  C   UNL A   1      42.359  30.053  33.548  1.00  0.00     0.037 A 
ATOM     57  C   UNL A   1      40.834  35.694  37.031  1.00  0.00     0.049 A 
ATOM     58  C   UNL A   1      43.043  31.037  34.437  1.00  0.00     0.074 A 
ATOM     59  C   UNL A   1      40.791  36.788  36.188  1.00  0.00     0.029 A 
ATOM     60  N   UNL A   1      42.078  35.136  36.857  1.00  0.00    -0.354 N 
ATOM     61  N   UNL A   1      43.585  32.154  34.022  1.00  0.00    -0.248 NA
ATOM     62  C   UNL A   1      42.724  31.001  35.858  1.00  0.00     0.031 C 
ATOM     63  C   UNL A   1      41.815  36.557  35.224  1.00  0.00     0.029 A 
ATOM     64  C   UNL A   1      42.444  35.354  35.551  1.00  0.00     0.049 A 
ATOM     65  H   UNL A   1      42.609  34.667  37.542  1.00  0.00     0.167 HD
ATOM     66  C   UNL A   1      43.316  33.085  35.020  1.00  0.00     0.074 A 
ATOM     67  C   UNL A   1      42.864  32.294  36.161  1.00  0.00     0.031 C 
ATOM     68  C   UNL A   1      43.209  34.421  34.747  1.00  0.00     0.037 A 
BRANCH  55  69
ATOM     69  C   UNL A   1      39.970  34.515  39.165  1.00  0.00     0.058 A 
ATOM     70  C   UNL A   1      40.436  33.225  39.477  1.00  0.00     0.135 A 
ATOM     71  C   UNL A   1      39.435  35.254  40.245  1.00  0.00     0.135 A 
ATOM     72  F   UNL A   1      40.950  32.434  38.521  1.00  0.00    -0.206 F 
ATOM     73  C   UNL A   1      40.322  32.685  40.758  1.00  0.00     0.059 A 
ATOM     74  C   UNL A   1      39.372  34.760  41.540  1.00  0.00     0.059 A 
ATOM     75  F   UNL A   1      38.853  36.449  40.074  1.00  0.00    -0.206 F 
ATOM     76  C   UNL A   1      39.773  33.457  41.777  1.00  0.00     0.060 A 
BRANCH  76  77
ATOM     77  S   UNL A   1      39.499  32.722  43.398  1.00  0.00     0.124 S 
ATOM     78  O   UNL A   1      39.345  31.315  43.050  1.00  0.00    -0.237 OA
ATOM     79  O   UNL A   1      40.724  33.077  44.106  1.00  0.00    -0.237 OA
ATOM     80  O   UNL A   1      38.293  33.396  43.869  1.00  0.00    -0.744 OA
ENDBRANCH  76  77
ENDBRANCH  55  69
BRANCH  56  81
ATOM     81  C   UNL A   1      42.597  28.585  33.601  1.00  0.00     0.058 A 
ATOM     82  C   UNL A   1      43.644  27.989  32.882  1.00  0.00     0.135 A 
ATOM     83  C   UNL A   1      41.946  27.760  34.545  1.00  0.00     0.135 A 
ATOM     84  F   UNL A   1      44.343  28.708  31.990  1.00  0.00    -0.206 F 
ATOM     85  C   UNL A   1      44.038  26.663  33.101  1.00  0.00     0.059 A 
ATOM     86  C   UNL A   1      42.305  26.433  34.766  1.00  0.00     0.059 A 
ATOM     87  F   UNL A   1      40.992  28.243  35.355  1.00  0.00    -0.206 F 
ATOM     88  C   UNL A   1      43.367  25.896  34.055  1.00  0.00     0.060 A 
BRANCH  88  89
ATOM     89  S   UNL A   1      43.958  24.233  34.444  1.00  0.00     0.124 S 
ATOM     90  O   UNL A   1      44.255  23.701  33.119  1.00  0.00    -0.237 OA
ATOM     91  O   UNL A   1      45.110  24.509  35.296  1.00  0.00    -0.237 OA
ATOM     92  O   UNL A   1      42.819  23.618  35.122  1.00  0.00    -0.744 OA
ENDBRANCH  88  89
ENDBRANCH  56  81
BRANCH  68  93
ATOM     93  C   UNL A   1      43.660  34.921  33.396  1.00  0.00     0.058 A 
ATOM     94  C   UNL A   1      44.998  35.216  33.081  1.00  0.00     0.135 A 
ATOM     95  C   UNL A   1      42.743  34.911  32.332  1.00  0.00     0.135 A 
ATOM     96  F   UNL A   1      45.957  35.137  34.012  1.00  0.00    -0.206 F 
ATOM     97  C   UNL A   1      45.401  35.520  31.779  1.00  0.00     0.059 A 
ATOM     98  C   UNL A   1      43.128  35.181  31.019  1.00  0.00     0.059 A 
ATOM     99  F   UNL A   1      41.462  34.571  32.553  1.00  0.00    -0.206 F 
ATOM    100  C   UNL A   1      44.460  35.494  30.752  1.00  0.00     0.060 A 
BRANCH 100 101
ATOM    101  S   UNL A   1      45.011  35.765  29.053  1.00  0.00     0.124 S 
ATOM    102  O   UNL A   1      43.905  35.208  28.281  1.00  0.00    -0.237 OA
ATOM    103  O   UNL A   1      45.156  37.218  28.993  1.00  0.00    -0.237 OA
ATOM    104  O   UNL A   1      46.264  35.020  28.977  1.00  0.00    -0.744 OA
ENDBRANCH 100 101
ENDBRANCH  68  93
ENDBRANCH  42  43
ENDBRANCH  35  37
ENDBRANCH  34  35
ENDBRANCH  33  34
ENDBRANCH  32  33
ENDBRANCH  31  32
ENDBRANCH  30  31
ENDBRANCH   1  30
TORSDOF 25
ENDMDL
