MODEL 1
REMARK VINA RESULT:      -8.7      0.000      0.000
REMARK SMILES COc1cc(NC(=O)/C=C/c2cccc([N+](=O)[O-])c2)c(C(=O)OCCOCCOCCOC(=O)c2ccc(-c3c4nc(c(-c5c(F)cc(S(=O)(=O)[O-])cc5F)c5ccc([nH]5)c(-c5c(F)cc(S(=O)(=O)[O-])cc5F)c5nc(c(-c6c(F)cc(S(=O)(=O)[O-])cc6F)c6ccc3[nH]6)C=C5)C=C4)cc2)cc1OC
REMARK SMILES IDX 27 1 26 2 25 3 24 4 23 5 21 6 22 7 20 8 3 9 4 10 102 11 5 12
REMARK SMILES IDX 101 13 2 14 1 15 103 16 104 17 6 18 7 19 8 21 9 22 10 23
REMARK SMILES IDX 11 24 12 25 19 26 13 27 15 28 14 29 16 30 17 31 18 32 28 33
REMARK SMILES IDX 29 34 30 35 31 36 32 37 33 38 34 39 35 40 36 41 100 42 37 43
REMARK SMILES IDX 99 44 38 45 39 46 40 47 93 48 41 49 98 50 92 51 94 52 42 53
REMARK SMILES IDX 97 54 91 55 90 56 43 58 77 59 56 60 76 61 57 62 60 63 75 64
REMARK SMILES IDX 95 65 58 66 59 67 74 69 96 70 61 71 44 72 45 73 54 74 46 75
REMARK SMILES IDX 47 76 53 77 55 78 48 79 49 80 50 81 51 82 52 83 78 84 79 85
REMARK SMILES IDX 88 86 80 87 81 88 87 89 89 90 82 91 83 92 84 93 85 94 86 95
REMARK SMILES IDX 62 96 63 97 72 98 64 99 65 100 71 101 73 102 66 103 67 104
REMARK SMILES IDX 68 105 69 106 70 107
REMARK H PARENT 6 20 94 57 60 68
REMARK Flexibility Score: inf
ROOT
ATOM      1  C   UNL A   1      33.523  25.933  24.875  1.00  0.00     0.188 C 
ENDROOT
BRANCH   1   2
ATOM      2  O   UNL A   1      34.731  25.297  24.491  1.00  0.00    -0.376 OA
BRANCH   2   3
ATOM      3  C   UNL A   1      35.048  24.101  25.180  1.00  0.00     0.202 C 
BRANCH   3   4
ATOM      4  C   UNL A   1      36.468  23.534  25.012  1.00  0.00     0.261 C 
BRANCH   4   5
ATOM      5  O   UNL A   1      37.170  23.153  26.208  1.00  0.00    -0.460 OA
BRANCH   5   6
ATOM      6  C   UNL A   1      38.406  22.621  26.076  1.00  0.00     0.340 C 
ATOM      7  O   UNL A   1      38.697  21.668  25.375  1.00  0.00    -0.246 OA
BRANCH   6   8
ATOM      8  C   UNL A   1      39.406  23.440  26.825  1.00  0.00     0.087 A 
ATOM      9  C   UNL A   1      41.148  25.022  28.344  1.00  0.00     0.162 A 
ATOM     10  C   UNL A   1      41.337  23.641  28.215  1.00  0.00     0.077 A 
ATOM     11  C   UNL A   1      40.104  25.638  27.661  1.00  0.00     0.161 A 
ATOM     12  C   UNL A   1      40.569  22.854  27.363  1.00  0.00     0.060 A 
ATOM     13  C   UNL A   1      39.207  24.831  26.951  1.00  0.00     0.068 A 
BRANCH   9  14
ATOM     14  O   UNL A   1      42.139  25.742  28.955  1.00  0.00    -0.493 OA
ATOM     15  C   UNL A   1      42.908  26.544  28.062  1.00  0.00     0.278 C 
ENDBRANCH   9  14
BRANCH  11  16
ATOM     16  O   UNL A   1      39.838  26.976  27.567  1.00  0.00    -0.493 OA
ATOM     17  C   UNL A   1      39.405  27.647  28.741  1.00  0.00     0.278 C 
ENDBRANCH  11  16
BRANCH  12  18
ATOM     18  N   UNL A   1      41.007  21.590  26.887  1.00  0.00    -0.322 N 
ATOM     19  C   UNL A   1      42.046  21.157  26.104  1.00  0.00     0.248 C 
ATOM     20  H   UNL A   1      40.429  20.852  27.188  1.00  0.00     0.170 HD
ATOM     21  O   UNL A   1      41.982  20.028  25.621  1.00  0.00    -0.270 OA
BRANCH  19  22
ATOM     22  C   UNL A   1      43.288  21.940  25.925  1.00  0.00     0.072 C 
ATOM     23  C   UNL A   1      43.442  22.932  25.033  1.00  0.00     0.014 C 
BRANCH  23  24
ATOM     24  C   UNL A   1      44.587  23.862  25.091  1.00  0.00    -0.019 A 
ATOM     25  C   UNL A   1      45.865  23.390  25.453  1.00  0.00     0.008 A 
ATOM     26  C   UNL A   1      44.398  25.239  24.945  1.00  0.00     0.093 A 
ATOM     27  C   UNL A   1      46.920  24.265  25.720  1.00  0.00     0.008 A 
ATOM     28  C   UNL A   1      45.472  26.115  25.181  1.00  0.00     0.270 A 
ATOM     29  C   UNL A   1      46.724  25.635  25.593  1.00  0.00     0.085 A 
BRANCH  28  30
ATOM     30  N   UNL A   1      45.286  27.562  25.021  1.00  0.00     0.062 N 
ATOM     31  O   UNL A   1      44.312  28.080  25.588  1.00  0.00    -0.258 OA
ATOM     32  O   UNL A   1      46.100  28.174  24.321  1.00  0.00    -0.258 OA
ENDBRANCH  28  30
ENDBRANCH  23  24
ENDBRANCH  19  22
ENDBRANCH  12  18
ENDBRANCH   6   8
ENDBRANCH   5   6
ENDBRANCH   4   5
ENDBRANCH   3   4
ENDBRANCH   2   3
ENDBRANCH   1   2
BRANCH   1  33
ATOM     33  C   UNL A   1      33.679  27.455  25.061  1.00  0.00     0.188 C 
BRANCH  33  34
ATOM     34  O   UNL A   1      33.526  28.037  26.347  1.00  0.00    -0.376 OA
BRANCH  34  35
ATOM     35  C   UNL A   1      34.312  29.168  26.692  1.00  0.00     0.202 C 
BRANCH  35  36
ATOM     36  C   UNL A   1      33.666  30.496  27.146  1.00  0.00     0.261 C 
BRANCH  36  37
ATOM     37  O   UNL A   1      34.169  31.104  28.347  1.00  0.00    -0.460 OA
BRANCH  37  38
ATOM     38  C   UNL A   1      34.443  32.428  28.273  1.00  0.00     0.338 C 
ATOM     39  O   UNL A   1      33.647  33.332  28.056  1.00  0.00    -0.246 OA
BRANCH  38  40
ATOM     40  C   UNL A   1      35.846  32.668  28.675  1.00  0.00     0.060 A 
ATOM     41  C   UNL A   1      36.829  31.736  28.307  1.00  0.00     0.016 A 
ATOM     42  C   UNL A   1      36.190  33.779  29.448  1.00  0.00     0.016 A 
ATOM     43  C   UNL A   1      38.152  31.908  28.717  1.00  0.00     0.010 A 
ATOM     44  C   UNL A   1      37.511  33.929  29.888  1.00  0.00     0.010 A 
ATOM     45  C   UNL A   1      38.494  32.981  29.547  1.00  0.00    -0.014 A 
BRANCH  45  46
ATOM     46  C   UNL A   1      39.831  33.015  30.195  1.00  0.00     0.031 A 
ATOM     47  C   UNL A   1      40.788  34.112  29.812  1.00  0.00     0.074 A 
ATOM     48  C   UNL A   1      40.181  32.114  31.131  1.00  0.00     0.049 A 
ATOM     49  N   UNL A   1      42.025  34.302  30.190  1.00  0.00    -0.248 NA
ATOM     50  C   UNL A   1      40.284  35.127  28.872  1.00  0.00     0.031 C 
ATOM     51  C   UNL A   1      39.327  31.035  31.621  1.00  0.00     0.029 A 
ATOM     52  N   UNL A   1      41.350  31.961  31.838  1.00  0.00    -0.354 N 
ATOM     53  C   UNL A   1      42.450  35.451  29.533  1.00  0.00     0.074 A 
ATOM     54  C   UNL A   1      41.348  35.900  28.709  1.00  0.00     0.031 C 
ATOM     55  C   UNL A   1      39.998  30.329  32.548  1.00  0.00     0.029 A 
ATOM     56  C   UNL A   1      41.346  30.877  32.687  1.00  0.00     0.049 A 
ATOM     57  H   UNL A   1      42.118  32.570  31.746  1.00  0.00     0.167 HD
ATOM     58  C   UNL A   1      43.647  36.077  29.614  1.00  0.00     0.037 A 
ATOM     59  C   UNL A   1      42.326  30.371  33.465  1.00  0.00     0.037 A 
ATOM     60  C   UNL A   1      44.742  35.626  30.433  1.00  0.00     0.049 A 
ATOM     61  C   UNL A   1      43.676  31.051  33.480  1.00  0.00     0.074 A 
ATOM     62  C   UNL A   1      46.002  36.183  30.567  1.00  0.00     0.029 A 
ATOM     63  N   UNL A   1      44.709  34.512  31.260  1.00  0.00    -0.354 N 
ATOM     64  N   UNL A   1      44.065  32.134  32.849  1.00  0.00    -0.248 NA
ATOM     65  C   UNL A   1      44.724  30.435  34.309  1.00  0.00     0.031 C 
ATOM     66  C   UNL A   1      46.746  35.381  31.436  1.00  0.00     0.029 A 
ATOM     67  C   UNL A   1      45.932  34.358  31.893  1.00  0.00     0.049 A 
ATOM     68  H   UNL A   1      43.932  33.920  31.378  1.00  0.00     0.167 HD
ATOM     69  C   UNL A   1      45.388  32.343  33.230  1.00  0.00     0.074 A 
ATOM     70  C   UNL A   1      45.727  31.288  34.159  1.00  0.00     0.031 C 
ATOM     71  C   UNL A   1      46.248  33.317  32.839  1.00  0.00     0.037 A 
BRANCH  58  72
ATOM     72  C   UNL A   1      43.849  37.316  28.786  1.00  0.00     0.058 A 
ATOM     73  C   UNL A   1      43.715  38.600  29.337  1.00  0.00     0.135 A 
ATOM     74  C   UNL A   1      44.253  37.218  27.444  1.00  0.00     0.135 A 
ATOM     75  F   UNL A   1      43.309  38.752  30.608  1.00  0.00    -0.206 F 
ATOM     76  C   UNL A   1      43.970  39.742  28.587  1.00  0.00     0.059 A 
ATOM     77  C   UNL A   1      44.540  38.347  26.683  1.00  0.00     0.059 A 
ATOM     78  F   UNL A   1      44.389  36.015  26.865  1.00  0.00    -0.206 F 
ATOM     79  C   UNL A   1      44.391  39.606  27.262  1.00  0.00     0.060 A 
BRANCH  79  80
ATOM     80  S   UNL A   1      44.763  41.100  26.319  1.00  0.00     0.124 S 
ATOM     81  O   UNL A   1      45.468  41.905  27.311  1.00  0.00    -0.237 OA
ATOM     82  O   UNL A   1      45.580  40.581  25.226  1.00  0.00    -0.237 OA
ATOM     83  O   UNL A   1      43.446  41.597  25.933  1.00  0.00    -0.744 OA
ENDBRANCH  79  80
ENDBRANCH  58  72
BRANCH  59  84
ATOM     84  C   UNL A   1      42.100  29.135  34.268  1.00  0.00     0.058 A 
ATOM     85  C   UNL A   1      41.602  29.197  35.580  1.00  0.00     0.135 A 
ATOM     86  C   UNL A   1      42.441  27.869  33.765  1.00  0.00     0.135 A 
ATOM     87  F   UNL A   1      41.272  30.381  36.118  1.00  0.00    -0.206 F 
ATOM     88  C   UNL A   1      41.493  28.059  36.376  1.00  0.00     0.059 A 
ATOM     89  C   UNL A   1      42.304  26.713  34.528  1.00  0.00     0.059 A 
ATOM     90  F   UNL A   1      42.917  27.747  32.516  1.00  0.00    -0.206 F 
ATOM     91  C   UNL A   1      41.852  26.821  35.841  1.00  0.00     0.060 A 
BRANCH  91  92
ATOM     92  S   UNL A   1      41.713  25.352  36.882  1.00  0.00     0.124 S 
ATOM     93  O   UNL A   1      43.022  25.323  37.525  1.00  0.00    -0.237 OA
ATOM     94  O   UNL A   1      40.586  25.690  37.745  1.00  0.00    -0.237 OA
ATOM     95  O   UNL A   1      41.459  24.282  35.922  1.00  0.00    -0.744 OA
ENDBRANCH  91  92
ENDBRANCH  59  84
BRANCH  71  96
ATOM     96  C   UNL A   1      47.623  33.327  33.454  1.00  0.00     0.058 A 
ATOM     97  C   UNL A   1      47.899  34.009  34.650  1.00  0.00     0.135 A 
ATOM     98  C   UNL A   1      48.667  32.595  32.865  1.00  0.00     0.135 A 
ATOM     99  F   UNL A   1      46.939  34.729  35.255  1.00  0.00    -0.206 F 
ATOM    100  C   UNL A   1      49.165  33.986  35.225  1.00  0.00     0.059 A 
ATOM    101  C   UNL A   1      49.933  32.530  33.441  1.00  0.00     0.059 A 
ATOM    102  F   UNL A   1      48.457  31.914  31.727  1.00  0.00    -0.206 F 
ATOM    103  C   UNL A   1      50.175  33.240  34.614  1.00  0.00     0.060 A 
BRANCH 103 104
ATOM    104  S   UNL A   1      51.804  33.191  35.392  1.00  0.00     0.124 S 
ATOM    105  O   UNL A   1      52.583  32.457  34.401  1.00  0.00    -0.237 OA
ATOM    106  O   UNL A   1      52.127  34.608  35.530  1.00  0.00    -0.237 OA
ATOM    107  O   UNL A   1      51.562  32.484  36.647  1.00  0.00    -0.744 OA
ENDBRANCH 103 104
ENDBRANCH  71  96
ENDBRANCH  45  46
ENDBRANCH  38  40
ENDBRANCH  37  38
ENDBRANCH  36  37
ENDBRANCH  35  36
ENDBRANCH  34  35
ENDBRANCH  33  34
ENDBRANCH   1  33
TORSDOF 26
ENDMDL
MODEL 2
REMARK VINA RESULT:      -8.4      6.269     13.199
REMARK SMILES COc1cc(NC(=O)/C=C/c2cccc([N+](=O)[O-])c2)c(C(=O)OCCOCCOCCOC(=O)c2ccc(-c3c4nc(c(-c5c(F)cc(S(=O)(=O)[O-])cc5F)c5ccc([nH]5)c(-c5c(F)cc(S(=O)(=O)[O-])cc5F)c5nc(c(-c6c(F)cc(S(=O)(=O)[O-])cc6F)c6ccc3[nH]6)C=C5)C=C4)cc2)cc1OC
REMARK SMILES IDX 27 1 26 2 25 3 24 4 23 5 21 6 22 7 20 8 3 9 4 10 102 11 5 12
REMARK SMILES IDX 101 13 2 14 1 15 103 16 104 17 6 18 7 19 8 21 9 22 10 23
REMARK SMILES IDX 11 24 12 25 19 26 13 27 15 28 14 29 16 30 17 31 18 32 28 33
REMARK SMILES IDX 29 34 30 35 31 36 32 37 33 38 34 39 35 40 36 41 100 42 37 43
REMARK SMILES IDX 99 44 38 45 39 46 40 47 93 48 41 49 98 50 92 51 94 52 42 53
REMARK SMILES IDX 97 54 91 55 90 56 43 58 77 59 56 60 76 61 57 62 60 63 75 64
REMARK SMILES IDX 95 65 58 66 59 67 74 69 96 70 61 71 44 72 45 73 54 74 46 75
REMARK SMILES IDX 47 76 53 77 55 78 48 79 49 80 50 81 51 82 52 83 78 84 79 85
REMARK SMILES IDX 88 86 80 87 81 88 87 89 89 90 82 91 83 92 84 93 85 94 86 95
REMARK SMILES IDX 62 96 63 97 72 98 64 99 65 100 71 101 73 102 66 103 67 104
REMARK SMILES IDX 68 105 69 106 70 107
REMARK H PARENT 6 20 94 57 60 68
REMARK Flexibility Score: inf
ROOT
ATOM      1  C   UNL A   1      51.054  24.170  39.132  1.00  0.00     0.188 C 
ENDROOT
BRANCH   1   2
ATOM      2  O   UNL A   1      51.209  23.026  39.956  1.00  0.00    -0.376 OA
BRANCH   2   3
ATOM      3  C   UNL A   1      50.082  22.173  40.050  1.00  0.00     0.202 C 
BRANCH   3   4
ATOM      4  C   UNL A   1      50.334  20.687  40.360  1.00  0.00     0.261 C 
BRANCH   4   5
ATOM      5  O   UNL A   1      50.203  19.757  39.272  1.00  0.00    -0.460 OA
BRANCH   5   6
ATOM      6  C   UNL A   1      49.403  20.100  38.237  1.00  0.00     0.340 C 
ATOM      7  O   UNL A   1      49.733  20.778  37.279  1.00  0.00    -0.246 OA
BRANCH   6   8
ATOM      8  C   UNL A   1      48.074  19.430  38.363  1.00  0.00     0.087 A 
ATOM      9  C   UNL A   1      45.553  18.273  38.753  1.00  0.00     0.162 A 
ATOM     10  C   UNL A   1      45.838  19.043  37.619  1.00  0.00     0.077 A 
ATOM     11  C   UNL A   1      46.555  18.029  39.686  1.00  0.00     0.161 A 
ATOM     12  C   UNL A   1      47.115  19.516  37.334  1.00  0.00     0.060 A 
ATOM     13  C   UNL A   1      47.794  18.659  39.511  1.00  0.00     0.068 A 
BRANCH   9  14
ATOM     14  O   UNL A   1      44.360  17.603  38.779  1.00  0.00    -0.493 OA
ATOM     15  C   UNL A   1      44.364  16.382  38.044  1.00  0.00     0.278 C 
ENDBRANCH   9  14
BRANCH  11  16
ATOM     16  O   UNL A   1      46.501  17.211  40.780  1.00  0.00    -0.493 OA
ATOM     17  C   UNL A   1      47.731  16.823  41.375  1.00  0.00     0.278 C 
ENDBRANCH  11  16
BRANCH  12  18
ATOM     18  N   UNL A   1      47.517  19.895  36.026  1.00  0.00    -0.322 N 
ATOM     19  C   UNL A   1      47.168  20.898  35.159  1.00  0.00     0.248 C 
ATOM     20  H   UNL A   1      48.205  19.298  35.654  1.00  0.00     0.170 HD
ATOM     21  O   UNL A   1      47.479  20.781  33.975  1.00  0.00    -0.270 OA
BRANCH  19  22
ATOM     22  C   UNL A   1      46.551  22.164  35.612  1.00  0.00     0.072 C 
ATOM     23  C   UNL A   1      45.248  22.465  35.487  1.00  0.00     0.014 C 
BRANCH  23  24
ATOM     24  C   UNL A   1      44.637  23.600  36.207  1.00  0.00    -0.019 A 
ATOM     25  C   UNL A   1      45.187  24.045  37.426  1.00  0.00     0.008 A 
ATOM     26  C   UNL A   1      43.424  24.148  35.780  1.00  0.00     0.093 A 
ATOM     27  C   UNL A   1      44.525  24.969  38.234  1.00  0.00     0.008 A 
ATOM     28  C   UNL A   1      42.777  25.105  36.580  1.00  0.00     0.270 A 
ATOM     29  C   UNL A   1      43.309  25.498  37.817  1.00  0.00     0.085 A 
BRANCH  28  30
ATOM     30  N   UNL A   1      41.507  25.693  36.136  1.00  0.00     0.062 N 
ATOM     31  O   UNL A   1      41.472  26.922  35.970  1.00  0.00    -0.258 OA
ATOM     32  O   UNL A   1      40.547  24.933  35.969  1.00  0.00    -0.258 OA
ENDBRANCH  28  30
ENDBRANCH  23  24
ENDBRANCH  19  22
ENDBRANCH  12  18
ENDBRANCH   6   8
ENDBRANCH   5   6
ENDBRANCH   4   5
ENDBRANCH   3   4
ENDBRANCH   2   3
ENDBRANCH   1   2
BRANCH   1  33
ATOM     33  C   UNL A   1      52.368  24.951  38.938  1.00  0.00     0.188 C 
BRANCH  33  34
ATOM     34  O   UNL A   1      52.344  26.276  38.427  1.00  0.00    -0.376 OA
BRANCH  34  35
ATOM     35  C   UNL A   1      51.540  26.564  37.293  1.00  0.00     0.202 C 
BRANCH  35  36
ATOM     36  C   UNL A   1      50.623  27.806  37.245  1.00  0.00     0.261 C 
BRANCH  36  37
ATOM     37  O   UNL A   1      49.255  27.608  36.849  1.00  0.00    -0.460 OA
BRANCH  37  38
ATOM     38  C   UNL A   1      48.321  28.240  37.600  1.00  0.00     0.338 C 
ATOM     39  O   UNL A   1      48.447  28.630  38.753  1.00  0.00    -0.246 OA
BRANCH  38  40
ATOM     40  C   UNL A   1      47.147  28.566  36.761  1.00  0.00     0.060 A 
ATOM     41  C   UNL A   1      47.225  29.649  35.872  1.00  0.00     0.016 A 
ATOM     42  C   UNL A   1      45.961  27.840  36.877  1.00  0.00     0.016 A 
ATOM     43  C   UNL A   1      46.117  30.014  35.106  1.00  0.00     0.010 A 
ATOM     44  C   UNL A   1      44.839  28.231  36.134  1.00  0.00     0.010 A 
ATOM     45  C   UNL A   1      44.903  29.335  35.264  1.00  0.00    -0.014 A 
BRANCH  45  46
ATOM     46  C   UNL A   1      43.665  29.886  34.654  1.00  0.00     0.031 A 
ATOM     47  C   UNL A   1      43.247  29.385  33.297  1.00  0.00     0.074 A 
ATOM     48  C   UNL A   1      42.904  30.787  35.302  1.00  0.00     0.049 A 
ATOM     49  N   UNL A   1      42.251  29.768  32.543  1.00  0.00    -0.248 NA
ATOM     50  C   UNL A   1      44.067  28.312  32.711  1.00  0.00     0.031 C 
ATOM     51  C   UNL A   1      43.176  31.314  36.636  1.00  0.00     0.029 A 
ATOM     52  N   UNL A   1      41.745  31.422  34.922  1.00  0.00    -0.354 N 
ATOM     53  C   UNL A   1      42.325  28.990  31.393  1.00  0.00     0.074 A 
ATOM     54  C   UNL A   1      43.482  28.133  31.535  1.00  0.00     0.031 C 
ATOM     55  C   UNL A   1      42.213  32.193  36.967  1.00  0.00     0.029 A 
ATOM     56  C   UNL A   1      41.280  32.326  35.850  1.00  0.00     0.049 A 
ATOM     57  H   UNL A   1      41.290  31.247  34.066  1.00  0.00     0.167 HD
ATOM     58  C   UNL A   1      41.500  28.989  30.319  1.00  0.00     0.037 A 
ATOM     59  C   UNL A   1      40.236  33.180  35.793  1.00  0.00     0.037 A 
ATOM     60  C   UNL A   1      40.352  29.846  30.180  1.00  0.00     0.049 A 
ATOM     61  C   UNL A   1      39.375  33.206  34.551  1.00  0.00     0.074 A 
ATOM     62  C   UNL A   1      39.467  29.931  29.120  1.00  0.00     0.029 A 
ATOM     63  N   UNL A   1      39.926  30.764  31.130  1.00  0.00    -0.354 N 
ATOM     64  N   UNL A   1      39.461  32.468  33.469  1.00  0.00    -0.248 NA
ATOM     65  C   UNL A   1      38.279  34.186  34.519  1.00  0.00     0.031 C 
ATOM     66  C   UNL A   1      38.535  30.931  29.406  1.00  0.00     0.029 A 
ATOM     67  C   UNL A   1      38.801  31.429  30.671  1.00  0.00     0.049 A 
ATOM     68  H   UNL A   1      40.360  30.918  31.999  1.00  0.00     0.167 HD
ATOM     69  C   UNL A   1      38.414  32.875  32.646  1.00  0.00     0.074 A 
ATOM     70  C   UNL A   1      37.697  33.907  33.362  1.00  0.00     0.031 C 
ATOM     71  C   UNL A   1      38.079  32.437  31.406  1.00  0.00     0.037 A 
BRANCH  58  72
ATOM     72  C   UNL A   1      41.813  28.039  29.196  1.00  0.00     0.058 A 
ATOM     73  C   UNL A   1      42.867  28.278  28.301  1.00  0.00     0.135 A 
ATOM     74  C   UNL A   1      41.096  26.838  29.058  1.00  0.00     0.135 A 
ATOM     75  F   UNL A   1      43.570  29.420  28.373  1.00  0.00    -0.206 F 
ATOM     76  C   UNL A   1      43.197  27.364  27.307  1.00  0.00     0.059 A 
ATOM     77  C   UNL A   1      41.425  25.898  28.087  1.00  0.00     0.059 A 
ATOM     78  F   UNL A   1      40.073  26.563  29.882  1.00  0.00    -0.206 F 
ATOM     79  C   UNL A   1      42.476  26.171  27.213  1.00  0.00     0.060 A 
BRANCH  79  80
ATOM     80  S   UNL A   1      42.950  24.976  25.946  1.00  0.00     0.124 S 
ATOM     81  O   UNL A   1      41.934  23.943  26.123  1.00  0.00    -0.237 OA
ATOM     82  O   UNL A   1      42.846  25.765  24.722  1.00  0.00    -0.237 OA
ATOM     83  O   UNL A   1      44.305  24.592  26.328  1.00  0.00    -0.744 OA
ENDBRANCH  79  80
ENDBRANCH  58  72
BRANCH  59  84
ATOM     84  C   UNL A   1      39.956  34.118  36.919  1.00  0.00     0.058 A 
ATOM     85  C   UNL A   1      40.613  35.355  37.019  1.00  0.00     0.135 A 
ATOM     86  C   UNL A   1      39.075  33.768  37.955  1.00  0.00     0.135 A 
ATOM     87  F   UNL A   1      41.476  35.737  36.065  1.00  0.00    -0.206 F 
ATOM     88  C   UNL A   1      40.442  36.188  38.123  1.00  0.00     0.059 A 
ATOM     89  C   UNL A   1      38.858  34.601  39.048  1.00  0.00     0.059 A 
ATOM     90  F   UNL A   1      38.415  32.600  37.911  1.00  0.00    -0.206 F 
ATOM     91  C   UNL A   1      39.564  35.799  39.135  1.00  0.00     0.060 A 
BRANCH  91  92
ATOM     92  S   UNL A   1      39.352  36.881  40.565  1.00  0.00     0.124 S 
ATOM     93  O   UNL A   1      38.842  35.949  41.565  1.00  0.00    -0.237 OA
ATOM     94  O   UNL A   1      40.709  37.371  40.784  1.00  0.00    -0.237 OA
ATOM     95  O   UNL A   1      38.400  37.882  40.092  1.00  0.00    -0.744 OA
ENDBRANCH  91  92
ENDBRANCH  59  84
BRANCH  71  96
ATOM     96  C   UNL A   1      36.854  33.029  30.760  1.00  0.00     0.058 A 
ATOM     97  C   UNL A   1      35.563  32.556  31.040  1.00  0.00     0.135 A 
ATOM     98  C   UNL A   1      36.973  34.126  29.889  1.00  0.00     0.135 A 
ATOM     99  F   UNL A   1      35.390  31.507  31.861  1.00  0.00    -0.206 F 
ATOM    100  C   UNL A   1      34.435  33.130  30.460  1.00  0.00     0.059 A 
ATOM    101  C   UNL A   1      35.857  34.738  29.325  1.00  0.00     0.059 A 
ATOM    102  F   UNL A   1      38.182  34.628  29.596  1.00  0.00    -0.206 F 
ATOM    103  C   UNL A   1      34.593  34.224  29.607  1.00  0.00     0.060 A 
BRANCH 103 104
ATOM    104  S   UNL A   1      33.118  34.982  28.891  1.00  0.00     0.124 S 
ATOM    105  O   UNL A   1      33.669  36.192  28.290  1.00  0.00    -0.237 OA
ATOM    106  O   UNL A   1      32.666  33.958  27.954  1.00  0.00    -0.237 OA
ATOM    107  O   UNL A   1      32.250  35.195  30.045  1.00  0.00    -0.744 OA
ENDBRANCH 103 104
ENDBRANCH  71  96
ENDBRANCH  45  46
ENDBRANCH  38  40
ENDBRANCH  37  38
ENDBRANCH  36  37
ENDBRANCH  35  36
ENDBRANCH  34  35
ENDBRANCH  33  34
ENDBRANCH   1  33
TORSDOF 26
ENDMDL
MODEL 3
REMARK VINA RESULT:      -8.2      1.077      7.817
REMARK SMILES COc1cc(NC(=O)/C=C/c2cccc([N+](=O)[O-])c2)c(C(=O)OCCOCCOCCOC(=O)c2ccc(-c3c4nc(c(-c5c(F)cc(S(=O)(=O)[O-])cc5F)c5ccc([nH]5)c(-c5c(F)cc(S(=O)(=O)[O-])cc5F)c5nc(c(-c6c(F)cc(S(=O)(=O)[O-])cc6F)c6ccc3[nH]6)C=C5)C=C4)cc2)cc1OC
REMARK SMILES IDX 27 1 26 2 25 3 24 4 23 5 21 6 22 7 20 8 3 9 4 10 102 11 5 12
REMARK SMILES IDX 101 13 2 14 1 15 103 16 104 17 6 18 7 19 8 21 9 22 10 23
REMARK SMILES IDX 11 24 12 25 19 26 13 27 15 28 14 29 16 30 17 31 18 32 28 33
REMARK SMILES IDX 29 34 30 35 31 36 32 37 33 38 34 39 35 40 36 41 100 42 37 43
REMARK SMILES IDX 99 44 38 45 39 46 40 47 93 48 41 49 98 50 92 51 94 52 42 53
REMARK SMILES IDX 97 54 91 55 90 56 43 58 77 59 56 60 76 61 57 62 60 63 75 64
REMARK SMILES IDX 95 65 58 66 59 67 74 69 96 70 61 71 44 72 45 73 54 74 46 75
REMARK SMILES IDX 47 76 53 77 55 78 48 79 49 80 50 81 51 82 52 83 78 84 79 85
REMARK SMILES IDX 88 86 80 87 81 88 87 89 89 90 82 91 83 92 84 93 85 94 86 95
REMARK SMILES IDX 62 96 63 97 72 98 64 99 65 100 71 101 73 102 66 103 67 104
REMARK SMILES IDX 68 105 69 106 70 107
REMARK H PARENT 6 20 94 57 60 68
REMARK Flexibility Score: inf
ROOT
ATOM      1  C   UNL A   1      32.963  25.671  25.127  1.00  0.00     0.188 C 
ENDROOT
BRANCH   1   2
ATOM      2  O   UNL A   1      33.869  24.637  24.778  1.00  0.00    -0.376 OA
BRANCH   2   3
ATOM      3  C   UNL A   1      34.924  24.403  25.694  1.00  0.00     0.202 C 
BRANCH   3   4
ATOM      4  C   UNL A   1      36.013  23.394  25.287  1.00  0.00     0.261 C 
BRANCH   4   5
ATOM      5  O   UNL A   1      37.381  23.818  25.411  1.00  0.00    -0.460 OA
BRANCH   5   6
ATOM      6  C   UNL A   1      38.251  22.983  26.022  1.00  0.00     0.340 C 
ATOM      7  O   UNL A   1      38.267  21.769  25.912  1.00  0.00    -0.246 OA
BRANCH   6   8
ATOM      8  C   UNL A   1      39.281  23.763  26.770  1.00  0.00     0.087 A 
ATOM      9  C   UNL A   1      41.081  25.281  28.288  1.00  0.00     0.162 A 
ATOM     10  C   UNL A   1      41.203  23.891  28.182  1.00  0.00     0.077 A 
ATOM     11  C   UNL A   1      40.077  25.937  27.584  1.00  0.00     0.161 A 
ATOM     12  C   UNL A   1      40.408  23.129  27.331  1.00  0.00     0.060 A 
ATOM     13  C   UNL A   1      39.149  25.163  26.874  1.00  0.00     0.068 A 
BRANCH   9  14
ATOM     14  O   UNL A   1      42.098  25.961  28.901  1.00  0.00    -0.493 OA
ATOM     15  C   UNL A   1      43.400  25.530  28.514  1.00  0.00     0.278 C 
ENDBRANCH   9  14
BRANCH  11  16
ATOM     16  O   UNL A   1      39.877  27.285  27.467  1.00  0.00    -0.493 OA
ATOM     17  C   UNL A   1      39.278  27.960  28.562  1.00  0.00     0.278 C 
ENDBRANCH  11  16
BRANCH  12  18
ATOM     18  N   UNL A   1      40.789  21.838  26.880  1.00  0.00    -0.322 N 
ATOM     19  C   UNL A   1      41.864  21.329  26.197  1.00  0.00     0.248 C 
ATOM     20  H   UNL A   1      40.126  21.147  27.108  1.00  0.00     0.170 HD
ATOM     21  O   UNL A   1      41.759  20.214  25.690  1.00  0.00    -0.270 OA
BRANCH  19  22
ATOM     22  C   UNL A   1      43.177  22.010  26.158  1.00  0.00     0.072 C 
ATOM     23  C   UNL A   1      43.489  23.019  25.329  1.00  0.00     0.014 C 
BRANCH  23  24
ATOM     24  C   UNL A   1      44.696  23.845  25.525  1.00  0.00    -0.019 A 
ATOM     25  C   UNL A   1      45.725  23.404  26.381  1.00  0.00     0.008 A 
ATOM     26  C   UNL A   1      44.772  25.137  24.997  1.00  0.00     0.093 A 
ATOM     27  C   UNL A   1      46.778  24.241  26.752  1.00  0.00     0.008 A 
ATOM     28  C   UNL A   1      45.852  25.966  25.346  1.00  0.00     0.270 A 
ATOM     29  C   UNL A   1      46.841  25.532  26.241  1.00  0.00     0.085 A 
BRANCH  28  30
ATOM     30  N   UNL A   1      45.946  27.321  24.790  1.00  0.00     0.062 N 
ATOM     31  O   UNL A   1      45.274  28.210  25.333  1.00  0.00    -0.258 OA
ATOM     32  O   UNL A   1      46.676  27.492  23.807  1.00  0.00    -0.258 OA
ENDBRANCH  28  30
ENDBRANCH  23  24
ENDBRANCH  19  22
ENDBRANCH  12  18
ENDBRANCH   6   8
ENDBRANCH   5   6
ENDBRANCH   4   5
ENDBRANCH   3   4
ENDBRANCH   2   3
ENDBRANCH   1   2
BRANCH   1  33
ATOM     33  C   UNL A   1      33.668  27.008  25.430  1.00  0.00     0.188 C 
BRANCH  33  34
ATOM     34  O   UNL A   1      33.014  28.000  26.207  1.00  0.00    -0.376 OA
BRANCH  34  35
ATOM     35  C   UNL A   1      33.700  28.582  27.306  1.00  0.00     0.202 C 
BRANCH  35  36
ATOM     36  C   UNL A   1      34.034  30.089  27.346  1.00  0.00     0.261 C 
BRANCH  36  37
ATOM     37  O   UNL A   1      35.213  30.490  28.064  1.00  0.00    -0.460 OA
BRANCH  37  38
ATOM     38  C   UNL A   1      35.141  31.678  28.710  1.00  0.00     0.338 C 
ATOM     39  O   UNL A   1      34.132  32.215  29.149  1.00  0.00    -0.246 OA
BRANCH  38  40
ATOM     40  C   UNL A   1      36.506  32.179  28.982  1.00  0.00     0.060 A 
ATOM     41  C   UNL A   1      37.605  31.362  28.677  1.00  0.00     0.016 A 
ATOM     42  C   UNL A   1      36.705  33.427  29.575  1.00  0.00     0.016 A 
ATOM     43  C   UNL A   1      38.902  31.785  28.971  1.00  0.00     0.010 A 
ATOM     44  C   UNL A   1      38.005  33.833  29.903  1.00  0.00     0.010 A 
ATOM     45  C   UNL A   1      39.108  33.005  29.626  1.00  0.00    -0.014 A 
BRANCH  45  46
ATOM     46  C   UNL A   1      40.451  33.329  30.174  1.00  0.00     0.031 A 
ATOM     47  C   UNL A   1      41.014  32.457  31.264  1.00  0.00     0.074 A 
ATOM     48  C   UNL A   1      41.176  34.355  29.692  1.00  0.00     0.049 A 
ATOM     49  N   UNL A   1      42.126  32.586  31.938  1.00  0.00    -0.248 NA
ATOM     50  C   UNL A   1      40.210  31.285  31.649  1.00  0.00     0.031 C 
ATOM     51  C   UNL A   1      40.763  35.242  28.608  1.00  0.00     0.029 A 
ATOM     52  N   UNL A   1      42.416  34.827  30.055  1.00  0.00    -0.354 N 
ATOM     53  C   UNL A   1      42.156  31.519  32.829  1.00  0.00     0.074 A 
ATOM     54  C   UNL A   1      40.935  30.767  32.630  1.00  0.00     0.031 C 
ATOM     55  C   UNL A   1      41.729  36.152  28.392  1.00  0.00     0.029 A 
ATOM     56  C   UNL A   1      42.811  35.942  29.351  1.00  0.00     0.049 A 
ATOM     57  H   UNL A   1      42.969  34.406  30.752  1.00  0.00     0.167 HD
ATOM     58  C   UNL A   1      43.116  31.194  33.726  1.00  0.00     0.037 A 
ATOM     59  C   UNL A   1      43.908  36.717  29.484  1.00  0.00     0.037 A 
ATOM     60  C   UNL A   1      44.327  31.947  33.923  1.00  0.00     0.049 A 
ATOM     61  C   UNL A   1      44.928  36.371  30.544  1.00  0.00     0.074 A 
ATOM     62  C   UNL A   1      45.352  31.707  34.823  1.00  0.00     0.029 A 
ATOM     63  N   UNL A   1      44.682  33.082  33.209  1.00  0.00    -0.354 N 
ATOM     64  N   UNL A   1      44.940  35.362  31.383  1.00  0.00    -0.248 NA
ATOM     65  C   UNL A   1      46.082  37.273  30.680  1.00  0.00     0.031 C 
ATOM     66  C   UNL A   1      46.301  32.722  34.686  1.00  0.00     0.029 A 
ATOM     67  C   UNL A   1      45.901  33.562  33.660  1.00  0.00     0.049 A 
ATOM     68  H   UNL A   1      44.146  33.486  32.489  1.00  0.00     0.167 HD
ATOM     69  C   UNL A   1      46.114  35.493  32.121  1.00  0.00     0.074 A 
ATOM     70  C   UNL A   1      46.795  36.665  31.617  1.00  0.00     0.031 C 
ATOM     71  C   UNL A   1      46.583  34.716  33.130  1.00  0.00     0.037 A 
BRANCH  58  72
ATOM     72  C   UNL A   1      42.895  29.976  34.580  1.00  0.00     0.058 A 
ATOM     73  C   UNL A   1      42.035  30.000  35.688  1.00  0.00     0.135 A 
ATOM     74  C   UNL A   1      43.494  28.751  34.242  1.00  0.00     0.135 A 
ATOM     75  F   UNL A   1      41.454  31.149  36.070  1.00  0.00    -0.206 F 
ATOM     76  C   UNL A   1      41.779  28.855  36.434  1.00  0.00     0.059 A 
ATOM     77  C   UNL A   1      43.232  27.587  34.958  1.00  0.00     0.059 A 
ATOM     78  F   UNL A   1      44.332  28.674  33.196  1.00  0.00    -0.206 F 
ATOM     79  C   UNL A   1      42.375  27.649  36.056  1.00  0.00     0.060 A 
BRANCH  79  80
ATOM     80  S   UNL A   1      41.994  26.164  37.008  1.00  0.00     0.124 S 
ATOM     81  O   UNL A   1      40.615  26.422  37.413  1.00  0.00    -0.237 OA
ATOM     82  O   UNL A   1      42.177  25.106  36.019  1.00  0.00    -0.237 OA
ATOM     83  O   UNL A   1      42.977  26.188  38.086  1.00  0.00    -0.744 OA
ENDBRANCH  79  80
ENDBRANCH  58  72
BRANCH  59  84
ATOM     84  C   UNL A   1      44.096  37.926  28.630  1.00  0.00     0.058 A 
ATOM     85  C   UNL A   1      44.740  37.847  27.385  1.00  0.00     0.135 A 
ATOM     86  C   UNL A   1      43.695  39.197  29.071  1.00  0.00     0.135 A 
ATOM     87  F   UNL A   1      45.156  36.660  26.917  1.00  0.00    -0.206 F 
ATOM     88  C   UNL A   1      45.019  38.986  26.632  1.00  0.00     0.059 A 
ATOM     89  C   UNL A   1      43.927  40.344  28.319  1.00  0.00     0.059 A 
ATOM     90  F   UNL A   1      43.070  39.334  30.252  1.00  0.00    -0.206 F 
ATOM     91  C   UNL A   1      44.611  40.231  27.110  1.00  0.00     0.060 A 
BRANCH  91  92
ATOM     92  S   UNL A   1      44.982  41.702  26.131  1.00  0.00     0.124 S 
ATOM     93  O   UNL A   1      44.200  41.456  24.924  1.00  0.00    -0.237 OA
ATOM     94  O   UNL A   1      44.501  42.776  26.994  1.00  0.00    -0.237 OA
ATOM     95  O   UNL A   1      46.432  41.642  25.967  1.00  0.00    -0.744 OA
ENDBRANCH  91  92
ENDBRANCH  59  84
BRANCH  71  96
ATOM     96  C   UNL A   1      47.921  35.070  33.724  1.00  0.00     0.058 A 
ATOM     97  C   UNL A   1      48.044  35.963  34.800  1.00  0.00     0.135 A 
ATOM     98  C   UNL A   1      49.093  34.460  33.244  1.00  0.00     0.135 A 
ATOM     99  F   UNL A   1      46.958  36.579  35.297  1.00  0.00    -0.206 F 
ATOM    100  C   UNL A   1      49.283  36.260  35.361  1.00  0.00     0.059 A 
ATOM    101  C   UNL A   1      50.337  34.716  33.812  1.00  0.00     0.059 A 
ATOM    102  F   UNL A   1      49.032  33.589  32.226  1.00  0.00    -0.206 F 
ATOM    103  C   UNL A   1      50.423  35.627  34.863  1.00  0.00     0.060 A 
BRANCH 103 104
ATOM    104  S   UNL A   1      52.019  35.996  35.625  1.00  0.00     0.124 S 
ATOM    105  O   UNL A   1      51.654  36.112  37.032  1.00  0.00    -0.237 OA
ATOM    106  O   UNL A   1      52.812  34.823  35.270  1.00  0.00    -0.237 OA
ATOM    107  O   UNL A   1      52.426  37.240  34.978  1.00  0.00    -0.744 OA
ENDBRANCH 103 104
ENDBRANCH  71  96
ENDBRANCH  45  46
ENDBRANCH  38  40
ENDBRANCH  37  38
ENDBRANCH  36  37
ENDBRANCH  35  36
ENDBRANCH  34  35
ENDBRANCH  33  34
ENDBRANCH   1  33
TORSDOF 26
ENDMDL
