MODEL 1
REMARK VINA RESULT:     -10.6      0.000      0.000
REMARK SMILES CCOc1ccc(CNC(=O)Cc2c(C(=O)OCCOCCOCCOC(=O)c3ccc(-c4c5nc(c(-c6c(F)cc(S(=O)(=O)[O-])cc6F)c6ccc([nH]6)c(-c6c(F)cc(S(=O)(=O)[O-])cc6F)c6nc(c(-c7c(F)cc(S(=O)(=O)[O-])cc7F)c7ccc4[nH]7)C=C6)C=C5)cc3)c(C)cn2C)cc1
REMARK SMILES IDX 20 1 19 2 18 3 17 4 15 5 16 6 14 7 13 8 98 9 95 10 97 11
REMARK SMILES IDX 99 12 96 13 12 14 10 15 9 16 11 18 8 19 7 20 4 21 5 22
REMARK SMILES IDX 101 23 6 24 100 25 3 26 2 27 1 28 21 29 22 30 23 31 24 32
REMARK SMILES IDX 25 33 26 34 27 35 28 36 29 37 30 38 94 39 31 40 93 41 32 42
REMARK SMILES IDX 33 43 34 44 87 45 35 46 92 47 86 48 88 49 36 50 91 51 85 52
REMARK SMILES IDX 84 53 37 55 71 56 50 57 70 58 51 59 54 60 69 61 89 62 52 63
REMARK SMILES IDX 53 64 68 66 90 67 55 68 38 69 39 70 48 71 40 72 41 73 47 74
REMARK SMILES IDX 49 75 42 76 43 77 44 78 45 79 46 80 72 81 73 82 82 83 74 84
REMARK SMILES IDX 75 85 81 86 83 87 76 88 77 89 78 90 79 91 80 92 56 93 57 94
REMARK SMILES IDX 66 95 58 96 59 97 65 98 67 99 60 100 61 101 62 102 63 103
REMARK SMILES IDX 64 104
REMARK H PARENT 9 17 88 54 54 65
REMARK Flexibility Score: inf
ROOT
ATOM      1  O   UNL A   1      33.074  31.328  27.456  1.00  0.00    -0.376 OA
ENDROOT
BRANCH   1   2
ATOM      2  C   UNL A   1      33.258  30.048  26.861  1.00  0.00     0.202 C 
BRANCH   2   3
ATOM      3  C   UNL A   1      32.470  29.779  25.557  1.00  0.00     0.261 C 
BRANCH   3   4
ATOM      4  O   UNL A   1      32.996  28.753  24.696  1.00  0.00    -0.460 OA
BRANCH   4   5
ATOM      5  C   UNL A   1      32.428  28.724  23.454  1.00  0.00     0.340 C 
ATOM      6  O   UNL A   1      33.085  28.939  22.460  1.00  0.00    -0.246 OA
BRANCH   5   7
ATOM      7  C   UNL A   1      31.001  28.308  23.453  1.00  0.00     0.084 A 
ATOM      8  C   UNL A   1      30.480  27.095  23.951  1.00  0.00     0.041 A 
ATOM      9  N   UNL A   1      29.111  27.119  23.736  1.00  0.00    -0.353 N 
ATOM     10  C   UNL A   1      29.866  29.068  22.968  1.00  0.00    -0.019 A 
ATOM     11  C   UNL A   1      28.744  28.287  23.138  1.00  0.00     0.089 A 
ATOM     12  C   UNL A   1      28.159  26.089  24.111  1.00  0.00     0.149 C 
ATOM     13  C   UNL A   1      29.852  30.438  22.386  1.00  0.00     0.047 C 
BRANCH   8  14
ATOM     14  C   UNL A   1      31.079  25.922  24.697  1.00  0.00     0.154 C 
BRANCH  14  15
ATOM     15  C   UNL A   1      30.954  25.911  26.202  1.00  0.00     0.226 C 
ATOM     16  N   UNL A   1      30.624  24.767  26.871  1.00  0.00    -0.352 N 
ATOM     17  H   UNL A   1      30.480  24.881  27.838  1.00  0.00     0.163 HD
ATOM     18  O   UNL A   1      31.059  26.961  26.844  1.00  0.00    -0.275 OA
BRANCH  16  19
ATOM     19  C   UNL A   1      30.451  23.410  26.384  1.00  0.00     0.151 C 
BRANCH  19  20
ATOM     20  C   UNL A   1      31.760  22.726  26.039  1.00  0.00    -0.029 A 
ATOM     21  C   UNL A   1      34.210  21.628  25.202  1.00  0.00     0.119 A 
ATOM     22  C   UNL A   1      33.036  21.269  24.554  1.00  0.00     0.047 A 
ATOM     23  C   UNL A   1      34.176  22.522  26.268  1.00  0.00     0.047 A 
ATOM     24  C   UNL A   1      31.816  21.773  25.010  1.00  0.00     0.009 A 
ATOM     25  C   UNL A   1      32.958  23.073  26.683  1.00  0.00     0.009 A 
BRANCH  21  26
ATOM     26  O   UNL A   1      35.429  21.173  24.779  1.00  0.00    -0.494 OA
BRANCH  26  27
ATOM     27  C   UNL A   1      36.468  21.424  25.731  1.00  0.00     0.226 C 
ATOM     28  C   UNL A   1      37.773  21.711  25.008  1.00  0.00     0.049 C 
ENDBRANCH  26  27
ENDBRANCH  21  26
ENDBRANCH  19  20
ENDBRANCH  16  19
ENDBRANCH  14  15
ENDBRANCH   8  14
ENDBRANCH   5   7
ENDBRANCH   4   5
ENDBRANCH   3   4
ENDBRANCH   2   3
ENDBRANCH   1   2
BRANCH   1  29
ATOM     29  C   UNL A   1      34.253  31.944  27.946  1.00  0.00     0.188 C 
BRANCH  29  30
ATOM     30  C   UNL A   1      34.075  33.401  28.432  1.00  0.00     0.188 C 
BRANCH  30  31
ATOM     31  O   UNL A   1      34.909  33.991  29.428  1.00  0.00    -0.376 OA
BRANCH  31  32
ATOM     32  C   UNL A   1      34.447  34.275  30.742  1.00  0.00     0.202 C 
BRANCH  32  33
ATOM     33  C   UNL A   1      34.735  33.310  31.888  1.00  0.00     0.261 C 
BRANCH  33  34
ATOM     34  O   UNL A   1      34.810  31.970  31.452  1.00  0.00    -0.460 OA
BRANCH  34  35
ATOM     35  C   UNL A   1      35.986  31.389  31.760  1.00  0.00     0.338 C 
ATOM     36  O   UNL A   1      36.462  31.223  32.871  1.00  0.00    -0.246 OA
BRANCH  35  37
ATOM     37  C   UNL A   1      36.632  30.948  30.519  1.00  0.00     0.060 A 
ATOM     38  C   UNL A   1      36.525  29.585  30.265  1.00  0.00     0.016 A 
ATOM     39  C   UNL A   1      37.617  31.762  29.940  1.00  0.00     0.016 A 
ATOM     40  C   UNL A   1      37.669  28.965  29.858  1.00  0.00     0.010 A 
ATOM     41  C   UNL A   1      38.753  31.144  29.513  1.00  0.00     0.010 A 
ATOM     42  C   UNL A   1      38.798  29.766  29.662  1.00  0.00    -0.014 A 
BRANCH  42  43
ATOM     43  C   UNL A   1      40.074  29.116  29.750  1.00  0.00     0.031 A 
ATOM     44  C   UNL A   1      40.502  28.931  31.136  1.00  0.00     0.074 A 
ATOM     45  C   UNL A   1      40.754  28.742  28.653  1.00  0.00     0.049 A 
ATOM     46  N   UNL A   1      41.346  29.653  31.789  1.00  0.00    -0.248 NA
ATOM     47  C   UNL A   1      39.713  28.004  31.956  1.00  0.00     0.031 C 
ATOM     48  C   UNL A   1      40.320  28.682  27.253  1.00  0.00     0.029 A 
ATOM     49  N   UNL A   1      42.019  28.257  28.600  1.00  0.00    -0.354 N 
ATOM     50  C   UNL A   1      41.373  29.099  33.058  1.00  0.00     0.074 A 
ATOM     51  C   UNL A   1      40.198  28.274  33.167  1.00  0.00     0.031 C 
ATOM     52  C   UNL A   1      41.230  27.978  26.537  1.00  0.00     0.029 A 
ATOM     53  C   UNL A   1      42.361  27.667  27.393  1.00  0.00     0.049 A 
ATOM     54  H   UNL A   1      42.643  28.320  29.358  1.00  0.00     0.167 HD
ATOM     55  C   UNL A   1      42.504  29.134  33.808  1.00  0.00     0.037 A 
ATOM     56  C   UNL A   1      43.463  26.901  27.197  1.00  0.00     0.037 A 
ATOM     57  C   UNL A   1      43.441  30.112  33.310  1.00  0.00     0.049 A 
ATOM     58  C   UNL A   1      44.439  27.284  28.261  1.00  0.00     0.074 A 
ATOM     59  C   UNL A   1      43.402  31.483  33.137  1.00  0.00     0.029 A 
ATOM     60  N   UNL A   1      44.479  29.666  32.525  1.00  0.00    -0.354 N 
ATOM     61  N   UNL A   1      44.995  28.466  28.333  1.00  0.00    -0.248 NA
ATOM     62  C   UNL A   1      44.405  26.544  29.518  1.00  0.00     0.031 C 
ATOM     63  C   UNL A   1      44.103  31.729  31.919  1.00  0.00     0.029 A 
ATOM     64  C   UNL A   1      44.573  30.505  31.440  1.00  0.00     0.049 A 
ATOM     65  H   UNL A   1      45.052  28.887  32.707  1.00  0.00     0.167 HD
ATOM     66  C   UNL A   1      45.012  28.783  29.687  1.00  0.00     0.074 A 
ATOM     67  C   UNL A   1      44.699  27.530  30.372  1.00  0.00     0.031 C 
ATOM     68  C   UNL A   1      44.989  30.081  30.117  1.00  0.00     0.037 A 
BRANCH  55  69
ATOM     69  C   UNL A   1      42.891  28.021  34.738  1.00  0.00     0.058 A 
ATOM     70  C   UNL A   1      43.095  28.305  36.100  1.00  0.00     0.135 A 
ATOM     71  C   UNL A   1      43.322  26.744  34.304  1.00  0.00     0.135 A 
ATOM     72  F   UNL A   1      42.735  29.493  36.610  1.00  0.00    -0.206 F 
ATOM     73  C   UNL A   1      43.737  27.409  36.953  1.00  0.00     0.059 A 
ATOM     74  C   UNL A   1      43.903  25.814  35.150  1.00  0.00     0.059 A 
ATOM     75  F   UNL A   1      43.299  26.372  33.018  1.00  0.00    -0.206 F 
ATOM     76  C   UNL A   1      44.150  26.172  36.463  1.00  0.00     0.060 A 
BRANCH  76  77
ATOM     77  S   UNL A   1      45.087  25.065  37.524  1.00  0.00     0.124 S 
ATOM     78  O   UNL A   1      44.785  23.769  36.925  1.00  0.00    -0.237 OA
ATOM     79  O   UNL A   1      46.450  25.554  37.341  1.00  0.00    -0.237 OA
ATOM     80  O   UNL A   1      44.513  25.300  38.845  1.00  0.00    -0.744 OA
ENDBRANCH  76  77
ENDBRANCH  55  69
BRANCH  56  81
ATOM     81  C   UNL A   1      43.515  25.607  26.462  1.00  0.00     0.058 A 
ATOM     82  C   UNL A   1      44.391  25.413  25.379  1.00  0.00     0.135 A 
ATOM     83  C   UNL A   1      42.898  24.444  26.971  1.00  0.00     0.135 A 
ATOM     84  F   UNL A   1      45.045  26.457  24.849  1.00  0.00    -0.206 F 
ATOM     85  C   UNL A   1      44.667  24.142  24.859  1.00  0.00     0.059 A 
ATOM     86  C   UNL A   1      43.148  23.171  26.464  1.00  0.00     0.059 A 
ATOM     87  F   UNL A   1      42.094  24.497  28.044  1.00  0.00    -0.206 F 
ATOM     88  C   UNL A   1      44.051  23.023  25.421  1.00  0.00     0.060 A 
BRANCH  88  89
ATOM     89  S   UNL A   1      44.520  21.367  24.863  1.00  0.00     0.124 S 
ATOM     90  O   UNL A   1      44.527  21.527  23.414  1.00  0.00    -0.237 OA
ATOM     91  O   UNL A   1      45.825  21.187  25.491  1.00  0.00    -0.237 OA
ATOM     92  O   UNL A   1      43.456  20.517  25.390  1.00  0.00    -0.744 OA
ENDBRANCH  88  89
ENDBRANCH  56  81
BRANCH  68  93
ATOM     93  C   UNL A   1      45.172  31.170  29.086  1.00  0.00     0.058 A 
ATOM     94  C   UNL A   1      46.424  31.586  28.599  1.00  0.00     0.135 A 
ATOM     95  C   UNL A   1      44.037  31.692  28.448  1.00  0.00     0.135 A 
ATOM     96  F   UNL A   1      47.556  31.056  29.081  1.00  0.00    -0.206 F 
ATOM     97  C   UNL A   1      46.546  32.504  27.553  1.00  0.00     0.059 A 
ATOM     98  C   UNL A   1      44.134  32.588  27.384  1.00  0.00     0.059 A 
ATOM     99  F   UNL A   1      42.812  31.285  28.818  1.00  0.00    -0.206 F 
ATOM    100  C   UNL A   1      45.392  33.000  26.948  1.00  0.00     0.060 A 
BRANCH 100 101
ATOM    101  S   UNL A   1      45.545  34.122  25.540  1.00  0.00     0.124 S 
ATOM    102  O   UNL A   1      46.991  34.213  25.375  1.00  0.00    -0.237 OA
ATOM    103  O   UNL A   1      44.830  33.409  24.484  1.00  0.00    -0.237 OA
ATOM    104  O   UNL A   1      44.892  35.344  26.004  1.00  0.00    -0.744 OA
ENDBRANCH 100 101
ENDBRANCH  68  93
ENDBRANCH  42  43
ENDBRANCH  35  37
ENDBRANCH  34  35
ENDBRANCH  33  34
ENDBRANCH  32  33
ENDBRANCH  31  32
ENDBRANCH  30  31
ENDBRANCH  29  30
ENDBRANCH   1  29
TORSDOF 26
ENDMDL
MODEL 2
REMARK VINA RESULT:     -10.2      1.465      4.339
REMARK SMILES CCOc1ccc(CNC(=O)Cc2c(C(=O)OCCOCCOCCOC(=O)c3ccc(-c4c5nc(c(-c6c(F)cc(S(=O)(=O)[O-])cc6F)c6ccc([nH]6)c(-c6c(F)cc(S(=O)(=O)[O-])cc6F)c6nc(c(-c7c(F)cc(S(=O)(=O)[O-])cc7F)c7ccc4[nH]7)C=C6)C=C5)cc3)c(C)cn2C)cc1
REMARK SMILES IDX 20 1 19 2 18 3 17 4 15 5 16 6 14 7 13 8 98 9 95 10 97 11
REMARK SMILES IDX 99 12 96 13 12 14 10 15 9 16 11 18 8 19 7 20 4 21 5 22
REMARK SMILES IDX 101 23 6 24 100 25 3 26 2 27 1 28 21 29 22 30 23 31 24 32
REMARK SMILES IDX 25 33 26 34 27 35 28 36 29 37 30 38 94 39 31 40 93 41 32 42
REMARK SMILES IDX 33 43 34 44 87 45 35 46 92 47 86 48 88 49 36 50 91 51 85 52
REMARK SMILES IDX 84 53 37 55 71 56 50 57 70 58 51 59 54 60 69 61 89 62 52 63
REMARK SMILES IDX 53 64 68 66 90 67 55 68 38 69 39 70 48 71 40 72 41 73 47 74
REMARK SMILES IDX 49 75 42 76 43 77 44 78 45 79 46 80 72 81 73 82 82 83 74 84
REMARK SMILES IDX 75 85 81 86 83 87 76 88 77 89 78 90 79 91 80 92 56 93 57 94
REMARK SMILES IDX 66 95 58 96 59 97 65 98 67 99 60 100 61 101 62 102 63 103
REMARK SMILES IDX 64 104
REMARK H PARENT 9 17 88 54 54 65
REMARK Flexibility Score: inf
ROOT
ATOM      1  O   UNL A   1      32.936  29.068  26.997  1.00  0.00    -0.376 OA
ENDROOT
BRANCH   1   2
ATOM      2  C   UNL A   1      33.434  27.831  26.500  1.00  0.00     0.202 C 
BRANCH   2   3
ATOM      3  C   UNL A   1      32.388  26.717  26.260  1.00  0.00     0.261 C 
BRANCH   3   4
ATOM      4  O   UNL A   1      32.908  25.400  26.000  1.00  0.00    -0.460 OA
BRANCH   4   5
ATOM      5  C   UNL A   1      32.106  24.388  26.445  1.00  0.00     0.340 C 
ATOM      6  O   UNL A   1      31.198  24.604  27.216  1.00  0.00    -0.246 OA
BRANCH   5   7
ATOM      7  C   UNL A   1      32.391  23.071  25.817  1.00  0.00     0.084 A 
ATOM      8  C   UNL A   1      31.956  22.634  24.548  1.00  0.00     0.041 A 
ATOM      9  N   UNL A   1      32.437  21.347  24.372  1.00  0.00    -0.353 N 
ATOM     10  C   UNL A   1      33.186  21.992  26.368  1.00  0.00    -0.019 A 
ATOM     11  C   UNL A   1      33.158  20.956  25.460  1.00  0.00     0.089 A 
ATOM     12  C   UNL A   1      32.257  20.510  23.200  1.00  0.00     0.149 C 
ATOM     13  C   UNL A   1      33.920  21.950  27.663  1.00  0.00     0.047 C 
BRANCH   8  14
ATOM     14  C   UNL A   1      31.210  23.295  23.409  1.00  0.00     0.154 C 
BRANCH  14  15
ATOM     15  C   UNL A   1      31.720  24.628  22.917  1.00  0.00     0.226 C 
ATOM     16  N   UNL A   1      31.012  25.775  23.138  1.00  0.00    -0.352 N 
ATOM     17  H   UNL A   1      31.380  26.578  22.703  1.00  0.00     0.163 HD
ATOM     18  O   UNL A   1      32.741  24.690  22.226  1.00  0.00    -0.275 OA
BRANCH  16  19
ATOM     19  C   UNL A   1      29.803  26.000  23.911  1.00  0.00     0.151 C 
BRANCH  19  20
ATOM     20  C   UNL A   1      29.134  27.326  23.603  1.00  0.00    -0.029 A 
ATOM     21  C   UNL A   1      27.914  29.722  22.778  1.00  0.00     0.119 A 
ATOM     22  C   UNL A   1      29.298  29.609  22.756  1.00  0.00     0.047 A 
ATOM     23  C   UNL A   1      27.132  28.657  23.212  1.00  0.00     0.047 A 
ATOM     24  C   UNL A   1      29.901  28.438  23.220  1.00  0.00     0.009 A 
ATOM     25  C   UNL A   1      27.737  27.462  23.619  1.00  0.00     0.009 A 
BRANCH  21  26
ATOM     26  O   UNL A   1      27.280  30.843  22.316  1.00  0.00    -0.494 OA
BRANCH  26  27
ATOM     27  C   UNL A   1      28.198  31.875  21.939  1.00  0.00     0.226 C 
ATOM     28  C   UNL A   1      27.962  32.272  20.492  1.00  0.00     0.049 C 
ENDBRANCH  26  27
ENDBRANCH  21  26
ENDBRANCH  19  20
ENDBRANCH  16  19
ENDBRANCH  14  15
ENDBRANCH   8  14
ENDBRANCH   5   7
ENDBRANCH   4   5
ENDBRANCH   3   4
ENDBRANCH   2   3
ENDBRANCH   1   2
BRANCH   1  29
ATOM     29  C   UNL A   1      33.913  29.941  27.539  1.00  0.00     0.188 C 
BRANCH  29  30
ATOM     30  C   UNL A   1      33.629  31.447  27.333  1.00  0.00     0.188 C 
BRANCH  30  31
ATOM     31  O   UNL A   1      34.587  32.462  27.625  1.00  0.00    -0.376 OA
BRANCH  31  32
ATOM     32  C   UNL A   1      34.370  33.459  28.614  1.00  0.00     0.202 C 
BRANCH  32  33
ATOM     33  C   UNL A   1      34.875  33.257  30.040  1.00  0.00     0.261 C 
BRANCH  33  34
ATOM     34  O   UNL A   1      34.918  31.894  30.403  1.00  0.00    -0.460 OA
BRANCH  34  35
ATOM     35  C   UNL A   1      36.125  31.519  30.869  1.00  0.00     0.338 C 
ATOM     36  O   UNL A   1      36.598  31.743  31.970  1.00  0.00    -0.246 OA
BRANCH  35  37
ATOM     37  C   UNL A   1      36.813  30.752  29.824  1.00  0.00     0.060 A 
ATOM     38  C   UNL A   1      36.810  29.375  30.022  1.00  0.00     0.016 A 
ATOM     39  C   UNL A   1      37.741  31.407  29.001  1.00  0.00     0.016 A 
ATOM     40  C   UNL A   1      38.001  28.742  29.818  1.00  0.00     0.010 A 
ATOM     41  C   UNL A   1      38.924  30.770  28.777  1.00  0.00     0.010 A 
ATOM     42  C   UNL A   1      39.068  29.519  29.359  1.00  0.00    -0.014 A 
BRANCH  42  43
ATOM     43  C   UNL A   1      40.389  29.025  29.632  1.00  0.00     0.031 A 
ATOM     44  C   UNL A   1      40.734  29.135  31.048  1.00  0.00     0.074 A 
ATOM     45  C   UNL A   1      41.174  28.532  28.659  1.00  0.00     0.049 A 
ATOM     46  N   UNL A   1      41.463  30.043  31.600  1.00  0.00    -0.248 NA
ATOM     47  C   UNL A   1      39.976  28.296  31.983  1.00  0.00     0.031 C 
ATOM     48  C   UNL A   1      40.845  28.180  27.274  1.00  0.00     0.029 A 
ATOM     49  N   UNL A   1      42.477  28.175  28.763  1.00  0.00    -0.354 N 
ATOM     50  C   UNL A   1      41.451  29.730  32.949  1.00  0.00     0.074 A 
ATOM     51  C   UNL A   1      40.349  28.825  33.147  1.00  0.00     0.031 C 
ATOM     52  C   UNL A   1      41.861  27.454  26.749  1.00  0.00     0.029 A 
ATOM     53  C   UNL A   1      42.953  27.415  27.704  1.00  0.00     0.049 A 
ATOM     54  H   UNL A   1      43.039  28.433  29.528  1.00  0.00     0.167 HD
ATOM     55  C   UNL A   1      42.520  30.011  33.737  1.00  0.00     0.037 A 
ATOM     56  C   UNL A   1      44.130  26.741  27.711  1.00  0.00     0.037 A 
ATOM     57  C   UNL A   1      43.398  30.974  33.117  1.00  0.00     0.049 A 
ATOM     58  C   UNL A   1      44.992  27.403  28.736  1.00  0.00     0.074 A 
ATOM     59  C   UNL A   1      43.250  32.281  32.692  1.00  0.00     0.029 A 
ATOM     60  N   UNL A   1      44.524  30.500  32.483  1.00  0.00    -0.354 N 
ATOM     61  N   UNL A   1      45.434  28.629  28.617  1.00  0.00    -0.248 NA
ATOM     62  C   UNL A   1      44.937  26.900  30.103  1.00  0.00     0.031 C 
ATOM     63  C   UNL A   1      44.009  32.374  31.488  1.00  0.00     0.029 A 
ATOM     64  C   UNL A   1      44.618  31.137  31.268  1.00  0.00     0.049 A 
ATOM     65  H   UNL A   1      45.150  29.828  32.835  1.00  0.00     0.167 HD
ATOM     66  C   UNL A   1      45.329  29.183  29.888  1.00  0.00     0.074 A 
ATOM     67  C   UNL A   1      45.082  28.047  30.775  1.00  0.00     0.031 C 
ATOM     68  C   UNL A   1      45.161  30.528  30.069  1.00  0.00     0.037 A 
BRANCH  55  69
ATOM     69  C   UNL A   1      42.939  29.127  34.876  1.00  0.00     0.058 A 
ATOM     70  C   UNL A   1      43.215  29.705  36.127  1.00  0.00     0.135 A 
ATOM     71  C   UNL A   1      43.330  27.775  34.722  1.00  0.00     0.135 A 
ATOM     72  F   UNL A   1      42.898  30.985  36.372  1.00  0.00    -0.206 F 
ATOM     73  C   UNL A   1      43.888  29.008  37.130  1.00  0.00     0.059 A 
ATOM     74  C   UNL A   1      43.941  27.045  35.728  1.00  0.00     0.059 A 
ATOM     75  F   UNL A   1      43.236  27.124  33.556  1.00  0.00    -0.206 F 
ATOM     76  C   UNL A   1      44.259  27.683  36.913  1.00  0.00     0.060 A 
BRANCH  76  77
ATOM     77  S   UNL A   1      45.234  26.820  38.152  1.00  0.00     0.124 S 
ATOM     78  O   UNL A   1      46.335  27.756  38.353  1.00  0.00    -0.237 OA
ATOM     79  O   UNL A   1      44.284  26.701  39.253  1.00  0.00    -0.237 OA
ATOM     80  O   UNL A   1      45.583  25.566  37.491  1.00  0.00    -0.744 OA
ENDBRANCH  76  77
ENDBRANCH  55  69
BRANCH  56  81
ATOM     81  C   UNL A   1      44.348  25.348  27.231  1.00  0.00     0.058 A 
ATOM     82  C   UNL A   1      43.456  24.312  27.560  1.00  0.00     0.135 A 
ATOM     83  C   UNL A   1      45.289  25.054  26.221  1.00  0.00     0.135 A 
ATOM     84  F   UNL A   1      42.508  24.510  28.488  1.00  0.00    -0.206 F 
ATOM     85  C   UNL A   1      43.471  23.075  26.902  1.00  0.00     0.059 A 
ATOM     86  C   UNL A   1      45.330  23.828  25.559  1.00  0.00     0.059 A 
ATOM     87  F   UNL A   1      46.147  25.985  25.778  1.00  0.00    -0.206 F 
ATOM     88  C   UNL A   1      44.404  22.849  25.889  1.00  0.00     0.060 A 
BRANCH  88  89
ATOM     89  S   UNL A   1      44.330  21.318  24.927  1.00  0.00     0.124 S 
ATOM     90  O   UNL A   1      45.538  20.627  25.365  1.00  0.00    -0.237 OA
ATOM     91  O   UNL A   1      43.067  20.736  25.370  1.00  0.00    -0.237 OA
ATOM     92  O   UNL A   1      44.347  21.785  23.544  1.00  0.00    -0.744 OA
ENDBRANCH  88  89
ENDBRANCH  56  81
BRANCH  68  93
ATOM     93  C   UNL A   1      45.317  31.428  28.866  1.00  0.00     0.058 A 
ATOM     94  C   UNL A   1      44.260  31.777  28.006  1.00  0.00     0.135 A 
ATOM     95  C   UNL A   1      46.537  32.091  28.674  1.00  0.00     0.135 A 
ATOM     96  F   UNL A   1      43.034  31.269  28.187  1.00  0.00    -0.206 F 
ATOM     97  C   UNL A   1      44.417  32.714  26.981  1.00  0.00     0.059 A 
ATOM     98  C   UNL A   1      46.710  33.049  27.676  1.00  0.00     0.059 A 
ATOM     99  F   UNL A   1      47.567  31.854  29.503  1.00  0.00    -0.206 F 
ATOM    100  C   UNL A   1      45.648  33.348  26.824  1.00  0.00     0.060 A 
BRANCH 100 101
ATOM    101  S   UNL A   1      45.830  34.621  25.554  1.00  0.00     0.124 S 
ATOM    102  O   UNL A   1      44.958  34.127  24.495  1.00  0.00    -0.237 OA
ATOM    103  O   UNL A   1      45.372  35.826  26.242  1.00  0.00    -0.237 OA
ATOM    104  O   UNL A   1      47.259  34.597  25.249  1.00  0.00    -0.744 OA
ENDBRANCH 100 101
ENDBRANCH  68  93
ENDBRANCH  42  43
ENDBRANCH  35  37
ENDBRANCH  34  35
ENDBRANCH  33  34
ENDBRANCH  32  33
ENDBRANCH  31  32
ENDBRANCH  30  31
ENDBRANCH  29  30
ENDBRANCH   1  29
TORSDOF 26
ENDMDL
MODEL 3
REMARK VINA RESULT:      -9.7      1.829      4.545
REMARK SMILES CCOc1ccc(CNC(=O)Cc2c(C(=O)OCCOCCOCCOC(=O)c3ccc(-c4c5nc(c(-c6c(F)cc(S(=O)(=O)[O-])cc6F)c6ccc([nH]6)c(-c6c(F)cc(S(=O)(=O)[O-])cc6F)c6nc(c(-c7c(F)cc(S(=O)(=O)[O-])cc7F)c7ccc4[nH]7)C=C6)C=C5)cc3)c(C)cn2C)cc1
REMARK SMILES IDX 20 1 19 2 18 3 17 4 15 5 16 6 14 7 13 8 98 9 95 10 97 11
REMARK SMILES IDX 99 12 96 13 12 14 10 15 9 16 11 18 8 19 7 20 4 21 5 22
REMARK SMILES IDX 101 23 6 24 100 25 3 26 2 27 1 28 21 29 22 30 23 31 24 32
REMARK SMILES IDX 25 33 26 34 27 35 28 36 29 37 30 38 94 39 31 40 93 41 32 42
REMARK SMILES IDX 33 43 34 44 87 45 35 46 92 47 86 48 88 49 36 50 91 51 85 52
REMARK SMILES IDX 84 53 37 55 71 56 50 57 70 58 51 59 54 60 69 61 89 62 52 63
REMARK SMILES IDX 53 64 68 66 90 67 55 68 38 69 39 70 48 71 40 72 41 73 47 74
REMARK SMILES IDX 49 75 42 76 43 77 44 78 45 79 46 80 72 81 73 82 82 83 74 84
REMARK SMILES IDX 75 85 81 86 83 87 76 88 77 89 78 90 79 91 80 92 56 93 57 94
REMARK SMILES IDX 66 95 58 96 59 97 65 98 67 99 60 100 61 101 62 102 63 103
REMARK SMILES IDX 64 104
REMARK H PARENT 9 17 88 54 54 65
REMARK Flexibility Score: inf
ROOT
ATOM      1  O   UNL A   1      32.799  29.379  27.130  1.00  0.00    -0.376 OA
ENDROOT
BRANCH   1   2
ATOM      2  C   UNL A   1      33.235  28.043  26.903  1.00  0.00     0.202 C 
BRANCH   2   3
ATOM      3  C   UNL A   1      32.136  27.013  26.551  1.00  0.00     0.261 C 
BRANCH   3   4
ATOM      4  O   UNL A   1      32.588  25.687  26.220  1.00  0.00    -0.460 OA
BRANCH   4   5
ATOM      5  C   UNL A   1      31.638  24.720  26.381  1.00  0.00     0.340 C 
ATOM      6  O   UNL A   1      30.560  24.977  26.869  1.00  0.00    -0.246 OA
BRANCH   5   7
ATOM      7  C   UNL A   1      32.018  23.400  25.812  1.00  0.00     0.084 A 
ATOM      8  C   UNL A   1      31.734  22.932  24.512  1.00  0.00     0.041 A 
ATOM      9  N   UNL A   1      32.258  21.654  24.413  1.00  0.00    -0.353 N 
ATOM     10  C   UNL A   1      32.770  22.348  26.466  1.00  0.00    -0.019 A 
ATOM     11  C   UNL A   1      32.864  21.297  25.580  1.00  0.00     0.089 A 
ATOM     12  C   UNL A   1      32.226  20.794  23.244  1.00  0.00     0.149 C 
ATOM     13  C   UNL A   1      33.358  22.344  27.835  1.00  0.00     0.047 C 
BRANCH   8  14
ATOM     14  C   UNL A   1      31.104  23.557  23.286  1.00  0.00     0.154 C 
BRANCH  14  15
ATOM     15  C   UNL A   1      31.784  24.764  22.686  1.00  0.00     0.226 C 
ATOM     16  N   UNL A   1      31.250  26.014  22.829  1.00  0.00    -0.352 N 
ATOM     17  H   UNL A   1      31.716  26.722  22.329  1.00  0.00     0.163 HD
ATOM     18  O   UNL A   1      32.786  24.629  21.977  1.00  0.00    -0.275 OA
BRANCH  16  19
ATOM     19  C   UNL A   1      30.105  26.464  23.600  1.00  0.00     0.151 C 
BRANCH  19  20
ATOM     20  C   UNL A   1      29.535  27.781  23.110  1.00  0.00    -0.029 A 
ATOM     21  C   UNL A   1      28.448  30.110  21.966  1.00  0.00     0.119 A 
ATOM     22  C   UNL A   1      29.790  29.807  21.773  1.00  0.00     0.047 A 
ATOM     23  C   UNL A   1      27.644  29.268  22.728  1.00  0.00     0.047 A 
ATOM     24  C   UNL A   1      30.338  28.680  22.390  1.00  0.00     0.009 A 
ATOM     25  C   UNL A   1      28.182  28.107  23.295  1.00  0.00     0.009 A 
BRANCH  21  26
ATOM     26  O   UNL A   1      27.865  31.192  21.367  1.00  0.00    -0.494 OA
BRANCH  26  27
ATOM     27  C   UNL A   1      28.488  32.426  21.740  1.00  0.00     0.226 C 
ATOM     28  C   UNL A   1      28.566  32.527  23.254  1.00  0.00     0.049 C 
ENDBRANCH  26  27
ENDBRANCH  21  26
ENDBRANCH  19  20
ENDBRANCH  16  19
ENDBRANCH  14  15
ENDBRANCH   8  14
ENDBRANCH   5   7
ENDBRANCH   4   5
ENDBRANCH   3   4
ENDBRANCH   2   3
ENDBRANCH   1   2
BRANCH   1  29
ATOM     29  C   UNL A   1      33.815  30.365  27.079  1.00  0.00     0.188 C 
BRANCH  29  30
ATOM     30  C   UNL A   1      33.458  31.707  27.760  1.00  0.00     0.188 C 
BRANCH  30  31
ATOM     31  O   UNL A   1      34.434  32.698  28.075  1.00  0.00    -0.376 OA
BRANCH  31  32
ATOM     32  C   UNL A   1      34.508  33.322  29.351  1.00  0.00     0.202 C 
BRANCH  32  33
ATOM     33  C   UNL A   1      35.591  32.920  30.346  1.00  0.00     0.261 C 
BRANCH  33  34
ATOM     34  O   UNL A   1      35.650  31.523  30.538  1.00  0.00    -0.460 OA
BRANCH  34  35
ATOM     35  C   UNL A   1      36.830  30.996  30.158  1.00  0.00     0.338 C 
ATOM     36  O   UNL A   1      37.303  30.968  29.034  1.00  0.00    -0.246 OA
BRANCH  35  37
ATOM     37  C   UNL A   1      37.505  30.454  31.343  1.00  0.00     0.060 A 
ATOM     38  C   UNL A   1      38.519  31.261  31.850  1.00  0.00     0.016 A 
ATOM     39  C   UNL A   1      37.413  29.079  31.606  1.00  0.00     0.016 A 
ATOM     40  C   UNL A   1      39.678  30.622  32.178  1.00  0.00     0.010 A 
ATOM     41  C   UNL A   1      38.565  28.441  31.955  1.00  0.00     0.010 A 
ATOM     42  C   UNL A   1      39.702  29.230  32.050  1.00  0.00    -0.014 A 
BRANCH  42  43
ATOM     43  C   UNL A   1      40.990  28.620  31.883  1.00  0.00     0.031 A 
ATOM     44  C   UNL A   1      41.742  28.571  33.136  1.00  0.00     0.074 A 
ATOM     45  C   UNL A   1      41.407  28.165  30.689  1.00  0.00     0.049 A 
ATOM     46  N   UNL A   1      42.684  29.368  33.507  1.00  0.00    -0.248 NA
ATOM     47  C   UNL A   1      41.211  27.704  34.195  1.00  0.00     0.031 C 
ATOM     48  C   UNL A   1      40.657  27.969  29.444  1.00  0.00     0.029 A 
ATOM     49  N   UNL A   1      42.643  27.706  30.375  1.00  0.00    -0.354 N 
ATOM     50  C   UNL A   1      43.034  28.932  34.773  1.00  0.00     0.074 A 
ATOM     51  C   UNL A   1      41.956  28.093  35.228  1.00  0.00     0.031 C 
ATOM     52  C   UNL A   1      41.401  27.224  28.591  1.00  0.00     0.029 A 
ATOM     53  C   UNL A   1      42.715  27.018  29.173  1.00  0.00     0.049 A 
ATOM     54  H   UNL A   1      43.426  27.851  30.954  1.00  0.00     0.167 HD
ATOM     55  C   UNL A   1      44.308  29.060  35.224  1.00  0.00     0.037 A 
ATOM     56  C   UNL A   1      43.773  26.263  28.782  1.00  0.00     0.037 A 
ATOM     57  C   UNL A   1      45.057  30.011  34.439  1.00  0.00     0.049 A 
ATOM     58  C   UNL A   1      44.955  26.762  29.547  1.00  0.00     0.074 A 
ATOM     59  C   UNL A   1      44.918  31.359  34.167  1.00  0.00     0.029 A 
ATOM     60  N   UNL A   1      45.898  29.519  33.466  1.00  0.00    -0.354 N 
ATOM     61  N   UNL A   1      45.460  27.959  29.386  1.00  0.00    -0.248 NA
ATOM     62  C   UNL A   1      45.252  26.138  30.831  1.00  0.00     0.031 C 
ATOM     63  C   UNL A   1      45.300  31.510  32.801  1.00  0.00     0.029 A 
ATOM     64  C   UNL A   1      45.696  30.259  32.326  1.00  0.00     0.049 A 
ATOM     65  H   UNL A   1      46.532  28.773  33.570  1.00  0.00     0.167 HD
ATOM     66  C   UNL A   1      45.783  28.396  30.666  1.00  0.00     0.074 A 
ATOM     67  C   UNL A   1      45.696  27.204  31.506  1.00  0.00     0.031 C 
ATOM     68  C   UNL A   1      45.805  29.727  30.981  1.00  0.00     0.037 A 
BRANCH  55  69
ATOM     69  C   UNL A   1      44.953  28.044  36.123  1.00  0.00     0.058 A 
ATOM     70  C   UNL A   1      45.188  26.747  35.636  1.00  0.00     0.135 A 
ATOM     71  C   UNL A   1      45.112  28.216  37.520  1.00  0.00     0.135 A 
ATOM     72  F   UNL A   1      45.050  26.475  34.329  1.00  0.00    -0.206 F 
ATOM     73  C   UNL A   1      45.496  25.684  36.483  1.00  0.00     0.059 A 
ATOM     74  C   UNL A   1      45.483  27.188  38.370  1.00  0.00     0.059 A 
ATOM     75  F   UNL A   1      44.816  29.362  38.145  1.00  0.00    -0.206 F 
ATOM     76  C   UNL A   1      45.627  25.914  37.851  1.00  0.00     0.060 A 
BRANCH  76  77
ATOM     77  S   UNL A   1      45.902  24.528  38.962  1.00  0.00     0.124 S 
ATOM     78  O   UNL A   1      47.354  24.549  39.093  1.00  0.00    -0.237 OA
ATOM     79  O   UNL A   1      45.145  24.933  40.142  1.00  0.00    -0.237 OA
ATOM     80  O   UNL A   1      45.350  23.394  38.227  1.00  0.00    -0.744 OA
ENDBRANCH  76  77
ENDBRANCH  55  69
BRANCH  56  81
ATOM     81  C   UNL A   1      43.706  24.909  28.165  1.00  0.00     0.058 A 
ATOM     82  C   UNL A   1      43.354  23.776  28.920  1.00  0.00     0.135 A 
ATOM     83  C   UNL A   1      43.725  24.735  26.765  1.00  0.00     0.135 A 
ATOM     84  F   UNL A   1      43.281  23.855  30.257  1.00  0.00    -0.206 F 
ATOM     85  C   UNL A   1      43.008  22.557  28.322  1.00  0.00     0.059 A 
ATOM     86  C   UNL A   1      43.394  23.530  26.148  1.00  0.00     0.059 A 
ATOM     87  F   UNL A   1      43.982  25.761  25.940  1.00  0.00    -0.206 F 
ATOM     88  C   UNL A   1      43.015  22.450  26.931  1.00  0.00     0.060 A 
BRANCH  88  89
ATOM     89  S   UNL A   1      42.417  20.933  26.146  1.00  0.00     0.124 S 
ATOM     90  O   UNL A   1      41.162  21.375  25.551  1.00  0.00    -0.237 OA
ATOM     91  O   UNL A   1      43.493  20.626  25.209  1.00  0.00    -0.237 OA
ATOM     92  O   UNL A   1      42.284  20.002  27.263  1.00  0.00    -0.744 OA
ENDBRANCH  88  89
ENDBRANCH  56  81
BRANCH  68  93
ATOM     93  C   UNL A   1      45.690  30.723  29.850  1.00  0.00     0.058 A 
ATOM     94  C   UNL A   1      46.771  31.114  29.039  1.00  0.00     0.135 A 
ATOM     95  C   UNL A   1      44.416  31.166  29.468  1.00  0.00     0.135 A 
ATOM     96  F   UNL A   1      48.005  30.649  29.271  1.00  0.00    -0.206 F 
ATOM     97  C   UNL A   1      46.600  31.938  27.923  1.00  0.00     0.059 A 
ATOM     98  C   UNL A   1      44.218  31.965  28.343  1.00  0.00     0.059 A 
ATOM     99  F   UNL A   1      43.334  30.773  30.159  1.00  0.00    -0.206 F 
ATOM    100  C   UNL A   1      45.316  32.358  27.580  1.00  0.00     0.060 A 
BRANCH 100 101
ATOM    101  S   UNL A   1      45.081  33.352  26.090  1.00  0.00     0.124 S 
ATOM    102  O   UNL A   1      44.107  34.344  26.531  1.00  0.00    -0.237 OA
ATOM    103  O   UNL A   1      46.426  33.857  25.826  1.00  0.00    -0.237 OA
ATOM    104  O   UNL A   1      44.587  32.386  25.110  1.00  0.00    -0.744 OA
ENDBRANCH 100 101
ENDBRANCH  68  93
ENDBRANCH  42  43
ENDBRANCH  35  37
ENDBRANCH  34  35
ENDBRANCH  33  34
ENDBRANCH  32  33
ENDBRANCH  31  32
ENDBRANCH  30  31
ENDBRANCH  29  30
ENDBRANCH   1  29
TORSDOF 26
ENDMDL
