MODEL 1
REMARK VINA RESULT:     -10.2      0.000      0.000
REMARK SMILES CN1C(=O)C(=Cc2ccc(OCc3cccc(C(=O)OCCOCCOCCOC(=O)c4ccc(-c5c6nc(c(-c7c(F)cc(S(=O)(=O)[O-])cc7F)c7ccc([nH]7)c(-c7c(F)cc(S(=O)(=O)[O-])cc7F)c7nc(c(-c8c(F)cc(S(=O)(=O)[O-])cc8F)c8ccc5[nH]8)C=C7)C=C6)cc4)c3)c(Cl)c2)C(=O)N(C)C1=S
REMARK SMILES IDX 24 1 23 2 22 3 21 4 20 5 18 6 19 7 17 8 13 9 14 10 98 11
REMARK SMILES IDX 15 12 16 13 12 14 11 15 10 16 7 17 8 18 101 19 9 20 99 21
REMARK SMILES IDX 100 22 6 23 1 24 2 25 3 26 106 27 4 28 5 29 104 30 107 31
REMARK SMILES IDX 102 32 105 33 103 34 25 35 26 36 27 37 28 38 29 39 30 40
REMARK SMILES IDX 31 41 32 42 33 43 97 44 34 45 96 46 35 47 36 48 37 49 90 50
REMARK SMILES IDX 38 51 95 52 89 53 91 54 39 55 94 56 88 57 87 58 40 60 74 61
REMARK SMILES IDX 53 62 73 63 54 64 57 65 72 66 92 67 55 68 56 69 71 71 93 72
REMARK SMILES IDX 58 73 41 74 42 75 51 76 43 77 44 78 50 79 52 80 45 81 46 82
REMARK SMILES IDX 47 83 48 84 49 85 75 86 76 87 85 88 77 89 78 90 84 91 86 92
REMARK SMILES IDX 79 93 80 94 81 95 82 96 83 97 59 98 60 99 69 100 61 101
REMARK SMILES IDX 62 102 68 103 70 104 63 105 64 106 65 107 66 108 67 109
REMARK H PARENT 91 59 57 70
REMARK Flexibility Score: inf
ROOT
ATOM      1  C   UNL A   1      33.448  26.257  25.771  1.00  0.00     0.188 C 
ENDROOT
BRANCH   1   2
ATOM      2  O   UNL A   1      33.485  27.664  25.554  1.00  0.00    -0.376 OA
BRANCH   2   3
ATOM      3  C   UNL A   1      34.028  28.505  26.562  1.00  0.00     0.202 C 
BRANCH   3   4
ATOM      4  C   UNL A   1      33.138  29.644  27.065  1.00  0.00     0.261 C 
BRANCH   4   5
ATOM      5  O   UNL A   1      31.777  29.518  26.623  1.00  0.00    -0.460 OA
BRANCH   5   6
ATOM      6  C   UNL A   1      31.274  30.580  25.941  1.00  0.00     0.338 C 
ATOM      7  O   UNL A   1      31.381  31.758  26.230  1.00  0.00    -0.246 OA
BRANCH   6   8
ATOM      8  C   UNL A   1      30.699  30.099  24.665  1.00  0.00     0.060 A 
ATOM      9  C   UNL A   1      30.736  28.555  22.778  1.00  0.00    -0.010 A 
ATOM     10  C   UNL A   1      29.739  29.342  22.172  1.00  0.00     0.007 A 
ATOM     11  C   UNL A   1      31.181  28.937  24.052  1.00  0.00     0.023 A 
ATOM     12  C   UNL A   1      29.218  30.474  22.806  1.00  0.00     0.001 A 
ATOM     13  C   UNL A   1      29.701  30.857  24.054  1.00  0.00     0.016 A 
BRANCH   9  14
ATOM     14  C   UNL A   1      31.249  27.353  21.994  1.00  0.00     0.265 C 
BRANCH  14  15
ATOM     15  O   UNL A   1      32.323  26.550  22.495  1.00  0.00    -0.487 OA
BRANCH  15  16
ATOM     16  C   UNL A   1      32.139  25.209  22.666  1.00  0.00     0.138 A 
ATOM     17  C   UNL A   1      31.939  22.415  22.539  1.00  0.00    -0.023 A 
ATOM     18  C   UNL A   1      33.002  23.075  21.912  1.00  0.00     0.012 A 
ATOM     19  C   UNL A   1      30.999  23.153  23.260  1.00  0.00     0.032 A 
ATOM     20  C   UNL A   1      33.118  24.456  22.005  1.00  0.00     0.048 A 
ATOM     21  C   UNL A   1      31.102  24.549  23.338  1.00  0.00     0.083 A 
ATOM     22  Cl  UNL A   1      29.932  25.359  24.312  1.00  0.00    -0.080 Cl
BRANCH  17  23
ATOM     23  C   UNL A   1      31.844  20.955  22.436  1.00  0.00     0.027 C 
ATOM     24  C   UNL A   1      34.978  20.713  25.873  1.00  0.00     0.156 C 
ATOM     25  N   UNL A   1      34.166  19.924  24.941  1.00  0.00    -0.288 N 
ATOM     26  C   UNL A   1      32.999  20.585  24.578  1.00  0.00     0.265 C 
ATOM     27  C   UNL A   1      34.515  18.631  24.503  1.00  0.00     0.185 C 
ATOM     28  O   UNL A   1      32.500  21.495  25.234  1.00  0.00    -0.268 OA
ATOM     29  C   UNL A   1      32.399  20.111  23.327  1.00  0.00     0.106 C 
ATOM     30  N   UNL A   1      33.656  18.066  23.528  1.00  0.00    -0.288 N 
ATOM     31  S   UNL A   1      35.859  17.805  25.126  1.00  0.00    -0.040 S 
ATOM     32  C   UNL A   1      32.551  18.704  22.950  1.00  0.00     0.265 C 
ATOM     33  C   UNL A   1      33.879  16.732  22.964  1.00  0.00     0.156 C 
ATOM     34  O   UNL A   1      31.799  18.173  22.136  1.00  0.00    -0.268 OA
ENDBRANCH  17  23
ENDBRANCH  15  16
ENDBRANCH  14  15
ENDBRANCH   9  14
ENDBRANCH   6   8
ENDBRANCH   5   6
ENDBRANCH   4   5
ENDBRANCH   3   4
ENDBRANCH   2   3
ENDBRANCH   1   2
BRANCH   1  35
ATOM     35  C   UNL A   1      34.759  25.450  25.709  1.00  0.00     0.188 C 
BRANCH  35  36
ATOM     36  O   UNL A   1      34.648  24.222  24.996  1.00  0.00    -0.376 OA
BRANCH  36  37
ATOM     37  C   UNL A   1      35.874  23.637  24.578  1.00  0.00     0.202 C 
BRANCH  37  38
ATOM     38  C   UNL A   1      36.916  23.541  25.695  1.00  0.00     0.261 C 
BRANCH  38  39
ATOM     39  O   UNL A   1      38.119  22.843  25.339  1.00  0.00    -0.460 OA
BRANCH  39  40
ATOM     40  C   UNL A   1      39.033  22.656  26.316  1.00  0.00     0.338 C 
ATOM     41  O   UNL A   1      39.525  21.601  26.669  1.00  0.00    -0.246 OA
BRANCH  40  42
ATOM     42  C   UNL A   1      39.461  23.990  26.790  1.00  0.00     0.060 A 
ATOM     43  C   UNL A   1      40.059  24.873  25.883  1.00  0.00     0.016 A 
ATOM     44  C   UNL A   1      39.255  24.370  28.120  1.00  0.00     0.016 A 
ATOM     45  C   UNL A   1      40.473  26.135  26.315  1.00  0.00     0.010 A 
ATOM     46  C   UNL A   1      39.681  25.627  28.551  1.00  0.00     0.010 A 
ATOM     47  C   UNL A   1      40.314  26.508  27.658  1.00  0.00    -0.014 A 
BRANCH  47  48
ATOM     48  C   UNL A   1      40.945  27.747  28.175  1.00  0.00     0.031 A 
ATOM     49  C   UNL A   1      42.447  27.845  28.163  1.00  0.00     0.074 A 
ATOM     50  C   UNL A   1      40.206  28.759  28.663  1.00  0.00     0.049 A 
ATOM     51  N   UNL A   1      43.220  28.804  28.603  1.00  0.00    -0.248 NA
ATOM     52  C   UNL A   1      43.173  26.706  27.577  1.00  0.00     0.031 C 
ATOM     53  C   UNL A   1      38.745  28.790  28.717  1.00  0.00     0.029 A 
ATOM     54  N   UNL A   1      40.590  29.953  29.220  1.00  0.00    -0.354 N 
ATOM     55  C   UNL A   1      44.520  28.386  28.347  1.00  0.00     0.074 A 
ATOM     56  C   UNL A   1      44.434  27.076  27.741  1.00  0.00     0.031 C 
ATOM     57  C   UNL A   1      38.356  29.944  29.291  1.00  0.00     0.029 A 
ATOM     58  C   UNL A   1      39.539  30.718  29.667  1.00  0.00     0.049 A 
ATOM     59  H   UNL A   1      41.530  30.236  29.292  1.00  0.00     0.167 HD
ATOM     60  C   UNL A   1      45.682  29.038  28.589  1.00  0.00     0.037 A 
ATOM     61  C   UNL A   1      39.534  31.897  30.321  1.00  0.00     0.037 A 
ATOM     62  C   UNL A   1      45.770  30.334  29.207  1.00  0.00     0.049 A 
ATOM     63  C   UNL A   1      40.844  32.577  30.637  1.00  0.00     0.074 A 
ATOM     64  C   UNL A   1      46.901  31.083  29.481  1.00  0.00     0.029 A 
ATOM     65  N   UNL A   1      44.684  31.069  29.658  1.00  0.00    -0.354 N 
ATOM     66  N   UNL A   1      42.065  32.188  30.355  1.00  0.00    -0.248 NA
ATOM     67  C   UNL A   1      40.773  33.857  31.359  1.00  0.00     0.031 C 
ATOM     68  C   UNL A   1      46.503  32.254  30.136  1.00  0.00     0.029 A 
ATOM     69  C   UNL A   1      45.119  32.254  30.229  1.00  0.00     0.049 A 
ATOM     70  H   UNL A   1      43.743  30.790  29.585  1.00  0.00     0.167 HD
ATOM     71  C   UNL A   1      42.904  33.186  30.841  1.00  0.00     0.074 A 
ATOM     72  C   UNL A   1      42.053  34.200  31.429  1.00  0.00     0.031 C 
ATOM     73  C   UNL A   1      44.259  33.258  30.802  1.00  0.00     0.037 A 
BRANCH  60  74
ATOM     74  C   UNL A   1      46.954  28.342  28.200  1.00  0.00     0.058 A 
ATOM     75  C   UNL A   1      47.497  28.468  26.912  1.00  0.00     0.135 A 
ATOM     76  C   UNL A   1      47.646  27.548  29.129  1.00  0.00     0.135 A 
ATOM     77  F   UNL A   1      46.863  29.199  25.980  1.00  0.00    -0.206 F 
ATOM     78  C   UNL A   1      48.666  27.810  26.548  1.00  0.00     0.059 A 
ATOM     79  C   UNL A   1      48.831  26.899  28.793  1.00  0.00     0.059 A 
ATOM     80  F   UNL A   1      47.169  27.391  30.373  1.00  0.00    -0.206 F 
ATOM     81  C   UNL A   1      49.324  27.024  27.496  1.00  0.00     0.060 A 
BRANCH  81  82
ATOM     82  S   UNL A   1      50.837  26.169  27.007  1.00  0.00     0.124 S 
ATOM     83  O   UNL A   1      50.871  26.434  25.572  1.00  0.00    -0.237 OA
ATOM     84  O   UNL A   1      51.853  26.850  27.802  1.00  0.00    -0.237 OA
ATOM     85  O   UNL A   1      50.579  24.781  27.383  1.00  0.00    -0.744 OA
ENDBRANCH  81  82
ENDBRANCH  60  74
BRANCH  61  86
ATOM     86  C   UNL A   1      38.245  32.516  30.734  1.00  0.00     0.058 A 
ATOM     87  C   UNL A   1      37.480  33.264  29.828  1.00  0.00     0.135 A 
ATOM     88  C   UNL A   1      37.760  32.378  32.043  1.00  0.00     0.135 A 
ATOM     89  F   UNL A   1      37.910  33.437  28.568  1.00  0.00    -0.206 F 
ATOM     90  C   UNL A   1      36.284  33.866  30.208  1.00  0.00     0.059 A 
ATOM     91  C   UNL A   1      36.556  32.951  32.440  1.00  0.00     0.059 A 
ATOM     92  F   UNL A   1      38.453  31.668  32.946  1.00  0.00    -0.206 F 
ATOM     93  C   UNL A   1      35.829  33.702  31.518  1.00  0.00     0.060 A 
BRANCH  93  94
ATOM     94  S   UNL A   1      34.252  34.449  31.988  1.00  0.00     0.124 S 
ATOM     95  O   UNL A   1      33.585  34.562  30.698  1.00  0.00    -0.237 OA
ATOM     96  O   UNL A   1      33.702  33.455  32.906  1.00  0.00    -0.237 OA
ATOM     97  O   UNL A   1      34.651  35.710  32.607  1.00  0.00    -0.744 OA
ENDBRANCH  93  94
ENDBRANCH  61  86
BRANCH  73  98
ATOM     98  C   UNL A   1      44.909  34.487  31.375  1.00  0.00     0.058 A 
ATOM     99  C   UNL A   1      45.138  35.632  30.596  1.00  0.00     0.135 A 
ATOM    100  C   UNL A   1      45.248  34.542  32.737  1.00  0.00     0.135 A 
ATOM    101  F   UNL A   1      44.835  35.631  29.288  1.00  0.00    -0.206 F 
ATOM    102  C   UNL A   1      45.696  36.784  31.144  1.00  0.00     0.059 A 
ATOM    103  C   UNL A   1      45.786  35.690  33.311  1.00  0.00     0.059 A 
ATOM    104  F   UNL A   1      45.039  33.478  33.528  1.00  0.00    -0.206 F 
ATOM    105  C   UNL A   1      46.016  36.803  32.503  1.00  0.00     0.060 A 
BRANCH 105 106
ATOM    106  S   UNL A   1      46.703  38.315  33.213  1.00  0.00     0.124 S 
ATOM    107  O   UNL A   1      45.618  39.264  32.991  1.00  0.00    -0.237 OA
ATOM    108  O   UNL A   1      46.938  37.933  34.602  1.00  0.00    -0.237 OA
ATOM    109  O   UNL A   1      47.909  38.543  32.421  1.00  0.00    -0.744 OA
ENDBRANCH 105 106
ENDBRANCH  73  98
ENDBRANCH  47  48
ENDBRANCH  40  42
ENDBRANCH  39  40
ENDBRANCH  38  39
ENDBRANCH  37  38
ENDBRANCH  36  37
ENDBRANCH  35  36
ENDBRANCH   1  35
TORSDOF 24
ENDMDL
MODEL 2
REMARK VINA RESULT:      -9.5      3.292      8.761
REMARK SMILES CN1C(=O)C(=Cc2ccc(OCc3cccc(C(=O)OCCOCCOCCOC(=O)c4ccc(-c5c6nc(c(-c7c(F)cc(S(=O)(=O)[O-])cc7F)c7ccc([nH]7)c(-c7c(F)cc(S(=O)(=O)[O-])cc7F)c7nc(c(-c8c(F)cc(S(=O)(=O)[O-])cc8F)c8ccc5[nH]8)C=C7)C=C6)cc4)c3)c(Cl)c2)C(=O)N(C)C1=S
REMARK SMILES IDX 24 1 23 2 22 3 21 4 20 5 18 6 19 7 17 8 13 9 14 10 98 11
REMARK SMILES IDX 15 12 16 13 12 14 11 15 10 16 7 17 8 18 101 19 9 20 99 21
REMARK SMILES IDX 100 22 6 23 1 24 2 25 3 26 106 27 4 28 5 29 104 30 107 31
REMARK SMILES IDX 102 32 105 33 103 34 25 35 26 36 27 37 28 38 29 39 30 40
REMARK SMILES IDX 31 41 32 42 33 43 97 44 34 45 96 46 35 47 36 48 37 49 90 50
REMARK SMILES IDX 38 51 95 52 89 53 91 54 39 55 94 56 88 57 87 58 40 60 74 61
REMARK SMILES IDX 53 62 73 63 54 64 57 65 72 66 92 67 55 68 56 69 71 71 93 72
REMARK SMILES IDX 58 73 41 74 42 75 51 76 43 77 44 78 50 79 52 80 45 81 46 82
REMARK SMILES IDX 47 83 48 84 49 85 75 86 76 87 85 88 77 89 78 90 84 91 86 92
REMARK SMILES IDX 79 93 80 94 81 95 82 96 83 97 59 98 60 99 69 100 61 101
REMARK SMILES IDX 62 102 68 103 70 104 63 105 64 106 65 107 66 108 67 109
REMARK H PARENT 91 59 57 70
REMARK Flexibility Score: inf
ROOT
ATOM      1  C   UNL A   1      32.359  33.169  27.851  1.00  0.00     0.188 C 
ENDROOT
BRANCH   1   2
ATOM      2  O   UNL A   1      31.811  32.460  26.744  1.00  0.00    -0.376 OA
BRANCH   2   3
ATOM      3  C   UNL A   1      30.799  33.077  25.961  1.00  0.00     0.202 C 
BRANCH   3   4
ATOM      4  C   UNL A   1      30.115  32.204  24.905  1.00  0.00     0.261 C 
BRANCH   4   5
ATOM      5  O   UNL A   1      29.851  32.918  23.687  1.00  0.00    -0.460 OA
BRANCH   5   6
ATOM      6  C   UNL A   1      28.746  32.530  22.999  1.00  0.00     0.338 C 
ATOM      7  O   UNL A   1      28.015  33.231  22.322  1.00  0.00    -0.246 OA
BRANCH   6   8
ATOM      8  C   UNL A   1      28.642  31.055  23.057  1.00  0.00     0.060 A 
ATOM      9  C   UNL A   1      29.623  28.851  22.700  1.00  0.00    -0.010 A 
ATOM     10  C   UNL A   1      28.359  28.294  22.972  1.00  0.00     0.007 A 
ATOM     11  C   UNL A   1      29.751  30.245  22.783  1.00  0.00     0.023 A 
ATOM     12  C   UNL A   1      27.263  29.097  23.297  1.00  0.00     0.001 A 
ATOM     13  C   UNL A   1      27.401  30.481  23.337  1.00  0.00     0.016 A 
BRANCH   9  14
ATOM     14  C   UNL A   1      30.747  27.888  22.336  1.00  0.00     0.265 C 
BRANCH  14  15
ATOM     15  O   UNL A   1      31.879  27.718  23.195  1.00  0.00    -0.487 OA
BRANCH  15  16
ATOM     16  C   UNL A   1      32.206  26.470  23.642  1.00  0.00     0.138 A 
ATOM     17  C   UNL A   1      33.043  23.831  24.081  1.00  0.00    -0.023 A 
ATOM     18  C   UNL A   1      33.771  24.669  23.228  1.00  0.00     0.012 A 
ATOM     19  C   UNL A   1      31.918  24.328  24.741  1.00  0.00     0.032 A 
ATOM     20  C   UNL A   1      33.374  25.986  23.039  1.00  0.00     0.048 A 
ATOM     21  C   UNL A   1      31.503  25.651  24.535  1.00  0.00     0.083 A 
ATOM     22  Cl  UNL A   1      30.145  26.189  25.452  1.00  0.00    -0.080 Cl
BRANCH  17  23
ATOM     23  C   UNL A   1      33.488  22.447  24.273  1.00  0.00     0.027 C 
ATOM     24  C   UNL A   1      37.273  24.173  26.371  1.00  0.00     0.156 C 
ATOM     25  N   UNL A   1      36.606  22.940  25.938  1.00  0.00    -0.288 N 
ATOM     26  C   UNL A   1      35.224  23.081  25.900  1.00  0.00     0.265 C 
ATOM     27  C   UNL A   1      37.291  21.746  25.636  1.00  0.00     0.185 C 
ATOM     28  O   UNL A   1      34.611  23.944  26.521  1.00  0.00    -0.268 OA
ATOM     29  C   UNL A   1      34.539  22.107  25.044  1.00  0.00     0.106 C 
ATOM     30  N   UNL A   1      36.486  20.691  25.142  1.00  0.00    -0.288 N 
ATOM     31  S   UNL A   1      38.961  21.586  25.879  1.00  0.00    -0.040 S 
ATOM     32  C   UNL A   1      35.110  20.767  24.889  1.00  0.00     0.265 C 
ATOM     33  C   UNL A   1      37.042  19.385  24.776  1.00  0.00     0.156 C 
ATOM     34  O   UNL A   1      34.430  19.821  24.498  1.00  0.00    -0.268 OA
ENDBRANCH  17  23
ENDBRANCH  15  16
ENDBRANCH  14  15
ENDBRANCH   9  14
ENDBRANCH   6   8
ENDBRANCH   5   6
ENDBRANCH   4   5
ENDBRANCH   3   4
ENDBRANCH   2   3
ENDBRANCH   1   2
BRANCH   1  35
ATOM     35  C   UNL A   1      33.887  33.206  28.042  1.00  0.00     0.188 C 
BRANCH  35  36
ATOM     36  O   UNL A   1      34.591  32.254  27.251  1.00  0.00    -0.376 OA
BRANCH  36  37
ATOM     37  C   UNL A   1      35.770  31.716  27.835  1.00  0.00     0.202 C 
BRANCH  37  38
ATOM     38  C   UNL A   1      36.219  32.457  29.096  1.00  0.00     0.261 C 
BRANCH  38  39
ATOM     39  O   UNL A   1      36.560  31.610  30.204  1.00  0.00    -0.460 OA
BRANCH  39  40
ATOM     40  C   UNL A   1      36.673  30.287  29.954  1.00  0.00     0.338 C 
ATOM     41  O   UNL A   1      35.771  29.472  29.889  1.00  0.00    -0.246 OA
BRANCH  40  42
ATOM     42  C   UNL A   1      38.085  30.015  29.611  1.00  0.00     0.060 A 
ATOM     43  C   UNL A   1      38.437  29.852  28.265  1.00  0.00     0.016 A 
ATOM     44  C   UNL A   1      39.057  29.940  30.613  1.00  0.00     0.016 A 
ATOM     45  C   UNL A   1      39.766  29.590  27.923  1.00  0.00     0.010 A 
ATOM     46  C   UNL A   1      40.382  29.666  30.269  1.00  0.00     0.010 A 
ATOM     47  C   UNL A   1      40.740  29.465  28.926  1.00  0.00    -0.014 A 
BRANCH  47  48
ATOM     48  C   UNL A   1      42.099  28.972  28.596  1.00  0.00     0.031 A 
ATOM     49  C   UNL A   1      43.232  29.961  28.556  1.00  0.00     0.074 A 
ATOM     50  C   UNL A   1      42.325  27.675  28.318  1.00  0.00     0.049 A 
ATOM     51  N   UNL A   1      44.489  29.773  28.248  1.00  0.00    -0.248 NA
ATOM     52  C   UNL A   1      42.899  31.351  28.909  1.00  0.00     0.031 C 
ATOM     53  C   UNL A   1      41.316  26.617  28.337  1.00  0.00     0.029 A 
ATOM     54  N   UNL A   1      43.481  27.031  27.952  1.00  0.00    -0.354 N 
ATOM     55  C   UNL A   1      45.097  31.016  28.370  1.00  0.00     0.074 A 
ATOM     56  C   UNL A   1      44.066  31.957  28.752  1.00  0.00     0.031 C 
ATOM     57  C   UNL A   1      41.897  25.456  27.982  1.00  0.00     0.029 A 
ATOM     58  C   UNL A   1      43.310  25.693  27.687  1.00  0.00     0.049 A 
ATOM     59  H   UNL A   1      44.352  27.485  27.886  1.00  0.00     0.167 HD
ATOM     60  C   UNL A   1      46.398  31.344  28.188  1.00  0.00     0.037 A 
ATOM     61  C   UNL A   1      44.188  24.773  27.241  1.00  0.00     0.037 A 
ATOM     62  C   UNL A   1      47.420  30.413  27.793  1.00  0.00     0.049 A 
ATOM     63  C   UNL A   1      45.619  25.175  26.985  1.00  0.00     0.074 A 
ATOM     64  C   UNL A   1      48.770  30.648  27.597  1.00  0.00     0.029 A 
ATOM     65  N   UNL A   1      47.204  29.071  27.521  1.00  0.00    -0.354 N 
ATOM     66  N   UNL A   1      46.189  26.346  27.141  1.00  0.00    -0.248 NA
ATOM     67  C   UNL A   1      46.528  24.127  26.491  1.00  0.00     0.031 C 
ATOM     68  C   UNL A   1      49.363  29.456  27.166  1.00  0.00     0.029 A 
ATOM     69  C   UNL A   1      48.390  28.468  27.138  1.00  0.00     0.049 A 
ATOM     70  H   UNL A   1      46.335  28.614  27.589  1.00  0.00     0.167 HD
ATOM     71  C   UNL A   1      47.525  26.170  26.791  1.00  0.00     0.074 A 
ATOM     72  C   UNL A   1      47.681  24.779  26.421  1.00  0.00     0.031 C 
ATOM     73  C   UNL A   1      48.532  27.079  26.781  1.00  0.00     0.037 A 
BRANCH  60  74
ATOM     74  C   UNL A   1      46.779  32.782  28.397  1.00  0.00     0.058 A 
ATOM     75  C   UNL A   1      46.714  33.718  27.353  1.00  0.00     0.135 A 
ATOM     76  C   UNL A   1      47.205  33.232  29.657  1.00  0.00     0.135 A 
ATOM     77  F   UNL A   1      46.333  33.334  26.124  1.00  0.00    -0.206 F 
ATOM     78  C   UNL A   1      47.082  35.045  27.544  1.00  0.00     0.059 A 
ATOM     79  C   UNL A   1      47.556  34.561  29.876  1.00  0.00     0.059 A 
ATOM     80  F   UNL A   1      47.289  32.377  30.687  1.00  0.00    -0.206 F 
ATOM     81  C   UNL A   1      47.506  35.456  28.809  1.00  0.00     0.060 A 
BRANCH  81  82
ATOM     82  S   UNL A   1      47.989  37.180  29.040  1.00  0.00     0.124 S 
ATOM     83  O   UNL A   1      47.207  37.546  30.216  1.00  0.00    -0.237 OA
ATOM     84  O   UNL A   1      49.430  37.077  29.244  1.00  0.00    -0.237 OA
ATOM     85  O   UNL A   1      47.581  37.818  27.791  1.00  0.00    -0.744 OA
ENDBRANCH  81  82
ENDBRANCH  60  74
BRANCH  61  86
ATOM     86  C   UNL A   1      43.742  23.374  26.997  1.00  0.00     0.058 A 
ATOM     87  C   UNL A   1      43.486  22.914  25.698  1.00  0.00     0.135 A 
ATOM     88  C   UNL A   1      43.555  22.476  28.059  1.00  0.00     0.135 A 
ATOM     89  F   UNL A   1      43.636  23.740  24.651  1.00  0.00    -0.206 F 
ATOM     90  C   UNL A   1      43.048  21.614  25.458  1.00  0.00     0.059 A 
ATOM     91  C   UNL A   1      43.141  21.165  27.843  1.00  0.00     0.059 A 
ATOM     92  F   UNL A   1      43.792  22.867  29.320  1.00  0.00    -0.206 F 
ATOM     93  C   UNL A   1      42.880  20.746  26.539  1.00  0.00     0.060 A 
BRANCH  93  94
ATOM     94  S   UNL A   1      42.355  19.048  26.214  1.00  0.00     0.124 S 
ATOM     95  O   UNL A   1      42.110  18.554  27.563  1.00  0.00    -0.237 OA
ATOM     96  O   UNL A   1      41.172  19.244  25.382  1.00  0.00    -0.237 OA
ATOM     97  O   UNL A   1      43.506  18.468  25.528  1.00  0.00    -0.744 OA
ENDBRANCH  93  94
ENDBRANCH  61  86
BRANCH  73  98
ATOM     98  C   UNL A   1      49.903  26.597  26.393  1.00  0.00     0.058 A 
ATOM     99  C   UNL A   1      50.351  26.639  25.063  1.00  0.00     0.135 A 
ATOM    100  C   UNL A   1      50.802  26.146  27.373  1.00  0.00     0.135 A 
ATOM    101  F   UNL A   1      49.530  27.059  24.087  1.00  0.00    -0.206 F 
ATOM    102  C   UNL A   1      51.637  26.236  24.717  1.00  0.00     0.059 A 
ATOM    103  C   UNL A   1      52.099  25.759  27.053  1.00  0.00     0.059 A 
ATOM    104  F   UNL A   1      50.427  26.096  28.661  1.00  0.00    -0.206 F 
ATOM    105  C   UNL A   1      52.505  25.799  25.720  1.00  0.00     0.060 A 
BRANCH 105 106
ATOM    106  S   UNL A   1      54.185  25.315  25.266  1.00  0.00     0.124 S 
ATOM    107  O   UNL A   1      54.493  26.276  24.212  1.00  0.00    -0.237 OA
ATOM    108  O   UNL A   1      54.913  25.492  26.518  1.00  0.00    -0.237 OA
ATOM    109  O   UNL A   1      54.032  23.930  24.828  1.00  0.00    -0.744 OA
ENDBRANCH 105 106
ENDBRANCH  73  98
ENDBRANCH  47  48
ENDBRANCH  40  42
ENDBRANCH  39  40
ENDBRANCH  38  39
ENDBRANCH  37  38
ENDBRANCH  36  37
ENDBRANCH  35  36
ENDBRANCH   1  35
TORSDOF 24
ENDMDL
MODEL 3
REMARK VINA RESULT:      -9.5      5.419     11.525
REMARK SMILES CN1C(=O)C(=Cc2ccc(OCc3cccc(C(=O)OCCOCCOCCOC(=O)c4ccc(-c5c6nc(c(-c7c(F)cc(S(=O)(=O)[O-])cc7F)c7ccc([nH]7)c(-c7c(F)cc(S(=O)(=O)[O-])cc7F)c7nc(c(-c8c(F)cc(S(=O)(=O)[O-])cc8F)c8ccc5[nH]8)C=C7)C=C6)cc4)c3)c(Cl)c2)C(=O)N(C)C1=S
REMARK SMILES IDX 24 1 23 2 22 3 21 4 20 5 18 6 19 7 17 8 13 9 14 10 98 11
REMARK SMILES IDX 15 12 16 13 12 14 11 15 10 16 7 17 8 18 101 19 9 20 99 21
REMARK SMILES IDX 100 22 6 23 1 24 2 25 3 26 106 27 4 28 5 29 104 30 107 31
REMARK SMILES IDX 102 32 105 33 103 34 25 35 26 36 27 37 28 38 29 39 30 40
REMARK SMILES IDX 31 41 32 42 33 43 97 44 34 45 96 46 35 47 36 48 37 49 90 50
REMARK SMILES IDX 38 51 95 52 89 53 91 54 39 55 94 56 88 57 87 58 40 60 74 61
REMARK SMILES IDX 53 62 73 63 54 64 57 65 72 66 92 67 55 68 56 69 71 71 93 72
REMARK SMILES IDX 58 73 41 74 42 75 51 76 43 77 44 78 50 79 52 80 45 81 46 82
REMARK SMILES IDX 47 83 48 84 49 85 75 86 76 87 85 88 77 89 78 90 84 91 86 92
REMARK SMILES IDX 79 93 80 94 81 95 82 96 83 97 59 98 60 99 69 100 61 101
REMARK SMILES IDX 62 102 68 103 70 104 63 105 64 106 65 107 66 108 67 109
REMARK H PARENT 91 59 57 70
REMARK Flexibility Score: inf
ROOT
ATOM      1  C   UNL A   1      34.681  34.235  31.120  1.00  0.00     0.188 C 
ENDROOT
BRANCH   1   2
ATOM      2  O   UNL A   1      34.447  32.932  31.643  1.00  0.00    -0.376 OA
BRANCH   2   3
ATOM      3  C   UNL A   1      35.467  31.949  31.535  1.00  0.00     0.202 C 
BRANCH   3   4
ATOM      4  C   UNL A   1      36.912  32.436  31.669  1.00  0.00     0.261 C 
BRANCH   4   5
ATOM      5  O   UNL A   1      37.324  32.571  33.038  1.00  0.00    -0.460 OA
BRANCH   5   6
ATOM      6  C   UNL A   1      38.520  32.010  33.355  1.00  0.00     0.338 C 
ATOM      7  O   UNL A   1      38.920  30.902  33.045  1.00  0.00    -0.246 OA
BRANCH   6   8
ATOM      8  C   UNL A   1      39.366  33.031  34.014  1.00  0.00     0.060 A 
ATOM      9  C   UNL A   1      41.287  33.612  35.400  1.00  0.00    -0.010 A 
ATOM     10  C   UNL A   1      40.818  34.939  35.413  1.00  0.00     0.007 A 
ATOM     11  C   UNL A   1      40.556  32.672  34.658  1.00  0.00     0.023 A 
ATOM     12  C   UNL A   1      39.658  35.310  34.728  1.00  0.00     0.001 A 
ATOM     13  C   UNL A   1      38.927  34.355  34.028  1.00  0.00     0.016 A 
BRANCH   9  14
ATOM     14  C   UNL A   1      42.550  33.308  36.196  1.00  0.00     0.265 C 
BRANCH  14  15
ATOM     15  O   UNL A   1      42.632  32.151  37.035  1.00  0.00    -0.487 OA
BRANCH  15  16
ATOM     16  C   UNL A   1      43.548  31.179  36.755  1.00  0.00     0.138 A 
ATOM     17  C   UNL A   1      45.152  28.894  36.498  1.00  0.00    -0.023 A 
ATOM     18  C   UNL A   1      43.764  28.770  36.633  1.00  0.00     0.012 A 
ATOM     19  C   UNL A   1      45.729  30.164  36.455  1.00  0.00     0.032 A 
ATOM     20  C   UNL A   1      42.968  29.904  36.726  1.00  0.00     0.048 A 
ATOM     21  C   UNL A   1      44.930  31.310  36.570  1.00  0.00     0.083 A 
ATOM     22  Cl  UNL A   1      45.732  32.831  36.432  1.00  0.00    -0.080 Cl
BRANCH  17  23
ATOM     23  C   UNL A   1      45.969  27.681  36.392  1.00  0.00     0.027 C 
ATOM     24  C   UNL A   1      43.843  26.851  32.331  1.00  0.00     0.156 C 
ATOM     25  N   UNL A   1      44.827  26.338  33.290  1.00  0.00    -0.288 N 
ATOM     26  C   UNL A   1      45.435  27.358  34.010  1.00  0.00     0.265 C 
ATOM     27  C   UNL A   1      45.142  24.971  33.429  1.00  0.00     0.185 C 
ATOM     28  O   UNL A   1      45.470  28.527  33.637  1.00  0.00    -0.268 OA
ATOM     29  C   UNL A   1      46.039  26.930  35.275  1.00  0.00     0.106 C 
ATOM     30  N   UNL A   1      46.045  24.658  34.474  1.00  0.00    -0.288 N 
ATOM     31  S   UNL A   1      44.499  23.793  32.392  1.00  0.00    -0.040 S 
ATOM     32  C   UNL A   1      46.587  25.576  35.383  1.00  0.00     0.265 C 
ATOM     33  C   UNL A   1      46.473  23.285  34.756  1.00  0.00     0.156 C 
ATOM     34  O   UNL A   1      47.402  25.280  36.254  1.00  0.00    -0.268 OA
ENDBRANCH  17  23
ENDBRANCH  15  16
ENDBRANCH  14  15
ENDBRANCH   9  14
ENDBRANCH   6   8
ENDBRANCH   5   6
ENDBRANCH   4   5
ENDBRANCH   3   4
ENDBRANCH   2   3
ENDBRANCH   1   2
BRANCH   1  35
ATOM     35  C   UNL A   1      33.897  34.702  29.878  1.00  0.00     0.188 C 
BRANCH  35  36
ATOM     36  O   UNL A   1      33.457  33.638  29.040  1.00  0.00    -0.376 OA
BRANCH  36  37
ATOM     37  C   UNL A   1      34.437  33.093  28.166  1.00  0.00     0.202 C 
BRANCH  37  38
ATOM     38  C   UNL A   1      34.105  31.680  27.682  1.00  0.00     0.261 C 
BRANCH  38  39
ATOM     39  O   UNL A   1      34.535  30.627  28.558  1.00  0.00    -0.460 OA
BRANCH  39  40
ATOM     40  C   UNL A   1      35.030  29.510  27.979  1.00  0.00     0.338 C 
ATOM     41  O   UNL A   1      34.439  28.737  27.249  1.00  0.00    -0.246 OA
BRANCH  40  42
ATOM     42  C   UNL A   1      36.482  29.468  28.259  1.00  0.00     0.060 A 
ATOM     43  C   UNL A   1      37.382  29.722  27.217  1.00  0.00     0.016 A 
ATOM     44  C   UNL A   1      36.948  29.196  29.549  1.00  0.00     0.016 A 
ATOM     45  C   UNL A   1      38.757  29.682  27.463  1.00  0.00     0.010 A 
ATOM     46  C   UNL A   1      38.322  29.145  29.789  1.00  0.00     0.010 A 
ATOM     47  C   UNL A   1      39.234  29.363  28.743  1.00  0.00    -0.014 A 
BRANCH  47  48
ATOM     48  C   UNL A   1      40.677  29.101  28.963  1.00  0.00     0.031 A 
ATOM     49  C   UNL A   1      41.217  27.734  28.634  1.00  0.00     0.074 A 
ATOM     50  C   UNL A   1      41.493  30.046  29.463  1.00  0.00     0.049 A 
ATOM     51  N   UNL A   1      42.425  27.261  28.785  1.00  0.00    -0.248 NA
ATOM     52  C   UNL A   1      40.259  26.775  28.058  1.00  0.00     0.031 C 
ATOM     53  C   UNL A   1      41.096  31.410  29.808  1.00  0.00     0.029 A 
ATOM     54  N   UNL A   1      42.828  29.994  29.778  1.00  0.00    -0.354 N 
ATOM     55  C   UNL A   1      42.377  25.951  28.324  1.00  0.00     0.074 A 
ATOM     56  C   UNL A   1      41.013  25.696  27.915  1.00  0.00     0.031 C 
ATOM     57  C   UNL A   1      42.165  32.062  30.303  1.00  0.00     0.029 A 
ATOM     58  C   UNL A   1      43.312  31.155  30.332  1.00  0.00     0.049 A 
ATOM     59  H   UNL A   1      43.388  29.199  29.621  1.00  0.00     0.167 HD
ATOM     60  C   UNL A   1      43.379  25.044  28.242  1.00  0.00     0.037 A 
ATOM     61  C   UNL A   1      44.534  31.445  30.822  1.00  0.00     0.037 A 
ATOM     62  C   UNL A   1      44.731  25.291  28.665  1.00  0.00     0.049 A 
ATOM     63  C   UNL A   1      45.620  30.398  30.778  1.00  0.00     0.074 A 
ATOM     64  C   UNL A   1      45.820  24.439  28.608  1.00  0.00     0.029 A 
ATOM     65  N   UNL A   1      45.177  26.474  29.232  1.00  0.00    -0.354 N 
ATOM     66  N   UNL A   1      45.569  29.176  30.304  1.00  0.00    -0.248 NA
ATOM     67  C   UNL A   1      46.930  30.772  31.335  1.00  0.00     0.031 C 
ATOM     68  C   UNL A   1      46.917  25.093  29.180  1.00  0.00     0.029 A 
ATOM     69  C   UNL A   1      46.521  26.369  29.551  1.00  0.00     0.049 A 
ATOM     70  H   UNL A   1      44.622  27.272  29.387  1.00  0.00     0.167 HD
ATOM     71  C   UNL A   1      46.844  28.645  30.482  1.00  0.00     0.074 A 
ATOM     72  C   UNL A   1      47.646  29.680  31.101  1.00  0.00     0.031 C 
ATOM     73  C   UNL A   1      47.309  27.412  30.159  1.00  0.00     0.037 A 
BRANCH  60  74
ATOM     74  C   UNL A   1      43.036  23.689  27.692  1.00  0.00     0.058 A 
ATOM     75  C   UNL A   1      42.622  22.640  28.527  1.00  0.00     0.135 A 
ATOM     76  C   UNL A   1      43.111  23.439  26.312  1.00  0.00     0.135 A 
ATOM     77  F   UNL A   1      42.554  22.821  29.856  1.00  0.00    -0.206 F 
ATOM     78  C   UNL A   1      42.320  21.382  28.018  1.00  0.00     0.059 A 
ATOM     79  C   UNL A   1      42.791  22.195  25.778  1.00  0.00     0.059 A 
ATOM     80  F   UNL A   1      43.505  24.407  25.470  1.00  0.00    -0.206 F 
ATOM     81  C   UNL A   1      42.411  21.168  26.641  1.00  0.00     0.060 A 
BRANCH  81  82
ATOM     82  S   UNL A   1      42.024  19.528  25.995  1.00  0.00     0.124 S 
ATOM     83  O   UNL A   1      42.882  19.471  24.815  1.00  0.00    -0.237 OA
ATOM     84  O   UNL A   1      42.409  18.656  27.100  1.00  0.00    -0.237 OA
ATOM     85  O   UNL A   1      40.591  19.598  25.726  1.00  0.00    -0.744 OA
ENDBRANCH  81  82
ENDBRANCH  60  74
BRANCH  61  86
ATOM     86  C   UNL A   1      44.804  32.786  31.408  1.00  0.00     0.058 A 
ATOM     87  C   UNL A   1      45.397  33.803  30.646  1.00  0.00     0.135 A 
ATOM     88  C   UNL A   1      44.482  33.072  32.744  1.00  0.00     0.135 A 
ATOM     89  F   UNL A   1      45.736  33.572  29.368  1.00  0.00    -0.206 F 
ATOM     90  C   UNL A   1      45.673  35.054  31.189  1.00  0.00     0.059 A 
ATOM     91  C   UNL A   1      44.728  34.323  33.303  1.00  0.00     0.059 A 
ATOM     92  F   UNL A   1      43.910  32.135  33.514  1.00  0.00    -0.206 F 
ATOM     93  C   UNL A   1      45.334  35.305  32.520  1.00  0.00     0.060 A 
BRANCH  93  94
ATOM     94  S   UNL A   1      45.655  36.946  33.203  1.00  0.00     0.124 S 
ATOM     95  O   UNL A   1      46.146  37.660  32.031  1.00  0.00    -0.237 OA
ATOM     96  O   UNL A   1      44.336  37.343  33.685  1.00  0.00    -0.237 OA
ATOM     97  O   UNL A   1      46.644  36.687  34.246  1.00  0.00    -0.744 OA
ENDBRANCH  93  94
ENDBRANCH  61  86
BRANCH  73  98
ATOM     98  C   UNL A   1      48.759  27.120  30.431  1.00  0.00     0.058 A 
ATOM     99  C   UNL A   1      49.754  27.368  29.473  1.00  0.00     0.135 A 
ATOM    100  C   UNL A   1      49.164  26.647  31.690  1.00  0.00     0.135 A 
ATOM    101  F   UNL A   1      49.420  27.818  28.253  1.00  0.00    -0.206 F 
ATOM    102  C   UNL A   1      51.100  27.141  29.748  1.00  0.00     0.059 A 
ATOM    103  C   UNL A   1      50.505  26.434  31.994  1.00  0.00     0.059 A 
ATOM    104  F   UNL A   1      48.253  26.404  32.646  1.00  0.00    -0.206 F 
ATOM    105  C   UNL A   1      51.466  26.675  31.013  1.00  0.00     0.060 A 
BRANCH 105 106
ATOM    106  S   UNL A   1      53.217  26.420  31.372  1.00  0.00     0.124 S 
ATOM    107  O   UNL A   1      53.810  26.533  30.044  1.00  0.00    -0.237 OA
ATOM    108  O   UNL A   1      53.511  27.514  32.293  1.00  0.00    -0.237 OA
ATOM    109  O   UNL A   1      53.251  25.086  31.964  1.00  0.00    -0.744 OA
ENDBRANCH 105 106
ENDBRANCH  73  98
ENDBRANCH  47  48
ENDBRANCH  40  42
ENDBRANCH  39  40
ENDBRANCH  38  39
ENDBRANCH  37  38
ENDBRANCH  36  37
ENDBRANCH  35  36
ENDBRANCH   1  35
TORSDOF 24
ENDMDL
