MODEL 1
REMARK VINA RESULT:     -10.2      0.000      0.000
REMARK SMILES Nc1c(CC(=O)OCCOCCOCCOC(=O)c2ccc(-c3c4nc(c(-c5c(F)cc(S(=O)(=O)[O-])cc5F)c5ccc([nH]5)c(-c5c(F)cc(S(=O)(=O)[O-])cc5F)c5nc(c(-c6c(F)cc(S(=O)(=O)[O-])cc6F)c6ccc3[nH]6)C=C5)C=C4)cc2)cccc1C(=O)c1ccc(Br)cc1
REMARK SMILES IDX 11 1 10 2 9 3 8 4 7 5 5 6 6 7 4 8 3 9 2 10 88 11 85 12 87 13
REMARK SMILES IDX 86 14 1 15 89 18 90 19 91 20 92 21 97 22 93 23 96 24 94 25
REMARK SMILES IDX 95 26 12 27 13 28 14 29 15 30 16 31 17 32 18 33 19 34 20 35
REMARK SMILES IDX 84 36 21 37 83 38 22 39 23 40 24 41 77 42 25 43 82 44 76 45
REMARK SMILES IDX 78 46 26 47 81 48 75 49 74 50 27 52 61 53 40 54 60 55 41 56
REMARK SMILES IDX 44 57 59 58 79 59 42 60 43 61 58 63 80 64 45 65 28 66 29 67
REMARK SMILES IDX 38 68 30 69 31 70 37 71 39 72 32 73 33 74 34 75 35 76 36 77
REMARK SMILES IDX 62 78 63 79 72 80 64 81 65 82 71 83 73 84 66 85 67 86 68 87
REMARK SMILES IDX 69 88 70 89 46 90 47 91 56 92 48 93 49 94 55 95 57 96 50 97
REMARK SMILES IDX 51 98 52 99 53 100 54 101
REMARK H PARENT 1 16 1 17 78 51 44 62
REMARK Flexibility Score: inf
ROOT
ATOM      1  C   UNL A   1      34.039  27.272  25.818  1.00  0.00     0.188 C 
ENDROOT
BRANCH   1   2
ATOM      2  O   UNL A   1      33.548  27.007  24.503  1.00  0.00    -0.376 OA
BRANCH   2   3
ATOM      3  C   UNL A   1      33.774  27.962  23.474  1.00  0.00     0.202 C 
BRANCH   3   4
ATOM      4  C   UNL A   1      32.536  28.706  22.962  1.00  0.00     0.261 C 
BRANCH   4   5
ATOM      5  O   UNL A   1      31.353  28.414  23.732  1.00  0.00    -0.463 OA
BRANCH   5   6
ATOM      6  C   UNL A   1      30.241  28.064  23.046  1.00  0.00     0.310 C 
ATOM      7  O   UNL A   1      29.836  28.660  22.052  1.00  0.00    -0.252 OA
BRANCH   6   8
ATOM      8  C   UNL A   1      29.600  26.768  23.509  1.00  0.00     0.160 C 
BRANCH   8   9
ATOM      9  C   UNL A   1      30.421  25.719  24.243  1.00  0.00    -0.013 A 
ATOM     10  C   UNL A   1      31.301  24.833  23.585  1.00  0.00     0.047 A 
ATOM     11  C   UNL A   1      32.115  23.974  24.378  1.00  0.00     0.046 A 
ATOM     12  C   UNL A   1      30.366  25.706  25.653  1.00  0.00     0.006 A 
ATOM     13  C   UNL A   1      31.962  23.919  25.772  1.00  0.00     0.014 A 
ATOM     14  C   UNL A   1      31.088  24.786  26.409  1.00  0.00     0.001 A 
BRANCH  10  15
ATOM     15  N   UNL A   1      31.342  24.833  22.196  1.00  0.00    -0.398 N 
ATOM     16  H   UNL A   1      31.333  23.981  21.703  1.00  0.00     0.156 HD
ATOM     17  H   UNL A   1      31.380  25.686  21.704  1.00  0.00     0.156 HD
ENDBRANCH  10  15
BRANCH  11  18
ATOM     18  C   UNL A   1      33.229  23.138  23.834  1.00  0.00     0.195 C 
ATOM     19  O   UNL A   1      34.149  23.644  23.197  1.00  0.00    -0.289 OA
BRANCH  18  20
ATOM     20  C   UNL A   1      33.239  21.673  24.040  1.00  0.00     0.023 A 
ATOM     21  C   UNL A   1      32.251  20.916  23.401  1.00  0.00     0.013 A 
ATOM     22  C   UNL A   1      34.269  21.043  24.751  1.00  0.00     0.013 A 
ATOM     23  C   UNL A   1      32.348  19.526  23.391  1.00  0.00     0.016 A 
ATOM     24  C   UNL A   1      34.362  19.651  24.738  1.00  0.00     0.016 A 
ATOM     25  C   UNL A   1      33.415  18.901  24.039  1.00  0.00     0.018 A 
ATOM     26  Br  UNL A   1      33.601  17.023  23.935  1.00  0.00    -0.051 Br
ENDBRANCH  18  20
ENDBRANCH  11  18
ENDBRANCH   8   9
ENDBRANCH   6   8
ENDBRANCH   5   6
ENDBRANCH   4   5
ENDBRANCH   3   4
ENDBRANCH   2   3
ENDBRANCH   1   2
BRANCH   1  27
ATOM     27  C   UNL A   1      33.274  28.260  26.718  1.00  0.00     0.188 C 
BRANCH  27  28
ATOM     28  O   UNL A   1      33.785  29.573  26.588  1.00  0.00    -0.376 OA
BRANCH  28  29
ATOM     29  C   UNL A   1      32.894  30.618  26.903  1.00  0.00     0.202 C 
BRANCH  29  30
ATOM     30  C   UNL A   1      33.477  31.626  27.897  1.00  0.00     0.261 C 
BRANCH  30  31
ATOM     31  O   UNL A   1      33.445  33.009  27.497  1.00  0.00    -0.460 OA
BRANCH  31  32
ATOM     32  C   UNL A   1      33.450  33.943  28.470  1.00  0.00     0.338 C 
ATOM     33  O   UNL A   1      32.548  34.729  28.739  1.00  0.00    -0.246 OA
BRANCH  32  34
ATOM     34  C   UNL A   1      34.666  33.748  29.284  1.00  0.00     0.060 A 
ATOM     35  C   UNL A   1      35.914  34.141  28.781  1.00  0.00     0.016 A 
ATOM     36  C   UNL A   1      34.572  33.164  30.546  1.00  0.00     0.016 A 
ATOM     37  C   UNL A   1      37.077  33.939  29.531  1.00  0.00     0.010 A 
ATOM     38  C   UNL A   1      35.735  32.940  31.286  1.00  0.00     0.010 A 
ATOM     39  C   UNL A   1      36.995  33.305  30.777  1.00  0.00    -0.014 A 
BRANCH  39  40
ATOM     40  C   UNL A   1      38.207  32.846  31.501  1.00  0.00     0.031 A 
ATOM     41  C   UNL A   1      38.934  31.645  30.965  1.00  0.00     0.074 A 
ATOM     42  C   UNL A   1      38.610  33.427  32.646  1.00  0.00     0.049 A 
ATOM     43  N   UNL A   1      39.833  30.891  31.539  1.00  0.00    -0.248 NA
ATOM     44  C   UNL A   1      38.581  31.232  29.595  1.00  0.00     0.031 C 
ATOM     45  C   UNL A   1      38.039  34.639  33.230  1.00  0.00     0.029 A 
ATOM     46  N   UNL A   1      39.578  33.044  33.544  1.00  0.00    -0.354 N 
ATOM     47  C   UNL A   1      40.129  29.894  30.617  1.00  0.00     0.074 A 
ATOM     48  C   UNL A   1      39.307  30.134  29.450  1.00  0.00     0.031 C 
ATOM     49  C   UNL A   1      38.643  34.882  34.406  1.00  0.00     0.029 A 
ATOM     50  C   UNL A   1      39.597  33.810  34.688  1.00  0.00     0.049 A 
ATOM     51  H   UNL A   1      40.197  32.296  33.384  1.00  0.00     0.167 HD
ATOM     52  C   UNL A   1      41.003  28.867  30.739  1.00  0.00     0.037 A 
ATOM     53  C   UNL A   1      40.266  33.632  35.845  1.00  0.00     0.037 A 
ATOM     54  C   UNL A   1      41.812  28.642  31.907  1.00  0.00     0.049 A 
ATOM     55  C   UNL A   1      41.167  32.429  36.000  1.00  0.00     0.074 A 
ATOM     56  C   UNL A   1      42.728  27.631  32.138  1.00  0.00     0.029 A 
ATOM     57  N   UNL A   1      41.801  29.440  33.042  1.00  0.00    -0.354 N 
ATOM     58  N   UNL A   1      41.427  31.476  35.135  1.00  0.00    -0.248 NA
ATOM     59  C   UNL A   1      41.860  32.270  37.288  1.00  0.00     0.031 C 
ATOM     60  C   UNL A   1      43.231  27.787  33.432  1.00  0.00     0.029 A 
ATOM     61  C   UNL A   1      42.681  28.933  33.983  1.00  0.00     0.049 A 
ATOM     62  H   UNL A   1      41.248  30.245  33.162  1.00  0.00     0.167 HD
ATOM     63  C   UNL A   1      42.347  30.635  35.757  1.00  0.00     0.074 A 
ATOM     64  C   UNL A   1      42.590  31.184  37.074  1.00  0.00     0.031 C 
ATOM     65  C   UNL A   1      42.942  29.517  35.276  1.00  0.00     0.037 A 
BRANCH  52  66
ATOM     66  C   UNL A   1      41.098  27.888  29.602  1.00  0.00     0.058 A 
ATOM     67  C   UNL A   1      42.179  27.894  28.705  1.00  0.00     0.135 A 
ATOM     68  C   UNL A   1      40.109  26.906  29.426  1.00  0.00     0.135 A 
ATOM     69  F   UNL A   1      43.142  28.824  28.812  1.00  0.00    -0.206 F 
ATOM     70  C   UNL A   1      42.260  26.980  27.659  1.00  0.00     0.059 A 
ATOM     71  C   UNL A   1      40.187  25.962  28.408  1.00  0.00     0.059 A 
ATOM     72  F   UNL A   1      39.052  26.856  30.253  1.00  0.00    -0.206 F 
ATOM     73  C   UNL A   1      41.261  26.016  27.520  1.00  0.00     0.060 A 
BRANCH  73  74
ATOM     74  S   UNL A   1      41.386  24.836  26.162  1.00  0.00     0.124 S 
ATOM     75  O   UNL A   1      42.099  23.732  26.799  1.00  0.00    -0.237 OA
ATOM     76  O   UNL A   1      39.985  24.581  25.841  1.00  0.00    -0.237 OA
ATOM     77  O   UNL A   1      42.138  25.563  25.144  1.00  0.00    -0.744 OA
ENDBRANCH  73  74
ENDBRANCH  52  66
BRANCH  53  78
ATOM     78  C   UNL A   1      40.091  34.596  36.968  1.00  0.00     0.058 A 
ATOM     79  C   UNL A   1      40.915  35.725  37.083  1.00  0.00     0.135 A 
ATOM     80  C   UNL A   1      39.106  34.405  37.950  1.00  0.00     0.135 A 
ATOM     81  F   UNL A   1      41.882  35.945  36.180  1.00  0.00    -0.206 F 
ATOM     82  C   UNL A   1      40.779  36.623  38.138  1.00  0.00     0.059 A 
ATOM     83  C   UNL A   1      38.931  35.305  38.998  1.00  0.00     0.059 A 
ATOM     84  F   UNL A   1      38.286  33.344  37.885  1.00  0.00    -0.206 F 
ATOM     85  C   UNL A   1      39.781  36.407  39.089  1.00  0.00     0.060 A 
BRANCH  85  86
ATOM     86  S   UNL A   1      39.588  37.603  40.428  1.00  0.00     0.124 S 
ATOM     87  O   UNL A   1      40.757  38.454  40.232  1.00  0.00    -0.237 OA
ATOM     88  O   UNL A   1      38.298  38.209  40.113  1.00  0.00    -0.237 OA
ATOM     89  O   UNL A   1      39.607  36.771  41.628  1.00  0.00    -0.744 OA
ENDBRANCH  85  86
ENDBRANCH  53  78
BRANCH  65  90
ATOM     90  C   UNL A   1      43.982  28.840  36.127  1.00  0.00     0.058 A 
ATOM     91  C   UNL A   1      43.694  27.709  36.901  1.00  0.00     0.135 A 
ATOM     92  C   UNL A   1      45.321  29.265  36.058  1.00  0.00     0.135 A 
ATOM     93  F   UNL A   1      42.431  27.266  37.008  1.00  0.00    -0.206 F 
ATOM     94  C   UNL A   1      44.696  27.016  37.576  1.00  0.00     0.059 A 
ATOM     95  C   UNL A   1      46.342  28.573  36.700  1.00  0.00     0.059 A 
ATOM     96  F   UNL A   1      45.651  30.339  35.323  1.00  0.00    -0.206 F 
ATOM     97  C   UNL A   1      46.019  27.448  37.457  1.00  0.00     0.060 A 
BRANCH  97  98
ATOM     98  S   UNL A   1      47.321  26.485  38.257  1.00  0.00     0.124 S 
ATOM     99  O   UNL A   1      48.133  27.534  38.864  1.00  0.00    -0.237 OA
ATOM    100  O   UNL A   1      46.564  25.652  39.186  1.00  0.00    -0.237 OA
ATOM    101  O   UNL A   1      47.946  25.768  37.149  1.00  0.00    -0.744 OA
ENDBRANCH  97  98
ENDBRANCH  65  90
ENDBRANCH  39  40
ENDBRANCH  32  34
ENDBRANCH  31  32
ENDBRANCH  30  31
ENDBRANCH  29  30
ENDBRANCH  28  29
ENDBRANCH  27  28
ENDBRANCH   1  27
TORSDOF 24
ENDMDL
MODEL 2
REMARK VINA RESULT:     -10.0      5.201      9.604
REMARK SMILES Nc1c(CC(=O)OCCOCCOCCOC(=O)c2ccc(-c3c4nc(c(-c5c(F)cc(S(=O)(=O)[O-])cc5F)c5ccc([nH]5)c(-c5c(F)cc(S(=O)(=O)[O-])cc5F)c5nc(c(-c6c(F)cc(S(=O)(=O)[O-])cc6F)c6ccc3[nH]6)C=C5)C=C4)cc2)cccc1C(=O)c1ccc(Br)cc1
REMARK SMILES IDX 11 1 10 2 9 3 8 4 7 5 5 6 6 7 4 8 3 9 2 10 88 11 85 12 87 13
REMARK SMILES IDX 86 14 1 15 89 18 90 19 91 20 92 21 97 22 93 23 96 24 94 25
REMARK SMILES IDX 95 26 12 27 13 28 14 29 15 30 16 31 17 32 18 33 19 34 20 35
REMARK SMILES IDX 84 36 21 37 83 38 22 39 23 40 24 41 77 42 25 43 82 44 76 45
REMARK SMILES IDX 78 46 26 47 81 48 75 49 74 50 27 52 61 53 40 54 60 55 41 56
REMARK SMILES IDX 44 57 59 58 79 59 42 60 43 61 58 63 80 64 45 65 28 66 29 67
REMARK SMILES IDX 38 68 30 69 31 70 37 71 39 72 32 73 33 74 34 75 35 76 36 77
REMARK SMILES IDX 62 78 63 79 72 80 64 81 65 82 71 83 73 84 66 85 67 86 68 87
REMARK SMILES IDX 69 88 70 89 46 90 47 91 56 92 48 93 49 94 55 95 57 96 50 97
REMARK SMILES IDX 51 98 52 99 53 100 54 101
REMARK H PARENT 1 16 1 17 78 51 44 62
REMARK Flexibility Score: inf
ROOT
ATOM      1  C   UNL A   1      33.510  29.863  26.854  1.00  0.00     0.188 C 
ENDROOT
BRANCH   1   2
ATOM      2  O   UNL A   1      32.996  30.056  25.535  1.00  0.00    -0.376 OA
BRANCH   2   3
ATOM      3  C   UNL A   1      32.569  28.924  24.786  1.00  0.00     0.202 C 
BRANCH   3   4
ATOM      4  C   UNL A   1      31.054  28.753  24.631  1.00  0.00     0.261 C 
BRANCH   4   5
ATOM      5  O   UNL A   1      30.698  27.538  23.942  1.00  0.00    -0.463 OA
BRANCH   5   6
ATOM      6  C   UNL A   1      30.811  27.538  22.594  1.00  0.00     0.310 C 
ATOM      7  O   UNL A   1      30.524  28.499  21.885  1.00  0.00    -0.252 OA
BRANCH   6   8
ATOM      8  C   UNL A   1      31.469  26.297  22.018  1.00  0.00     0.160 C 
BRANCH   8   9
ATOM      9  C   UNL A   1      32.237  25.342  22.919  1.00  0.00    -0.013 A 
ATOM     10  C   UNL A   1      31.603  24.405  23.762  1.00  0.00     0.047 A 
ATOM     11  C   UNL A   1      32.416  23.473  24.471  1.00  0.00     0.046 A 
ATOM     12  C   UNL A   1      33.645  25.335  22.824  1.00  0.00     0.006 A 
ATOM     13  C   UNL A   1      33.816  23.559  24.429  1.00  0.00     0.014 A 
ATOM     14  C   UNL A   1      34.431  24.489  23.606  1.00  0.00     0.001 A 
BRANCH  10  15
ATOM     15  N   UNL A   1      30.218  24.424  23.869  1.00  0.00    -0.398 N 
ATOM     16  H   UNL A   1      29.739  25.283  23.914  1.00  0.00     0.156 HD
ATOM     17  H   UNL A   1      29.715  23.578  23.901  1.00  0.00     0.156 HD
ENDBRANCH  10  15
BRANCH  11  18
ATOM     18  C   UNL A   1      31.880  22.304  25.233  1.00  0.00     0.195 C 
ATOM     19  O   UNL A   1      31.167  22.463  26.220  1.00  0.00    -0.289 OA
BRANCH  18  20
ATOM     20  C   UNL A   1      32.212  20.922  24.820  1.00  0.00     0.023 A 
ATOM     21  C   UNL A   1      32.027  20.579  23.477  1.00  0.00     0.013 A 
ATOM     22  C   UNL A   1      32.804  20.017  25.711  1.00  0.00     0.013 A 
ATOM     23  C   UNL A   1      32.524  19.366  23.001  1.00  0.00     0.016 A 
ATOM     24  C   UNL A   1      33.300  18.805  25.231  1.00  0.00     0.016 A 
ATOM     25  C   UNL A   1      33.179  18.496  23.875  1.00  0.00     0.018 A 
ATOM     26  Br  UNL A   1      33.943  16.902  23.207  1.00  0.00    -0.051 Br
ENDBRANCH  18  20
ENDBRANCH  11  18
ENDBRANCH   8   9
ENDBRANCH   6   8
ENDBRANCH   5   6
ENDBRANCH   4   5
ENDBRANCH   3   4
ENDBRANCH   2   3
ENDBRANCH   1   2
BRANCH   1  27
ATOM     27  C   UNL A   1      34.131  31.059  27.599  1.00  0.00     0.188 C 
BRANCH  27  28
ATOM     28  O   UNL A   1      33.224  32.144  27.672  1.00  0.00    -0.376 OA
BRANCH  28  29
ATOM     29  C   UNL A   1      33.801  33.427  27.757  1.00  0.00     0.202 C 
BRANCH  29  30
ATOM     30  C   UNL A   1      33.918  33.939  29.195  1.00  0.00     0.261 C 
BRANCH  30  31
ATOM     31  O   UNL A   1      35.164  33.675  29.866  1.00  0.00    -0.460 OA
BRANCH  31  32
ATOM     32  C   UNL A   1      35.194  32.662  30.755  1.00  0.00     0.338 C 
ATOM     33  O   UNL A   1      34.284  32.306  31.497  1.00  0.00    -0.246 OA
BRANCH  32  34
ATOM     34  C   UNL A   1      36.461  31.926  30.567  1.00  0.00     0.060 A 
ATOM     35  C   UNL A   1      37.049  31.259  31.650  1.00  0.00     0.016 A 
ATOM     36  C   UNL A   1      37.075  31.907  29.316  1.00  0.00     0.016 A 
ATOM     37  C   UNL A   1      38.262  30.580  31.492  1.00  0.00     0.010 A 
ATOM     38  C   UNL A   1      38.297  31.250  29.162  1.00  0.00     0.010 A 
ATOM     39  C   UNL A   1      38.909  30.602  30.251  1.00  0.00    -0.014 A 
BRANCH  39  40
ATOM     40  C   UNL A   1      40.302  30.115  30.088  1.00  0.00     0.031 A 
ATOM     41  C   UNL A   1      41.418  31.111  30.238  1.00  0.00     0.074 A 
ATOM     42  C   UNL A   1      40.571  28.842  29.741  1.00  0.00     0.049 A 
ATOM     43  N   UNL A   1      42.672  31.015  29.888  1.00  0.00    -0.248 NA
ATOM     44  C   UNL A   1      41.058  32.399  30.855  1.00  0.00     0.031 C 
ATOM     45  C   UNL A   1      39.589  27.765  29.638  1.00  0.00     0.029 A 
ATOM     46  N   UNL A   1      41.758  28.254  29.372  1.00  0.00    -0.354 N 
ATOM     47  C   UNL A   1      43.245  32.240  30.207  1.00  0.00     0.074 A 
ATOM     48  C   UNL A   1      42.199  33.066  30.772  1.00  0.00     0.031 C 
ATOM     49  C   UNL A   1      40.207  26.654  29.199  1.00  0.00     0.029 A 
ATOM     50  C   UNL A   1      41.612  26.959  28.930  1.00  0.00     0.049 A 
ATOM     51  H   UNL A   1      42.626  28.715  29.420  1.00  0.00     0.167 HD
ATOM     52  C   UNL A   1      44.528  32.640  30.038  1.00  0.00     0.037 A 
ATOM     53  C   UNL A   1      42.497  26.138  28.329  1.00  0.00     0.037 A 
ATOM     54  C   UNL A   1      45.555  31.806  29.474  1.00  0.00     0.049 A 
ATOM     55  C   UNL A   1      43.900  26.632  28.062  1.00  0.00     0.074 A 
ATOM     56  C   UNL A   1      46.886  32.112  29.253  1.00  0.00     0.029 A 
ATOM     57  N   UNL A   1      45.366  30.502  29.039  1.00  0.00    -0.354 N 
ATOM     58  N   UNL A   1      44.431  27.798  28.345  1.00  0.00    -0.248 NA
ATOM     59  C   UNL A   1      44.821  25.705  27.387  1.00  0.00     0.031 C 
ATOM     60  C   UNL A   1      47.489  31.013  28.637  1.00  0.00     0.029 A 
ATOM     61  C   UNL A   1      46.552  29.997  28.536  1.00  0.00     0.049 A 
ATOM     62  H   UNL A   1      44.515  30.011  29.081  1.00  0.00     0.167 HD
ATOM     63  C   UNL A   1      45.758  27.727  27.927  1.00  0.00     0.074 A 
ATOM     64  C   UNL A   1      45.946  26.407  27.361  1.00  0.00     0.031 C 
ATOM     65  C   UNL A   1      46.732  28.664  28.014  1.00  0.00     0.037 A 
BRANCH  52  66
ATOM     66  C   UNL A   1      44.880  34.050  30.425  1.00  0.00     0.058 A 
ATOM     67  C   UNL A   1      44.862  35.102  29.495  1.00  0.00     0.135 A 
ATOM     68  C   UNL A   1      45.208  34.359  31.756  1.00  0.00     0.135 A 
ATOM     69  F   UNL A   1      44.576  34.860  28.205  1.00  0.00    -0.206 F 
ATOM     70  C   UNL A   1      45.184  36.404  29.866  1.00  0.00     0.059 A 
ATOM     71  C   UNL A   1      45.502  35.658  32.154  1.00  0.00     0.059 A 
ATOM     72  F   UNL A   1      45.245  33.390  32.685  1.00  0.00    -0.206 F 
ATOM     73  C   UNL A   1      45.500  36.673  31.198  1.00  0.00     0.060 A 
BRANCH  73  74
ATOM     74  S   UNL A   1      45.910  38.367  31.661  1.00  0.00     0.124 S 
ATOM     75  O   UNL A   1      47.316  38.236  32.033  1.00  0.00    -0.237 OA
ATOM     76  O   UNL A   1      45.649  39.099  30.425  1.00  0.00    -0.237 OA
ATOM     77  O   UNL A   1      44.995  38.653  32.761  1.00  0.00    -0.744 OA
ENDBRANCH  73  74
ENDBRANCH  52  66
BRANCH  53  78
ATOM     78  C   UNL A   1      42.083  24.770  27.905  1.00  0.00     0.058 A 
ATOM     79  C   UNL A   1      42.432  23.644  28.666  1.00  0.00     0.135 A 
ATOM     80  C   UNL A   1      41.341  24.560  26.733  1.00  0.00     0.135 A 
ATOM     81  F   UNL A   1      43.155  23.789  29.787  1.00  0.00    -0.206 F 
ATOM     82  C   UNL A   1      42.072  22.359  28.273  1.00  0.00     0.059 A 
ATOM     83  C   UNL A   1      40.944  23.287  26.335  1.00  0.00     0.059 A 
ATOM     84  F   UNL A   1      40.976  25.603  25.970  1.00  0.00    -0.206 F 
ATOM     85  C   UNL A   1      41.324  22.189  27.107  1.00  0.00     0.060 A 
BRANCH  85  86
ATOM     86  S   UNL A   1      40.829  20.519  26.632  1.00  0.00     0.124 S 
ATOM     87  O   UNL A   1      41.890  20.151  25.700  1.00  0.00    -0.237 OA
ATOM     88  O   UNL A   1      40.835  19.823  27.915  1.00  0.00    -0.237 OA
ATOM     89  O   UNL A   1      39.509  20.715  26.040  1.00  0.00    -0.744 OA
ENDBRANCH  85  86
ENDBRANCH  53  78
BRANCH  65  90
ATOM     90  C   UNL A   1      48.121  28.293  27.569  1.00  0.00     0.058 A 
ATOM     91  C   UNL A   1      49.107  27.873  28.471  1.00  0.00     0.135 A 
ATOM     92  C   UNL A   1      48.420  28.237  26.196  1.00  0.00     0.135 A 
ATOM     93  F   UNL A   1      48.877  27.914  29.793  1.00  0.00    -0.206 F 
ATOM     94  C   UNL A   1      50.343  27.405  28.029  1.00  0.00     0.059 A 
ATOM     95  C   UNL A   1      49.635  27.747  25.731  1.00  0.00     0.059 A 
ATOM     96  F   UNL A   1      47.506  28.620  25.290  1.00  0.00    -0.206 F 
ATOM     97  C   UNL A   1      50.591  27.332  26.657  1.00  0.00     0.060 A 
BRANCH  97  98
ATOM     98  S   UNL A   1      52.158  26.633  26.095  1.00  0.00     0.124 S 
ATOM     99  O   UNL A   1      52.304  27.252  24.783  1.00  0.00    -0.237 OA
ATOM    100  O   UNL A   1      53.089  27.095  27.120  1.00  0.00    -0.237 OA
ATOM    101  O   UNL A   1      51.908  25.194  26.087  1.00  0.00    -0.744 OA
ENDBRANCH  97  98
ENDBRANCH  65  90
ENDBRANCH  39  40
ENDBRANCH  32  34
ENDBRANCH  31  32
ENDBRANCH  30  31
ENDBRANCH  29  30
ENDBRANCH  28  29
ENDBRANCH  27  28
ENDBRANCH   1  27
TORSDOF 24
ENDMDL
MODEL 3
REMARK VINA RESULT:     -10.0      2.635      8.779
REMARK SMILES Nc1c(CC(=O)OCCOCCOCCOC(=O)c2ccc(-c3c4nc(c(-c5c(F)cc(S(=O)(=O)[O-])cc5F)c5ccc([nH]5)c(-c5c(F)cc(S(=O)(=O)[O-])cc5F)c5nc(c(-c6c(F)cc(S(=O)(=O)[O-])cc6F)c6ccc3[nH]6)C=C5)C=C4)cc2)cccc1C(=O)c1ccc(Br)cc1
REMARK SMILES IDX 11 1 10 2 9 3 8 4 7 5 5 6 6 7 4 8 3 9 2 10 88 11 85 12 87 13
REMARK SMILES IDX 86 14 1 15 89 18 90 19 91 20 92 21 97 22 93 23 96 24 94 25
REMARK SMILES IDX 95 26 12 27 13 28 14 29 15 30 16 31 17 32 18 33 19 34 20 35
REMARK SMILES IDX 84 36 21 37 83 38 22 39 23 40 24 41 77 42 25 43 82 44 76 45
REMARK SMILES IDX 78 46 26 47 81 48 75 49 74 50 27 52 61 53 40 54 60 55 41 56
REMARK SMILES IDX 44 57 59 58 79 59 42 60 43 61 58 63 80 64 45 65 28 66 29 67
REMARK SMILES IDX 38 68 30 69 31 70 37 71 39 72 32 73 33 74 34 75 35 76 36 77
REMARK SMILES IDX 62 78 63 79 72 80 64 81 65 82 71 83 73 84 66 85 67 86 68 87
REMARK SMILES IDX 69 88 70 89 46 90 47 91 56 92 48 93 49 94 55 95 57 96 50 97
REMARK SMILES IDX 51 98 52 99 53 100 54 101
REMARK H PARENT 1 16 1 17 78 51 44 62
REMARK Flexibility Score: inf
ROOT
ATOM      1  C   UNL A   1      38.477  22.036  25.838  1.00  0.00     0.188 C 
ENDROOT
BRANCH   1   2
ATOM      2  O   UNL A   1      37.188  22.633  25.678  1.00  0.00    -0.376 OA
BRANCH   2   3
ATOM      3  C   UNL A   1      36.036  21.798  25.665  1.00  0.00     0.202 C 
BRANCH   3   4
ATOM      4  C   UNL A   1      35.427  21.515  24.288  1.00  0.00     0.261 C 
BRANCH   4   5
ATOM      5  O   UNL A   1      34.218  20.733  24.364  1.00  0.00    -0.463 OA
BRANCH   5   6
ATOM      6  C   UNL A   1      33.047  21.393  24.213  1.00  0.00     0.310 C 
ATOM      7  O   UNL A   1      32.566  21.691  23.123  1.00  0.00    -0.252 OA
BRANCH   6   8
ATOM      8  C   UNL A   1      32.279  21.614  25.504  1.00  0.00     0.160 C 
BRANCH   8   9
ATOM      9  C   UNL A   1      31.605  22.949  25.784  1.00  0.00    -0.013 A 
ATOM     10  C   UNL A   1      32.090  24.174  25.281  1.00  0.00     0.047 A 
ATOM     11  C   UNL A   1      31.315  25.350  25.497  1.00  0.00     0.046 A 
ATOM     12  C   UNL A   1      30.387  22.936  26.496  1.00  0.00     0.006 A 
ATOM     13  C   UNL A   1      30.160  25.316  26.294  1.00  0.00     0.014 A 
ATOM     14  C   UNL A   1      29.696  24.109  26.793  1.00  0.00     0.001 A 
BRANCH  10  15
ATOM     15  N   UNL A   1      33.298  24.189  24.595  1.00  0.00    -0.398 N 
ATOM     16  H   UNL A   1      33.994  23.526  24.808  1.00  0.00     0.156 HD
ATOM     17  H   UNL A   1      33.460  24.864  23.895  1.00  0.00     0.156 HD
ENDBRANCH  10  15
BRANCH  11  18
ATOM     18  C   UNL A   1      31.596  26.670  24.853  1.00  0.00     0.195 C 
ATOM     19  O   UNL A   1      31.415  26.840  23.651  1.00  0.00    -0.289 OA
BRANCH  18  20
ATOM     20  C   UNL A   1      32.116  27.801  25.654  1.00  0.00     0.023 A 
ATOM     21  C   UNL A   1      33.092  27.525  26.617  1.00  0.00     0.013 A 
ATOM     22  C   UNL A   1      31.738  29.122  25.381  1.00  0.00     0.013 A 
ATOM     23  C   UNL A   1      33.762  28.578  27.240  1.00  0.00     0.016 A 
ATOM     24  C   UNL A   1      32.411  30.172  26.006  1.00  0.00     0.016 A 
ATOM     25  C   UNL A   1      33.434  29.895  26.914  1.00  0.00     0.018 A 
ATOM     26  Br  UNL A   1      34.415  31.318  27.680  1.00  0.00    -0.051 Br
ENDBRANCH  18  20
ENDBRANCH  11  18
ENDBRANCH   8   9
ENDBRANCH   6   8
ENDBRANCH   5   6
ENDBRANCH   4   5
ENDBRANCH   3   4
ENDBRANCH   2   3
ENDBRANCH   1   2
BRANCH   1  27
ATOM     27  C   UNL A   1      39.509  22.716  26.757  1.00  0.00     0.188 C 
BRANCH  27  28
ATOM     28  O   UNL A   1      40.506  21.802  27.172  1.00  0.00    -0.376 OA
BRANCH  28  29
ATOM     29  C   UNL A   1      41.822  22.303  27.224  1.00  0.00     0.202 C 
BRANCH  29  30
ATOM     30  C   UNL A   1      42.101  23.370  26.161  1.00  0.00     0.261 C 
BRANCH  30  31
ATOM     31  O   UNL A   1      42.513  24.661  26.647  1.00  0.00    -0.460 OA
BRANCH  31  32
ATOM     32  C   UNL A   1      41.872  25.745  26.167  1.00  0.00     0.338 C 
ATOM     33  O   UNL A   1      41.544  25.950  25.002  1.00  0.00    -0.246 OA
BRANCH  32  34
ATOM     34  C   UNL A   1      41.466  26.582  27.314  1.00  0.00     0.060 A 
ATOM     35  C   UNL A   1      42.114  27.802  27.552  1.00  0.00     0.016 A 
ATOM     36  C   UNL A   1      40.448  26.152  28.163  1.00  0.00     0.016 A 
ATOM     37  C   UNL A   1      41.758  28.592  28.650  1.00  0.00     0.010 A 
ATOM     38  C   UNL A   1      40.107  26.929  29.272  1.00  0.00     0.010 A 
ATOM     39  C   UNL A   1      40.772  28.141  29.536  1.00  0.00    -0.014 A 
BRANCH  39  40
ATOM     40  C   UNL A   1      40.526  28.809  30.838  1.00  0.00     0.031 A 
ATOM     41  C   UNL A   1      39.482  29.890  30.889  1.00  0.00     0.074 A 
ATOM     42  C   UNL A   1      41.260  28.523  31.930  1.00  0.00     0.049 A 
ATOM     43  N   UNL A   1      39.266  30.795  31.805  1.00  0.00    -0.248 NA
ATOM     44  C   UNL A   1      38.569  29.963  29.736  1.00  0.00     0.031 C 
ATOM     45  C   UNL A   1      42.247  27.451  32.032  1.00  0.00     0.029 A 
ATOM     46  N   UNL A   1      41.310  29.146  33.155  1.00  0.00    -0.354 N 
ATOM     47  C   UNL A   1      38.216  31.569  31.324  1.00  0.00     0.074 A 
ATOM     48  C   UNL A   1      37.846  31.031  30.033  1.00  0.00     0.031 C 
ATOM     49  C   UNL A   1      42.831  27.511  33.242  1.00  0.00     0.029 A 
ATOM     50  C   UNL A   1      42.305  28.663  33.974  1.00  0.00     0.049 A 
ATOM     51  H   UNL A   1      40.694  29.866  33.420  1.00  0.00     0.167 HD
ATOM     52  C   UNL A   1      37.621  32.637  31.908  1.00  0.00     0.037 A 
ATOM     53  C   UNL A   1      42.770  29.131  35.150  1.00  0.00     0.037 A 
ATOM     54  C   UNL A   1      38.003  33.159  33.193  1.00  0.00     0.049 A 
ATOM     55  C   UNL A   1      42.158  30.378  35.743  1.00  0.00     0.074 A 
ATOM     56  C   UNL A   1      37.470  34.238  33.875  1.00  0.00     0.029 A 
ATOM     57  N   UNL A   1      39.014  32.642  33.988  1.00  0.00    -0.354 N 
ATOM     58  N   UNL A   1      41.181  31.120  35.275  1.00  0.00    -0.248 NA
ATOM     59  C   UNL A   1      42.714  30.858  37.017  1.00  0.00     0.031 C 
ATOM     60  C   UNL A   1      38.193  34.405  35.058  1.00  0.00     0.029 A 
ATOM     61  C   UNL A   1      39.132  33.390  35.146  1.00  0.00     0.049 A 
ATOM     62  H   UNL A   1      39.567  31.860  33.762  1.00  0.00     0.167 HD
ATOM     63  C   UNL A   1      40.976  32.123  36.219  1.00  0.00     0.074 A 
ATOM     64  C   UNL A   1      41.937  31.901  37.279  1.00  0.00     0.031 C 
ATOM     65  C   UNL A   1      40.068  33.129  36.212  1.00  0.00     0.037 A 
BRANCH  52  66
ATOM     66  C   UNL A   1      36.529  33.334  31.145  1.00  0.00     0.058 A 
ATOM     67  C   UNL A   1      36.800  34.127  30.018  1.00  0.00     0.135 A 
ATOM     68  C   UNL A   1      35.186  33.181  31.528  1.00  0.00     0.135 A 
ATOM     69  F   UNL A   1      38.067  34.326  29.619  1.00  0.00    -0.206 F 
ATOM     70  C   UNL A   1      35.781  34.764  29.316  1.00  0.00     0.059 A 
ATOM     71  C   UNL A   1      34.149  33.781  30.822  1.00  0.00     0.059 A 
ATOM     72  F   UNL A   1      34.871  32.437  32.601  1.00  0.00    -0.206 F 
ATOM     73  C   UNL A   1      34.459  34.583  29.724  1.00  0.00     0.060 A 
BRANCH  73  74
ATOM     74  S   UNL A   1      33.151  35.412  28.799  1.00  0.00     0.124 S 
ATOM     75  O   UNL A   1      32.549  34.292  28.079  1.00  0.00    -0.237 OA
ATOM     76  O   UNL A   1      32.336  35.991  29.862  1.00  0.00    -0.237 OA
ATOM     77  O   UNL A   1      33.873  36.373  27.971  1.00  0.00    -0.744 OA
ENDBRANCH  73  74
ENDBRANCH  52  66
BRANCH  53  78
ATOM     78  C   UNL A   1      43.898  28.441  35.838  1.00  0.00     0.058 A 
ATOM     79  C   UNL A   1      45.227  28.828  35.609  1.00  0.00     0.135 A 
ATOM     80  C   UNL A   1      43.674  27.379  36.728  1.00  0.00     0.135 A 
ATOM     81  F   UNL A   1      45.497  29.828  34.755  1.00  0.00    -0.206 F 
ATOM     82  C   UNL A   1      46.293  28.180  36.226  1.00  0.00     0.059 A 
ATOM     83  C   UNL A   1      44.721  26.734  37.379  1.00  0.00     0.059 A 
ATOM     84  F   UNL A   1      42.421  26.970  36.987  1.00  0.00    -0.206 F 
ATOM     85  C   UNL A   1      46.030  27.136  37.114  1.00  0.00     0.060 A 
BRANCH  85  86
ATOM     86  S   UNL A   1      47.420  26.332  37.939  1.00  0.00     0.124 S 
ATOM     87  O   UNL A   1      48.222  25.890  36.803  1.00  0.00    -0.237 OA
ATOM     88  O   UNL A   1      47.980  27.425  38.728  1.00  0.00    -0.237 OA
ATOM     89  O   UNL A   1      46.784  25.271  38.713  1.00  0.00    -0.744 OA
ENDBRANCH  85  86
ENDBRANCH  53  78
BRANCH  65  90
ATOM     90  C   UNL A   1      39.993  34.030  37.415  1.00  0.00     0.058 A 
ATOM     91  C   UNL A   1      40.735  35.214  37.510  1.00  0.00     0.135 A 
ATOM     92  C   UNL A   1      39.060  33.757  38.432  1.00  0.00     0.135 A 
ATOM     93  F   UNL A   1      41.645  35.519  36.571  1.00  0.00    -0.206 F 
ATOM     94  C   UNL A   1      40.553  36.103  38.567  1.00  0.00     0.059 A 
ATOM     95  C   UNL A   1      38.842  34.642  39.481  1.00  0.00     0.059 A 
ATOM     96  F   UNL A   1      38.318  32.639  38.384  1.00  0.00    -0.206 F 
ATOM     97  C   UNL A   1      39.593  35.814  39.539  1.00  0.00     0.060 A 
BRANCH  97  98
ATOM     98  S   UNL A   1      39.299  37.020  40.851  1.00  0.00     0.124 S 
ATOM     99  O   UNL A   1      40.646  37.524  41.096  1.00  0.00    -0.237 OA
ATOM    100  O   UNL A   1      38.379  37.956  40.212  1.00  0.00    -0.237 OA
ATOM    101  O   UNL A   1      38.722  36.221  41.928  1.00  0.00    -0.744 OA
ENDBRANCH  97  98
ENDBRANCH  65  90
ENDBRANCH  39  40
ENDBRANCH  32  34
ENDBRANCH  31  32
ENDBRANCH  30  31
ENDBRANCH  29  30
ENDBRANCH  28  29
ENDBRANCH  27  28
ENDBRANCH   1  27
TORSDOF 24
ENDMDL
