MODEL 1
REMARK VINA RESULT:     -10.7      0.000      0.000
REMARK SMILES Cc1c(Cl)cc2c(c1C)O[C@H](C(F)(F)F)C(C(=O)OCCOCCOCCOC(=O)c1ccc(-c3c4nc(c(-c5c(F)cc(S(=O)(=O)[O-])cc5F)c5ccc([nH]5)c(-c5c(F)cc(S(=O)(=O)[O-])cc5F)c5nc(c(-c6c(F)cc(S(=O)(=O)[O-])cc6F)c6ccc3[nH]6)C=C5)C=C4)cc1)=C2
REMARK SMILES IDX 24 1 23 2 22 3 21 4 20 5 19 6 17 7 18 8 16 9 1 10 2 11 3 12
REMARK SMILES IDX 8 13 4 14 5 15 7 16 9 17 6 18 10 19 97 20 11 21 12 22 13 23
REMARK SMILES IDX 14 24 15 25 25 26 26 27 27 28 28 29 29 30 30 31 31 32 32 33
REMARK SMILES IDX 96 34 33 35 95 36 34 37 35 38 36 39 89 40 37 41 94 42 88 43
REMARK SMILES IDX 90 44 38 45 93 46 87 47 86 48 39 50 73 51 52 52 72 53 53 54
REMARK SMILES IDX 56 55 71 56 91 57 54 58 55 59 70 61 92 62 57 63 40 64 41 65
REMARK SMILES IDX 50 66 42 67 43 68 49 69 51 70 44 71 45 72 46 73 47 74 48 75
REMARK SMILES IDX 74 76 75 77 84 78 76 79 77 80 83 81 85 82 78 83 79 84 80 85
REMARK SMILES IDX 81 86 82 87 58 88 59 89 68 90 60 91 61 92 67 93 69 94 62 95
REMARK SMILES IDX 63 96 64 97 65 98 66 99
REMARK H PARENT 90 49 56 60
REMARK Flexibility Score: inf
ROOT
ATOM      1  C   UNL A   1      38.134  22.344  25.357  1.00  0.00     0.188 C 
ENDROOT
BRANCH   1   2
ATOM      2  C   UNL A   1      36.959  21.703  24.587  1.00  0.00     0.188 C 
BRANCH   2   3
ATOM      3  O   UNL A   1      36.042  20.859  25.272  1.00  0.00    -0.376 OA
BRANCH   3   4
ATOM      4  C   UNL A   1      35.080  21.420  26.157  1.00  0.00     0.202 C 
BRANCH   4   5
ATOM      5  C   UNL A   1      33.894  22.195  25.571  1.00  0.00     0.261 C 
BRANCH   5   6
ATOM      6  O   UNL A   1      34.084  23.619  25.555  1.00  0.00    -0.460 OA
BRANCH   6   7
ATOM      7  C   UNL A   1      34.119  24.183  24.326  1.00  0.00     0.338 C 
ATOM      8  O   UNL A   1      34.487  23.657  23.288  1.00  0.00    -0.246 OA
BRANCH   7   9
ATOM      9  C   UNL A   1      33.531  25.535  24.382  1.00  0.00     0.087 C 
ATOM     10  C   UNL A   1      31.438  31.428  26.267  1.00  0.00     0.046 C 
ATOM     11  C   UNL A   1      32.130  30.139  25.898  1.00  0.00    -0.026 A 
ATOM     12  C   UNL A   1      33.333  29.810  26.564  1.00  0.00     0.045 A 
ATOM     13  C   UNL A   1      31.632  29.239  24.922  1.00  0.00    -0.004 A 
ATOM     14  Cl  UNL A   1      34.050  30.873  27.729  1.00  0.00    -0.084 Cl
ATOM     15  C   UNL A   1      33.991  28.603  26.326  1.00  0.00     0.032 A 
ATOM     16  C   UNL A   1      32.326  28.027  24.680  1.00  0.00     0.131 A 
ATOM     17  C   UNL A   1      30.390  29.499  24.105  1.00  0.00     0.049 C 
ATOM     18  C   UNL A   1      33.472  27.696  25.406  1.00  0.00     0.019 A 
ATOM     19  O   UNL A   1      31.810  27.208  23.708  1.00  0.00    -0.475 OA
ATOM     20  C   UNL A   1      34.084  26.387  25.253  1.00  0.00     0.027 C 
ATOM     21  C   UNL A   1      32.366  25.882  23.502  1.00  0.00     0.316 C 
BRANCH  21  22
ATOM     22  C   UNL A   1      31.219  24.867  23.605  1.00  0.00     0.430 C 
ATOM     23  F   UNL A   1      31.424  23.810  22.780  1.00  0.00    -0.167 F 
ATOM     24  F   UNL A   1      31.106  24.356  24.855  1.00  0.00    -0.167 F 
ATOM     25  F   UNL A   1      30.025  25.407  23.278  1.00  0.00    -0.167 F 
ENDBRANCH  21  22
ENDBRANCH   7   9
ENDBRANCH   6   7
ENDBRANCH   5   6
ENDBRANCH   4   5
ENDBRANCH   3   4
ENDBRANCH   2   3
ENDBRANCH   1   2
BRANCH   1  26
ATOM     26  O   UNL A   1      39.025  21.431  25.950  1.00  0.00    -0.376 OA
BRANCH  26  27
ATOM     27  C   UNL A   1      40.027  21.879  26.846  1.00  0.00     0.202 C 
BRANCH  27  28
ATOM     28  C   UNL A   1      41.458  22.301  26.454  1.00  0.00     0.261 C 
BRANCH  28  29
ATOM     29  O   UNL A   1      42.076  23.361  27.184  1.00  0.00    -0.460 OA
BRANCH  29  30
ATOM     30  C   UNL A   1      42.233  24.535  26.527  1.00  0.00     0.338 C 
ATOM     31  O   UNL A   1      42.544  24.687  25.361  1.00  0.00    -0.246 OA
BRANCH  30  32
ATOM     32  C   UNL A   1      41.768  25.617  27.419  1.00  0.00     0.060 A 
ATOM     33  C   UNL A   1      42.423  26.854  27.369  1.00  0.00     0.016 A 
ATOM     34  C   UNL A   1      40.703  25.411  28.300  1.00  0.00     0.016 A 
ATOM     35  C   UNL A   1      42.037  27.882  28.230  1.00  0.00     0.010 A 
ATOM     36  C   UNL A   1      40.335  26.433  29.181  1.00  0.00     0.010 A 
ATOM     37  C   UNL A   1      41.023  27.659  29.171  1.00  0.00    -0.014 A 
BRANCH  37  38
ATOM     38  C   UNL A   1      40.842  28.615  30.290  1.00  0.00     0.031 A 
ATOM     39  C   UNL A   1      41.749  28.486  31.483  1.00  0.00     0.074 A 
ATOM     40  C   UNL A   1      39.915  29.589  30.243  1.00  0.00     0.049 A 
ATOM     41  N   UNL A   1      41.749  29.157  32.604  1.00  0.00    -0.248 NA
ATOM     42  C   UNL A   1      42.803  27.461  31.395  1.00  0.00     0.031 C 
ATOM     43  C   UNL A   1      39.016  29.852  29.121  1.00  0.00     0.029 A 
ATOM     44  N   UNL A   1      39.577  30.538  31.176  1.00  0.00    -0.354 N 
ATOM     45  C   UNL A   1      42.802  28.642  33.351  1.00  0.00     0.074 A 
ATOM     46  C   UNL A   1      43.401  27.583  32.570  1.00  0.00     0.031 C 
ATOM     47  C   UNL A   1      38.221  30.891  29.435  1.00  0.00     0.029 A 
ATOM     48  C   UNL A   1      38.531  31.342  30.792  1.00  0.00     0.049 A 
ATOM     49  H   UNL A   1      40.041  30.633  32.038  1.00  0.00     0.167 HD
ATOM     50  C   UNL A   1      43.235  29.021  34.575  1.00  0.00     0.037 A 
ATOM     51  C   UNL A   1      37.885  32.312  31.471  1.00  0.00     0.037 A 
ATOM     52  C   UNL A   1      42.626  30.064  35.359  1.00  0.00     0.049 A 
ATOM     53  C   UNL A   1      38.322  32.649  32.875  1.00  0.00     0.074 A 
ATOM     54  C   UNL A   1      42.982  30.511  36.619  1.00  0.00     0.029 A 
ATOM     55  N   UNL A   1      41.533  30.815  34.960  1.00  0.00    -0.354 N 
ATOM     56  N   UNL A   1      39.308  32.145  33.578  1.00  0.00    -0.248 NA
ATOM     57  C   UNL A   1      37.551  33.683  33.581  1.00  0.00     0.031 C 
ATOM     58  C   UNL A   1      42.075  31.506  37.000  1.00  0.00     0.029 A 
ATOM     59  C   UNL A   1      41.184  31.710  35.958  1.00  0.00     0.049 A 
ATOM     60  H   UNL A   1      41.071  30.727  34.095  1.00  0.00     0.167 HD
ATOM     61  C   UNL A   1      39.287  32.812  34.800  1.00  0.00     0.074 A 
ATOM     62  C   UNL A   1      38.201  33.767  34.733  1.00  0.00     0.031 C 
ATOM     63  C   UNL A   1      40.094  32.649  35.878  1.00  0.00     0.037 A 
BRANCH  50  64
ATOM     64  C   UNL A   1      44.411  28.286  35.152  1.00  0.00     0.058 A 
ATOM     65  C   UNL A   1      45.725  28.741  34.965  1.00  0.00     0.135 A 
ATOM     66  C   UNL A   1      44.219  27.131  35.926  1.00  0.00     0.135 A 
ATOM     67  F   UNL A   1      45.964  29.826  34.210  1.00  0.00    -0.206 F 
ATOM     68  C   UNL A   1      46.811  28.069  35.515  1.00  0.00     0.059 A 
ATOM     69  C   UNL A   1      45.290  26.455  36.505  1.00  0.00     0.059 A 
ATOM     70  F   UNL A   1      42.983  26.648  36.126  1.00  0.00    -0.206 F 
ATOM     71  C   UNL A   1      46.582  26.929  36.287  1.00  0.00     0.060 A 
BRANCH  71  72
ATOM     72  S   UNL A   1      48.003  26.079  37.008  1.00  0.00     0.124 S 
ATOM     73  O   UNL A   1      48.293  25.077  35.988  1.00  0.00    -0.237 OA
ATOM     74  O   UNL A   1      48.978  27.157  37.132  1.00  0.00    -0.237 OA
ATOM     75  O   UNL A   1      47.485  25.558  38.269  1.00  0.00    -0.744 OA
ENDBRANCH  71  72
ENDBRANCH  50  64
BRANCH  51  76
ATOM     76  C   UNL A   1      36.740  33.026  30.844  1.00  0.00     0.058 A 
ATOM     77  C   UNL A   1      36.948  33.994  29.851  1.00  0.00     0.135 A 
ATOM     78  C   UNL A   1      35.416  32.760  31.230  1.00  0.00     0.135 A 
ATOM     79  F   UNL A   1      38.195  34.298  29.461  1.00  0.00    -0.206 F 
ATOM     80  C   UNL A   1      35.886  34.679  29.267  1.00  0.00     0.059 A 
ATOM     81  C   UNL A   1      34.338  33.414  30.644  1.00  0.00     0.059 A 
ATOM     82  F   UNL A   1      35.163  31.841  32.175  1.00  0.00    -0.206 F 
ATOM     83  C   UNL A   1      34.583  34.378  29.667  1.00  0.00     0.060 A 
BRANCH  83  84
ATOM     84  S   UNL A   1      33.211  35.235  28.863  1.00  0.00     0.124 S 
ATOM     85  O   UNL A   1      32.682  34.193  27.991  1.00  0.00    -0.237 OA
ATOM     86  O   UNL A   1      32.374  35.602  30.001  1.00  0.00    -0.237 OA
ATOM     87  O   UNL A   1      33.863  36.351  28.187  1.00  0.00    -0.744 OA
ENDBRANCH  83  84
ENDBRANCH  51  76
BRANCH  63  88
ATOM     88  C   UNL A   1      39.843  33.530  37.073  1.00  0.00     0.058 A 
ATOM     89  C   UNL A   1      40.560  34.720  37.273  1.00  0.00     0.135 A 
ATOM     90  C   UNL A   1      38.840  33.206  38.001  1.00  0.00     0.135 A 
ATOM     91  F   UNL A   1      41.532  35.075  36.416  1.00  0.00    -0.206 F 
ATOM     92  C   UNL A   1      40.312  35.544  38.366  1.00  0.00     0.059 A 
ATOM     93  C   UNL A   1      38.556  34.029  39.087  1.00  0.00     0.059 A 
ATOM     94  F   UNL A   1      38.114  32.087  37.850  1.00  0.00    -0.206 F 
ATOM     95  C   UNL A   1      39.307  35.190  39.268  1.00  0.00     0.060 A 
BRANCH  95  96
ATOM     96  S   UNL A   1      38.982  36.278  40.671  1.00  0.00     0.124 S 
ATOM     97  O   UNL A   1      40.275  36.277  41.349  1.00  0.00    -0.237 OA
ATOM     98  O   UNL A   1      38.610  37.528  40.018  1.00  0.00    -0.237 OA
ATOM     99  O   UNL A   1      37.901  35.602  41.383  1.00  0.00    -0.744 OA
ENDBRANCH  95  96
ENDBRANCH  63  88
ENDBRANCH  37  38
ENDBRANCH  30  32
ENDBRANCH  29  30
ENDBRANCH  28  29
ENDBRANCH  27  28
ENDBRANCH  26  27
ENDBRANCH   1  26
TORSDOF 21
ENDMDL
MODEL 2
REMARK VINA RESULT:     -10.5      0.908      8.108
REMARK SMILES Cc1c(Cl)cc2c(c1C)O[C@H](C(F)(F)F)C(C(=O)OCCOCCOCCOC(=O)c1ccc(-c3c4nc(c(-c5c(F)cc(S(=O)(=O)[O-])cc5F)c5ccc([nH]5)c(-c5c(F)cc(S(=O)(=O)[O-])cc5F)c5nc(c(-c6c(F)cc(S(=O)(=O)[O-])cc6F)c6ccc3[nH]6)C=C5)C=C4)cc1)=C2
REMARK SMILES IDX 24 1 23 2 22 3 21 4 20 5 19 6 17 7 18 8 16 9 1 10 2 11 3 12
REMARK SMILES IDX 8 13 4 14 5 15 7 16 9 17 6 18 10 19 97 20 11 21 12 22 13 23
REMARK SMILES IDX 14 24 15 25 25 26 26 27 27 28 28 29 29 30 30 31 31 32 32 33
REMARK SMILES IDX 96 34 33 35 95 36 34 37 35 38 36 39 89 40 37 41 94 42 88 43
REMARK SMILES IDX 90 44 38 45 93 46 87 47 86 48 39 50 73 51 52 52 72 53 53 54
REMARK SMILES IDX 56 55 71 56 91 57 54 58 55 59 70 61 92 62 57 63 40 64 41 65
REMARK SMILES IDX 50 66 42 67 43 68 49 69 51 70 44 71 45 72 46 73 47 74 48 75
REMARK SMILES IDX 74 76 75 77 84 78 76 79 77 80 83 81 85 82 78 83 79 84 80 85
REMARK SMILES IDX 81 86 82 87 58 88 59 89 68 90 60 91 61 92 67 93 69 94 62 95
REMARK SMILES IDX 63 96 64 97 65 98 66 99
REMARK H PARENT 90 49 56 60
REMARK Flexibility Score: inf
ROOT
ATOM      1  C   UNL A   1      38.019  22.148  25.672  1.00  0.00     0.188 C 
ENDROOT
BRANCH   1   2
ATOM      2  C   UNL A   1      37.151  21.365  24.663  1.00  0.00     0.188 C 
BRANCH   2   3
ATOM      3  O   UNL A   1      35.846  20.939  25.034  1.00  0.00    -0.376 OA
BRANCH   3   4
ATOM      4  C   UNL A   1      35.241  21.441  26.218  1.00  0.00     0.202 C 
BRANCH   4   5
ATOM      5  C   UNL A   1      34.755  22.895  26.246  1.00  0.00     0.261 C 
BRANCH   5   6
ATOM      6  O   UNL A   1      33.674  23.161  25.338  1.00  0.00    -0.460 OA
BRANCH   6   7
ATOM      7  C   UNL A   1      34.011  23.851  24.224  1.00  0.00     0.338 C 
ATOM      8  O   UNL A   1      34.614  23.425  23.252  1.00  0.00    -0.246 OA
BRANCH   7   9
ATOM      9  C   UNL A   1      33.440  25.210  24.288  1.00  0.00     0.087 C 
ATOM     10  C   UNL A   1      31.501  31.152  26.186  1.00  0.00     0.046 C 
ATOM     11  C   UNL A   1      32.161  29.850  25.803  1.00  0.00    -0.026 A 
ATOM     12  C   UNL A   1      33.390  29.517  26.417  1.00  0.00     0.045 A 
ATOM     13  C   UNL A   1      31.608  28.943  24.865  1.00  0.00    -0.004 A 
ATOM     14  Cl  UNL A   1      34.172  30.586  27.532  1.00  0.00    -0.084 Cl
ATOM     15  C   UNL A   1      34.023  28.299  26.165  1.00  0.00     0.032 A 
ATOM     16  C   UNL A   1      32.277  27.720  24.607  1.00  0.00     0.131 A 
ATOM     17  C   UNL A   1      30.332  29.205  24.103  1.00  0.00     0.049 C 
ATOM     18  C   UNL A   1      33.452  27.385  25.284  1.00  0.00     0.019 A 
ATOM     19  O   UNL A   1      31.707  26.893  23.672  1.00  0.00    -0.475 OA
ATOM     20  C   UNL A   1      34.042  26.067  25.121  1.00  0.00     0.027 C 
ATOM     21  C   UNL A   1      32.239  25.558  23.459  1.00  0.00     0.316 C 
BRANCH  21  22
ATOM     22  C   UNL A   1      31.087  24.558  23.630  1.00  0.00     0.430 C 
ATOM     23  F   UNL A   1      29.913  25.086  23.202  1.00  0.00    -0.167 F 
ATOM     24  F   UNL A   1      31.284  23.431  22.904  1.00  0.00    -0.167 F 
ATOM     25  F   UNL A   1      30.917  24.186  24.917  1.00  0.00    -0.167 F 
ENDBRANCH  21  22
ENDBRANCH   7   9
ENDBRANCH   6   7
ENDBRANCH   5   6
ENDBRANCH   4   5
ENDBRANCH   3   4
ENDBRANCH   2   3
ENDBRANCH   1   2
BRANCH   1  26
ATOM     26  O   UNL A   1      39.286  21.590  25.924  1.00  0.00    -0.376 OA
BRANCH  26  27
ATOM     27  C   UNL A   1      40.179  22.210  26.831  1.00  0.00     0.202 C 
BRANCH  27  28
ATOM     28  C   UNL A   1      40.973  23.505  26.567  1.00  0.00     0.261 C 
BRANCH  28  29
ATOM     29  O   UNL A   1      40.246  24.707  26.310  1.00  0.00    -0.460 OA
BRANCH  29  30
ATOM     30  C   UNL A   1      40.976  25.840  26.186  1.00  0.00     0.338 C 
ATOM     31  O   UNL A   1      41.362  26.354  25.154  1.00  0.00    -0.246 OA
BRANCH  30  32
ATOM     32  C   UNL A   1      41.065  26.468  27.521  1.00  0.00     0.060 A 
ATOM     33  C   UNL A   1      40.044  26.219  28.447  1.00  0.00     0.016 A 
ATOM     34  C   UNL A   1      42.139  27.299  27.851  1.00  0.00     0.016 A 
ATOM     35  C   UNL A   1      40.076  26.832  29.699  1.00  0.00     0.010 A 
ATOM     36  C   UNL A   1      42.154  27.934  29.096  1.00  0.00     0.010 A 
ATOM     37  C   UNL A   1      41.107  27.730  30.010  1.00  0.00    -0.014 A 
BRANCH  37  38
ATOM     38  C   UNL A   1      40.968  28.623  31.186  1.00  0.00     0.031 A 
ATOM     39  C   UNL A   1      39.927  29.708  31.128  1.00  0.00     0.074 A 
ATOM     40  C   UNL A   1      41.725  28.466  32.286  1.00  0.00     0.049 A 
ATOM     41  N   UNL A   1      39.656  30.647  31.995  1.00  0.00    -0.248 NA
ATOM     42  C   UNL A   1      39.074  29.732  29.928  1.00  0.00     0.031 C 
ATOM     43  C   UNL A   1      42.726  27.419  32.485  1.00  0.00     0.029 A 
ATOM     44  N   UNL A   1      41.767  29.198  33.446  1.00  0.00    -0.354 N 
ATOM     45  C   UNL A   1      38.600  31.369  31.451  1.00  0.00     0.074 A 
ATOM     46  C   UNL A   1      38.298  30.779  30.166  1.00  0.00     0.031 C 
ATOM     47  C   UNL A   1      43.292  27.583  33.695  1.00  0.00     0.029 A 
ATOM     48  C   UNL A   1      42.718  28.764  34.339  1.00  0.00     0.049 A 
ATOM     49  H   UNL A   1      41.173  29.962  33.622  1.00  0.00     0.167 HD
ATOM     50  C   UNL A   1      37.937  32.424  31.977  1.00  0.00     0.037 A 
ATOM     51  C   UNL A   1      43.095  29.280  35.527  1.00  0.00     0.037 A 
ATOM     52  C   UNL A   1      38.251  33.021  33.248  1.00  0.00     0.049 A 
ATOM     53  C   UNL A   1      42.409  30.519  36.048  1.00  0.00     0.074 A 
ATOM     54  C   UNL A   1      37.647  34.105  33.861  1.00  0.00     0.029 A 
ATOM     55  N   UNL A   1      39.258  32.590  34.096  1.00  0.00    -0.354 N 
ATOM     56  N   UNL A   1      41.422  31.202  35.517  1.00  0.00    -0.248 NA
ATOM     57  C   UNL A   1      42.893  31.060  37.326  1.00  0.00     0.031 C 
ATOM     58  C   UNL A   1      38.319  34.355  35.063  1.00  0.00     0.029 A 
ATOM     59  C   UNL A   1      39.309  33.398  35.220  1.00  0.00     0.049 A 
ATOM     60  H   UNL A   1      39.850  31.821  33.926  1.00  0.00     0.167 HD
ATOM     61  C   UNL A   1      41.157  32.242  36.405  1.00  0.00     0.074 A 
ATOM     62  C   UNL A   1      42.076  32.087  37.513  1.00  0.00     0.031 C 
ATOM     63  C   UNL A   1      40.236  33.235  36.310  1.00  0.00     0.037 A 
BRANCH  50  64
ATOM     64  C   UNL A   1      36.821  33.015  31.164  1.00  0.00     0.058 A 
ATOM     65  C   UNL A   1      35.475  32.784  31.487  1.00  0.00     0.135 A 
ATOM     66  C   UNL A   1      37.100  33.848  30.068  1.00  0.00     0.135 A 
ATOM     67  F   UNL A   1      35.154  31.974  32.509  1.00  0.00    -0.206 F 
ATOM     68  C   UNL A   1      34.443  33.347  30.745  1.00  0.00     0.059 A 
ATOM     69  C   UNL A   1      36.084  34.440  29.325  1.00  0.00     0.059 A 
ATOM     70  F   UNL A   1      38.371  34.091  29.711  1.00  0.00    -0.206 F 
ATOM     71  C   UNL A   1      34.759  34.177  29.667  1.00  0.00     0.060 A 
BRANCH  71  72
ATOM     72  S   UNL A   1      33.406  34.914  28.725  1.00  0.00     0.124 S 
ATOM     73  O   UNL A   1      32.423  35.166  29.773  1.00  0.00    -0.237 OA
ATOM     74  O   UNL A   1      34.037  36.097  28.150  1.00  0.00    -0.237 OA
ATOM     75  O   UNL A   1      33.048  33.870  27.769  1.00  0.00    -0.744 OA
ENDBRANCH  71  72
ENDBRANCH  50  64
BRANCH  51  76
ATOM     76  C   UNL A   1      44.191  28.641  36.303  1.00  0.00     0.058 A 
ATOM     77  C   UNL A   1      45.510  29.108  36.211  1.00  0.00     0.135 A 
ATOM     78  C   UNL A   1      43.944  27.545  37.146  1.00  0.00     0.135 A 
ATOM     79  F   UNL A   1      45.801  30.141  35.405  1.00  0.00    -0.206 F 
ATOM     80  C   UNL A   1      46.547  28.510  36.921  1.00  0.00     0.059 A 
ATOM     81  C   UNL A   1      44.960  26.945  37.883  1.00  0.00     0.059 A 
ATOM     82  F   UNL A   1      42.698  27.060  37.270  1.00  0.00    -0.206 F 
ATOM     83  C   UNL A   1      46.261  27.431  37.760  1.00  0.00     0.060 A 
BRANCH  83  84
ATOM     84  S   UNL A   1      47.605  26.697  38.716  1.00  0.00     0.124 S 
ATOM     85  O   UNL A   1      48.673  27.670  38.517  1.00  0.00    -0.237 OA
ATOM     86  O   UNL A   1      47.031  26.644  40.057  1.00  0.00    -0.237 OA
ATOM     87  O   UNL A   1      47.806  25.402  38.075  1.00  0.00    -0.744 OA
ENDBRANCH  83  84
ENDBRANCH  51  76
BRANCH  63  88
ATOM     88  C   UNL A   1      40.166  34.226  37.441  1.00  0.00     0.058 A 
ATOM     89  C   UNL A   1      39.348  34.008  38.560  1.00  0.00     0.135 A 
ATOM     90  C   UNL A   1      40.963  35.382  37.427  1.00  0.00     0.135 A 
ATOM     91  F   UNL A   1      38.564  32.919  38.622  1.00  0.00    -0.206 F 
ATOM     92  C   UNL A   1      39.301  34.915  39.614  1.00  0.00     0.059 A 
ATOM     93  C   UNL A   1      40.953  36.290  38.482  1.00  0.00     0.059 A 
ATOM     94  F   UNL A   1      41.775  35.632  36.388  1.00  0.00    -0.206 F 
ATOM     95  C   UNL A   1      40.108  36.053  39.566  1.00  0.00     0.060 A 
BRANCH  95  96
ATOM     96  S   UNL A   1      40.051  37.213  40.949  1.00  0.00     0.124 S 
ATOM     97  O   UNL A   1      39.069  36.579  41.824  1.00  0.00    -0.237 OA
ATOM     98  O   UNL A   1      41.429  37.197  41.427  1.00  0.00    -0.237 OA
ATOM     99  O   UNL A   1      39.623  38.463  40.328  1.00  0.00    -0.744 OA
ENDBRANCH  95  96
ENDBRANCH  63  88
ENDBRANCH  37  38
ENDBRANCH  30  32
ENDBRANCH  29  30
ENDBRANCH  28  29
ENDBRANCH  27  28
ENDBRANCH  26  27
ENDBRANCH   1  26
TORSDOF 21
ENDMDL
MODEL 3
REMARK VINA RESULT:     -10.4      1.730      8.338
REMARK SMILES Cc1c(Cl)cc2c(c1C)O[C@H](C(F)(F)F)C(C(=O)OCCOCCOCCOC(=O)c1ccc(-c3c4nc(c(-c5c(F)cc(S(=O)(=O)[O-])cc5F)c5ccc([nH]5)c(-c5c(F)cc(S(=O)(=O)[O-])cc5F)c5nc(c(-c6c(F)cc(S(=O)(=O)[O-])cc6F)c6ccc3[nH]6)C=C5)C=C4)cc1)=C2
REMARK SMILES IDX 24 1 23 2 22 3 21 4 20 5 19 6 17 7 18 8 16 9 1 10 2 11 3 12
REMARK SMILES IDX 8 13 4 14 5 15 7 16 9 17 6 18 10 19 97 20 11 21 12 22 13 23
REMARK SMILES IDX 14 24 15 25 25 26 26 27 27 28 28 29 29 30 30 31 31 32 32 33
REMARK SMILES IDX 96 34 33 35 95 36 34 37 35 38 36 39 89 40 37 41 94 42 88 43
REMARK SMILES IDX 90 44 38 45 93 46 87 47 86 48 39 50 73 51 52 52 72 53 53 54
REMARK SMILES IDX 56 55 71 56 91 57 54 58 55 59 70 61 92 62 57 63 40 64 41 65
REMARK SMILES IDX 50 66 42 67 43 68 49 69 51 70 44 71 45 72 46 73 47 74 48 75
REMARK SMILES IDX 74 76 75 77 84 78 76 79 77 80 83 81 85 82 78 83 79 84 80 85
REMARK SMILES IDX 81 86 82 87 58 88 59 89 68 90 60 91 61 92 67 93 69 94 62 95
REMARK SMILES IDX 63 96 64 97 65 98 66 99
REMARK H PARENT 90 49 56 60
REMARK Flexibility Score: inf
ROOT
ATOM      1  C   UNL A   1      42.300  20.142  26.160  1.00  0.00     0.188 C 
ENDROOT
BRANCH   1   2
ATOM      2  C   UNL A   1      40.921  20.307  26.833  1.00  0.00     0.188 C 
BRANCH   2   3
ATOM      3  O   UNL A   1      39.741  20.308  26.038  1.00  0.00    -0.376 OA
BRANCH   3   4
ATOM      4  C   UNL A   1      38.896  21.450  26.016  1.00  0.00     0.202 C 
BRANCH   4   5
ATOM      5  C   UNL A   1      37.784  21.532  24.964  1.00  0.00     0.261 C 
BRANCH   5   6
ATOM      6  O   UNL A   1      36.630  22.270  25.397  1.00  0.00    -0.460 OA
BRANCH   6   7
ATOM      7  C   UNL A   1      35.437  21.732  25.053  1.00  0.00     0.338 C 
ATOM      8  O   UNL A   1      35.189  20.549  24.881  1.00  0.00    -0.246 OA
BRANCH   7   9
ATOM      9  C   UNL A   1      34.407  22.787  25.015  1.00  0.00     0.087 C 
ATOM     10  C   UNL A   1      31.215  28.472  24.620  1.00  0.00     0.046 C 
ATOM     11  C   UNL A   1      32.033  27.209  24.501  1.00  0.00    -0.026 A 
ATOM     12  C   UNL A   1      33.152  27.215  23.638  1.00  0.00     0.045 A 
ATOM     13  C   UNL A   1      31.738  26.021  25.215  1.00  0.00    -0.004 A 
ATOM     14  Cl  UNL A   1      33.558  28.600  22.680  1.00  0.00    -0.084 Cl
ATOM     15  C   UNL A   1      33.994  26.108  23.530  1.00  0.00     0.032 A 
ATOM     16  C   UNL A   1      32.595  24.900  25.077  1.00  0.00     0.131 A 
ATOM     17  C   UNL A   1      30.544  25.869  26.126  1.00  0.00     0.049 C 
ATOM     18  C   UNL A   1      33.735  24.959  24.273  1.00  0.00     0.019 A 
ATOM     19  O   UNL A   1      32.246  23.771  25.774  1.00  0.00    -0.475 OA
ATOM     20  C   UNL A   1      34.681  23.857  24.260  1.00  0.00     0.027 C 
ATOM     21  C   UNL A   1      33.145  22.630  25.812  1.00  0.00     0.316 C 
BRANCH  21  22
ATOM     22  C   UNL A   1      33.409  22.286  27.284  1.00  0.00     0.430 C 
ATOM     23  F   UNL A   1      32.334  22.582  28.056  1.00  0.00    -0.167 F 
ATOM     24  F   UNL A   1      33.650  20.964  27.460  1.00  0.00    -0.167 F 
ATOM     25  F   UNL A   1      34.465  22.961  27.788  1.00  0.00    -0.167 F 
ENDBRANCH  21  22
ENDBRANCH   7   9
ENDBRANCH   6   7
ENDBRANCH   5   6
ENDBRANCH   4   5
ENDBRANCH   3   4
ENDBRANCH   2   3
ENDBRANCH   1   2
BRANCH   1  26
ATOM     26  O   UNL A   1      42.717  21.238  25.382  1.00  0.00    -0.376 OA
BRANCH  26  27
ATOM     27  C   UNL A   1      42.464  22.564  25.810  1.00  0.00     0.202 C 
BRANCH  27  28
ATOM     28  C   UNL A   1      43.028  23.842  25.156  1.00  0.00     0.261 C 
BRANCH  28  29
ATOM     29  O   UNL A   1      43.338  24.954  25.996  1.00  0.00    -0.460 OA
BRANCH  29  30
ATOM     30  C   UNL A   1      42.496  26.012  25.933  1.00  0.00     0.338 C 
ATOM     31  O   UNL A   1      41.773  26.319  25.005  1.00  0.00    -0.246 OA
BRANCH  30  32
ATOM     32  C   UNL A   1      42.450  26.633  27.273  1.00  0.00     0.060 A 
ATOM     33  C   UNL A   1      41.626  26.060  28.249  1.00  0.00     0.016 A 
ATOM     34  C   UNL A   1      43.206  27.773  27.560  1.00  0.00     0.016 A 
ATOM     35  C   UNL A   1      41.526  26.649  29.510  1.00  0.00     0.010 A 
ATOM     36  C   UNL A   1      43.084  28.377  28.815  1.00  0.00     0.010 A 
ATOM     37  C   UNL A   1      42.219  27.837  29.781  1.00  0.00    -0.014 A 
BRANCH  37  38
ATOM     38  C   UNL A   1      41.862  28.633  30.980  1.00  0.00     0.031 A 
ATOM     39  C   UNL A   1      40.683  29.564  30.883  1.00  0.00     0.074 A 
ATOM     40  C   UNL A   1      42.544  28.520  32.133  1.00  0.00     0.049 A 
ATOM     41  N   UNL A   1      40.213  30.405  31.765  1.00  0.00    -0.248 NA
ATOM     42  C   UNL A   1      39.932  29.538  29.616  1.00  0.00     0.031 C 
ATOM     43  C   UNL A   1      43.667  27.613  32.368  1.00  0.00     0.029 A 
ATOM     44  N   UNL A   1      42.390  29.184  33.324  1.00  0.00    -0.354 N 
ATOM     45  C   UNL A   1      39.111  31.003  31.166  1.00  0.00     0.074 A 
ATOM     46  C   UNL A   1      38.998  30.451  29.835  1.00  0.00     0.031 C 
ATOM     47  C   UNL A   1      44.107  27.785  33.629  1.00  0.00     0.029 A 
ATOM     48  C   UNL A   1      43.321  28.836  34.274  1.00  0.00     0.049 A 
ATOM     49  H   UNL A   1      41.680  29.846  33.483  1.00  0.00     0.167 HD
ATOM     50  C   UNL A   1      38.264  31.924  31.681  1.00  0.00     0.037 A 
ATOM     51  C   UNL A   1      43.525  29.330  35.513  1.00  0.00     0.037 A 
ATOM     52  C   UNL A   1      38.388  32.485  33.000  1.00  0.00     0.049 A 
ATOM     53  C   UNL A   1      42.630  30.429  36.028  1.00  0.00     0.074 A 
ATOM     54  C   UNL A   1      37.590  33.437  33.608  1.00  0.00     0.029 A 
ATOM     55  N   UNL A   1      39.377  32.150  33.911  1.00  0.00    -0.354 N 
ATOM     56  N   UNL A   1      41.600  30.998  35.447  1.00  0.00    -0.248 NA
ATOM     57  C   UNL A   1      42.930  30.959  37.367  1.00  0.00     0.031 C 
ATOM     58  C   UNL A   1      38.122  33.709  34.873  1.00  0.00     0.029 A 
ATOM     59  C   UNL A   1      39.224  32.892  35.070  1.00  0.00     0.049 A 
ATOM     60  H   UNL A   1      40.085  31.482  33.758  1.00  0.00     0.167 HD
ATOM     61  C   UNL A   1      41.120  31.938  36.355  1.00  0.00     0.074 A 
ATOM     62  C   UNL A   1      41.962  31.850  37.530  1.00  0.00     0.031 C 
ATOM     63  C   UNL A   1      40.077  32.797  36.228  1.00  0.00     0.037 A 
BRANCH  50  64
ATOM     64  C   UNL A   1      37.142  32.399  30.803  1.00  0.00     0.058 A 
ATOM     65  C   UNL A   1      35.853  31.853  30.899  1.00  0.00     0.135 A 
ATOM     66  C   UNL A   1      37.350  33.435  29.878  1.00  0.00     0.135 A 
ATOM     67  F   UNL A   1      35.608  30.843  31.749  1.00  0.00    -0.206 F 
ATOM     68  C   UNL A   1      34.811  32.307  30.099  1.00  0.00     0.059 A 
ATOM     69  C   UNL A   1      36.316  33.921  29.083  1.00  0.00     0.059 A 
ATOM     70  F   UNL A   1      38.567  33.983  29.740  1.00  0.00    -0.206 F 
ATOM     71  C   UNL A   1      35.052  33.345  29.196  1.00  0.00     0.060 A 
BRANCH  71  72
ATOM     72  S   UNL A   1      33.682  33.934  28.177  1.00  0.00     0.124 S 
ATOM     73  O   UNL A   1      34.370  34.829  27.253  1.00  0.00    -0.237 OA
ATOM     74  O   UNL A   1      33.172  32.696  27.598  1.00  0.00    -0.237 OA
ATOM     75  O   UNL A   1      32.798  34.585  29.138  1.00  0.00    -0.744 OA
ENDBRANCH  71  72
ENDBRANCH  50  64
BRANCH  51  76
ATOM     76  C   UNL A   1      44.638  28.807  36.350  1.00  0.00     0.058 A 
ATOM     77  C   UNL A   1      45.907  29.401  36.320  1.00  0.00     0.135 A 
ATOM     78  C   UNL A   1      44.456  27.696  37.190  1.00  0.00     0.135 A 
ATOM     79  F   UNL A   1      46.136  30.453  35.519  1.00  0.00    -0.206 F 
ATOM     80  C   UNL A   1      46.960  28.912  37.087  1.00  0.00     0.059 A 
ATOM     81  C   UNL A   1      45.487  27.203  37.984  1.00  0.00     0.059 A 
ATOM     82  F   UNL A   1      43.260  27.091  37.257  1.00  0.00    -0.206 F 
ATOM     83  C   UNL A   1      46.739  27.814  37.922  1.00  0.00     0.060 A 
BRANCH  83  84
ATOM     84  S   UNL A   1      48.098  27.222  38.952  1.00  0.00     0.124 S 
ATOM     85  O   UNL A   1      48.007  28.114  40.102  1.00  0.00    -0.237 OA
ATOM     86  O   UNL A   1      47.718  25.833  39.189  1.00  0.00    -0.237 OA
ATOM     87  O   UNL A   1      49.270  27.408  38.102  1.00  0.00    -0.744 OA
ENDBRANCH  83  84
ENDBRANCH  51  76
BRANCH  63  88
ATOM     88  C   UNL A   1      39.777  33.702  37.392  1.00  0.00     0.058 A 
ATOM     89  C   UNL A   1      38.853  33.342  38.385  1.00  0.00     0.135 A 
ATOM     90  C   UNL A   1      40.457  34.921  37.543  1.00  0.00     0.135 A 
ATOM     91  F   UNL A   1      38.173  32.188  38.288  1.00  0.00    -0.206 F 
ATOM     92  C   UNL A   1      38.593  34.171  39.472  1.00  0.00     0.059 A 
ATOM     93  C   UNL A   1      40.234  35.754  38.636  1.00  0.00     0.059 A 
ATOM     94  F   UNL A   1      41.363  35.308  36.630  1.00  0.00    -0.206 F 
ATOM     95  C   UNL A   1      39.289  35.375  39.589  1.00  0.00     0.060 A 
BRANCH  95  96
ATOM     96  S   UNL A   1      38.955  36.432  41.014  1.00  0.00     0.124 S 
ATOM     97  O   UNL A   1      40.262  36.471  41.664  1.00  0.00    -0.237 OA
ATOM     98  O   UNL A   1      38.523  37.676  40.385  1.00  0.00    -0.237 OA
ATOM     99  O   UNL A   1      37.915  35.708  41.739  1.00  0.00    -0.744 OA
ENDBRANCH  95  96
ENDBRANCH  63  88
ENDBRANCH  37  38
ENDBRANCH  30  32
ENDBRANCH  29  30
ENDBRANCH  28  29
ENDBRANCH  27  28
ENDBRANCH  26  27
ENDBRANCH   1  26
TORSDOF 21
ENDMDL
