MODEL 1
REMARK VINA RESULT:     -11.4      0.000      0.000
REMARK SMILES O=C(Nc1ccc(N2CCCCC2)cc1C(=O)OCCOCCOCCOC(=O)c1ccc(-c2c3nc(c(-c4c(F)cc(S(=O)(=O)[O-])cc4F)c4ccc([nH]4)c(-c4c(F)cc(S(=O)(=O)[O-])cc4F)c4nc(c(-c5c(F)cc(S(=O)(=O)[O-])cc5F)c5ccc2[nH]5)C=C4)C=C3)cc1)c1ccccc1
REMARK SMILES IDX 23 1 22 2 21 3 20 4 19 5 18 6 16 7 17 8 15 9 4 10 5 11 6 12
REMARK SMILES IDX 14 13 7 14 3 15 1 16 2 17 96 19 97 20 101 21 98 22 100 23
REMARK SMILES IDX 99 24 8 25 9 26 13 27 10 28 12 29 11 30 24 31 25 32 26 33
REMARK SMILES IDX 27 34 28 35 29 36 30 37 31 38 95 39 32 40 94 41 33 42 34 43
REMARK SMILES IDX 35 44 88 45 36 46 93 47 87 48 89 49 37 50 92 51 86 52 85 53
REMARK SMILES IDX 38 55 72 56 51 57 71 58 52 59 55 60 70 61 90 62 53 63 54 64
REMARK SMILES IDX 69 66 91 67 56 68 39 69 40 70 49 71 41 72 42 73 48 74 50 75
REMARK SMILES IDX 43 76 44 77 45 78 46 79 47 80 73 81 74 82 83 83 75 84 76 85
REMARK SMILES IDX 82 86 84 87 77 88 78 89 79 90 80 91 81 92 57 93 58 94 67 95
REMARK SMILES IDX 59 96 60 97 66 98 68 99 61 100 62 101 63 102 64 103 65 104
REMARK H PARENT 3 18 89 54 55 65
REMARK Flexibility Score: inf
ROOT
ATOM      1  C   UNL A   1      37.167  22.314  24.379  1.00  0.00     0.188 C 
ENDROOT
BRANCH   1   2
ATOM      2  C   UNL A   1      36.350  23.506  23.829  1.00  0.00     0.188 C 
BRANCH   2   3
ATOM      3  O   UNL A   1      35.284  23.118  22.996  1.00  0.00    -0.376 OA
BRANCH   3   4
ATOM      4  C   UNL A   1      34.028  23.732  23.173  1.00  0.00     0.202 C 
BRANCH   4   5
ATOM      5  C   UNL A   1      33.420  24.729  22.176  1.00  0.00     0.261 C 
BRANCH   5   6
ATOM      6  O   UNL A   1      32.684  25.857  22.663  1.00  0.00    -0.460 OA
BRANCH   6   7
ATOM      7  C   UNL A   1      31.735  26.369  21.838  1.00  0.00     0.340 C 
ATOM      8  O   UNL A   1      31.750  26.302  20.618  1.00  0.00    -0.246 OA
BRANCH   7   9
ATOM      9  C   UNL A   1      30.578  26.893  22.617  1.00  0.00     0.085 A 
ATOM     10  C   UNL A   1      29.912  26.204  23.654  1.00  0.00     0.056 A 
ATOM     11  C   UNL A   1      28.721  26.751  24.153  1.00  0.00     0.029 A 
ATOM     12  C   UNL A   1      28.281  28.008  23.741  1.00  0.00     0.028 A 
ATOM     13  C   UNL A   1      30.101  28.157  22.197  1.00  0.00     0.043 A 
ATOM     14  C   UNL A   1      28.975  28.741  22.776  1.00  0.00     0.038 A 
BRANCH  10  15
ATOM     15  N   UNL A   1      30.315  25.024  24.319  1.00  0.00    -0.321 N 
ATOM     16  O   UNL A   1      31.510  23.639  25.643  1.00  0.00    -0.269 OA
ATOM     17  C   UNL A   1      31.228  24.794  25.326  1.00  0.00     0.255 C 
ATOM     18  H   UNL A   1      29.858  24.211  24.003  1.00  0.00     0.170 HD
BRANCH  17  19
ATOM     19  C   UNL A   1      31.834  25.912  26.086  1.00  0.00     0.040 A 
ATOM     20  C   UNL A   1      31.060  26.798  26.842  1.00  0.00     0.014 A 
ATOM     21  C   UNL A   1      33.209  26.125  25.944  1.00  0.00     0.014 A 
ATOM     22  C   UNL A   1      31.629  27.983  27.303  1.00  0.00     0.001 A 
ATOM     23  C   UNL A   1      33.775  27.310  26.412  1.00  0.00     0.001 A 
ATOM     24  C   UNL A   1      32.975  28.253  27.058  1.00  0.00     0.000 A 
ENDBRANCH  17  19
ENDBRANCH  10  15
BRANCH  14  25
ATOM     25  N   UNL A   1      28.532  30.005  22.462  1.00  0.00    -0.372 N 
ATOM     26  C   UNL A   1      27.847  30.200  21.185  1.00  0.00     0.116 C 
ATOM     27  C   UNL A   1      28.299  31.019  23.483  1.00  0.00     0.116 C 
ATOM     28  C   UNL A   1      28.308  31.524  20.581  1.00  0.00     0.021 C 
ATOM     29  C   UNL A   1      28.765  32.369  22.925  1.00  0.00     0.021 C 
ATOM     30  C   UNL A   1      28.128  32.679  21.566  1.00  0.00     0.004 C 
ENDBRANCH  14  25
ENDBRANCH   7   9
ENDBRANCH   6   7
ENDBRANCH   5   6
ENDBRANCH   4   5
ENDBRANCH   3   4
ENDBRANCH   2   3
ENDBRANCH   1   2
BRANCH   1  31
ATOM     31  O   UNL A   1      37.721  22.358  25.687  1.00  0.00    -0.376 OA
BRANCH  31  32
ATOM     32  C   UNL A   1      38.874  21.581  25.984  1.00  0.00     0.202 C 
BRANCH  32  33
ATOM     33  C   UNL A   1      40.169  22.263  26.464  1.00  0.00     0.261 C 
BRANCH  33  34
ATOM     34  O   UNL A   1      40.108  23.693  26.599  1.00  0.00    -0.460 OA
BRANCH  34  35
ATOM     35  C   UNL A   1      41.253  24.297  27.007  1.00  0.00     0.338 C 
ATOM     36  O   UNL A   1      42.388  24.055  26.625  1.00  0.00    -0.246 OA
BRANCH  35  37
ATOM     37  C   UNL A   1      40.917  25.481  27.831  1.00  0.00     0.060 A 
ATOM     38  C   UNL A   1      41.839  26.539  27.876  1.00  0.00     0.016 A 
ATOM     39  C   UNL A   1      39.712  25.571  28.532  1.00  0.00     0.016 A 
ATOM     40  C   UNL A   1      41.571  27.677  28.635  1.00  0.00     0.010 A 
ATOM     41  C   UNL A   1      39.460  26.698  29.324  1.00  0.00     0.010 A 
ATOM     42  C   UNL A   1      40.403  27.741  29.402  1.00  0.00    -0.014 A 
BRANCH  42  43
ATOM     43  C   UNL A   1      40.299  28.761  30.474  1.00  0.00     0.031 A 
ATOM     44  C   UNL A   1      41.205  28.611  31.667  1.00  0.00     0.074 A 
ATOM     45  C   UNL A   1      39.457  29.808  30.390  1.00  0.00     0.049 A 
ATOM     46  N   UNL A   1      41.271  29.329  32.758  1.00  0.00    -0.248 NA
ATOM     47  C   UNL A   1      42.170  27.499  31.617  1.00  0.00     0.031 C 
ATOM     48  C   UNL A   1      38.568  30.095  29.267  1.00  0.00     0.029 A 
ATOM     49  N   UNL A   1      39.207  30.819  31.286  1.00  0.00    -0.354 N 
ATOM     50  C   UNL A   1      42.280  28.755  33.523  1.00  0.00     0.074 A 
ATOM     51  C   UNL A   1      42.781  27.616  32.787  1.00  0.00     0.031 C 
ATOM     52  C   UNL A   1      37.847  31.195  29.554  1.00  0.00     0.029 A 
ATOM     53  C   UNL A   1      38.202  31.671  30.891  1.00  0.00     0.049 A 
ATOM     54  H   UNL A   1      39.700  30.923  32.131  1.00  0.00     0.167 HD
ATOM     55  C   UNL A   1      42.754  29.145  34.728  1.00  0.00     0.037 A 
ATOM     56  C   UNL A   1      37.620  32.695  31.549  1.00  0.00     0.037 A 
ATOM     57  C   UNL A   1      42.246  30.267  35.469  1.00  0.00     0.049 A 
ATOM     58  C   UNL A   1      38.105  33.060  32.932  1.00  0.00     0.074 A 
ATOM     59  C   UNL A   1      42.652  30.737  36.705  1.00  0.00     0.029 A 
ATOM     60  N   UNL A   1      41.212  31.090  35.046  1.00  0.00    -0.354 N 
ATOM     61  N   UNL A   1      39.068  32.518  33.641  1.00  0.00    -0.248 NA
ATOM     62  C   UNL A   1      37.427  34.179  33.604  1.00  0.00     0.031 C 
ATOM     63  C   UNL A   1      41.834  31.818  37.051  1.00  0.00     0.029 A 
ATOM     64  C   UNL A   1      40.954  32.054  36.006  1.00  0.00     0.049 A 
ATOM     65  H   UNL A   1      40.733  31.001  34.191  1.00  0.00     0.167 HD
ATOM     66  C   UNL A   1      39.128  33.247  34.826  1.00  0.00     0.074 A 
ATOM     67  C   UNL A   1      38.113  34.275  34.735  1.00  0.00     0.031 C 
ATOM     68  C   UNL A   1      39.950  33.082  35.893  1.00  0.00     0.037 A 
BRANCH  55  69
ATOM     69  C   UNL A   1      43.865  28.331  35.330  1.00  0.00     0.058 A 
ATOM     70  C   UNL A   1      43.609  27.309  36.257  1.00  0.00     0.135 A 
ATOM     71  C   UNL A   1      45.199  28.565  34.960  1.00  0.00     0.135 A 
ATOM     72  F   UNL A   1      42.353  27.063  36.664  1.00  0.00    -0.206 F 
ATOM     73  C   UNL A   1      44.640  26.559  36.812  1.00  0.00     0.059 A 
ATOM     74  C   UNL A   1      46.243  27.809  35.482  1.00  0.00     0.059 A 
ATOM     75  F   UNL A   1      45.497  29.537  34.084  1.00  0.00    -0.206 F 
ATOM     76  C   UNL A   1      45.953  26.815  36.418  1.00  0.00     0.060 A 
BRANCH  76  77
ATOM     77  S   UNL A   1      47.278  25.824  37.137  1.00  0.00     0.124 S 
ATOM     78  O   UNL A   1      48.138  25.602  35.979  1.00  0.00    -0.237 OA
ATOM     79  O   UNL A   1      47.814  26.716  38.161  1.00  0.00    -0.237 OA
ATOM     80  O   UNL A   1      46.586  24.642  37.640  1.00  0.00    -0.744 OA
ENDBRANCH  76  77
ENDBRANCH  55  69
BRANCH  56  81
ATOM     81  C   UNL A   1      36.487  33.437  30.929  1.00  0.00     0.058 A 
ATOM     82  C   UNL A   1      35.191  33.366  31.460  1.00  0.00     0.135 A 
ATOM     83  C   UNL A   1      36.675  34.209  29.772  1.00  0.00     0.135 A 
ATOM     84  F   UNL A   1      34.954  32.628  32.555  1.00  0.00    -0.206 F 
ATOM     85  C   UNL A   1      34.119  34.020  30.859  1.00  0.00     0.059 A 
ATOM     86  C   UNL A   1      35.625  34.894  29.168  1.00  0.00     0.059 A 
ATOM     87  F   UNL A   1      37.897  34.313  29.224  1.00  0.00    -0.206 F 
ATOM     88  C   UNL A   1      34.347  34.783  29.713  1.00  0.00     0.060 A 
BRANCH  88  89
ATOM     89  S   UNL A   1      32.956  35.661  28.964  1.00  0.00     0.124 S 
ATOM     90  O   UNL A   1      33.631  36.775  28.309  1.00  0.00    -0.237 OA
ATOM     91  O   UNL A   1      32.395  34.644  28.079  1.00  0.00    -0.237 OA
ATOM     92  O   UNL A   1      32.124  36.011  30.111  1.00  0.00    -0.744 OA
ENDBRANCH  88  89
ENDBRANCH  56  81
BRANCH  68  93
ATOM     93  C   UNL A   1      39.826  34.058  37.033  1.00  0.00     0.058 A 
ATOM     94  C   UNL A   1      40.449  35.315  37.003  1.00  0.00     0.135 A 
ATOM     95  C   UNL A   1      39.015  33.755  38.140  1.00  0.00     0.135 A 
ATOM     96  F   UNL A   1      41.237  35.654  35.970  1.00  0.00    -0.206 F 
ATOM     97  C   UNL A   1      40.291  36.229  38.040  1.00  0.00     0.059 A 
ATOM     98  C   UNL A   1      38.820  34.664  39.175  1.00  0.00     0.059 A 
ATOM     99  F   UNL A   1      38.385  32.572  38.214  1.00  0.00    -0.206 F 
ATOM    100  C   UNL A   1      39.472  35.896  39.121  1.00  0.00     0.060 A 
BRANCH 100 101
ATOM    101  S   UNL A   1      39.246  37.105  40.443  1.00  0.00     0.124 S 
ATOM    102  O   UNL A   1      40.609  37.585  40.639  1.00  0.00    -0.237 OA
ATOM    103  O   UNL A   1      38.318  38.057  39.840  1.00  0.00    -0.237 OA
ATOM    104  O   UNL A   1      38.696  36.312  41.538  1.00  0.00    -0.744 OA
ENDBRANCH 100 101
ENDBRANCH  68  93
ENDBRANCH  42  43
ENDBRANCH  35  37
ENDBRANCH  34  35
ENDBRANCH  33  34
ENDBRANCH  32  33
ENDBRANCH  31  32
ENDBRANCH   1  31
TORSDOF 23
ENDMDL
MODEL 2
REMARK VINA RESULT:     -11.2      1.920      3.144
REMARK SMILES O=C(Nc1ccc(N2CCCCC2)cc1C(=O)OCCOCCOCCOC(=O)c1ccc(-c2c3nc(c(-c4c(F)cc(S(=O)(=O)[O-])cc4F)c4ccc([nH]4)c(-c4c(F)cc(S(=O)(=O)[O-])cc4F)c4nc(c(-c5c(F)cc(S(=O)(=O)[O-])cc5F)c5ccc2[nH]5)C=C4)C=C3)cc1)c1ccccc1
REMARK SMILES IDX 23 1 22 2 21 3 20 4 19 5 18 6 16 7 17 8 15 9 4 10 5 11 6 12
REMARK SMILES IDX 14 13 7 14 3 15 1 16 2 17 96 19 97 20 101 21 98 22 100 23
REMARK SMILES IDX 99 24 8 25 9 26 13 27 10 28 12 29 11 30 24 31 25 32 26 33
REMARK SMILES IDX 27 34 28 35 29 36 30 37 31 38 95 39 32 40 94 41 33 42 34 43
REMARK SMILES IDX 35 44 88 45 36 46 93 47 87 48 89 49 37 50 92 51 86 52 85 53
REMARK SMILES IDX 38 55 72 56 51 57 71 58 52 59 55 60 70 61 90 62 53 63 54 64
REMARK SMILES IDX 69 66 91 67 56 68 39 69 40 70 49 71 41 72 42 73 48 74 50 75
REMARK SMILES IDX 43 76 44 77 45 78 46 79 47 80 73 81 74 82 83 83 75 84 76 85
REMARK SMILES IDX 82 86 84 87 77 88 78 89 79 90 80 91 81 92 57 93 58 94 67 95
REMARK SMILES IDX 59 96 60 97 66 98 68 99 61 100 62 101 63 102 64 103 65 104
REMARK H PARENT 3 18 89 54 55 65
REMARK Flexibility Score: inf
ROOT
ATOM      1  C   UNL A   1      40.554  21.669  26.321  1.00  0.00     0.188 C 
ENDROOT
BRANCH   1   2
ATOM      2  C   UNL A   1      39.127  21.452  25.767  1.00  0.00     0.188 C 
BRANCH   2   3
ATOM      3  O   UNL A   1      38.154  22.253  26.396  1.00  0.00    -0.376 OA
BRANCH   3   4
ATOM      4  C   UNL A   1      37.679  23.396  25.723  1.00  0.00     0.202 C 
BRANCH   4   5
ATOM      5  C   UNL A   1      36.757  23.341  24.497  1.00  0.00     0.261 C 
BRANCH   5   6
ATOM      6  O   UNL A   1      35.547  24.108  24.486  1.00  0.00    -0.460 OA
BRANCH   6   7
ATOM      7  C   UNL A   1      34.777  24.016  23.372  1.00  0.00     0.340 C 
ATOM      8  O   UNL A   1      35.042  23.351  22.383  1.00  0.00    -0.246 OA
BRANCH   7   9
ATOM      9  C   UNL A   1      33.472  24.710  23.569  1.00  0.00     0.085 A 
ATOM     10  C   UNL A   1      32.221  24.243  23.112  1.00  0.00     0.056 A 
ATOM     11  C   UNL A   1      31.119  25.104  23.204  1.00  0.00     0.029 A 
ATOM     12  C   UNL A   1      31.221  26.333  23.856  1.00  0.00     0.028 A 
ATOM     13  C   UNL A   1      33.559  25.970  24.207  1.00  0.00     0.043 A 
ATOM     14  C   UNL A   1      32.434  26.774  24.389  1.00  0.00     0.038 A 
BRANCH  10  15
ATOM     15  N   UNL A   1      31.898  22.964  22.602  1.00  0.00    -0.321 N 
ATOM     16  O   UNL A   1      31.885  20.720  22.359  1.00  0.00    -0.269 OA
ATOM     17  C   UNL A   1      32.148  21.691  23.068  1.00  0.00     0.255 C 
ATOM     18  H   UNL A   1      31.401  22.987  21.753  1.00  0.00     0.170 HD
BRANCH  17  19
ATOM     19  C   UNL A   1      32.669  21.460  24.435  1.00  0.00     0.040 A 
ATOM     20  C   UNL A   1      32.047  22.001  25.565  1.00  0.00     0.014 A 
ATOM     21  C   UNL A   1      33.875  20.763  24.562  1.00  0.00     0.014 A 
ATOM     22  C   UNL A   1      32.719  21.995  26.786  1.00  0.00     0.001 A 
ATOM     23  C   UNL A   1      34.541  20.755  25.787  1.00  0.00     0.001 A 
ATOM     24  C   UNL A   1      33.978  21.403  26.886  1.00  0.00     0.000 A 
ENDBRANCH  17  19
ENDBRANCH  10  15
BRANCH  14  25
ATOM     25  N   UNL A   1      32.457  27.962  25.083  1.00  0.00    -0.372 N 
ATOM     26  C   UNL A   1      33.154  27.998  26.367  1.00  0.00     0.116 C 
ATOM     27  C   UNL A   1      32.242  29.246  24.426  1.00  0.00     0.116 C 
ATOM     28  C   UNL A   1      32.336  28.842  27.343  1.00  0.00     0.021 C 
ATOM     29  C   UNL A   1      31.406  30.124  25.365  1.00  0.00     0.021 C 
ATOM     30  C   UNL A   1      32.028  30.223  26.762  1.00  0.00     0.004 C 
ENDBRANCH  14  25
ENDBRANCH   7   9
ENDBRANCH   6   7
ENDBRANCH   5   6
ENDBRANCH   4   5
ENDBRANCH   3   4
ENDBRANCH   2   3
ENDBRANCH   1   2
BRANCH   1  31
ATOM     31  O   UNL A   1      41.677  21.085  25.675  1.00  0.00    -0.376 OA
BRANCH  31  32
ATOM     32  C   UNL A   1      42.938  21.086  26.330  1.00  0.00     0.202 C 
BRANCH  32  33
ATOM     33  C   UNL A   1      43.894  22.284  26.175  1.00  0.00     0.261 C 
BRANCH  33  34
ATOM     34  O   UNL A   1      43.541  23.465  26.915  1.00  0.00    -0.460 OA
BRANCH  34  35
ATOM     35  C   UNL A   1      42.957  24.458  26.199  1.00  0.00     0.338 C 
ATOM     36  O   UNL A   1      42.728  24.462  24.999  1.00  0.00    -0.246 OA
BRANCH  35  37
ATOM     37  C   UNL A   1      42.408  25.474  27.126  1.00  0.00     0.060 A 
ATOM     38  C   UNL A   1      43.014  26.741  27.153  1.00  0.00     0.016 A 
ATOM     39  C   UNL A   1      41.305  25.207  27.940  1.00  0.00     0.016 A 
ATOM     40  C   UNL A   1      42.536  27.734  28.006  1.00  0.00     0.010 A 
ATOM     41  C   UNL A   1      40.848  26.193  28.823  1.00  0.00     0.010 A 
ATOM     42  C   UNL A   1      41.482  27.449  28.881  1.00  0.00    -0.014 A 
BRANCH  42  43
ATOM     43  C   UNL A   1      41.226  28.362  30.022  1.00  0.00     0.031 A 
ATOM     44  C   UNL A   1      42.072  28.189  31.255  1.00  0.00     0.074 A 
ATOM     45  C   UNL A   1      40.299  29.336  29.968  1.00  0.00     0.049 A 
ATOM     46  N   UNL A   1      42.011  28.814  32.401  1.00  0.00    -0.248 NA
ATOM     47  C   UNL A   1      43.135  27.171  31.179  1.00  0.00     0.031 C 
ATOM     48  C   UNL A   1      39.454  29.642  28.816  1.00  0.00     0.029 A 
ATOM     49  N   UNL A   1      39.908  30.243  30.923  1.00  0.00    -0.354 N 
ATOM     50  C   UNL A   1      43.022  28.265  33.182  1.00  0.00     0.074 A 
ATOM     51  C   UNL A   1      43.664  27.240  32.391  1.00  0.00     0.031 C 
ATOM     52  C   UNL A   1      38.621  30.648  29.143  1.00  0.00     0.029 A 
ATOM     53  C   UNL A   1      38.855  31.037  30.534  1.00  0.00     0.049 A 
ATOM     54  H   UNL A   1      40.341  30.317  31.804  1.00  0.00     0.167 HD
ATOM     55  C   UNL A   1      43.390  28.590  34.442  1.00  0.00     0.037 A 
ATOM     56  C   UNL A   1      38.146  31.948  31.233  1.00  0.00     0.037 A 
ATOM     57  C   UNL A   1      42.741  29.598  35.236  1.00  0.00     0.049 A 
ATOM     58  C   UNL A   1      38.517  32.234  32.669  1.00  0.00     0.074 A 
ATOM     59  C   UNL A   1      43.032  29.994  36.529  1.00  0.00     0.029 A 
ATOM     60  N   UNL A   1      41.663  30.363  34.814  1.00  0.00    -0.354 N 
ATOM     61  N   UNL A   1      39.483  31.717  33.393  1.00  0.00    -0.248 NA
ATOM     62  C   UNL A   1      37.704  33.230  33.383  1.00  0.00     0.031 C 
ATOM     63  C   UNL A   1      42.101  30.968  36.906  1.00  0.00     0.029 A 
ATOM     64  C   UNL A   1      41.265  31.216  35.829  1.00  0.00     0.049 A 
ATOM     65  H   UNL A   1      41.243  30.306  33.926  1.00  0.00     0.167 HD
ATOM     66  C   UNL A   1      39.409  32.345  34.633  1.00  0.00     0.074 A 
ATOM     67  C   UNL A   1      38.312  33.288  34.560  1.00  0.00     0.031 C 
ATOM     68  C   UNL A   1      40.180  32.160  35.735  1.00  0.00     0.037 A 
BRANCH  55  69
ATOM     69  C   UNL A   1      44.533  27.826  35.047  1.00  0.00     0.058 A 
ATOM     70  C   UNL A   1      44.329  26.621  35.739  1.00  0.00     0.135 A 
ATOM     71  C   UNL A   1      45.850  28.294  34.918  1.00  0.00     0.135 A 
ATOM     72  F   UNL A   1      43.086  26.143  35.913  1.00  0.00    -0.206 F 
ATOM     73  C   UNL A   1      45.390  25.917  36.298  1.00  0.00     0.059 A 
ATOM     74  C   UNL A   1      46.928  27.592  35.445  1.00  0.00     0.059 A 
ATOM     75  F   UNL A   1      46.097  29.445  34.274  1.00  0.00    -0.206 F 
ATOM     76  C   UNL A   1      46.686  26.410  36.145  1.00  0.00     0.060 A 
BRANCH  76  77
ATOM     77  S   UNL A   1      48.053  25.477  36.865  1.00  0.00     0.124 S 
ATOM     78  O   UNL A   1      47.357  24.315  37.408  1.00  0.00    -0.237 OA
ATOM     79  O   UNL A   1      48.902  25.223  35.705  1.00  0.00    -0.237 OA
ATOM     80  O   UNL A   1      48.607  26.395  37.856  1.00  0.00    -0.744 OA
ENDBRANCH  76  77
ENDBRANCH  55  69
BRANCH  56  81
ATOM     81  C   UNL A   1      36.988  32.641  30.602  1.00  0.00     0.058 A 
ATOM     82  C   UNL A   1      35.678  32.170  30.768  1.00  0.00     0.135 A 
ATOM     83  C   UNL A   1      37.176  33.774  29.795  1.00  0.00     0.135 A 
ATOM     84  F   UNL A   1      35.447  31.081  31.517  1.00  0.00    -0.206 F 
ATOM     85  C   UNL A   1      34.596  32.786  30.145  1.00  0.00     0.059 A 
ATOM     86  C   UNL A   1      36.108  34.423  29.182  1.00  0.00     0.059 A 
ATOM     87  F   UNL A   1      38.410  34.268  29.606  1.00  0.00    -0.206 F 
ATOM     88  C   UNL A   1      34.822  33.914  29.354  1.00  0.00     0.060 A 
BRANCH  88  89
ATOM     89  S   UNL A   1      33.407  34.730  28.582  1.00  0.00     0.124 S 
ATOM     90  O   UNL A   1      32.968  33.716  27.630  1.00  0.00    -0.237 OA
ATOM     91  O   UNL A   1      32.526  34.958  29.724  1.00  0.00    -0.237 OA
ATOM     92  O   UNL A   1      33.991  35.934  28.000  1.00  0.00    -0.744 OA
ENDBRANCH  88  89
ENDBRANCH  56  81
BRANCH  68  93
ATOM     93  C   UNL A   1      39.904  33.022  36.939  1.00  0.00     0.058 A 
ATOM     94  C   UNL A   1      38.887  32.713  37.854  1.00  0.00     0.135 A 
ATOM     95  C   UNL A   1      40.717  34.135  37.214  1.00  0.00     0.135 A 
ATOM     96  F   UNL A   1      38.080  31.662  37.638  1.00  0.00    -0.206 F 
ATOM     97  C   UNL A   1      38.670  33.488  38.989  1.00  0.00     0.059 A 
ATOM     98  C   UNL A   1      40.537  34.908  38.356  1.00  0.00     0.059 A 
ATOM     99  F   UNL A   1      41.713  34.469  36.378  1.00  0.00    -0.206 F 
ATOM    100  C   UNL A   1      39.502  34.583  39.233  1.00  0.00     0.060 A 
BRANCH 100 101
ATOM    101  S   UNL A   1      39.234  35.560  40.727  1.00  0.00     0.124 S 
ATOM    102  O   UNL A   1      38.310  34.711  41.472  1.00  0.00    -0.237 OA
ATOM    103  O   UNL A   1      40.581  35.667  41.277  1.00  0.00    -0.237 OA
ATOM    104  O   UNL A   1      38.669  36.808  40.221  1.00  0.00    -0.744 OA
ENDBRANCH 100 101
ENDBRANCH  68  93
ENDBRANCH  42  43
ENDBRANCH  35  37
ENDBRANCH  34  35
ENDBRANCH  33  34
ENDBRANCH  32  33
ENDBRANCH  31  32
ENDBRANCH   1  31
TORSDOF 23
ENDMDL
MODEL 3
REMARK VINA RESULT:     -11.2      6.338     11.411
REMARK SMILES O=C(Nc1ccc(N2CCCCC2)cc1C(=O)OCCOCCOCCOC(=O)c1ccc(-c2c3nc(c(-c4c(F)cc(S(=O)(=O)[O-])cc4F)c4ccc([nH]4)c(-c4c(F)cc(S(=O)(=O)[O-])cc4F)c4nc(c(-c5c(F)cc(S(=O)(=O)[O-])cc5F)c5ccc2[nH]5)C=C4)C=C3)cc1)c1ccccc1
REMARK SMILES IDX 23 1 22 2 21 3 20 4 19 5 18 6 16 7 17 8 15 9 4 10 5 11 6 12
REMARK SMILES IDX 14 13 7 14 3 15 1 16 2 17 96 19 97 20 101 21 98 22 100 23
REMARK SMILES IDX 99 24 8 25 9 26 13 27 10 28 12 29 11 30 24 31 25 32 26 33
REMARK SMILES IDX 27 34 28 35 29 36 30 37 31 38 95 39 32 40 94 41 33 42 34 43
REMARK SMILES IDX 35 44 88 45 36 46 93 47 87 48 89 49 37 50 92 51 86 52 85 53
REMARK SMILES IDX 38 55 72 56 51 57 71 58 52 59 55 60 70 61 90 62 53 63 54 64
REMARK SMILES IDX 69 66 91 67 56 68 39 69 40 70 49 71 41 72 42 73 48 74 50 75
REMARK SMILES IDX 43 76 44 77 45 78 46 79 47 80 73 81 74 82 83 83 75 84 76 85
REMARK SMILES IDX 82 86 84 87 77 88 78 89 79 90 80 91 81 92 57 93 58 94 67 95
REMARK SMILES IDX 59 96 60 97 66 98 68 99 61 100 62 101 63 102 64 103 65 104
REMARK H PARENT 3 18 89 54 55 65
REMARK Flexibility Score: inf
ROOT
ATOM      1  C   UNL A   1      34.448  33.906  29.279  1.00  0.00     0.188 C 
ENDROOT
BRANCH   1   2
ATOM      2  C   UNL A   1      35.360  32.988  28.432  1.00  0.00     0.188 C 
BRANCH   2   3
ATOM      3  O   UNL A   1      35.148  31.617  28.667  1.00  0.00    -0.376 OA
BRANCH   3   4
ATOM      4  C   UNL A   1      34.854  30.779  27.573  1.00  0.00     0.202 C 
BRANCH   4   5
ATOM      5  C   UNL A   1      33.428  30.378  27.168  1.00  0.00     0.261 C 
BRANCH   5   6
ATOM      6  O   UNL A   1      33.224  29.569  26.003  1.00  0.00    -0.460 OA
BRANCH   6   7
ATOM      7  C   UNL A   1      32.817  28.291  26.210  1.00  0.00     0.340 C 
ATOM      8  O   UNL A   1      33.348  27.496  26.970  1.00  0.00    -0.246 OA
BRANCH   7   9
ATOM      9  C   UNL A   1      31.531  28.022  25.507  1.00  0.00     0.085 A 
ATOM     10  C   UNL A   1      30.789  26.824  25.590  1.00  0.00     0.056 A 
ATOM     11  C   UNL A   1      29.705  26.654  24.717  1.00  0.00     0.029 A 
ATOM     12  C   UNL A   1      29.282  27.693  23.888  1.00  0.00     0.028 A 
ATOM     13  C   UNL A   1      31.098  29.055  24.642  1.00  0.00     0.043 A 
ATOM     14  C   UNL A   1      29.955  28.916  23.855  1.00  0.00     0.038 A 
BRANCH  10  15
ATOM     15  N   UNL A   1      30.958  25.753  26.496  1.00  0.00    -0.321 N 
ATOM     16  O   UNL A   1      31.478  23.700  27.280  1.00  0.00    -0.269 OA
ATOM     17  C   UNL A   1      31.593  24.535  26.383  1.00  0.00     0.255 C 
ATOM     18  H   UNL A   1      30.542  25.904  27.376  1.00  0.00     0.170 HD
BRANCH  17  19
ATOM     19  C   UNL A   1      32.470  24.230  25.229  1.00  0.00     0.040 A 
ATOM     20  C   UNL A   1      33.826  24.577  25.218  1.00  0.00     0.014 A 
ATOM     21  C   UNL A   1      31.879  23.670  24.092  1.00  0.00     0.014 A 
ATOM     22  C   UNL A   1      34.536  24.526  24.020  1.00  0.00     0.001 A 
ATOM     23  C   UNL A   1      32.595  23.616  22.898  1.00  0.00     0.001 A 
ATOM     24  C   UNL A   1      33.910  24.079  22.856  1.00  0.00     0.000 A 
ENDBRANCH  17  19
ENDBRANCH  10  15
BRANCH  14  25
ATOM     25  N   UNL A   1      29.450  29.927  23.070  1.00  0.00    -0.372 N 
ATOM     26  C   UNL A   1      29.165  31.215  23.700  1.00  0.00     0.116 C 
ATOM     27  C   UNL A   1      29.613  29.937  21.622  1.00  0.00     0.116 C 
ATOM     28  C   UNL A   1      27.858  31.760  23.130  1.00  0.00     0.021 C 
ATOM     29  C   UNL A   1      28.313  30.463  21.002  1.00  0.00     0.021 C 
ATOM     30  C   UNL A   1      27.895  31.809  21.601  1.00  0.00     0.004 C 
ENDBRANCH  14  25
ENDBRANCH   7   9
ENDBRANCH   6   7
ENDBRANCH   5   6
ENDBRANCH   4   5
ENDBRANCH   3   4
ENDBRANCH   2   3
ENDBRANCH   1   2
BRANCH   1  31
ATOM     31  O   UNL A   1      34.119  33.562  30.619  1.00  0.00    -0.376 OA
BRANCH  31  32
ATOM     32  C   UNL A   1      35.159  33.404  31.575  1.00  0.00     0.202 C 
BRANCH  32  33
ATOM     33  C   UNL A   1      35.457  32.019  32.179  1.00  0.00     0.261 C 
BRANCH  33  34
ATOM     34  O   UNL A   1      36.618  31.348  31.662  1.00  0.00    -0.460 OA
BRANCH  34  35
ATOM     35  C   UNL A   1      37.811  31.766  32.156  1.00  0.00     0.338 C 
ATOM     36  O   UNL A   1      37.998  32.414  33.175  1.00  0.00    -0.246 OA
BRANCH  35  37
ATOM     37  C   UNL A   1      38.909  31.119  31.401  1.00  0.00     0.060 A 
ATOM     38  C   UNL A   1      39.924  30.478  32.129  1.00  0.00     0.016 A 
ATOM     39  C   UNL A   1      38.937  31.114  30.004  1.00  0.00     0.016 A 
ATOM     40  C   UNL A   1      40.979  29.853  31.467  1.00  0.00     0.010 A 
ATOM     41  C   UNL A   1      40.017  30.518  29.341  1.00  0.00     0.010 A 
ATOM     42  C   UNL A   1      41.057  29.912  30.071  1.00  0.00    -0.014 A 
BRANCH  42  43
ATOM     43  C   UNL A   1      42.341  29.581  29.405  1.00  0.00     0.031 A 
ATOM     44  C   UNL A   1      42.506  28.183  28.870  1.00  0.00     0.074 A 
ATOM     45  C   UNL A   1      43.322  30.488  29.246  1.00  0.00     0.049 A 
ATOM     46  N   UNL A   1      43.543  27.627  28.302  1.00  0.00    -0.248 NA
ATOM     47  C   UNL A   1      41.336  27.296  28.991  1.00  0.00     0.031 C 
ATOM     48  C   UNL A   1      43.265  31.884  29.671  1.00  0.00     0.029 A 
ATOM     49  N   UNL A   1      44.571  30.355  28.690  1.00  0.00    -0.354 N 
ATOM     50  C   UNL A   1      43.153  26.327  28.001  1.00  0.00     0.074 A 
ATOM     51  C   UNL A   1      41.796  26.168  28.471  1.00  0.00     0.031 C 
ATOM     52  C   UNL A   1      44.441  32.473  29.386  1.00  0.00     0.029 A 
ATOM     53  C   UNL A   1      45.343  31.489  28.787  1.00  0.00     0.049 A 
ATOM     54  H   UNL A   1      44.885  29.525  28.264  1.00  0.00     0.167 HD
ATOM     55  C   UNL A   1      43.858  25.354  27.380  1.00  0.00     0.037 A 
ATOM     56  C   UNL A   1      46.634  31.694  28.456  1.00  0.00     0.037 A 
ATOM     57  C   UNL A   1      45.214  25.506  26.927  1.00  0.00     0.049 A 
ATOM     58  C   UNL A   1      47.432  30.567  27.845  1.00  0.00     0.074 A 
ATOM     59  C   UNL A   1      46.020  24.574  26.298  1.00  0.00     0.029 A 
ATOM     60  N   UNL A   1      45.968  26.661  27.065  1.00  0.00    -0.354 N 
ATOM     61  N   UNL A   1      47.049  29.345  27.554  1.00  0.00    -0.248 NA
ATOM     62  C   UNL A   1      48.837  30.846  27.513  1.00  0.00     0.031 C 
ATOM     63  C   UNL A   1      47.277  25.152  26.093  1.00  0.00     0.029 A 
ATOM     64  C   UNL A   1      47.237  26.461  26.548  1.00  0.00     0.049 A 
ATOM     65  H   UNL A   1      45.649  27.499  27.470  1.00  0.00     0.167 HD
ATOM     66  C   UNL A   1      48.155  28.724  26.981  1.00  0.00     0.074 A 
ATOM     67  C   UNL A   1      49.220  29.705  26.955  1.00  0.00     0.031 C 
ATOM     68  C   UNL A   1      48.281  27.455  26.516  1.00  0.00     0.037 A 
BRANCH  55  69
ATOM     69  C   UNL A   1      43.179  24.029  27.181  1.00  0.00     0.058 A 
ATOM     70  C   UNL A   1      43.177  23.044  28.182  1.00  0.00     0.135 A 
ATOM     71  C   UNL A   1      42.506  23.747  25.982  1.00  0.00     0.135 A 
ATOM     72  F   UNL A   1      43.829  23.253  29.338  1.00  0.00    -0.206 F 
ATOM     73  C   UNL A   1      42.548  21.819  27.994  1.00  0.00     0.059 A 
ATOM     74  C   UNL A   1      41.847  22.539  25.782  1.00  0.00     0.059 A 
ATOM     75  F   UNL A   1      42.485  24.651  24.990  1.00  0.00    -0.206 F 
ATOM     76  C   UNL A   1      41.884  21.575  26.791  1.00  0.00     0.060 A 
BRANCH  76  77
ATOM     77  S   UNL A   1      41.062  19.985  26.567  1.00  0.00     0.124 S 
ATOM     78  O   UNL A   1      40.908  19.540  27.948  1.00  0.00    -0.237 OA
ATOM     79  O   UNL A   1      39.829  20.366  25.884  1.00  0.00    -0.237 OA
ATOM     80  O   UNL A   1      42.010  19.220  25.763  1.00  0.00    -0.744 OA
ENDBRANCH  76  77
ENDBRANCH  55  69
BRANCH  56  81
ATOM     81  C   UNL A   1      47.276  33.012  28.722  1.00  0.00     0.058 A 
ATOM     82  C   UNL A   1      47.201  34.060  27.794  1.00  0.00     0.135 A 
ATOM     83  C   UNL A   1      48.003  33.237  29.902  1.00  0.00     0.135 A 
ATOM     84  F   UNL A   1      46.531  33.891  26.644  1.00  0.00    -0.206 F 
ATOM     85  C   UNL A   1      47.837  35.279  28.016  1.00  0.00     0.059 A 
ATOM     86  C   UNL A   1      48.626  34.455  30.159  1.00  0.00     0.059 A 
ATOM     87  F   UNL A   1      48.103  32.268  30.826  1.00  0.00    -0.206 F 
ATOM     88  C   UNL A   1      48.546  35.467  29.204  1.00  0.00     0.060 A 
BRANCH  88  89
ATOM     89  S   UNL A   1      49.333  37.066  29.500  1.00  0.00     0.124 S 
ATOM     90  O   UNL A   1      48.411  37.975  28.830  1.00  0.00    -0.237 OA
ATOM     91  O   UNL A   1      49.350  37.132  30.958  1.00  0.00    -0.237 OA
ATOM     92  O   UNL A   1      50.642  36.916  28.872  1.00  0.00    -0.744 OA
ENDBRANCH  88  89
ENDBRANCH  56  81
BRANCH  68  93
ATOM     93  C   UNL A   1      49.594  27.060  25.895  1.00  0.00     0.058 A 
ATOM     94  C   UNL A   1      49.842  27.218  24.523  1.00  0.00     0.135 A 
ATOM     95  C   UNL A   1      50.642  26.581  26.699  1.00  0.00     0.135 A 
ATOM     96  F   UNL A   1      48.875  27.669  23.708  1.00  0.00    -0.206 F 
ATOM     97  C   UNL A   1      51.076  26.894  23.965  1.00  0.00     0.059 A 
ATOM     98  C   UNL A   1      51.892  26.278  26.168  1.00  0.00     0.059 A 
ATOM     99  F   UNL A   1      50.463  26.423  28.020  1.00  0.00    -0.206 F 
ATOM    100  C   UNL A   1      52.096  26.428  24.797  1.00  0.00     0.060 A 
BRANCH 100 101
ATOM    101  S   UNL A   1      53.703  26.046  24.068  1.00  0.00     0.124 S 
ATOM    102  O   UNL A   1      53.365  25.935  22.653  1.00  0.00    -0.237 OA
ATOM    103  O   UNL A   1      54.500  27.210  24.441  1.00  0.00    -0.237 OA
ATOM    104  O   UNL A   1      54.085  24.797  24.721  1.00  0.00    -0.744 OA
ENDBRANCH 100 101
ENDBRANCH  68  93
ENDBRANCH  42  43
ENDBRANCH  35  37
ENDBRANCH  34  35
ENDBRANCH  33  34
ENDBRANCH  32  33
ENDBRANCH  31  32
ENDBRANCH   1  31
TORSDOF 23
ENDMDL
