MODEL 1
REMARK VINA RESULT:      -9.5      0.000      0.000
REMARK SMILES CC(C)C[C@H](NC(=O)Cc1ccccc1)C(=O)OCCOCCOCCOC(=O)c1ccc(-c2c3nc(c(-c4c(F)cc(S(=O)(=O)[O-])cc4F)c4ccc([nH]4)c(-c4c(F)cc(S(=O)(=O)[O-])cc4F)c4nc(c(-c5c(F)cc(S(=O)(=O)[O-])cc5F)c5ccc2[nH]5)C=C4)C=C3)cc1
REMARK SMILES IDX 22 1 21 2 20 3 19 4 18 5 16 6 17 7 5 8 4 9 2 10 1 11 3 12
REMARK SMILES IDX 6 13 7 14 8 16 9 17 10 18 11 19 15 20 12 21 14 22 13 23
REMARK SMILES IDX 23 24 24 25 25 26 26 27 27 28 28 29 29 30 30 31 31 32 95 33
REMARK SMILES IDX 32 34 94 35 33 36 34 37 35 38 88 39 36 40 93 41 87 42 89 43
REMARK SMILES IDX 37 44 92 45 86 46 85 47 38 49 72 50 51 51 71 52 52 53 55 54
REMARK SMILES IDX 70 55 90 56 53 57 54 58 69 60 91 61 56 62 39 63 40 64 49 65
REMARK SMILES IDX 41 66 42 67 48 68 50 69 43 70 44 71 45 72 46 73 47 74 73 75
REMARK SMILES IDX 74 76 83 77 75 78 76 79 82 80 84 81 77 82 78 83 79 84 80 85
REMARK SMILES IDX 81 86 57 87 58 88 67 89 59 90 60 91 66 92 68 93 61 94 62 95
REMARK SMILES IDX 63 96 64 97 65 98
REMARK H PARENT 6 15 89 48 55 59
REMARK Flexibility Score: inf
ROOT
ATOM      1  C   UNL A   1      37.394  21.657  24.503  1.00  0.00     0.188 C 
ENDROOT
BRANCH   1   2
ATOM      2  O   UNL A   1      36.005  21.765  24.789  1.00  0.00    -0.376 OA
BRANCH   2   3
ATOM      3  C   UNL A   1      35.698  22.121  26.127  1.00  0.00     0.202 C 
BRANCH   3   4
ATOM      4  C   UNL A   1      34.391  21.506  26.624  1.00  0.00     0.261 C 
BRANCH   4   5
ATOM      5  O   UNL A   1      33.180  21.917  25.972  1.00  0.00    -0.462 OA
BRANCH   5   6
ATOM      6  C   UNL A   1      32.585  23.061  26.407  1.00  0.00     0.328 C 
ATOM      7  O   UNL A   1      31.888  23.137  27.408  1.00  0.00    -0.250 OA
BRANCH   6   8
ATOM      8  C   UNL A   1      32.758  24.192  25.380  1.00  0.00     0.192 C 
BRANCH   8   9
ATOM      9  C   UNL A   1      33.430  25.397  26.062  1.00  0.00     0.040 C 
BRANCH   9  10
ATOM     10  C   UNL A   1      32.841  26.819  25.904  1.00  0.00    -0.015 C 
ATOM     11  C   UNL A   1      31.701  27.130  26.873  1.00  0.00     0.007 C 
ATOM     12  C   UNL A   1      33.959  27.846  26.112  1.00  0.00     0.007 C 
ENDBRANCH   9  10
ENDBRANCH   8   9
BRANCH   8  13
ATOM     13  N   UNL A   1      31.441  24.511  24.759  1.00  0.00    -0.342 N 
ATOM     14  C   UNL A   1      31.014  24.626  23.470  1.00  0.00     0.225 C 
ATOM     15  H   UNL A   1      30.729  24.672  25.418  1.00  0.00     0.164 HD
ATOM     16  O   UNL A   1      29.802  24.535  23.252  1.00  0.00    -0.275 OA
BRANCH  14  17
ATOM     17  C   UNL A   1      31.970  24.995  22.348  1.00  0.00     0.135 C 
BRANCH  17  18
ATOM     18  C   UNL A   1      32.313  26.474  22.355  1.00  0.00    -0.039 A 
ATOM     19  C   UNL A   1      31.340  27.451  22.633  1.00  0.00     0.004 A 
ATOM     20  C   UNL A   1      33.648  26.877  22.205  1.00  0.00     0.004 A 
ATOM     21  C   UNL A   1      31.711  28.769  22.890  1.00  0.00     0.000 A 
ATOM     22  C   UNL A   1      34.015  28.201  22.456  1.00  0.00     0.000 A 
ATOM     23  C   UNL A   1      33.051  29.140  22.823  1.00  0.00     0.000 A 
ENDBRANCH  17  18
ENDBRANCH  14  17
ENDBRANCH   8  13
ENDBRANCH   6   8
ENDBRANCH   5   6
ENDBRANCH   4   5
ENDBRANCH   3   4
ENDBRANCH   2   3
ENDBRANCH   1   2
BRANCH   1  24
ATOM     24  C   UNL A   1      38.246  21.261  25.718  1.00  0.00     0.188 C 
BRANCH  24  25
ATOM     25  O   UNL A   1      39.395  20.446  25.558  1.00  0.00    -0.376 OA
BRANCH  25  26
ATOM     26  C   UNL A   1      40.464  20.609  26.477  1.00  0.00     0.202 C 
BRANCH  26  27
ATOM     27  C   UNL A   1      41.505  21.719  26.232  1.00  0.00     0.261 C 
BRANCH  27  28
ATOM     28  O   UNL A   1      41.029  23.066  26.400  1.00  0.00    -0.460 OA
BRANCH  28  29
ATOM     29  C   UNL A   1      41.973  24.040  26.341  1.00  0.00     0.338 C 
ATOM     30  O   UNL A   1      42.913  24.096  25.564  1.00  0.00    -0.246 OA
BRANCH  29  31
ATOM     31  C   UNL A   1      41.573  25.174  27.214  1.00  0.00     0.060 A 
ATOM     32  C   UNL A   1      42.454  26.263  27.321  1.00  0.00     0.016 A 
ATOM     33  C   UNL A   1      40.361  25.190  27.905  1.00  0.00     0.016 A 
ATOM     34  C   UNL A   1      42.138  27.359  28.126  1.00  0.00     0.010 A 
ATOM     35  C   UNL A   1      40.064  26.270  28.750  1.00  0.00     0.010 A 
ATOM     36  C   UNL A   1      40.963  27.345  28.887  1.00  0.00    -0.014 A 
BRANCH  36  37
ATOM     37  C   UNL A   1      40.813  28.311  30.008  1.00  0.00     0.031 A 
ATOM     38  C   UNL A   1      41.737  28.159  31.189  1.00  0.00     0.074 A 
ATOM     39  C   UNL A   1      39.916  29.313  29.983  1.00  0.00     0.049 A 
ATOM     40  N   UNL A   1      41.770  28.826  32.312  1.00  0.00    -0.248 NA
ATOM     41  C   UNL A   1      42.763  27.106  31.083  1.00  0.00     0.031 C 
ATOM     42  C   UNL A   1      39.006  29.614  28.882  1.00  0.00     0.029 A 
ATOM     43  N   UNL A   1      39.621  30.264  30.932  1.00  0.00    -0.354 N 
ATOM     44  C   UNL A   1      42.810  28.271  33.049  1.00  0.00     0.074 A 
ATOM     45  C   UNL A   1      43.369  27.198  32.255  1.00  0.00     0.031 C 
ATOM     46  C   UNL A   1      38.237  30.664  29.227  1.00  0.00     0.029 A 
ATOM     47  C   UNL A   1      38.579  31.091  30.583  1.00  0.00     0.049 A 
ATOM     48  H   UNL A   1      40.111  30.346  31.782  1.00  0.00     0.167 HD
ATOM     49  C   UNL A   1      43.264  28.623  34.274  1.00  0.00     0.037 A 
ATOM     50  C   UNL A   1      37.960  32.061  31.290  1.00  0.00     0.037 A 
ATOM     51  C   UNL A   1      42.709  29.685  35.068  1.00  0.00     0.049 A 
ATOM     52  C   UNL A   1      38.431  32.384  32.688  1.00  0.00     0.074 A 
ATOM     53  C   UNL A   1      43.107  30.119  36.321  1.00  0.00     0.029 A 
ATOM     54  N   UNL A   1      41.634  30.476  34.693  1.00  0.00    -0.354 N 
ATOM     55  N   UNL A   1      39.421  31.857  33.370  1.00  0.00    -0.248 NA
ATOM     56  C   UNL A   1      37.697  33.432  33.414  1.00  0.00     0.031 C 
ATOM     57  C   UNL A   1      42.242  31.141  36.724  1.00  0.00     0.029 A 
ATOM     58  C   UNL A   1      41.339  31.380  35.700  1.00  0.00     0.049 A 
ATOM     59  H   UNL A   1      41.152  30.405  33.837  1.00  0.00     0.167 HD
ATOM     60  C   UNL A   1      39.447  32.531  34.588  1.00  0.00     0.074 A 
ATOM     61  C   UNL A   1      38.380  33.508  34.549  1.00  0.00     0.031 C 
ATOM     62  C   UNL A   1      40.281  32.358  35.644  1.00  0.00     0.037 A 
BRANCH  49  63
ATOM     63  C   UNL A   1      44.402  27.825  34.844  1.00  0.00     0.058 A 
ATOM     64  C   UNL A   1      45.740  28.210  34.661  1.00  0.00     0.135 A 
ATOM     65  C   UNL A   1      44.149  26.671  35.602  1.00  0.00     0.135 A 
ATOM     66  F   UNL A   1      46.037  29.292  33.924  1.00  0.00    -0.206 F 
ATOM     67  C   UNL A   1      46.789  27.467  35.193  1.00  0.00     0.059 A 
ATOM     68  C   UNL A   1      45.180  25.927  36.166  1.00  0.00     0.059 A 
ATOM     69  F   UNL A   1      42.888  26.255  35.800  1.00  0.00    -0.206 F 
ATOM     70  C   UNL A   1      46.498  26.327  35.945  1.00  0.00     0.060 A 
BRANCH  70  71
ATOM     71  S   UNL A   1      47.867  25.378  36.638  1.00  0.00     0.124 S 
ATOM     72  O   UNL A   1      47.158  24.401  37.458  1.00  0.00    -0.237 OA
ATOM     73  O   UNL A   1      48.518  24.850  35.443  1.00  0.00    -0.237 OA
ATOM     74  O   UNL A   1      48.635  26.377  37.376  1.00  0.00    -0.744 OA
ENDBRANCH  70  71
ENDBRANCH  49  63
BRANCH  50  75
ATOM     75  C   UNL A   1      36.801  32.791  30.703  1.00  0.00     0.058 A 
ATOM     76  C   UNL A   1      36.981  33.750  29.694  1.00  0.00     0.135 A 
ATOM     77  C   UNL A   1      35.494  32.565  31.161  1.00  0.00     0.135 A 
ATOM     78  F   UNL A   1      38.213  34.018  29.235  1.00  0.00    -0.206 F 
ATOM     79  C   UNL A   1      35.910  34.468  29.170  1.00  0.00     0.059 A 
ATOM     80  C   UNL A   1      34.404  33.251  30.634  1.00  0.00     0.059 A 
ATOM     81  F   UNL A   1      35.266  31.657  32.123  1.00  0.00    -0.206 F 
ATOM     82  C   UNL A   1      34.623  34.209  29.646  1.00  0.00     0.060 A 
BRANCH  82  83
ATOM     83  S   UNL A   1      33.234  35.111  28.925  1.00  0.00     0.124 S 
ATOM     84  O   UNL A   1      32.390  35.334  30.094  1.00  0.00    -0.237 OA
ATOM     85  O   UNL A   1      33.888  36.293  28.374  1.00  0.00    -0.237 OA
ATOM     86  O   UNL A   1      32.706  34.177  27.935  1.00  0.00    -0.744 OA
ENDBRANCH  82  83
ENDBRANCH  50  75
BRANCH  62  87
ATOM     87  C   UNL A   1      40.110  33.266  36.833  1.00  0.00     0.058 A 
ATOM     88  C   UNL A   1      40.949  34.370  37.048  1.00  0.00     0.135 A 
ATOM     89  C   UNL A   1      39.049  33.065  37.732  1.00  0.00     0.135 A 
ATOM     90  F   UNL A   1      41.978  34.608  36.221  1.00  0.00    -0.206 F 
ATOM     91  C   UNL A   1      40.758  35.229  38.127  1.00  0.00     0.059 A 
ATOM     92  C   UNL A   1      38.823  33.927  38.802  1.00  0.00     0.059 A 
ATOM     93  F   UNL A   1      38.208  32.033  37.565  1.00  0.00    -0.206 F 
ATOM     94  C   UNL A   1      39.690  34.999  38.998  1.00  0.00     0.060 A 
BRANCH  94  95
ATOM     95  S   UNL A   1      39.433  36.140  40.374  1.00  0.00     0.124 S 
ATOM     96  O   UNL A   1      40.794  36.590  40.641  1.00  0.00    -0.237 OA
ATOM     97  O   UNL A   1      38.538  37.136  39.794  1.00  0.00    -0.237 OA
ATOM     98  O   UNL A   1      38.837  35.297  41.407  1.00  0.00    -0.744 OA
ENDBRANCH  94  95
ENDBRANCH  62  87
ENDBRANCH  36  37
ENDBRANCH  29  31
ENDBRANCH  28  29
ENDBRANCH  27  28
ENDBRANCH  26  27
ENDBRANCH  25  26
ENDBRANCH  24  25
ENDBRANCH   1  24
TORSDOF 25
ENDMDL
MODEL 2
REMARK VINA RESULT:      -8.6      9.501     14.935
REMARK SMILES CC(C)C[C@H](NC(=O)Cc1ccccc1)C(=O)OCCOCCOCCOC(=O)c1ccc(-c2c3nc(c(-c4c(F)cc(S(=O)(=O)[O-])cc4F)c4ccc([nH]4)c(-c4c(F)cc(S(=O)(=O)[O-])cc4F)c4nc(c(-c5c(F)cc(S(=O)(=O)[O-])cc5F)c5ccc2[nH]5)C=C4)C=C3)cc1
REMARK SMILES IDX 22 1 21 2 20 3 19 4 18 5 16 6 17 7 5 8 4 9 2 10 1 11 3 12
REMARK SMILES IDX 6 13 7 14 8 16 9 17 10 18 11 19 15 20 12 21 14 22 13 23
REMARK SMILES IDX 23 24 24 25 25 26 26 27 27 28 28 29 29 30 30 31 31 32 95 33
REMARK SMILES IDX 32 34 94 35 33 36 34 37 35 38 88 39 36 40 93 41 87 42 89 43
REMARK SMILES IDX 37 44 92 45 86 46 85 47 38 49 72 50 51 51 71 52 52 53 55 54
REMARK SMILES IDX 70 55 90 56 53 57 54 58 69 60 91 61 56 62 39 63 40 64 49 65
REMARK SMILES IDX 41 66 42 67 48 68 50 69 43 70 44 71 45 72 46 73 47 74 73 75
REMARK SMILES IDX 74 76 83 77 75 78 76 79 82 80 84 81 77 82 78 83 79 84 80 85
REMARK SMILES IDX 81 86 57 87 58 88 67 89 59 90 60 91 66 92 68 93 61 94 62 95
REMARK SMILES IDX 63 96 64 97 65 98
REMARK H PARENT 6 15 89 48 55 59
REMARK Flexibility Score: inf
ROOT
ATOM      1  C   UNL A   1      44.407  40.161  26.285  1.00  0.00     0.188 C 
ENDROOT
BRANCH   1   2
ATOM      2  O   UNL A   1      43.892  40.742  25.094  1.00  0.00    -0.376 OA
BRANCH   2   3
ATOM      3  C   UNL A   1      43.625  42.132  25.177  1.00  0.00     0.202 C 
BRANCH   3   4
ATOM      4  C   UNL A   1      42.994  42.696  23.905  1.00  0.00     0.261 C 
BRANCH   4   5
ATOM      5  O   UNL A   1      43.806  42.715  22.720  1.00  0.00    -0.462 OA
BRANCH   5   6
ATOM      6  C   UNL A   1      43.195  42.455  21.532  1.00  0.00     0.328 C 
ATOM      7  O   UNL A   1      42.662  41.393  21.250  1.00  0.00    -0.250 OA
BRANCH   6   8
ATOM      8  C   UNL A   1      43.425  43.604  20.536  1.00  0.00     0.192 C 
BRANCH   8   9
ATOM      9  C   UNL A   1      44.358  44.649  21.175  1.00  0.00     0.040 C 
BRANCH   9  10
ATOM     10  C   UNL A   1      45.333  45.470  20.299  1.00  0.00    -0.015 C 
ATOM     11  C   UNL A   1      45.367  46.960  20.637  1.00  0.00     0.007 C 
ATOM     12  C   UNL A   1      46.746  44.897  20.458  1.00  0.00     0.007 C 
ENDBRANCH   9  10
ENDBRANCH   8   9
BRANCH   8  13
ATOM     13  N   UNL A   1      42.112  44.159  20.099  1.00  0.00    -0.342 N 
ATOM     14  C   UNL A   1      41.519  44.318  18.882  1.00  0.00     0.225 C 
ATOM     15  H   UNL A   1      41.557  44.476  20.846  1.00  0.00     0.164 HD
ATOM     16  O   UNL A   1      40.293  44.462  18.852  1.00  0.00    -0.275 OA
BRANCH  14  17
ATOM     17  C   UNL A   1      42.340  44.458  17.612  1.00  0.00     0.135 C 
BRANCH  17  18
ATOM     18  C   UNL A   1      42.993  45.825  17.503  1.00  0.00    -0.039 A 
ATOM     19  C   UNL A   1      44.339  45.965  17.121  1.00  0.00     0.004 A 
ATOM     20  C   UNL A   1      42.215  46.981  17.663  1.00  0.00     0.004 A 
ATOM     21  C   UNL A   1      44.853  47.213  16.776  1.00  0.00     0.000 A 
ATOM     22  C   UNL A   1      42.736  48.231  17.323  1.00  0.00     0.000 A 
ATOM     23  C   UNL A   1      44.045  48.343  16.855  1.00  0.00     0.000 A 
ENDBRANCH  17  18
ENDBRANCH  14  17
ENDBRANCH   8  13
ENDBRANCH   6   8
ENDBRANCH   5   6
ENDBRANCH   4   5
ENDBRANCH   3   4
ENDBRANCH   2   3
ENDBRANCH   1   2
BRANCH   1  24
ATOM     24  C   UNL A   1      43.381  40.078  27.425  1.00  0.00     0.188 C 
BRANCH  24  25
ATOM     25  O   UNL A   1      43.606  39.226  28.536  1.00  0.00    -0.376 OA
BRANCH  25  26
ATOM     26  C   UNL A   1      44.177  39.790  29.707  1.00  0.00     0.202 C 
BRANCH  26  27
ATOM     27  C   UNL A   1      45.296  39.027  30.442  1.00  0.00     0.261 C 
BRANCH  27  28
ATOM     28  O   UNL A   1      45.520  37.675  30.002  1.00  0.00    -0.460 OA
BRANCH  28  29
ATOM     29  C   UNL A   1      46.582  37.039  30.561  1.00  0.00     0.338 C 
ATOM     30  O   UNL A   1      47.390  37.519  31.340  1.00  0.00    -0.246 OA
BRANCH  29  31
ATOM     31  C   UNL A   1      46.495  35.584  30.276  1.00  0.00     0.060 A 
ATOM     32  C   UNL A   1      46.236  35.187  28.953  1.00  0.00     0.016 A 
ATOM     33  C   UNL A   1      46.675  34.618  31.267  1.00  0.00     0.016 A 
ATOM     34  C   UNL A   1      46.141  33.835  28.620  1.00  0.00     0.010 A 
ATOM     35  C   UNL A   1      46.534  33.261  30.942  1.00  0.00     0.010 A 
ATOM     36  C   UNL A   1      46.237  32.864  29.623  1.00  0.00    -0.014 A 
BRANCH  36  37
ATOM     37  C   UNL A   1      45.766  31.482  29.344  1.00  0.00     0.031 A 
ATOM     38  C   UNL A   1      46.813  30.417  29.137  1.00  0.00     0.074 A 
ATOM     39  C   UNL A   1      44.462  31.156  29.302  1.00  0.00     0.049 A 
ATOM     40  N   UNL A   1      46.669  29.158  28.819  1.00  0.00    -0.248 NA
ATOM     41  C   UNL A   1      48.214  30.838  29.312  1.00  0.00     0.031 C 
ATOM     42  C   UNL A   1      43.348  32.070  29.544  1.00  0.00     0.029 A 
ATOM     43  N   UNL A   1      43.855  29.953  29.027  1.00  0.00    -0.354 N 
ATOM     44  C   UNL A   1      47.956  28.638  28.749  1.00  0.00     0.074 A 
ATOM     45  C   UNL A   1      48.870  29.722  29.034  1.00  0.00     0.031 C 
ATOM     46  C   UNL A   1      42.192  31.399  29.384  1.00  0.00     0.029 A 
ATOM     47  C   UNL A   1      42.482  30.017  29.000  1.00  0.00     0.049 A 
ATOM     48  H   UNL A   1      44.358  29.122  28.865  1.00  0.00     0.167 HD
ATOM     49  C   UNL A   1      48.345  27.371  28.475  1.00  0.00     0.037 A 
ATOM     50  C   UNL A   1      41.570  29.076  28.678  1.00  0.00     0.037 A 
ATOM     51  C   UNL A   1      47.441  26.291  28.187  1.00  0.00     0.049 A 
ATOM     52  C   UNL A   1      42.029  27.689  28.296  1.00  0.00     0.074 A 
ATOM     53  C   UNL A   1      47.744  24.970  27.902  1.00  0.00     0.029 A 
ATOM     54  N   UNL A   1      46.061  26.405  28.138  1.00  0.00    -0.354 N 
ATOM     55  N   UNL A   1      43.250  27.207  28.242  1.00  0.00    -0.248 NA
ATOM     56  C   UNL A   1      40.988  26.717  27.930  1.00  0.00     0.031 C 
ATOM     57  C   UNL A   1      46.548  24.296  27.634  1.00  0.00     0.029 A 
ATOM     58  C   UNL A   1      45.498  25.185  27.804  1.00  0.00     0.049 A 
ATOM     59  H   UNL A   1      45.556  27.232  28.313  1.00  0.00     0.167 HD
ATOM     60  C   UNL A   1      43.117  25.873  27.867  1.00  0.00     0.074 A 
ATOM     61  C   UNL A   1      41.701  25.619  27.714  1.00  0.00     0.031 C 
ATOM     62  C   UNL A   1      44.083  24.941  27.668  1.00  0.00     0.037 A 
BRANCH  49  63
ATOM     63  C   UNL A   1      49.822  27.095  28.443  1.00  0.00     0.058 A 
ATOM     64  C   UNL A   1      50.560  27.156  27.251  1.00  0.00     0.135 A 
ATOM     65  C   UNL A   1      50.510  26.787  29.627  1.00  0.00     0.135 A 
ATOM     66  F   UNL A   1      49.946  27.423  26.088  1.00  0.00    -0.206 F 
ATOM     67  C   UNL A   1      51.928  26.901  27.230  1.00  0.00     0.059 A 
ATOM     68  C   UNL A   1      51.882  26.554  29.634  1.00  0.00     0.059 A 
ATOM     69  F   UNL A   1      49.849  26.707  30.793  1.00  0.00    -0.206 F 
ATOM     70  C   UNL A   1      52.579  26.601  28.428  1.00  0.00     0.060 A 
BRANCH  70  71
ATOM     71  S   UNL A   1      54.355  26.283  28.388  1.00  0.00     0.124 S 
ATOM     72  O   UNL A   1      54.880  27.608  28.072  1.00  0.00    -0.237 OA
ATOM     73  O   UNL A   1      54.617  25.803  29.741  1.00  0.00    -0.237 OA
ATOM     74  O   UNL A   1      54.499  25.284  27.333  1.00  0.00    -0.744 OA
ENDBRANCH  70  71
ENDBRANCH  49  63
BRANCH  50  75
ATOM     75  C   UNL A   1      40.118  29.411  28.673  1.00  0.00     0.058 A 
ATOM     76  C   UNL A   1      39.401  29.521  27.471  1.00  0.00     0.135 A 
ATOM     77  C   UNL A   1      39.426  29.657  29.869  1.00  0.00     0.135 A 
ATOM     78  F   UNL A   1      40.020  29.315  26.299  1.00  0.00    -0.206 F 
ATOM     79  C   UNL A   1      38.055  29.876  27.454  1.00  0.00     0.059 A 
ATOM     80  C   UNL A   1      38.074  29.987  29.879  1.00  0.00     0.059 A 
ATOM     81  F   UNL A   1      40.064  29.564  31.046  1.00  0.00    -0.206 F 
ATOM     82  C   UNL A   1      37.399  30.104  28.665  1.00  0.00     0.060 A 
BRANCH  82  83
ATOM     83  S   UNL A   1      35.640  30.516  28.635  1.00  0.00     0.124 S 
ATOM     84  O   UNL A   1      35.406  30.906  30.021  1.00  0.00    -0.237 OA
ATOM     85  O   UNL A   1      35.594  31.594  27.652  1.00  0.00    -0.237 OA
ATOM     86  O   UNL A   1      35.011  29.267  28.215  1.00  0.00    -0.744 OA
ENDBRANCH  82  83
ENDBRANCH  50  75
BRANCH  62  87
ATOM     87  C   UNL A   1      43.649  23.545  27.306  1.00  0.00     0.058 A 
ATOM     88  C   UNL A   1      43.042  22.692  28.239  1.00  0.00     0.135 A 
ATOM     89  C   UNL A   1      43.786  23.080  25.986  1.00  0.00     0.135 A 
ATOM     90  F   UNL A   1      42.888  23.084  29.514  1.00  0.00    -0.206 F 
ATOM     91  C   UNL A   1      42.607  21.418  27.886  1.00  0.00     0.059 A 
ATOM     92  C   UNL A   1      43.333  21.821  25.604  1.00  0.00     0.059 A 
ATOM     93  F   UNL A   1      44.347  23.860  25.050  1.00  0.00    -0.206 F 
ATOM     94  C   UNL A   1      42.755  20.992  26.563  1.00  0.00     0.060 A 
BRANCH  94  95
ATOM     95  S   UNL A   1      42.156  19.350  26.109  1.00  0.00     0.124 S 
ATOM     96  O   UNL A   1      42.674  18.535  27.202  1.00  0.00    -0.237 OA
ATOM     97  O   UNL A   1      40.709  19.538  26.089  1.00  0.00    -0.237 OA
ATOM     98  O   UNL A   1      42.769  19.114  24.806  1.00  0.00    -0.744 OA
ENDBRANCH  94  95
ENDBRANCH  62  87
ENDBRANCH  36  37
ENDBRANCH  29  31
ENDBRANCH  28  29
ENDBRANCH  27  28
ENDBRANCH  26  27
ENDBRANCH  25  26
ENDBRANCH  24  25
ENDBRANCH   1  24
TORSDOF 25
ENDMDL
MODEL 3
REMARK VINA RESULT:      -8.6      4.554     10.079
REMARK SMILES CC(C)C[C@H](NC(=O)Cc1ccccc1)C(=O)OCCOCCOCCOC(=O)c1ccc(-c2c3nc(c(-c4c(F)cc(S(=O)(=O)[O-])cc4F)c4ccc([nH]4)c(-c4c(F)cc(S(=O)(=O)[O-])cc4F)c4nc(c(-c5c(F)cc(S(=O)(=O)[O-])cc5F)c5ccc2[nH]5)C=C4)C=C3)cc1
REMARK SMILES IDX 22 1 21 2 20 3 19 4 18 5 16 6 17 7 5 8 4 9 2 10 1 11 3 12
REMARK SMILES IDX 6 13 7 14 8 16 9 17 10 18 11 19 15 20 12 21 14 22 13 23
REMARK SMILES IDX 23 24 24 25 25 26 26 27 27 28 28 29 29 30 30 31 31 32 95 33
REMARK SMILES IDX 32 34 94 35 33 36 34 37 35 38 88 39 36 40 93 41 87 42 89 43
REMARK SMILES IDX 37 44 92 45 86 46 85 47 38 49 72 50 51 51 71 52 52 53 55 54
REMARK SMILES IDX 70 55 90 56 53 57 54 58 69 60 91 61 56 62 39 63 40 64 49 65
REMARK SMILES IDX 41 66 42 67 48 68 50 69 43 70 44 71 45 72 46 73 47 74 73 75
REMARK SMILES IDX 74 76 83 77 75 78 76 79 82 80 84 81 77 82 78 83 79 84 80 85
REMARK SMILES IDX 81 86 57 87 58 88 67 89 59 90 60 91 66 92 68 93 61 94 62 95
REMARK SMILES IDX 63 96 64 97 65 98
REMARK H PARENT 6 15 89 48 55 59
REMARK Flexibility Score: inf
ROOT
ATOM      1  C   UNL A   1      36.794  19.479  24.723  1.00  0.00     0.188 C 
ENDROOT
BRANCH   1   2
ATOM      2  O   UNL A   1      38.137  19.925  24.860  1.00  0.00    -0.376 OA
BRANCH   2   3
ATOM      3  C   UNL A   1      38.879  19.277  25.880  1.00  0.00     0.202 C 
BRANCH   3   4
ATOM      4  C   UNL A   1      40.378  19.235  25.594  1.00  0.00     0.261 C 
BRANCH   4   5
ATOM      5  O   UNL A   1      41.220  20.110  26.360  1.00  0.00    -0.462 OA
BRANCH   5   6
ATOM      6  C   UNL A   1      42.563  20.035  26.155  1.00  0.00     0.328 C 
ATOM      7  O   UNL A   1      43.197  18.991  26.119  1.00  0.00    -0.250 OA
BRANCH   6   8
ATOM      8  C   UNL A   1      43.195  21.437  26.154  1.00  0.00     0.192 C 
BRANCH   8   9
ATOM      9  C   UNL A   1      42.349  22.375  27.033  1.00  0.00     0.040 C 
BRANCH   9  10
ATOM     10  C   UNL A   1      43.023  23.282  28.089  1.00  0.00    -0.015 C 
ATOM     11  C   UNL A   1      42.501  23.077  29.509  1.00  0.00     0.007 C 
ATOM     12  C   UNL A   1      44.534  23.020  28.077  1.00  0.00     0.007 C 
ENDBRANCH   9  10
ENDBRANCH   8   9
BRANCH   8  13
ATOM     13  N   UNL A   1      43.358  21.913  24.750  1.00  0.00    -0.342 N 
ATOM     14  C   UNL A   1      44.406  22.429  24.049  1.00  0.00     0.225 C 
ATOM     15  H   UNL A   1      42.534  21.838  24.217  1.00  0.00     0.164 HD
ATOM     16  O   UNL A   1      44.352  22.389  22.817  1.00  0.00    -0.275 OA
BRANCH  14  17
ATOM     17  C   UNL A   1      45.542  23.159  24.745  1.00  0.00     0.135 C 
BRANCH  17  18
ATOM     18  C   UNL A   1      45.167  24.587  25.103  1.00  0.00    -0.039 A 
ATOM     19  C   UNL A   1      46.149  25.546  25.411  1.00  0.00     0.004 A 
ATOM     20  C   UNL A   1      43.830  24.999  25.007  1.00  0.00     0.004 A 
ATOM     21  C   UNL A   1      45.822  26.898  25.484  1.00  0.00     0.000 A 
ATOM     22  C   UNL A   1      43.506  26.355  25.088  1.00  0.00     0.000 A 
ATOM     23  C   UNL A   1      44.503  27.305  25.300  1.00  0.00     0.000 A 
ENDBRANCH  17  18
ENDBRANCH  14  17
ENDBRANCH   8  13
ENDBRANCH   6   8
ENDBRANCH   5   6
ENDBRANCH   4   5
ENDBRANCH   3   4
ENDBRANCH   2   3
ENDBRANCH   1   2
BRANCH   1  24
ATOM     24  C   UNL A   1      35.749  20.549  25.070  1.00  0.00     0.188 C 
BRANCH  24  25
ATOM     25  O   UNL A   1      35.914  21.376  26.211  1.00  0.00    -0.376 OA
BRANCH  25  26
ATOM     26  C   UNL A   1      36.093  22.769  26.007  1.00  0.00     0.202 C 
BRANCH  26  27
ATOM     27  C   UNL A   1      36.909  23.254  24.793  1.00  0.00     0.261 C 
BRANCH  27  28
ATOM     28  O   UNL A   1      38.135  23.940  25.102  1.00  0.00    -0.460 OA
BRANCH  28  29
ATOM     29  C   UNL A   1      38.781  23.524  26.222  1.00  0.00     0.338 C 
ATOM     30  O   UNL A   1      39.113  22.379  26.487  1.00  0.00    -0.246 OA
BRANCH  29  31
ATOM     31  C   UNL A   1      39.249  24.703  26.994  1.00  0.00     0.060 A 
ATOM     32  C   UNL A   1      39.990  25.683  26.311  1.00  0.00     0.016 A 
ATOM     33  C   UNL A   1      38.965  24.867  28.350  1.00  0.00     0.016 A 
ATOM     34  C   UNL A   1      40.461  26.815  26.980  1.00  0.00     0.010 A 
ATOM     35  C   UNL A   1      39.476  25.981  29.032  1.00  0.00     0.010 A 
ATOM     36  C   UNL A   1      40.252  26.945  28.357  1.00  0.00    -0.014 A 
BRANCH  36  37
ATOM     37  C   UNL A   1      41.058  27.930  29.124  1.00  0.00     0.031 A 
ATOM     38  C   UNL A   1      40.326  29.070  29.785  1.00  0.00     0.074 A 
ATOM     39  C   UNL A   1      42.391  27.818  29.268  1.00  0.00     0.049 A 
ATOM     40  N   UNL A   1      40.798  30.089  30.452  1.00  0.00    -0.248 NA
ATOM     41  C   UNL A   1      38.857  29.052  29.671  1.00  0.00     0.031 C 
ATOM     42  C   UNL A   1      43.217  26.736  28.737  1.00  0.00     0.029 A 
ATOM     43  N   UNL A   1      43.289  28.643  29.905  1.00  0.00    -0.354 N 
ATOM     44  C   UNL A   1      39.690  30.837  30.831  1.00  0.00     0.074 A 
ATOM     45  C   UNL A   1      38.522  30.167  30.300  1.00  0.00     0.031 C 
ATOM     46  C   UNL A   1      44.504  26.977  29.051  1.00  0.00     0.029 A 
ATOM     47  C   UNL A   1      44.598  28.242  29.779  1.00  0.00     0.049 A 
ATOM     48  H   UNL A   1      43.018  29.447  30.405  1.00  0.00     0.167 HD
ATOM     49  C   UNL A   1      39.644  31.977  31.559  1.00  0.00     0.037 A 
ATOM     50  C   UNL A   1      45.738  28.842  30.182  1.00  0.00     0.037 A 
ATOM     51  C   UNL A   1      40.801  32.648  32.085  1.00  0.00     0.049 A 
ATOM     52  C   UNL A   1      45.669  30.156  30.923  1.00  0.00     0.074 A 
ATOM     53  C   UNL A   1      40.853  33.807  32.840  1.00  0.00     0.029 A 
ATOM     54  N   UNL A   1      42.110  32.227  31.907  1.00  0.00    -0.354 N 
ATOM     55  N   UNL A   1      44.614  30.850  31.282  1.00  0.00    -0.248 NA
ATOM     56  C   UNL A   1      46.947  30.772  31.311  1.00  0.00     0.031 C 
ATOM     57  C   UNL A   1      42.197  34.114  33.078  1.00  0.00     0.029 A 
ATOM     58  C   UNL A   1      42.979  33.117  32.517  1.00  0.00     0.049 A 
ATOM     59  H   UNL A   1      42.381  31.416  31.419  1.00  0.00     0.167 HD
ATOM     60  C   UNL A   1      45.101  31.962  31.963  1.00  0.00     0.074 A 
ATOM     61  C   UNL A   1      46.543  31.848  31.974  1.00  0.00     0.031 C 
ATOM     62  C   UNL A   1      44.414  32.985  32.532  1.00  0.00     0.037 A 
BRANCH  49  63
ATOM     63  C   UNL A   1      38.293  32.588  31.800  1.00  0.00     0.058 A 
ATOM     64  C   UNL A   1      37.781  33.601  30.974  1.00  0.00     0.135 A 
ATOM     65  C   UNL A   1      37.490  32.135  32.859  1.00  0.00     0.135 A 
ATOM     66  F   UNL A   1      38.518  34.085  29.962  1.00  0.00    -0.206 F 
ATOM     67  C   UNL A   1      36.528  34.160  31.202  1.00  0.00     0.059 A 
ATOM     68  C   UNL A   1      36.223  32.662  33.090  1.00  0.00     0.059 A 
ATOM     69  F   UNL A   1      37.935  31.174  33.683  1.00  0.00    -0.206 F 
ATOM     70  C   UNL A   1      35.756  33.683  32.264  1.00  0.00     0.060 A 
BRANCH  70  71
ATOM     71  S   UNL A   1      34.128  34.410  32.542  1.00  0.00     0.124 S 
ATOM     72  O   UNL A   1      33.459  33.347  33.285  1.00  0.00    -0.237 OA
ATOM     73  O   UNL A   1      34.449  35.612  33.306  1.00  0.00    -0.237 OA
ATOM     74  O   UNL A   1      33.624  34.645  31.193  1.00  0.00    -0.744 OA
ENDBRANCH  70  71
ENDBRANCH  49  63
BRANCH  50  75
ATOM     75  C   UNL A   1      47.058  28.225  29.874  1.00  0.00     0.058 A 
ATOM     76  C   UNL A   1      47.676  28.410  28.627  1.00  0.00     0.135 A 
ATOM     77  C   UNL A   1      47.714  27.412  30.812  1.00  0.00     0.135 A 
ATOM     78  F   UNL A   1      47.081  29.163  27.689  1.00  0.00    -0.206 F 
ATOM     79  C   UNL A   1      48.888  27.803  28.316  1.00  0.00     0.059 A 
ATOM     80  C   UNL A   1      48.940  26.814  30.532  1.00  0.00     0.059 A 
ATOM     81  F   UNL A   1      47.168  27.202  32.019  1.00  0.00    -0.206 F 
ATOM     82  C   UNL A   1      49.515  27.007  29.278  1.00  0.00     0.060 A 
BRANCH  82  83
ATOM     83  S   UNL A   1      51.112  26.263  28.881  1.00  0.00     0.124 S 
ATOM     84  O   UNL A   1      51.810  27.380  28.255  1.00  0.00    -0.237 OA
ATOM     85  O   UNL A   1      51.599  25.861  30.198  1.00  0.00    -0.237 OA
ATOM     86  O   UNL A   1      50.756  25.161  27.991  1.00  0.00    -0.744 OA
ENDBRANCH  82  83
ENDBRANCH  50  75
BRANCH  62  87
ATOM     87  C   UNL A   1      45.203  34.047  33.252  1.00  0.00     0.058 A 
ATOM     88  C   UNL A   1      45.639  35.213  32.605  1.00  0.00     0.135 A 
ATOM     89  C   UNL A   1      45.470  33.922  34.626  1.00  0.00     0.135 A 
ATOM     90  F   UNL A   1      45.413  35.383  31.293  1.00  0.00    -0.206 F 
ATOM     91  C   UNL A   1      46.331  36.208  33.288  1.00  0.00     0.059 A 
ATOM     92  C   UNL A   1      46.136  34.918  35.335  1.00  0.00     0.059 A 
ATOM     93  F   UNL A   1      45.063  32.834  35.298  1.00  0.00    -0.206 F 
ATOM     94  C   UNL A   1      46.574  36.052  34.655  1.00  0.00     0.060 A 
BRANCH  94  95
ATOM     95  S   UNL A   1      47.445  37.365  35.537  1.00  0.00     0.124 S 
ATOM     96  O   UNL A   1      48.542  37.657  34.622  1.00  0.00    -0.237 OA
ATOM     97  O   UNL A   1      46.421  38.400  35.649  1.00  0.00    -0.237 OA
ATOM     98  O   UNL A   1      47.828  36.733  36.795  1.00  0.00    -0.744 OA
ENDBRANCH  94  95
ENDBRANCH  62  87
ENDBRANCH  36  37
ENDBRANCH  29  31
ENDBRANCH  28  29
ENDBRANCH  27  28
ENDBRANCH  26  27
ENDBRANCH  25  26
ENDBRANCH  24  25
ENDBRANCH   1  24
TORSDOF 25
ENDMDL
