MODEL 1
REMARK VINA RESULT:     -11.2      0.000      0.000
REMARK SMILES Cc1cc(C(=O)OCCOCCOCCOC(=O)c2ccc(-c3c4nc(c(-c5c(F)cc(S(=O)(=O)[O-])cc5F)c5ccc([nH]5)c(-c5c(F)cc(S(=O)(=O)[O-])cc5F)c5nc(c(-c6c(F)cc(S(=O)(=O)[O-])cc6F)c6ccc3[nH]6)C=C5)C=C4)cc2)c2c(C)nn(-c3ccccc3)c2n1
REMARK SMILES IDX 12 1 11 2 10 3 9 4 8 5 7 6 5 7 6 8 4 9 1 10 2 11 3 12 97 13
REMARK SMILES IDX 96 14 85 15 89 16 86 17 88 18 87 19 90 20 91 21 95 22 92 23
REMARK SMILES IDX 94 24 93 25 13 26 14 27 15 28 16 29 17 30 18 31 19 32 20 33
REMARK SMILES IDX 84 34 21 35 83 36 22 37 23 38 24 39 77 40 25 41 82 42 76 43
REMARK SMILES IDX 78 44 26 45 81 46 75 47 74 48 27 50 61 51 40 52 60 53 41 54
REMARK SMILES IDX 44 55 59 56 79 57 42 58 43 59 58 61 80 62 45 63 28 64 29 65
REMARK SMILES IDX 38 66 30 67 31 68 37 69 39 70 32 71 33 72 34 73 35 74 36 75
REMARK SMILES IDX 62 76 63 77 72 78 64 79 65 80 71 81 73 82 66 83 67 84 68 85
REMARK SMILES IDX 69 86 70 87 46 88 47 89 56 90 48 91 49 92 55 93 57 94 50 95
REMARK SMILES IDX 51 96 52 97 53 98 54 99
REMARK H PARENT 78 49 44 60
REMARK Flexibility Score: inf
ROOT
ATOM      1  C   UNL A   1      34.624  29.776  27.253  1.00  0.00     0.188 C 
ENDROOT
BRANCH   1   2
ATOM      2  C   UNL A   1      33.959  28.536  26.629  1.00  0.00     0.188 C 
BRANCH   2   3
ATOM      3  O   UNL A   1      33.443  28.739  25.334  1.00  0.00    -0.376 OA
BRANCH   3   4
ATOM      4  C   UNL A   1      33.920  27.966  24.247  1.00  0.00     0.202 C 
BRANCH   4   5
ATOM      5  C   UNL A   1      33.486  26.521  23.922  1.00  0.00     0.261 C 
BRANCH   5   6
ATOM      6  O   UNL A   1      34.332  25.456  24.354  1.00  0.00    -0.460 OA
BRANCH   6   7
ATOM      7  C   UNL A   1      33.944  24.746  25.443  1.00  0.00     0.339 C 
ATOM      8  O   UNL A   1      33.176  25.093  26.307  1.00  0.00    -0.246 OA
BRANCH   7   9
ATOM      9  C   UNL A   1      34.557  23.408  25.349  1.00  0.00     0.074 A 
ATOM     10  C   UNL A   1      37.982  21.791  25.545  1.00  0.00     0.067 C 
ATOM     11  C   UNL A   1      36.493  21.977  25.482  1.00  0.00     0.041 A 
ATOM     12  C   UNL A   1      35.936  23.248  25.557  1.00  0.00     0.040 A 
ATOM     13  N   UNL A   1      35.772  20.855  25.282  1.00  0.00    -0.233 NA
ATOM     14  C   UNL A   1      34.464  21.061  25.010  1.00  0.00     0.164 A 
ATOM     15  C   UNL A   1      33.799  22.283  24.975  1.00  0.00     0.057 A 
ATOM     16  N   UNL A   1      33.531  20.101  24.664  1.00  0.00    -0.214 N 
ATOM     17  C   UNL A   1      32.502  21.960  24.479  1.00  0.00     0.070 A 
ATOM     18  N   UNL A   1      32.389  20.656  24.187  1.00  0.00    -0.171 NA
ATOM     19  C   UNL A   1      31.337  22.827  24.169  1.00  0.00     0.069 C 
BRANCH  16  20
ATOM     20  C   UNL A   1      33.608  18.705  24.862  1.00  0.00     0.067 A 
ATOM     21  C   UNL A   1      32.602  18.056  25.589  1.00  0.00     0.028 A 
ATOM     22  C   UNL A   1      34.632  17.973  24.253  1.00  0.00     0.028 A 
ATOM     23  C   UNL A   1      32.607  16.664  25.674  1.00  0.00     0.002 A 
ATOM     24  C   UNL A   1      34.662  16.585  24.398  1.00  0.00     0.002 A 
ATOM     25  C   UNL A   1      33.641  15.931  25.090  1.00  0.00     0.000 A 
ENDBRANCH  16  20
ENDBRANCH   7   9
ENDBRANCH   6   7
ENDBRANCH   5   6
ENDBRANCH   4   5
ENDBRANCH   3   4
ENDBRANCH   2   3
ENDBRANCH   1   2
BRANCH   1  26
ATOM     26  O   UNL A   1      33.823  30.844  27.731  1.00  0.00    -0.376 OA
BRANCH  26  27
ATOM     27  C   UNL A   1      34.327  32.156  27.932  1.00  0.00     0.202 C 
BRANCH  27  28
ATOM     28  C   UNL A   1      35.031  32.666  29.192  1.00  0.00     0.261 C 
BRANCH  28  29
ATOM     29  O   UNL A   1      35.940  31.781  29.812  1.00  0.00    -0.460 OA
BRANCH  29  30
ATOM     30  C   UNL A   1      35.753  31.700  31.143  1.00  0.00     0.338 C 
ATOM     31  O   UNL A   1      34.849  32.198  31.793  1.00  0.00    -0.246 OA
BRANCH  30  32
ATOM     32  C   UNL A   1      36.859  30.953  31.732  1.00  0.00     0.060 A 
ATOM     33  C   UNL A   1      38.090  31.607  31.784  1.00  0.00     0.016 A 
ATOM     34  C   UNL A   1      36.728  29.563  31.865  1.00  0.00     0.016 A 
ATOM     35  C   UNL A   1      39.224  30.836  31.711  1.00  0.00     0.010 A 
ATOM     36  C   UNL A   1      37.861  28.797  31.768  1.00  0.00     0.010 A 
ATOM     37  C   UNL A   1      39.079  29.448  31.592  1.00  0.00    -0.014 A 
BRANCH  37  38
ATOM     38  C   UNL A   1      40.261  28.694  31.248  1.00  0.00     0.031 A 
ATOM     39  C   UNL A   1      41.199  28.541  32.367  1.00  0.00     0.074 A 
ATOM     40  C   UNL A   1      40.438  28.153  30.028  1.00  0.00     0.049 A 
ATOM     41  N   UNL A   1      42.328  29.142  32.532  1.00  0.00    -0.248 NA
ATOM     42  C   UNL A   1      40.756  27.744  33.520  1.00  0.00     0.031 C 
ATOM     43  C   UNL A   1      39.427  27.983  28.979  1.00  0.00     0.029 A 
ATOM     44  N   UNL A   1      41.539  27.546  29.504  1.00  0.00    -0.354 N 
ATOM     45  C   UNL A   1      42.857  28.586  33.687  1.00  0.00     0.074 A 
ATOM     46  C   UNL A   1      41.773  27.921  34.363  1.00  0.00     0.031 C 
ATOM     47  C   UNL A   1      39.901  27.130  28.043  1.00  0.00     0.029 A 
ATOM     48  C   UNL A   1      41.289  26.820  28.349  1.00  0.00     0.049 A 
ATOM     49  H   UNL A   1      42.434  27.617  29.909  1.00  0.00     0.167 HD
ATOM     50  C   UNL A   1      44.199  28.424  33.823  1.00  0.00     0.037 A 
ATOM     51  C   UNL A   1      42.151  25.979  27.730  1.00  0.00     0.037 A 
ATOM     52  C   UNL A   1      44.934  29.171  32.838  1.00  0.00     0.049 A 
ATOM     53  C   UNL A   1      43.529  26.376  28.114  1.00  0.00     0.074 A 
ATOM     54  C   UNL A   1      45.358  30.470  32.671  1.00  0.00     0.029 A 
ATOM     55  N   UNL A   1      45.032  28.550  31.622  1.00  0.00    -0.354 N 
ATOM     56  N   UNL A   1      44.075  27.516  27.782  1.00  0.00    -0.248 NA
ATOM     57  C   UNL A   1      44.233  25.627  29.151  1.00  0.00     0.031 C 
ATOM     58  C   UNL A   1      45.615  30.639  31.277  1.00  0.00     0.029 A 
ATOM     59  C   UNL A   1      45.351  29.438  30.626  1.00  0.00     0.049 A 
ATOM     60  H   UNL A   1      44.890  27.587  31.479  1.00  0.00     0.167 HD
ATOM     61  C   UNL A   1      44.926  27.804  28.830  1.00  0.00     0.074 A 
ATOM     62  C   UNL A   1      45.116  26.550  29.541  1.00  0.00     0.031 C 
ATOM     63  C   UNL A   1      45.131  29.086  29.240  1.00  0.00     0.037 A 
BRANCH  50  64
ATOM     64  C   UNL A   1      44.816  27.245  34.528  1.00  0.00     0.058 A 
ATOM     65  C   UNL A   1      45.713  27.461  35.587  1.00  0.00     0.135 A 
ATOM     66  C   UNL A   1      44.764  25.925  34.022  1.00  0.00     0.135 A 
ATOM     67  F   UNL A   1      45.869  28.688  36.108  1.00  0.00    -0.206 F 
ATOM     68  C   UNL A   1      46.516  26.440  36.099  1.00  0.00     0.059 A 
ATOM     69  C   UNL A   1      45.505  24.881  34.557  1.00  0.00     0.059 A 
ATOM     70  F   UNL A   1      44.065  25.611  32.923  1.00  0.00    -0.206 F 
ATOM     71  C   UNL A   1      46.403  25.153  35.575  1.00  0.00     0.060 A 
BRANCH  71  72
ATOM     72  S   UNL A   1      47.474  23.845  36.194  1.00  0.00     0.124 S 
ATOM     73  O   UNL A   1      48.780  24.492  36.152  1.00  0.00    -0.237 OA
ATOM     74  O   UNL A   1      46.921  23.604  37.523  1.00  0.00    -0.237 OA
ATOM     75  O   UNL A   1      47.271  22.764  35.235  1.00  0.00    -0.744 OA
ENDBRANCH  71  72
ENDBRANCH  50  64
BRANCH  51  76
ATOM     76  C   UNL A   1      41.861  24.672  27.088  1.00  0.00     0.058 A 
ATOM     77  C   UNL A   1      42.650  24.220  26.014  1.00  0.00     0.135 A 
ATOM     78  C   UNL A   1      41.040  23.710  27.709  1.00  0.00     0.135 A 
ATOM     79  F   UNL A   1      43.459  25.071  25.365  1.00  0.00    -0.206 F 
ATOM     80  C   UNL A   1      42.700  22.875  25.644  1.00  0.00     0.059 A 
ATOM     81  C   UNL A   1      41.061  22.364  27.345  1.00  0.00     0.059 A 
ATOM     82  F   UNL A   1      40.268  24.027  28.758  1.00  0.00    -0.206 F 
ATOM     83  C   UNL A   1      41.927  21.949  26.340  1.00  0.00     0.060 A 
BRANCH  83  84
ATOM     84  S   UNL A   1      42.171  20.187  26.022  1.00  0.00     0.124 S 
ATOM     85  O   UNL A   1      42.367  19.662  27.368  1.00  0.00    -0.237 OA
ATOM     86  O   UNL A   1      40.919  19.821  25.369  1.00  0.00    -0.237 OA
ATOM     87  O   UNL A   1      43.352  20.159  25.162  1.00  0.00    -0.744 OA
ENDBRANCH  83  84
ENDBRANCH  51  76
BRANCH  63  88
ATOM     88  C   UNL A   1      44.970  30.177  28.227  1.00  0.00     0.058 A 
ATOM     89  C   UNL A   1      43.747  30.759  27.859  1.00  0.00     0.135 A 
ATOM     90  C   UNL A   1      46.135  30.698  27.641  1.00  0.00     0.135 A 
ATOM     91  F   UNL A   1      42.598  30.360  28.427  1.00  0.00    -0.206 F 
ATOM     92  C   UNL A   1      43.684  31.795  26.924  1.00  0.00     0.059 A 
ATOM     93  C   UNL A   1      46.099  31.746  26.730  1.00  0.00     0.059 A 
ATOM     94  F   UNL A   1      47.337  30.204  27.982  1.00  0.00    -0.206 F 
ATOM     95  C   UNL A   1      44.867  32.284  26.367  1.00  0.00     0.060 A 
BRANCH  95  96
ATOM     96  S   UNL A   1      44.793  33.668  25.209  1.00  0.00     0.124 S 
ATOM     97  O   UNL A   1      44.252  33.038  24.009  1.00  0.00    -0.237 OA
ATOM     98  O   UNL A   1      43.902  34.603  25.892  1.00  0.00    -0.237 OA
ATOM     99  O   UNL A   1      46.183  34.107  25.110  1.00  0.00    -0.744 OA
ENDBRANCH  95  96
ENDBRANCH  63  88
ENDBRANCH  37  38
ENDBRANCH  30  32
ENDBRANCH  29  30
ENDBRANCH  28  29
ENDBRANCH  27  28
ENDBRANCH  26  27
ENDBRANCH   1  26
TORSDOF 21
ENDMDL
MODEL 2
REMARK VINA RESULT:     -11.1      3.503      9.844
REMARK SMILES Cc1cc(C(=O)OCCOCCOCCOC(=O)c2ccc(-c3c4nc(c(-c5c(F)cc(S(=O)(=O)[O-])cc5F)c5ccc([nH]5)c(-c5c(F)cc(S(=O)(=O)[O-])cc5F)c5nc(c(-c6c(F)cc(S(=O)(=O)[O-])cc6F)c6ccc3[nH]6)C=C5)C=C4)cc2)c2c(C)nn(-c3ccccc3)c2n1
REMARK SMILES IDX 12 1 11 2 10 3 9 4 8 5 7 6 5 7 6 8 4 9 1 10 2 11 3 12 97 13
REMARK SMILES IDX 96 14 85 15 89 16 86 17 88 18 87 19 90 20 91 21 95 22 92 23
REMARK SMILES IDX 94 24 93 25 13 26 14 27 15 28 16 29 17 30 18 31 19 32 20 33
REMARK SMILES IDX 84 34 21 35 83 36 22 37 23 38 24 39 77 40 25 41 82 42 76 43
REMARK SMILES IDX 78 44 26 45 81 46 75 47 74 48 27 50 61 51 40 52 60 53 41 54
REMARK SMILES IDX 44 55 59 56 79 57 42 58 43 59 58 61 80 62 45 63 28 64 29 65
REMARK SMILES IDX 38 66 30 67 31 68 37 69 39 70 32 71 33 72 34 73 35 74 36 75
REMARK SMILES IDX 62 76 63 77 72 78 64 79 65 80 71 81 73 82 66 83 67 84 68 85
REMARK SMILES IDX 69 86 70 87 46 88 47 89 56 90 48 91 49 92 55 93 57 94 50 95
REMARK SMILES IDX 51 96 52 97 53 98 54 99
REMARK H PARENT 78 49 44 60
REMARK Flexibility Score: inf
ROOT
ATOM      1  C   UNL A   1      35.630  21.488  24.726  1.00  0.00     0.188 C 
ENDROOT
BRANCH   1   2
ATOM      2  C   UNL A   1      34.497  20.599  25.267  1.00  0.00     0.188 C 
BRANCH   2   3
ATOM      3  O   UNL A   1      33.947  21.033  26.490  1.00  0.00    -0.376 OA
BRANCH   3   4
ATOM      4  C   UNL A   1      32.862  21.943  26.501  1.00  0.00     0.202 C 
BRANCH   4   5
ATOM      5  C   UNL A   1      32.567  22.992  25.407  1.00  0.00     0.261 C 
BRANCH   5   6
ATOM      6  O   UNL A   1      32.999  24.333  25.633  1.00  0.00    -0.460 OA
BRANCH   6   7
ATOM      7  C   UNL A   1      33.885  24.864  24.754  1.00  0.00     0.339 C 
ATOM      8  O   UNL A   1      35.087  24.755  24.769  1.00  0.00    -0.246 OA
BRANCH   7   9
ATOM      9  C   UNL A   1      33.115  25.540  23.693  1.00  0.00     0.074 A 
ATOM     10  C   UNL A   1      32.568  25.322  19.946  1.00  0.00     0.067 C 
ATOM     11  C   UNL A   1      32.419  25.706  21.391  1.00  0.00     0.041 A 
ATOM     12  C   UNL A   1      33.165  25.066  22.373  1.00  0.00     0.040 A 
ATOM     13  N   UNL A   1      31.582  26.734  21.638  1.00  0.00    -0.233 NA
ATOM     14  C   UNL A   1      31.623  27.208  22.903  1.00  0.00     0.164 A 
ATOM     15  C   UNL A   1      32.383  26.712  23.958  1.00  0.00     0.057 A 
ATOM     16  N   UNL A   1      30.952  28.314  23.394  1.00  0.00    -0.214 N 
ATOM     17  C   UNL A   1      32.191  27.664  25.003  1.00  0.00     0.070 A 
ATOM     18  N   UNL A   1      31.417  28.686  24.612  1.00  0.00    -0.171 NA
ATOM     19  C   UNL A   1      32.765  27.734  26.371  1.00  0.00     0.069 C 
BRANCH  16  20
ATOM     20  C   UNL A   1      29.832  28.967  22.835  1.00  0.00     0.067 A 
ATOM     21  C   UNL A   1      28.544  28.547  23.189  1.00  0.00     0.028 A 
ATOM     22  C   UNL A   1      30.016  30.082  22.011  1.00  0.00     0.028 A 
ATOM     23  C   UNL A   1      27.439  29.272  22.743  1.00  0.00     0.002 A 
ATOM     24  C   UNL A   1      28.902  30.762  21.518  1.00  0.00     0.002 A 
ATOM     25  C   UNL A   1      27.617  30.370  21.900  1.00  0.00     0.000 A 
ENDBRANCH  16  20
ENDBRANCH   7   9
ENDBRANCH   6   7
ENDBRANCH   5   6
ENDBRANCH   4   5
ENDBRANCH   3   4
ENDBRANCH   2   3
ENDBRANCH   1   2
BRANCH   1  26
ATOM     26  O   UNL A   1      36.963  21.005  24.710  1.00  0.00    -0.376 OA
BRANCH  26  27
ATOM     27  C   UNL A   1      37.991  21.551  25.524  1.00  0.00     0.202 C 
BRANCH  27  28
ATOM     28  C   UNL A   1      38.240  23.039  25.781  1.00  0.00     0.261 C 
BRANCH  28  29
ATOM     29  O   UNL A   1      39.030  23.364  26.904  1.00  0.00    -0.460 OA
BRANCH  29  30
ATOM     30  C   UNL A   1      40.346  23.181  26.679  1.00  0.00     0.338 C 
ATOM     31  O   UNL A   1      40.915  22.127  26.453  1.00  0.00    -0.246 OA
BRANCH  30  32
ATOM     32  C   UNL A   1      41.032  24.461  26.810  1.00  0.00     0.060 A 
ATOM     33  C   UNL A   1      41.893  24.595  27.898  1.00  0.00     0.016 A 
ATOM     34  C   UNL A   1      40.535  25.559  26.092  1.00  0.00     0.016 A 
ATOM     35  C   UNL A   1      42.054  25.850  28.433  1.00  0.00     0.010 A 
ATOM     36  C   UNL A   1      40.679  26.807  26.641  1.00  0.00     0.010 A 
ATOM     37  C   UNL A   1      41.351  26.915  27.856  1.00  0.00    -0.014 A 
BRANCH  37  38
ATOM     38  C   UNL A   1      41.324  28.156  28.591  1.00  0.00     0.031 A 
ATOM     39  C   UNL A   1      42.479  29.020  28.317  1.00  0.00     0.074 A 
ATOM     40  C   UNL A   1      40.304  28.488  29.405  1.00  0.00     0.049 A 
ATOM     41  N   UNL A   1      43.489  29.249  29.087  1.00  0.00    -0.248 NA
ATOM     42  C   UNL A   1      42.609  29.569  26.959  1.00  0.00     0.031 C 
ATOM     43  C   UNL A   1      38.987  27.846  29.481  1.00  0.00     0.029 A 
ATOM     44  N   UNL A   1      40.193  29.536  30.267  1.00  0.00    -0.354 N 
ATOM     45  C   UNL A   1      44.245  30.190  28.404  1.00  0.00     0.074 A 
ATOM     46  C   UNL A   1      43.793  30.176  27.038  1.00  0.00     0.031 C 
ATOM     47  C   UNL A   1      38.146  28.646  30.174  1.00  0.00     0.029 A 
ATOM     48  C   UNL A   1      38.899  29.768  30.711  1.00  0.00     0.049 A 
ATOM     49  H   UNL A   1      40.962  30.081  30.551  1.00  0.00     0.167 HD
ATOM     50  C   UNL A   1      44.938  31.141  29.083  1.00  0.00     0.037 A 
ATOM     51  C   UNL A   1      38.477  30.842  31.419  1.00  0.00     0.037 A 
ATOM     52  C   UNL A   1      45.046  30.833  30.484  1.00  0.00     0.049 A 
ATOM     53  C   UNL A   1      39.653  31.416  32.121  1.00  0.00     0.074 A 
ATOM     54  C   UNL A   1      45.839  30.038  31.281  1.00  0.00     0.029 A 
ATOM     55  N   UNL A   1      43.945  31.180  31.220  1.00  0.00    -0.354 N 
ATOM     56  N   UNL A   1      40.313  30.793  33.060  1.00  0.00    -0.248 NA
ATOM     57  C   UNL A   1      40.317  32.595  31.569  1.00  0.00     0.031 C 
ATOM     58  C   UNL A   1      45.119  29.831  32.496  1.00  0.00     0.029 A 
ATOM     59  C   UNL A   1      43.907  30.511  32.417  1.00  0.00     0.049 A 
ATOM     60  H   UNL A   1      43.266  31.828  30.927  1.00  0.00     0.167 HD
ATOM     61  C   UNL A   1      41.609  31.246  32.924  1.00  0.00     0.074 A 
ATOM     62  C   UNL A   1      41.522  32.460  32.129  1.00  0.00     0.031 C 
ATOM     63  C   UNL A   1      42.671  30.429  33.166  1.00  0.00     0.037 A 
BRANCH  50  64
ATOM     64  C   UNL A   1      45.105  32.550  28.580  1.00  0.00     0.058 A 
ATOM     65  C   UNL A   1      46.394  33.046  28.320  1.00  0.00     0.135 A 
ATOM     66  C   UNL A   1      44.068  33.511  28.605  1.00  0.00     0.135 A 
ATOM     67  F   UNL A   1      47.454  32.222  28.318  1.00  0.00    -0.206 F 
ATOM     68  C   UNL A   1      46.637  34.405  28.113  1.00  0.00     0.059 A 
ATOM     69  C   UNL A   1      44.276  34.857  28.340  1.00  0.00     0.059 A 
ATOM     70  F   UNL A   1      42.820  33.201  28.985  1.00  0.00    -0.206 F 
ATOM     71  C   UNL A   1      45.570  35.302  28.127  1.00  0.00     0.060 A 
BRANCH  71  72
ATOM     72  S   UNL A   1      45.885  37.062  27.916  1.00  0.00     0.124 S 
ATOM     73  O   UNL A   1      44.707  37.648  28.543  1.00  0.00    -0.237 OA
ATOM     74  O   UNL A   1      47.145  37.232  28.633  1.00  0.00    -0.237 OA
ATOM     75  O   UNL A   1      45.974  37.215  26.467  1.00  0.00    -0.744 OA
ENDBRANCH  71  72
ENDBRANCH  50  64
BRANCH  51  76
ATOM     76  C   UNL A   1      37.201  31.591  31.284  1.00  0.00     0.058 A 
ATOM     77  C   UNL A   1      36.277  31.612  32.344  1.00  0.00     0.135 A 
ATOM     78  C   UNL A   1      37.012  32.550  30.270  1.00  0.00     0.135 A 
ATOM     79  F   UNL A   1      36.383  30.731  33.351  1.00  0.00    -0.206 F 
ATOM     80  C   UNL A   1      35.287  32.590  32.447  1.00  0.00     0.059 A 
ATOM     81  C   UNL A   1      36.019  33.527  30.343  1.00  0.00     0.059 A 
ATOM     82  F   UNL A   1      37.849  32.635  29.227  1.00  0.00    -0.206 F 
ATOM     83  C   UNL A   1      35.189  33.566  31.457  1.00  0.00     0.060 A 
BRANCH  83  84
ATOM     84  S   UNL A   1      34.072  34.963  31.709  1.00  0.00     0.124 S 
ATOM     85  O   UNL A   1      33.727  35.324  30.339  1.00  0.00    -0.237 OA
ATOM     86  O   UNL A   1      33.005  34.358  32.499  1.00  0.00    -0.237 OA
ATOM     87  O   UNL A   1      34.899  35.933  32.422  1.00  0.00    -0.744 OA
ENDBRANCH  83  84
ENDBRANCH  51  76
BRANCH  63  88
ATOM     88  C   UNL A   1      42.483  29.310  34.143  1.00  0.00     0.058 A 
ATOM     89  C   UNL A   1      42.583  29.435  35.538  1.00  0.00     0.135 A 
ATOM     90  C   UNL A   1      42.124  28.053  33.632  1.00  0.00     0.135 A 
ATOM     91  F   UNL A   1      42.856  30.621  36.104  1.00  0.00    -0.206 F 
ATOM     92  C   UNL A   1      42.364  28.346  36.385  1.00  0.00     0.059 A 
ATOM     93  C   UNL A   1      41.875  26.963  34.457  1.00  0.00     0.059 A 
ATOM     94  F   UNL A   1      41.979  27.883  32.307  1.00  0.00    -0.206 F 
ATOM     95  C   UNL A   1      42.007  27.114  35.835  1.00  0.00     0.060 A 
BRANCH  95  96
ATOM     96  S   UNL A   1      41.658  25.723  36.932  1.00  0.00     0.124 S 
ATOM     97  O   UNL A   1      41.479  24.623  35.990  1.00  0.00    -0.237 OA
ATOM     98  O   UNL A   1      42.862  25.663  37.757  1.00  0.00    -0.237 OA
ATOM     99  O   UNL A   1      40.450  26.139  37.640  1.00  0.00    -0.744 OA
ENDBRANCH  95  96
ENDBRANCH  63  88
ENDBRANCH  37  38
ENDBRANCH  30  32
ENDBRANCH  29  30
ENDBRANCH  28  29
ENDBRANCH  27  28
ENDBRANCH  26  27
ENDBRANCH   1  26
TORSDOF 21
ENDMDL
MODEL 3
REMARK VINA RESULT:     -10.4      1.301      1.911
REMARK SMILES Cc1cc(C(=O)OCCOCCOCCOC(=O)c2ccc(-c3c4nc(c(-c5c(F)cc(S(=O)(=O)[O-])cc5F)c5ccc([nH]5)c(-c5c(F)cc(S(=O)(=O)[O-])cc5F)c5nc(c(-c6c(F)cc(S(=O)(=O)[O-])cc6F)c6ccc3[nH]6)C=C5)C=C4)cc2)c2c(C)nn(-c3ccccc3)c2n1
REMARK SMILES IDX 12 1 11 2 10 3 9 4 8 5 7 6 5 7 6 8 4 9 1 10 2 11 3 12 97 13
REMARK SMILES IDX 96 14 85 15 89 16 86 17 88 18 87 19 90 20 91 21 95 22 92 23
REMARK SMILES IDX 94 24 93 25 13 26 14 27 15 28 16 29 17 30 18 31 19 32 20 33
REMARK SMILES IDX 84 34 21 35 83 36 22 37 23 38 24 39 77 40 25 41 82 42 76 43
REMARK SMILES IDX 78 44 26 45 81 46 75 47 74 48 27 50 61 51 40 52 60 53 41 54
REMARK SMILES IDX 44 55 59 56 79 57 42 58 43 59 58 61 80 62 45 63 28 64 29 65
REMARK SMILES IDX 38 66 30 67 31 68 37 69 39 70 32 71 33 72 34 73 35 74 36 75
REMARK SMILES IDX 62 76 63 77 72 78 64 79 65 80 71 81 73 82 66 83 67 84 68 85
REMARK SMILES IDX 69 86 70 87 46 88 47 89 56 90 48 91 49 92 55 93 57 94 50 95
REMARK SMILES IDX 51 96 52 97 53 98 54 99
REMARK H PARENT 78 49 44 60
REMARK Flexibility Score: inf
ROOT
ATOM      1  C   UNL A   1      33.542  29.725  27.150  1.00  0.00     0.188 C 
ENDROOT
BRANCH   1   2
ATOM      2  C   UNL A   1      32.251  29.588  26.324  1.00  0.00     0.188 C 
BRANCH   2   3
ATOM      3  O   UNL A   1      31.867  28.259  26.056  1.00  0.00    -0.376 OA
BRANCH   3   4
ATOM      4  C   UNL A   1      32.491  27.534  25.011  1.00  0.00     0.202 C 
BRANCH   4   5
ATOM      5  C   UNL A   1      33.775  26.689  25.155  1.00  0.00     0.261 C 
BRANCH   5   6
ATOM      6  O   UNL A   1      33.636  25.270  25.231  1.00  0.00    -0.460 OA
BRANCH   6   7
ATOM      7  C   UNL A   1      33.737  24.567  24.076  1.00  0.00     0.339 C 
ATOM      8  O   UNL A   1      33.433  24.932  22.967  1.00  0.00    -0.246 OA
BRANCH   7   9
ATOM      9  C   UNL A   1      34.382  23.278  24.390  1.00  0.00     0.074 A 
ATOM     10  C   UNL A   1      37.707  21.953  25.645  1.00  0.00     0.067 C 
ATOM     11  C   UNL A   1      36.266  22.027  25.224  1.00  0.00     0.041 A 
ATOM     12  C   UNL A   1      35.682  23.250  24.919  1.00  0.00     0.040 A 
ATOM     13  N   UNL A   1      35.632  20.844  25.104  1.00  0.00    -0.233 NA
ATOM     14  C   UNL A   1      34.414  20.908  24.520  1.00  0.00     0.164 A 
ATOM     15  C   UNL A   1      33.751  22.055  24.095  1.00  0.00     0.057 A 
ATOM     16  N   UNL A   1      33.602  19.842  24.182  1.00  0.00    -0.214 N 
ATOM     17  C   UNL A   1      32.605  21.559  23.406  1.00  0.00     0.070 A 
ATOM     18  N   UNL A   1      32.587  20.219  23.367  1.00  0.00    -0.171 NA
ATOM     19  C   UNL A   1      31.522  22.273  22.682  1.00  0.00     0.069 C 
BRANCH  16  20
ATOM     20  C   UNL A   1      33.661  18.517  24.669  1.00  0.00     0.067 A 
ATOM     21  C   UNL A   1      32.686  18.073  25.571  1.00  0.00     0.028 A 
ATOM     22  C   UNL A   1      34.632  17.638  24.178  1.00  0.00     0.028 A 
ATOM     23  C   UNL A   1      32.666  16.731  25.952  1.00  0.00     0.002 A 
ATOM     24  C   UNL A   1      34.640  16.314  24.615  1.00  0.00     0.002 A 
ATOM     25  C   UNL A   1      33.647  15.856  25.484  1.00  0.00     0.000 A 
ENDBRANCH  16  20
ENDBRANCH   7   9
ENDBRANCH   6   7
ENDBRANCH   5   6
ENDBRANCH   4   5
ENDBRANCH   3   4
ENDBRANCH   2   3
ENDBRANCH   1   2
BRANCH   1  26
ATOM     26  O   UNL A   1      34.206  30.976  27.224  1.00  0.00    -0.376 OA
BRANCH  26  27
ATOM     27  C   UNL A   1      33.705  32.072  27.975  1.00  0.00     0.202 C 
BRANCH  27  28
ATOM     28  C   UNL A   1      34.547  33.113  28.717  1.00  0.00     0.261 C 
BRANCH  28  29
ATOM     29  O   UNL A   1      35.787  32.676  29.231  1.00  0.00    -0.460 OA
BRANCH  29  30
ATOM     30  C   UNL A   1      35.649  31.920  30.336  1.00  0.00     0.338 C 
ATOM     31  O   UNL A   1      35.091  32.227  31.376  1.00  0.00    -0.246 OA
BRANCH  30  32
ATOM     32  C   UNL A   1      36.339  30.651  30.132  1.00  0.00     0.060 A 
ATOM     33  C   UNL A   1      36.676  29.936  31.281  1.00  0.00     0.016 A 
ATOM     34  C   UNL A   1      36.930  30.409  28.883  1.00  0.00     0.016 A 
ATOM     35  C   UNL A   1      37.798  29.146  31.233  1.00  0.00     0.010 A 
ATOM     36  C   UNL A   1      38.064  29.637  28.845  1.00  0.00     0.010 A 
ATOM     37  C   UNL A   1      38.533  29.103  30.042  1.00  0.00    -0.014 A 
BRANCH  37  38
ATOM     38  C   UNL A   1      39.838  28.490  30.099  1.00  0.00     0.031 A 
ATOM     39  C   UNL A   1      40.378  28.396  31.461  1.00  0.00     0.074 A 
ATOM     40  C   UNL A   1      40.458  28.016  29.002  1.00  0.00     0.049 A 
ATOM     41  N   UNL A   1      41.319  29.107  31.984  1.00  0.00    -0.248 NA
ATOM     42  C   UNL A   1      39.678  27.515  32.409  1.00  0.00     0.031 C 
ATOM     43  C   UNL A   1      39.864  27.779  27.682  1.00  0.00     0.029 A 
ATOM     44  N   UNL A   1      41.729  27.548  28.863  1.00  0.00    -0.354 N 
ATOM     45  C   UNL A   1      41.506  28.567  33.247  1.00  0.00     0.074 A 
ATOM     46  C   UNL A   1      40.344  27.768  33.535  1.00  0.00     0.031 C 
ATOM     47  C   UNL A   1      40.706  27.016  26.950  1.00  0.00     0.029 A 
ATOM     48  C   UNL A   1      41.947  26.842  27.688  1.00  0.00     0.049 A 
ATOM     49  H   UNL A   1      42.433  27.699  29.535  1.00  0.00     0.167 HD
ATOM     50  C   UNL A   1      42.742  28.543  33.811  1.00  0.00     0.037 A 
ATOM     51  C   UNL A   1      43.050  26.120  27.381  1.00  0.00     0.037 A 
ATOM     52  C   UNL A   1      43.667  29.399  33.117  1.00  0.00     0.049 A 
ATOM     53  C   UNL A   1      44.178  26.646  28.191  1.00  0.00     0.074 A 
ATOM     54  C   UNL A   1      43.975  30.741  33.096  1.00  0.00     0.029 A 
ATOM     55  N   UNL A   1      44.220  28.837  31.997  1.00  0.00    -0.354 N 
ATOM     56  N   UNL A   1      44.670  27.848  28.054  1.00  0.00    -0.248 NA
ATOM     57  C   UNL A   1      44.590  25.938  29.400  1.00  0.00     0.031 C 
ATOM     58  C   UNL A   1      44.646  30.987  31.861  1.00  0.00     0.029 A 
ATOM     59  C   UNL A   1      44.742  29.789  31.159  1.00  0.00     0.049 A 
ATOM     60  H   UNL A   1      44.240  27.870  31.816  1.00  0.00     0.167 HD
ATOM     61  C   UNL A   1      45.102  28.186  29.321  1.00  0.00     0.074 A 
ATOM     62  C   UNL A   1      45.191  26.934  30.055  1.00  0.00     0.031 C 
ATOM     63  C   UNL A   1      45.020  29.467  29.776  1.00  0.00     0.037 A 
BRANCH  50  64
ATOM     64  C   UNL A   1      43.227  27.410  34.676  1.00  0.00     0.058 A 
ATOM     65  C   UNL A   1      43.327  27.593  36.066  1.00  0.00     0.135 A 
ATOM     66  C   UNL A   1      43.851  26.251  34.160  1.00  0.00     0.135 A 
ATOM     67  F   UNL A   1      42.807  28.684  36.649  1.00  0.00    -0.206 F 
ATOM     68  C   UNL A   1      44.012  26.693  36.884  1.00  0.00     0.059 A 
ATOM     69  C   UNL A   1      44.482  25.310  34.961  1.00  0.00     0.059 A 
ATOM     70  F   UNL A   1      43.961  26.029  32.843  1.00  0.00    -0.206 F 
ATOM     71  C   UNL A   1      44.586  25.555  36.320  1.00  0.00     0.060 A 
BRANCH  71  72
ATOM     72  S   UNL A   1      45.518  24.420  37.363  1.00  0.00     0.124 S 
ATOM     73  O   UNL A   1      45.128  24.862  38.696  1.00  0.00    -0.237 OA
ATOM     74  O   UNL A   1      44.998  23.124  36.939  1.00  0.00    -0.237 OA
ATOM     75  O   UNL A   1      46.904  24.682  36.988  1.00  0.00    -0.744 OA
ENDBRANCH  71  72
ENDBRANCH  50  64
BRANCH  51  76
ATOM     76  C   UNL A   1      43.130  24.814  26.680  1.00  0.00     0.058 A 
ATOM     77  C   UNL A   1      43.652  24.742  25.375  1.00  0.00     0.135 A 
ATOM     78  C   UNL A   1      43.011  23.594  27.373  1.00  0.00     0.135 A 
ATOM     79  F   UNL A   1      43.796  25.857  24.642  1.00  0.00    -0.206 F 
ATOM     80  C   UNL A   1      44.124  23.547  24.829  1.00  0.00     0.059 A 
ATOM     81  C   UNL A   1      43.460  22.386  26.842  1.00  0.00     0.059 A 
ATOM     82  F   UNL A   1      42.550  23.551  28.632  1.00  0.00    -0.206 F 
ATOM     83  C   UNL A   1      44.056  22.380  25.586  1.00  0.00     0.060 A 
BRANCH  83  84
ATOM     84  S   UNL A   1      44.880  20.891  24.978  1.00  0.00     0.124 S 
ATOM     85  O   UNL A   1      44.728  21.031  23.534  1.00  0.00    -0.237 OA
ATOM     86  O   UNL A   1      46.232  21.060  25.498  1.00  0.00    -0.237 OA
ATOM     87  O   UNL A   1      44.111  19.808  25.586  1.00  0.00    -0.744 OA
ENDBRANCH  83  84
ENDBRANCH  51  76
BRANCH  63  88
ATOM     88  C   UNL A   1      45.072  30.571  28.766  1.00  0.00     0.058 A 
ATOM     89  C   UNL A   1      46.248  31.184  28.304  1.00  0.00     0.135 A 
ATOM     90  C   UNL A   1      43.859  30.989  28.196  1.00  0.00     0.135 A 
ATOM     91  F   UNL A   1      47.450  30.790  28.753  1.00  0.00    -0.206 F 
ATOM     92  C   UNL A   1      46.214  32.191  27.336  1.00  0.00     0.059 A 
ATOM     93  C   UNL A   1      43.804  31.969  27.212  1.00  0.00     0.059 A 
ATOM     94  F   UNL A   1      42.706  30.414  28.574  1.00  0.00    -0.206 F 
ATOM     95  C   UNL A   1      44.986  32.574  26.794  1.00  0.00     0.060 A 
BRANCH  95  96
ATOM     96  S   UNL A   1      44.947  33.828  25.494  1.00  0.00     0.124 S 
ATOM     97  O   UNL A   1      44.175  34.897  26.120  1.00  0.00    -0.237 OA
ATOM     98  O   UNL A   1      46.364  34.107  25.283  1.00  0.00    -0.237 OA
ATOM     99  O   UNL A   1      44.283  33.150  24.383  1.00  0.00    -0.744 OA
ENDBRANCH  95  96
ENDBRANCH  63  88
ENDBRANCH  37  38
ENDBRANCH  30  32
ENDBRANCH  29  30
ENDBRANCH  28  29
ENDBRANCH  27  28
ENDBRANCH  26  27
ENDBRANCH   1  26
TORSDOF 21
ENDMDL
