MODEL 1
REMARK VINA RESULT:      -9.0      0.000      0.000
REMARK SMILES CC[C@H]1CCCC[N@H+]1[C@@H]1CC(=O)N(c2nc(CC(=O)OCCOCCOCCOC(=O)c3ccc(-c4c5nc(c(-c6c(F)cc(S(=O)(=O)[O-])cc6F)c6ccc([nH]6)c(-c6c(F)cc(S(=O)(=O)[O-])cc6F)c6nc(c(-c7c(F)cc(S(=O)(=O)[O-])cc7F)c7ccc4[nH]7)C=C6)C=C5)cc3)cs2)C1=O
REMARK SMILES IDX 24 1 23 2 22 3 21 4 20 5 18 6 19 7 17 8 16 9 14 10 15 11
REMARK SMILES IDX 99 12 98 13 13 14 9 15 10 16 100 17 11 18 101 19 12 20 8 21
REMARK SMILES IDX 3 22 4 23 5 24 7 25 6 27 2 28 1 29 25 30 26 31 27 32 28 33
REMARK SMILES IDX 29 34 30 35 31 36 32 37 33 38 97 39 34 40 96 41 35 42 36 43
REMARK SMILES IDX 37 44 90 45 38 46 95 47 89 48 91 49 39 50 94 51 88 52 87 53
REMARK SMILES IDX 40 55 74 56 53 57 73 58 54 59 57 60 72 61 92 62 55 63 56 64
REMARK SMILES IDX 71 66 93 67 58 68 41 69 42 70 51 71 43 72 44 73 50 74 52 75
REMARK SMILES IDX 45 76 46 77 47 78 48 79 49 80 75 81 76 82 85 83 77 84 78 85
REMARK SMILES IDX 84 86 86 87 79 88 80 89 81 90 82 91 83 92 59 93 60 94 69 95
REMARK SMILES IDX 61 96 62 97 68 98 70 99 63 100 64 101 65 102 66 103 67 104
REMARK H PARENT 8 26 91 54 57 65
REMARK Flexibility Score: inf
ROOT
ATOM      1  C   UNL A   1      50.801  40.996  30.878  1.00  0.00     0.188 C 
ENDROOT
BRANCH   1   2
ATOM      2  O   UNL A   1      50.303  42.330  30.922  1.00  0.00    -0.376 OA
BRANCH   2   3
ATOM      3  C   UNL A   1      50.219  43.076  29.715  1.00  0.00     0.202 C 
BRANCH   3   4
ATOM      4  C   UNL A   1      48.981  42.830  28.845  1.00  0.00     0.261 C 
BRANCH   4   5
ATOM      5  O   UNL A   1      48.354  44.037  28.357  1.00  0.00    -0.463 OA
BRANCH   5   6
ATOM      6  C   UNL A   1      48.872  44.568  27.221  1.00  0.00     0.311 C 
ATOM      7  O   UNL A   1      49.947  44.213  26.741  1.00  0.00    -0.252 OA
BRANCH   6   8
ATOM      8  C   UNL A   1      48.013  45.583  26.499  1.00  0.00     0.179 C 
BRANCH   8   9
ATOM      9  C   UNL A   1      46.857  45.130  25.661  1.00  0.00     0.065 A 
ATOM     10  C   UNL A   1      45.900  44.574  23.732  1.00  0.00     0.199 A 
ATOM     11  N   UNL A   1      46.971  45.116  24.275  1.00  0.00    -0.224 NA
ATOM     12  S   UNL A   1      44.663  44.115  24.832  1.00  0.00    -0.104 S 
ATOM     13  C   UNL A   1      45.720  44.490  26.127  1.00  0.00     0.093 A 
BRANCH  10  14
ATOM     14  N   UNL A   1      45.809  44.035  22.478  1.00  0.00    -0.219 N 
ATOM     15  C   UNL A   1      45.228  43.673  20.238  1.00  0.00     0.285 C 
ATOM     16  C   UNL A   1      45.456  42.338  20.940  1.00  0.00     0.176 C 
ATOM     17  C   UNL A   1      45.381  44.708  21.365  1.00  0.00     0.294 C 
ATOM     18  C   UNL A   1      45.902  42.683  22.324  1.00  0.00     0.242 C 
ATOM     19  O   UNL A   1      45.192  45.912  21.246  1.00  0.00    -0.267 OA
ATOM     20  O   UNL A   1      46.161  41.823  23.155  1.00  0.00    -0.274 OA
BRANCH  15  21
ATOM     21  N   UNL A   1      43.969  43.837  19.478  1.00  0.00    -0.322 N 
ATOM     22  C   UNL A   1      42.782  43.130  20.020  1.00  0.00     0.184 C 
ATOM     23  C   UNL A   1      41.696  43.100  18.922  1.00  0.00     0.065 C 
ATOM     24  C   UNL A   1      41.324  44.501  18.448  1.00  0.00     0.012 C 
ATOM     25  C   UNL A   1      43.688  45.202  19.013  1.00  0.00     0.263 C 
ATOM     26  H   UNL A   1      44.181  43.318  18.626  1.00  0.00     0.349 HD
ATOM     27  C   UNL A   1      42.572  45.226  17.966  1.00  0.00     0.062 C 
BRANCH  22  28
ATOM     28  C   UNL A   1      42.251  43.684  21.368  1.00  0.00     0.061 C 
ATOM     29  C   UNL A   1      41.501  42.681  22.234  1.00  0.00     0.010 C 
ENDBRANCH  22  28
ENDBRANCH  15  21
ENDBRANCH  10  14
ENDBRANCH   8   9
ENDBRANCH   6   8
ENDBRANCH   5   6
ENDBRANCH   4   5
ENDBRANCH   3   4
ENDBRANCH   2   3
ENDBRANCH   1   2
BRANCH   1  30
ATOM     30  C   UNL A   1      49.862  39.844  31.261  1.00  0.00     0.188 C 
BRANCH  30  31
ATOM     31  O   UNL A   1      49.376  39.133  30.138  1.00  0.00    -0.376 OA
BRANCH  31  32
ATOM     32  C   UNL A   1      48.039  39.414  29.775  1.00  0.00     0.202 C 
BRANCH  32  33
ATOM     33  C   UNL A   1      47.510  38.375  28.784  1.00  0.00     0.261 C 
BRANCH  33  34
ATOM     34  O   UNL A   1      48.407  37.278  28.516  1.00  0.00    -0.460 OA
BRANCH  34  35
ATOM     35  C   UNL A   1      48.339  36.706  27.297  1.00  0.00     0.338 C 
ATOM     36  O   UNL A   1      48.814  37.142  26.253  1.00  0.00    -0.246 OA
BRANCH  35  37
ATOM     37  C   UNL A   1      47.765  35.355  27.456  1.00  0.00     0.060 A 
ATOM     38  C   UNL A   1      47.901  34.689  28.682  1.00  0.00     0.016 A 
ATOM     39  C   UNL A   1      47.081  34.751  26.402  1.00  0.00     0.016 A 
ATOM     40  C   UNL A   1      47.344  33.419  28.860  1.00  0.00     0.010 A 
ATOM     41  C   UNL A   1      46.546  33.470  26.572  1.00  0.00     0.010 A 
ATOM     42  C   UNL A   1      46.681  32.792  27.797  1.00  0.00    -0.014 A 
BRANCH  42  43
ATOM     43  C   UNL A   1      46.217  31.384  27.900  1.00  0.00     0.031 A 
ATOM     44  C   UNL A   1      47.157  30.280  27.502  1.00  0.00     0.074 A 
ATOM     45  C   UNL A   1      44.963  31.092  28.293  1.00  0.00     0.049 A 
ATOM     46  N   UNL A   1      46.917  29.007  27.331  1.00  0.00    -0.248 NA
ATOM     47  C   UNL A   1      48.556  30.670  27.261  1.00  0.00     0.031 C 
ATOM     48  C   UNL A   1      43.975  32.064  28.758  1.00  0.00     0.029 A 
ATOM     49  N   UNL A   1      44.298  29.891  28.336  1.00  0.00    -0.354 N 
ATOM     50  C   UNL A   1      48.126  28.444  26.941  1.00  0.00     0.074 A 
ATOM     51  C   UNL A   1      49.096  29.517  26.891  1.00  0.00     0.031 C 
ATOM     52  C   UNL A   1      42.820  31.424  29.011  1.00  0.00     0.029 A 
ATOM     53  C   UNL A   1      42.970  30.009  28.674  1.00  0.00     0.049 A 
ATOM     54  H   UNL A   1      44.731  29.027  28.142  1.00  0.00     0.167 HD
ATOM     55  C   UNL A   1      48.400  27.150  26.648  1.00  0.00     0.037 A 
ATOM     56  C   UNL A   1      41.979  29.094  28.662  1.00  0.00     0.037 A 
ATOM     57  C   UNL A   1      47.428  26.089  26.700  1.00  0.00     0.049 A 
ATOM     58  C   UNL A   1      42.282  27.680  28.232  1.00  0.00     0.074 A 
ATOM     59  C   UNL A   1      47.613  24.741  26.446  1.00  0.00     0.029 A 
ATOM     60  N   UNL A   1      46.087  26.257  27.011  1.00  0.00    -0.354 N 
ATOM     61  N   UNL A   1      43.431  27.153  27.879  1.00  0.00    -0.248 NA
ATOM     62  C   UNL A   1      41.152  26.739  28.182  1.00  0.00     0.031 C 
ATOM     63  C   UNL A   1      46.373  24.104  26.547  1.00  0.00     0.029 A 
ATOM     64  C   UNL A   1      45.425  25.044  26.917  1.00  0.00     0.049 A 
ATOM     65  H   UNL A   1      45.668  27.111  27.262  1.00  0.00     0.167 HD
ATOM     66  C   UNL A   1      43.164  25.819  27.580  1.00  0.00     0.074 A 
ATOM     67  C   UNL A   1      41.749  25.614  27.811  1.00  0.00     0.031 C 
ATOM     68  C   UNL A   1      44.013  24.853  27.149  1.00  0.00     0.037 A 
BRANCH  55  69
ATOM     69  C   UNL A   1      49.798  26.814  26.208  1.00  0.00     0.058 A 
ATOM     70  C   UNL A   1      50.769  26.352  27.110  1.00  0.00     0.135 A 
ATOM     71  C   UNL A   1      50.160  26.918  24.855  1.00  0.00     0.135 A 
ATOM     72  F   UNL A   1      50.484  26.251  28.418  1.00  0.00    -0.206 F 
ATOM     73  C   UNL A   1      52.056  26.029  26.691  1.00  0.00     0.059 A 
ATOM     74  C   UNL A   1      51.432  26.574  24.408  1.00  0.00     0.059 A 
ATOM     75  F   UNL A   1      49.270  27.356  23.950  1.00  0.00    -0.206 F 
ATOM     76  C   UNL A   1      52.377  26.143  25.336  1.00  0.00     0.060 A 
BRANCH  76  77
ATOM     77  S   UNL A   1      54.050  25.714  24.810  1.00  0.00     0.124 S 
ATOM     78  O   UNL A   1      54.145  26.425  23.537  1.00  0.00    -0.237 OA
ATOM     79  O   UNL A   1      54.865  26.248  25.895  1.00  0.00    -0.237 OA
ATOM     80  O   UNL A   1      54.014  24.258  24.712  1.00  0.00    -0.744 OA
ENDBRANCH  76  77
ENDBRANCH  55  69
BRANCH  56  81
ATOM     81  C   UNL A   1      40.590  29.494  29.020  1.00  0.00     0.058 A 
ATOM     82  C   UNL A   1      40.226  29.732  30.353  1.00  0.00     0.135 A 
ATOM     83  C   UNL A   1      39.597  29.638  28.037  1.00  0.00     0.135 A 
ATOM     84  F   UNL A   1      41.132  29.588  31.332  1.00  0.00    -0.206 F 
ATOM     85  C   UNL A   1      38.927  30.091  30.702  1.00  0.00     0.059 A 
ATOM     86  C   UNL A   1      38.299  30.025  28.358  1.00  0.00     0.059 A 
ATOM     87  F   UNL A   1      39.892  29.423  26.746  1.00  0.00    -0.206 F 
ATOM     88  C   UNL A   1      37.972  30.240  29.694  1.00  0.00     0.060 A 
BRANCH  88  89
ATOM     89  S   UNL A   1      36.303  30.758  30.155  1.00  0.00     0.124 S 
ATOM     90  O   UNL A   1      36.016  29.864  31.272  1.00  0.00    -0.237 OA
ATOM     91  O   UNL A   1      36.501  32.162  30.497  1.00  0.00    -0.237 OA
ATOM     92  O   UNL A   1      35.530  30.518  28.940  1.00  0.00    -0.744 OA
ENDBRANCH  88  89
ENDBRANCH  56  81
BRANCH  68  93
ATOM     93  C   UNL A   1      43.449  23.479  26.906  1.00  0.00     0.058 A 
ATOM     94  C   UNL A   1      43.283  22.975  25.606  1.00  0.00     0.135 A 
ATOM     95  C   UNL A   1      43.150  22.627  27.981  1.00  0.00     0.135 A 
ATOM     96  F   UNL A   1      43.545  23.750  24.542  1.00  0.00    -0.206 F 
ATOM     97  C   UNL A   1      42.835  21.677  25.381  1.00  0.00     0.059 A 
ATOM     98  C   UNL A   1      42.726  21.317  27.780  1.00  0.00     0.059 A 
ATOM     99  F   UNL A   1      43.298  23.056  29.244  1.00  0.00    -0.206 F 
ATOM    100  C   UNL A   1      42.568  20.851  26.475  1.00  0.00     0.060 A 
BRANCH 100 101
ATOM    101  S   UNL A   1      42.050  19.150  26.166  1.00  0.00     0.124 S 
ATOM    102  O   UNL A   1      40.610  19.306  25.993  1.00  0.00    -0.237 OA
ATOM    103  O   UNL A   1      42.801  18.809  24.962  1.00  0.00    -0.237 OA
ATOM    104  O   UNL A   1      42.463  18.443  27.376  1.00  0.00    -0.744 OA
ENDBRANCH 100 101
ENDBRANCH  68  93
ENDBRANCH  42  43
ENDBRANCH  35  37
ENDBRANCH  34  35
ENDBRANCH  33  34
ENDBRANCH  32  33
ENDBRANCH  31  32
ENDBRANCH  30  31
ENDBRANCH   1  30
TORSDOF 24
ENDMDL
MODEL 2
REMARK VINA RESULT:      -8.7      6.331     12.029
REMARK SMILES CC[C@H]1CCCC[N@H+]1[C@@H]1CC(=O)N(c2nc(CC(=O)OCCOCCOCCOC(=O)c3ccc(-c4c5nc(c(-c6c(F)cc(S(=O)(=O)[O-])cc6F)c6ccc([nH]6)c(-c6c(F)cc(S(=O)(=O)[O-])cc6F)c6nc(c(-c7c(F)cc(S(=O)(=O)[O-])cc7F)c7ccc4[nH]7)C=C6)C=C5)cc3)cs2)C1=O
REMARK SMILES IDX 24 1 23 2 22 3 21 4 20 5 18 6 19 7 17 8 16 9 14 10 15 11
REMARK SMILES IDX 99 12 98 13 13 14 9 15 10 16 100 17 11 18 101 19 12 20 8 21
REMARK SMILES IDX 3 22 4 23 5 24 7 25 6 27 2 28 1 29 25 30 26 31 27 32 28 33
REMARK SMILES IDX 29 34 30 35 31 36 32 37 33 38 97 39 34 40 96 41 35 42 36 43
REMARK SMILES IDX 37 44 90 45 38 46 95 47 89 48 91 49 39 50 94 51 88 52 87 53
REMARK SMILES IDX 40 55 74 56 53 57 73 58 54 59 57 60 72 61 92 62 55 63 56 64
REMARK SMILES IDX 71 66 93 67 58 68 41 69 42 70 51 71 43 72 44 73 50 74 52 75
REMARK SMILES IDX 45 76 46 77 47 78 48 79 49 80 75 81 76 82 85 83 77 84 78 85
REMARK SMILES IDX 84 86 86 87 79 88 80 89 81 90 82 91 83 92 59 93 60 94 69 95
REMARK SMILES IDX 61 96 62 97 68 98 70 99 63 100 64 101 65 102 66 103 67 104
REMARK H PARENT 8 26 91 54 57 65
REMARK Flexibility Score: inf
ROOT
ATOM      1  C   UNL A   1      44.512  27.600  26.337  1.00  0.00     0.188 C 
ENDROOT
BRANCH   1   2
ATOM      2  O   UNL A   1      44.711  28.982  26.054  1.00  0.00    -0.376 OA
BRANCH   2   3
ATOM      3  C   UNL A   1      46.029  29.512  26.093  1.00  0.00     0.202 C 
BRANCH   3   4
ATOM      4  C   UNL A   1      46.152  31.013  26.381  1.00  0.00     0.261 C 
BRANCH   4   5
ATOM      5  O   UNL A   1      44.951  31.767  26.101  1.00  0.00    -0.463 OA
BRANCH   5   6
ATOM      6  C   UNL A   1      44.803  32.935  26.774  1.00  0.00     0.311 C 
ATOM      7  O   UNL A   1      45.252  33.123  27.904  1.00  0.00    -0.252 OA
BRANCH   6   8
ATOM      8  C   UNL A   1      44.117  34.060  26.030  1.00  0.00     0.179 C 
BRANCH   8   9
ATOM      9  C   UNL A   1      43.619  35.261  26.775  1.00  0.00     0.065 A 
ATOM     10  C   UNL A   1      43.722  37.392  27.403  1.00  0.00     0.199 A 
ATOM     11  N   UNL A   1      44.385  36.421  26.808  1.00  0.00    -0.224 NA
ATOM     12  S   UNL A   1      42.179  36.963  28.023  1.00  0.00    -0.104 S 
ATOM     13  C   UNL A   1      42.335  35.433  27.269  1.00  0.00     0.093 A 
BRANCH  10  14
ATOM     14  N   UNL A   1      43.961  38.734  27.280  1.00  0.00    -0.219 N 
ATOM     15  C   UNL A   1      44.782  40.898  27.633  1.00  0.00     0.285 C 
ATOM     16  C   UNL A   1      43.368  40.963  27.066  1.00  0.00     0.176 C 
ATOM     17  C   UNL A   1      45.027  39.393  27.832  1.00  0.00     0.294 C 
ATOM     18  C   UNL A   1      42.976  39.546  26.800  1.00  0.00     0.242 C 
ATOM     19  O   UNL A   1      46.022  38.903  28.349  1.00  0.00    -0.267 OA
ATOM     20  O   UNL A   1      41.880  39.251  26.345  1.00  0.00    -0.274 OA
BRANCH  15  21
ATOM     21  N   UNL A   1      45.066  41.689  28.852  1.00  0.00    -0.322 N 
ATOM     22  C   UNL A   1      45.967  42.855  28.678  1.00  0.00     0.184 C 
ATOM     23  C   UNL A   1      46.440  43.310  30.076  1.00  0.00     0.065 C 
ATOM     24  C   UNL A   1      45.270  43.659  30.990  1.00  0.00     0.012 C 
ATOM     25  C   UNL A   1      43.905  41.956  29.711  1.00  0.00     0.263 C 
ATOM     26  H   UNL A   1      45.632  41.033  29.389  1.00  0.00     0.349 HD
ATOM     27  C   UNL A   1      44.327  42.470  31.090  1.00  0.00     0.062 C 
BRANCH  22  28
ATOM     28  C   UNL A   1      45.376  44.019  27.841  1.00  0.00     0.061 C 
ATOM     29  C   UNL A   1      46.351  45.137  27.500  1.00  0.00     0.010 C 
ENDBRANCH  22  28
ENDBRANCH  15  21
ENDBRANCH  10  14
ENDBRANCH   8   9
ENDBRANCH   6   8
ENDBRANCH   5   6
ENDBRANCH   4   5
ENDBRANCH   3   4
ENDBRANCH   2   3
ENDBRANCH   1   2
BRANCH   1  30
ATOM     30  C   UNL A   1      45.013  26.558  25.326  1.00  0.00     0.188 C 
BRANCH  30  31
ATOM     31  O   UNL A   1      44.872  25.229  25.791  1.00  0.00    -0.376 OA
BRANCH  31  32
ATOM     32  C   UNL A   1      44.018  24.406  25.022  1.00  0.00     0.202 C 
BRANCH  32  33
ATOM     33  C   UNL A   1      42.779  24.002  25.825  1.00  0.00     0.261 C 
BRANCH  33  34
ATOM     34  O   UNL A   1      41.650  24.888  25.689  1.00  0.00    -0.460 OA
BRANCH  34  35
ATOM     35  C   UNL A   1      40.591  24.670  26.494  1.00  0.00     0.338 C 
ATOM     36  O   UNL A   1      39.819  23.717  26.453  1.00  0.00    -0.246 OA
BRANCH  35  37
ATOM     37  C   UNL A   1      40.624  25.674  27.576  1.00  0.00     0.060 A 
ATOM     38  C   UNL A   1      39.684  25.602  28.613  1.00  0.00     0.016 A 
ATOM     39  C   UNL A   1      41.592  26.679  27.576  1.00  0.00     0.016 A 
ATOM     40  C   UNL A   1      39.714  26.531  29.658  1.00  0.00     0.010 A 
ATOM     41  C   UNL A   1      41.606  27.622  28.608  1.00  0.00     0.010 A 
ATOM     42  C   UNL A   1      40.664  27.561  29.651  1.00  0.00    -0.014 A 
BRANCH  42  43
ATOM     43  C   UNL A   1      40.626  28.653  30.657  1.00  0.00     0.031 A 
ATOM     44  C   UNL A   1      41.521  28.560  31.862  1.00  0.00     0.074 A 
ATOM     45  C   UNL A   1      39.773  29.687  30.529  1.00  0.00     0.049 A 
ATOM     46  N   UNL A   1      41.527  29.285  32.949  1.00  0.00    -0.248 NA
ATOM     47  C   UNL A   1      42.544  27.502  31.834  1.00  0.00     0.031 C 
ATOM     48  C   UNL A   1      38.896  29.923  29.384  1.00  0.00     0.029 A 
ATOM     49  N   UNL A   1      39.487  30.719  31.390  1.00  0.00    -0.354 N 
ATOM     50  C   UNL A   1      42.536  28.760  33.747  1.00  0.00     0.074 A 
ATOM     51  C   UNL A   1      43.114  27.649  33.021  1.00  0.00     0.031 C 
ATOM     52  C   UNL A   1      38.148  31.013  29.626  1.00  0.00     0.029 A 
ATOM     53  C   UNL A   1      38.452  31.519  30.964  1.00  0.00     0.049 A 
ATOM     54  H   UNL A   1      39.975  30.871  32.232  1.00  0.00     0.167 HD
ATOM     55  C   UNL A   1      42.941  29.167  34.974  1.00  0.00     0.037 A 
ATOM     56  C   UNL A   1      37.794  32.510  31.599  1.00  0.00     0.037 A 
ATOM     57  C   UNL A   1      42.359  30.274  35.688  1.00  0.00     0.049 A 
ATOM     58  C   UNL A   1      38.190  32.879  33.007  1.00  0.00     0.074 A 
ATOM     59  C   UNL A   1      42.716  30.780  36.925  1.00  0.00     0.029 A 
ATOM     60  N   UNL A   1      41.290  31.034  35.238  1.00  0.00    -0.354 N 
ATOM     61  N   UNL A   1      39.156  32.388  33.748  1.00  0.00    -0.248 NA
ATOM     62  C   UNL A   1      37.399  33.926  33.672  1.00  0.00     0.031 C 
ATOM     63  C   UNL A   1      41.826  31.809  37.250  1.00  0.00     0.029 A 
ATOM     64  C   UNL A   1      40.949  31.980  36.190  1.00  0.00     0.049 A 
ATOM     65  H   UNL A   1      40.842  30.919  34.370  1.00  0.00     0.167 HD
ATOM     66  C   UNL A   1      39.096  33.075  34.958  1.00  0.00     0.074 A 
ATOM     67  C   UNL A   1      38.013  34.029  34.844  1.00  0.00     0.031 C 
ATOM     68  C   UNL A   1      39.866  32.925  36.065  1.00  0.00     0.037 A 
BRANCH  55  69
ATOM     69  C   UNL A   1      44.042  28.388  35.640  1.00  0.00     0.058 A 
ATOM     70  C   UNL A   1      43.774  27.310  36.497  1.00  0.00     0.135 A 
ATOM     71  C   UNL A   1      45.387  28.702  35.385  1.00  0.00     0.135 A 
ATOM     72  F   UNL A   1      42.506  26.977  36.790  1.00  0.00    -0.206 F 
ATOM     73  C   UNL A   1      44.798  26.585  37.096  1.00  0.00     0.059 A 
ATOM     74  C   UNL A   1      46.429  27.974  35.952  1.00  0.00     0.059 A 
ATOM     75  F   UNL A   1      45.700  29.725  34.574  1.00  0.00    -0.206 F 
ATOM     76  C   UNL A   1      46.124  26.926  36.816  1.00  0.00     0.060 A 
BRANCH  76  77
ATOM     77  S   UNL A   1      47.441  25.971  37.600  1.00  0.00     0.124 S 
ATOM     78  O   UNL A   1      47.040  26.020  39.004  1.00  0.00    -0.237 OA
ATOM     79  O   UNL A   1      47.314  24.671  36.950  1.00  0.00    -0.237 OA
ATOM     80  O   UNL A   1      48.649  26.721  37.268  1.00  0.00    -0.744 OA
ENDBRANCH  76  77
ENDBRANCH  55  69
BRANCH  56  81
ATOM     81  C   UNL A   1      36.650  33.193  30.932  1.00  0.00     0.058 A 
ATOM     82  C   UNL A   1      36.863  34.230  30.013  1.00  0.00     0.135 A 
ATOM     83  C   UNL A   1      35.322  32.828  31.207  1.00  0.00     0.135 A 
ATOM     84  F   UNL A   1      38.112  34.630  29.731  1.00  0.00    -0.206 F 
ATOM     85  C   UNL A   1      35.802  34.886  29.395  1.00  0.00     0.059 A 
ATOM     86  C   UNL A   1      34.246  33.450  30.581  1.00  0.00     0.059 A 
ATOM     87  F   UNL A   1      35.063  31.842  32.079  1.00  0.00    -0.206 F 
ATOM     88  C   UNL A   1      34.497  34.484  29.682  1.00  0.00     0.060 A 
BRANCH  88  89
ATOM     89  S   UNL A   1      33.132  35.309  28.834  1.00  0.00     0.124 S 
ATOM     90  O   UNL A   1      33.844  36.223  27.948  1.00  0.00    -0.237 OA
ATOM     91  O   UNL A   1      32.453  34.192  28.186  1.00  0.00    -0.237 OA
ATOM     92  O   UNL A   1      32.390  35.937  29.923  1.00  0.00    -0.744 OA
ENDBRANCH  88  89
ENDBRANCH  56  81
BRANCH  68  93
ATOM     93  C   UNL A   1      39.581  33.815  37.244  1.00  0.00     0.058 A 
ATOM     94  C   UNL A   1      38.782  33.381  38.314  1.00  0.00     0.135 A 
ATOM     95  C   UNL A   1      40.179  35.081  37.347  1.00  0.00     0.135 A 
ATOM     96  F   UNL A   1      38.179  32.183  38.264  1.00  0.00    -0.206 F 
ATOM     97  C   UNL A   1      38.582  34.174  39.440  1.00  0.00     0.059 A 
ATOM     98  C   UNL A   1      40.015  35.880  38.475  1.00  0.00     0.059 A 
ATOM     99  F   UNL A   1      40.959  35.542  36.356  1.00  0.00    -0.206 F 
ATOM    100  C   UNL A   1      39.210  35.418  39.516  1.00  0.00     0.060 A 
BRANCH 100 101
ATOM    101  S   UNL A   1      38.993  36.405  41.012  1.00  0.00     0.124 S 
ATOM    102  O   UNL A   1      38.664  37.714  40.457  1.00  0.00    -0.237 OA
ATOM    103  O   UNL A   1      37.903  35.711  41.688  1.00  0.00    -0.237 OA
ATOM    104  O   UNL A   1      40.293  36.314  41.673  1.00  0.00    -0.744 OA
ENDBRANCH 100 101
ENDBRANCH  68  93
ENDBRANCH  42  43
ENDBRANCH  35  37
ENDBRANCH  34  35
ENDBRANCH  33  34
ENDBRANCH  32  33
ENDBRANCH  31  32
ENDBRANCH  30  31
ENDBRANCH   1  30
TORSDOF 24
ENDMDL
MODEL 3
REMARK VINA RESULT:      -8.5      6.696     13.921
REMARK SMILES CC[C@H]1CCCC[N@H+]1[C@@H]1CC(=O)N(c2nc(CC(=O)OCCOCCOCCOC(=O)c3ccc(-c4c5nc(c(-c6c(F)cc(S(=O)(=O)[O-])cc6F)c6ccc([nH]6)c(-c6c(F)cc(S(=O)(=O)[O-])cc6F)c6nc(c(-c7c(F)cc(S(=O)(=O)[O-])cc7F)c7ccc4[nH]7)C=C6)C=C5)cc3)cs2)C1=O
REMARK SMILES IDX 24 1 23 2 22 3 21 4 20 5 18 6 19 7 17 8 16 9 14 10 15 11
REMARK SMILES IDX 99 12 98 13 13 14 9 15 10 16 100 17 11 18 101 19 12 20 8 21
REMARK SMILES IDX 3 22 4 23 5 24 7 25 6 27 2 28 1 29 25 30 26 31 27 32 28 33
REMARK SMILES IDX 29 34 30 35 31 36 32 37 33 38 97 39 34 40 96 41 35 42 36 43
REMARK SMILES IDX 37 44 90 45 38 46 95 47 89 48 91 49 39 50 94 51 88 52 87 53
REMARK SMILES IDX 40 55 74 56 53 57 73 58 54 59 57 60 72 61 92 62 55 63 56 64
REMARK SMILES IDX 71 66 93 67 58 68 41 69 42 70 51 71 43 72 44 73 50 74 52 75
REMARK SMILES IDX 45 76 46 77 47 78 48 79 49 80 75 81 76 82 85 83 77 84 78 85
REMARK SMILES IDX 84 86 86 87 79 88 80 89 81 90 82 91 83 92 59 93 60 94 69 95
REMARK SMILES IDX 61 96 62 97 68 98 70 99 63 100 64 101 65 102 66 103 67 104
REMARK H PARENT 8 26 91 54 57 65
REMARK Flexibility Score: inf
ROOT
ATOM      1  C   UNL A   1      47.102  25.760  24.702  1.00  0.00     0.188 C 
ENDROOT
BRANCH   1   2
ATOM      2  O   UNL A   1      46.725  24.744  25.627  1.00  0.00    -0.376 OA
BRANCH   2   3
ATOM      3  C   UNL A   1      45.673  23.852  25.282  1.00  0.00     0.202 C 
BRANCH   3   4
ATOM      4  C   UNL A   1      44.247  24.403  25.395  1.00  0.00     0.261 C 
BRANCH   4   5
ATOM      5  O   UNL A   1      43.233  23.526  24.856  1.00  0.00    -0.463 OA
BRANCH   5   6
ATOM      6  C   UNL A   1      43.027  22.362  25.523  1.00  0.00     0.311 C 
ATOM      7  O   UNL A   1      43.345  21.263  25.073  1.00  0.00    -0.252 OA
BRANCH   6   8
ATOM      8  C   UNL A   1      42.451  22.477  26.917  1.00  0.00     0.179 C 
BRANCH   8   9
ATOM      9  C   UNL A   1      41.282  23.378  27.176  1.00  0.00     0.065 A 
ATOM     10  C   UNL A   1      40.356  25.288  27.839  1.00  0.00     0.199 A 
ATOM     11  N   UNL A   1      41.477  24.597  27.818  1.00  0.00    -0.224 NA
ATOM     12  S   UNL A   1      38.987  24.502  27.164  1.00  0.00    -0.104 S 
ATOM     13  C   UNL A   1      40.014  23.237  26.635  1.00  0.00     0.093 A 
BRANCH  10  14
ATOM     14  N   UNL A   1      40.239  26.641  28.013  1.00  0.00    -0.219 N 
ATOM     15  C   UNL A   1      39.497  28.747  28.717  1.00  0.00     0.285 C 
ATOM     16  C   UNL A   1      40.079  28.843  27.311  1.00  0.00     0.176 C 
ATOM     17  C   UNL A   1      39.554  27.243  29.034  1.00  0.00     0.294 C 
ATOM     18  C   UNL A   1      40.596  27.477  26.996  1.00  0.00     0.242 C 
ATOM     19  O   UNL A   1      39.105  26.719  30.044  1.00  0.00    -0.267 OA
ATOM     20  O   UNL A   1      41.123  27.214  25.924  1.00  0.00    -0.274 OA
BRANCH  15  21
ATOM     21  N   UNL A   1      38.153  29.327  28.939  1.00  0.00    -0.322 N 
ATOM     22  C   UNL A   1      37.983  30.126  30.178  1.00  0.00     0.184 C 
ATOM     23  C   UNL A   1      36.470  30.316  30.425  1.00  0.00     0.065 C 
ATOM     24  C   UNL A   1      35.778  30.990  29.245  1.00  0.00     0.012 C 
ATOM     25  C   UNL A   1      37.522  29.924  27.755  1.00  0.00     0.263 C 
ATOM     26  H   UNL A   1      37.601  28.489  29.124  1.00  0.00     0.349 HD
ATOM     27  C   UNL A   1      36.030  30.187  27.978  1.00  0.00     0.062 C 
BRANCH  22  28
ATOM     28  C   UNL A   1      38.763  31.466  30.203  1.00  0.00     0.061 C 
ATOM     29  C   UNL A   1      38.844  32.147  31.563  1.00  0.00     0.010 C 
ENDBRANCH  22  28
ENDBRANCH  15  21
ENDBRANCH  10  14
ENDBRANCH   8   9
ENDBRANCH   6   8
ENDBRANCH   5   6
ENDBRANCH   4   5
ENDBRANCH   3   4
ENDBRANCH   2   3
ENDBRANCH   1   2
BRANCH   1  30
ATOM     30  C   UNL A   1      48.326  25.526  23.805  1.00  0.00     0.188 C 
BRANCH  30  31
ATOM     31  O   UNL A   1      49.107  26.693  23.625  1.00  0.00    -0.376 OA
BRANCH  31  32
ATOM     32  C   UNL A   1      49.551  27.313  24.815  1.00  0.00     0.202 C 
BRANCH  32  33
ATOM     33  C   UNL A   1      51.044  27.061  25.039  1.00  0.00     0.261 C 
BRANCH  33  34
ATOM     34  O   UNL A   1      51.429  26.865  26.414  1.00  0.00    -0.460 OA
BRANCH  34  35
ATOM     35  C   UNL A   1      50.721  25.971  27.134  1.00  0.00     0.338 C 
ATOM     36  O   UNL A   1      50.889  24.756  27.169  1.00  0.00    -0.246 OA
BRANCH  35  37
ATOM     37  C   UNL A   1      49.826  26.719  28.039  1.00  0.00     0.060 A 
ATOM     38  C   UNL A   1      50.372  27.649  28.934  1.00  0.00     0.016 A 
ATOM     39  C   UNL A   1      48.447  26.514  27.995  1.00  0.00     0.016 A 
ATOM     40  C   UNL A   1      49.539  28.384  29.784  1.00  0.00     0.010 A 
ATOM     41  C   UNL A   1      47.617  27.231  28.863  1.00  0.00     0.010 A 
ATOM     42  C   UNL A   1      48.155  28.163  29.768  1.00  0.00    -0.014 A 
BRANCH  42  43
ATOM     43  C   UNL A   1      47.259  28.808  30.762  1.00  0.00     0.031 A 
ATOM     44  C   UNL A   1      46.886  28.046  32.003  1.00  0.00     0.074 A 
ATOM     45  C   UNL A   1      46.745  30.033  30.542  1.00  0.00     0.049 A 
ATOM     46  N   UNL A   1      45.985  28.324  32.908  1.00  0.00    -0.248 NA
ATOM     47  C   UNL A   1      47.630  26.801  32.253  1.00  0.00     0.031 C 
ATOM     48  C   UNL A   1      47.071  30.896  29.410  1.00  0.00     0.029 A 
ATOM     49  N   UNL A   1      45.813  30.749  31.254  1.00  0.00    -0.354 N 
ATOM     50  C   UNL A   1      46.035  27.279  33.823  1.00  0.00     0.074 A 
ATOM     51  C   UNL A   1      47.049  26.358  33.358  1.00  0.00     0.031 C 
ATOM     52  C   UNL A   1      46.328  32.015  29.486  1.00  0.00     0.029 A 
ATOM     53  C   UNL A   1      45.436  31.921  30.641  1.00  0.00     0.049 A 
ATOM     54  H   UNL A   1      45.449  30.452  32.120  1.00  0.00     0.167 HD
ATOM     55  C   UNL A   1      45.299  27.105  34.947  1.00  0.00     0.037 A 
ATOM     56  C   UNL A   1      44.451  32.791  30.946  1.00  0.00     0.037 A 
ATOM     57  C   UNL A   1      44.291  28.028  35.402  1.00  0.00     0.049 A 
ATOM     58  C   UNL A   1      43.572  32.525  32.143  1.00  0.00     0.074 A 
ATOM     59  C   UNL A   1      43.509  27.953  36.540  1.00  0.00     0.029 A 
ATOM     60  N   UNL A   1      43.914  29.183  34.733  1.00  0.00    -0.354 N 
ATOM     61  N   UNL A   1      43.636  31.543  33.011  1.00  0.00    -0.248 NA
ATOM     62  C   UNL A   1      42.477  33.475  32.394  1.00  0.00     0.031 C 
ATOM     63  C   UNL A   1      42.619  29.032  36.531  1.00  0.00     0.029 A 
ATOM     64  C   UNL A   1      42.884  29.810  35.415  1.00  0.00     0.049 A 
ATOM     65  H   UNL A   1      44.320  29.510  33.898  1.00  0.00     0.167 HD
ATOM     66  C   UNL A   1      42.601  31.766  33.916  1.00  0.00     0.074 A 
ATOM     67  C   UNL A   1      41.938  32.984  33.502  1.00  0.00     0.031 C 
ATOM     68  C   UNL A   1      42.232  31.024  34.991  1.00  0.00     0.037 A 
BRANCH  55  69
ATOM     69  C   UNL A   1      45.528  25.851  35.745  1.00  0.00     0.058 A 
ATOM     70  C   UNL A   1      46.475  25.792  36.779  1.00  0.00     0.135 A 
ATOM     71  C   UNL A   1      44.758  24.703  35.497  1.00  0.00     0.135 A 
ATOM     72  F   UNL A   1      47.251  26.854  37.047  1.00  0.00    -0.206 F 
ATOM     73  C   UNL A   1      46.669  24.632  37.522  1.00  0.00     0.059 A 
ATOM     74  C   UNL A   1      44.915  23.540  36.245  1.00  0.00     0.059 A 
ATOM     75  F   UNL A   1      43.839  24.704  34.518  1.00  0.00    -0.206 F 
ATOM     76  C   UNL A   1      45.882  23.511  37.247  1.00  0.00     0.060 A 
BRANCH  76  77
ATOM     77  S   UNL A   1      46.145  22.016  38.224  1.00  0.00     0.124 S 
ATOM     78  O   UNL A   1      47.596  22.024  38.385  1.00  0.00    -0.237 OA
ATOM     79  O   UNL A   1      45.373  22.292  39.431  1.00  0.00    -0.237 OA
ATOM     80  O   UNL A   1      45.615  20.955  37.373  1.00  0.00    -0.744 OA
ENDBRANCH  76  77
ENDBRANCH  55  69
BRANCH  56  81
ATOM     81  C   UNL A   1      44.203  33.974  30.074  1.00  0.00     0.058 A 
ATOM     82  C   UNL A   1      44.818  35.207  30.336  1.00  0.00     0.135 A 
ATOM     83  C   UNL A   1      43.341  33.896  28.968  1.00  0.00     0.135 A 
ATOM     84  F   UNL A   1      45.633  35.339  31.392  1.00  0.00    -0.206 F 
ATOM     85  C   UNL A   1      44.582  36.323  29.537  1.00  0.00     0.059 A 
ATOM     86  C   UNL A   1      43.112  34.990  28.139  1.00  0.00     0.059 A 
ATOM     87  F   UNL A   1      42.728  32.739  28.673  1.00  0.00    -0.206 F 
ATOM     88  C   UNL A   1      43.731  36.201  28.437  1.00  0.00     0.060 A 
BRANCH  88  89
ATOM     89  S   UNL A   1      43.474  37.644  27.380  1.00  0.00     0.124 S 
ATOM     90  O   UNL A   1      42.500  37.136  26.420  1.00  0.00    -0.237 OA
ATOM     91  O   UNL A   1      42.978  38.635  28.329  1.00  0.00    -0.237 OA
ATOM     92  O   UNL A   1      44.806  37.909  26.845  1.00  0.00    -0.744 OA
ENDBRANCH  88  89
ENDBRANCH  56  81
BRANCH  68  93
ATOM     93  C   UNL A   1      41.064  31.507  35.808  1.00  0.00     0.058 A 
ATOM     94  C   UNL A   1      39.760  31.045  35.568  1.00  0.00     0.135 A 
ATOM     95  C   UNL A   1      41.261  32.374  36.895  1.00  0.00     0.135 A 
ATOM     96  F   UNL A   1      39.514  30.223  34.536  1.00  0.00    -0.206 F 
ATOM     97  C   UNL A   1      38.692  31.431  36.373  1.00  0.00     0.059 A 
ATOM     98  C   UNL A   1      40.213  32.751  37.730  1.00  0.00     0.059 A 
ATOM     99  F   UNL A   1      42.488  32.839  37.175  1.00  0.00    -0.206 F 
ATOM    100  C   UNL A   1      38.929  32.277  37.458  1.00  0.00     0.060 A 
BRANCH 100 101
ATOM    101  S   UNL A   1      37.545  32.715  38.531  1.00  0.00     0.124 S 
ATOM    102  O   UNL A   1      37.313  31.461  39.240  1.00  0.00    -0.237 OA
ATOM    103  O   UNL A   1      38.103  33.801  39.330  1.00  0.00    -0.237 OA
ATOM    104  O   UNL A   1      36.497  33.108  37.592  1.00  0.00    -0.744 OA
ENDBRANCH 100 101
ENDBRANCH  68  93
ENDBRANCH  42  43
ENDBRANCH  35  37
ENDBRANCH  34  35
ENDBRANCH  33  34
ENDBRANCH  32  33
ENDBRANCH  31  32
ENDBRANCH  30  31
ENDBRANCH   1  30
TORSDOF 24
ENDMDL
