MODEL 1
REMARK VINA RESULT:     -10.6      0.000      0.000
REMARK SMILES C[C@@H]1[C@@H](C(=O)OCCOCCOCCOC(=O)c2ccc(-c3c4nc(c(-c5c(F)cc(S(=O)(=O)[O-])cc5F)c5ccc([nH]5)c(-c5c(F)cc(S(=O)(=O)[O-])cc5F)c5nc(c(-c6c(F)cc(S(=O)(=O)[O-])cc6F)c6ccc3[nH]6)C=C5)C=C4)cc2)CC[N@@H+]1C[C@H]1Cc2ccccc2O1
REMARK SMILES IDX 11 1 10 2 9 3 8 4 7 5 6 6 4 7 5 8 3 9 1 10 2 11 86 12 84 13
REMARK SMILES IDX 85 14 87 16 88 17 89 18 96 19 90 20 95 21 91 22 94 23 92 24
REMARK SMILES IDX 93 25 12 26 13 27 14 28 15 29 16 30 17 31 18 32 19 33 83 34
REMARK SMILES IDX 20 35 82 36 21 37 22 38 23 39 76 40 24 41 81 42 75 43 77 44
REMARK SMILES IDX 25 45 80 46 74 47 73 48 26 50 60 51 39 52 59 53 40 54 43 55
REMARK SMILES IDX 58 56 78 57 41 58 42 59 57 61 79 62 44 63 27 64 28 65 37 66
REMARK SMILES IDX 29 67 30 68 36 69 38 70 31 71 32 72 33 73 34 74 35 75 61 76
REMARK SMILES IDX 62 77 71 78 63 79 64 80 70 81 72 82 65 83 66 84 67 85 68 86
REMARK SMILES IDX 69 87 45 88 46 89 55 90 47 91 48 92 54 93 56 94 49 95 50 96
REMARK SMILES IDX 51 97 52 98 53 99
REMARK H PARENT 86 15 77 49 43 60
REMARK Flexibility Score: inf
ROOT
ATOM      1  C   UNL A   1      34.292  29.142  27.453  1.00  0.00     0.188 C 
ENDROOT
BRANCH   1   2
ATOM      2  C   UNL A   1      33.898  28.110  26.373  1.00  0.00     0.188 C 
BRANCH   2   3
ATOM      3  O   UNL A   1      33.890  28.618  25.057  1.00  0.00    -0.376 OA
BRANCH   3   4
ATOM      4  C   UNL A   1      32.813  28.368  24.171  1.00  0.00     0.202 C 
BRANCH   4   5
ATOM      5  C   UNL A   1      31.361  28.078  24.582  1.00  0.00     0.261 C 
BRANCH   5   6
ATOM      6  O   UNL A   1      31.030  26.732  24.889  1.00  0.00    -0.463 OA
BRANCH   6   7
ATOM      7  C   UNL A   1      30.743  25.921  23.828  1.00  0.00     0.315 C 
ATOM      8  O   UNL A   1      30.693  26.282  22.665  1.00  0.00    -0.252 OA
BRANCH   7   9
ATOM      9  C   UNL A   1      30.592  24.510  24.355  1.00  0.00     0.162 C 
ATOM     10  C   UNL A   1      30.572  23.468  26.626  1.00  0.00     0.076 C 
ATOM     11  C   UNL A   1      31.443  24.196  25.587  1.00  0.00     0.195 C 
ATOM     12  N   UNL A   1      32.599  23.479  25.028  1.00  0.00    -0.329 N 
ATOM     13  C   UNL A   1      31.048  23.531  23.295  1.00  0.00     0.083 C 
ATOM     14  C   UNL A   1      32.531  23.468  23.576  1.00  0.00     0.263 C 
ATOM     15  H   UNL A   1      33.393  24.051  25.317  1.00  0.00     0.348 HD
BRANCH  12  16
ATOM     16  C   UNL A   1      33.165  22.318  25.694  1.00  0.00     0.308 C 
BRANCH  16  17
ATOM     17  C   UNL A   1      33.315  21.002  24.910  1.00  0.00     0.232 C 
ATOM     18  C   UNL A   1      34.696  20.335  24.966  1.00  0.00     0.090 C 
ATOM     19  O   UNL A   1      32.362  20.022  25.425  1.00  0.00    -0.484 OA
ATOM     20  C   UNL A   1      34.266  18.947  24.701  1.00  0.00    -0.002 A 
ATOM     21  C   UNL A   1      32.925  18.834  25.030  1.00  0.00     0.123 A 
ATOM     22  C   UNL A   1      34.988  17.871  24.226  1.00  0.00     0.007 A 
ATOM     23  C   UNL A   1      32.250  17.641  24.927  1.00  0.00     0.047 A 
ATOM     24  C   UNL A   1      34.315  16.659  24.079  1.00  0.00     0.001 A 
ATOM     25  C   UNL A   1      32.958  16.542  24.434  1.00  0.00     0.004 A 
ENDBRANCH  16  17
ENDBRANCH  12  16
ENDBRANCH   7   9
ENDBRANCH   6   7
ENDBRANCH   5   6
ENDBRANCH   4   5
ENDBRANCH   3   4
ENDBRANCH   2   3
ENDBRANCH   1   2
BRANCH   1  26
ATOM     26  O   UNL A   1      33.537  30.331  27.569  1.00  0.00    -0.376 OA
BRANCH  26  27
ATOM     27  C   UNL A   1      34.238  31.564  27.637  1.00  0.00     0.202 C 
BRANCH  27  28
ATOM     28  C   UNL A   1      34.688  32.212  28.969  1.00  0.00     0.261 C 
BRANCH  28  29
ATOM     29  O   UNL A   1      35.499  31.427  29.864  1.00  0.00    -0.460 OA
BRANCH  29  30
ATOM     30  C   UNL A   1      36.622  32.024  30.337  1.00  0.00     0.338 C 
ATOM     31  O   UNL A   1      36.673  33.006  31.070  1.00  0.00    -0.246 OA
BRANCH  30  32
ATOM     32  C   UNL A   1      37.810  31.201  30.022  1.00  0.00     0.060 A 
ATOM     33  C   UNL A   1      38.688  30.842  31.060  1.00  0.00     0.016 A 
ATOM     34  C   UNL A   1      38.089  30.821  28.710  1.00  0.00     0.016 A 
ATOM     35  C   UNL A   1      39.853  30.117  30.786  1.00  0.00     0.010 A 
ATOM     36  C   UNL A   1      39.271  30.121  28.434  1.00  0.00     0.010 A 
ATOM     37  C   UNL A   1      40.174  29.790  29.462  1.00  0.00    -0.014 A 
BRANCH  37  38
ATOM     38  C   UNL A   1      41.528  29.278  29.120  1.00  0.00     0.031 A 
ATOM     39  C   UNL A   1      42.682  30.246  29.132  1.00  0.00     0.074 A 
ATOM     40  C   UNL A   1      41.740  27.987  28.798  1.00  0.00     0.049 A 
ATOM     41  N   UNL A   1      43.924  30.068  28.761  1.00  0.00    -0.248 NA
ATOM     42  C   UNL A   1      42.391  31.602  29.626  1.00  0.00     0.031 C 
ATOM     43  C   UNL A   1      40.726  26.935  28.801  1.00  0.00     0.029 A 
ATOM     44  N   UNL A   1      42.886  27.348  28.386  1.00  0.00    -0.354 N 
ATOM     45  C   UNL A   1      44.559  31.288  28.966  1.00  0.00     0.074 A 
ATOM     46  C   UNL A   1      43.558  32.206  29.465  1.00  0.00     0.031 C 
ATOM     47  C   UNL A   1      41.291  25.784  28.389  1.00  0.00     0.029 A 
ATOM     48  C   UNL A   1      42.695  26.026  28.057  1.00  0.00     0.049 A 
ATOM     49  H   UNL A   1      43.761  27.795  28.334  1.00  0.00     0.167 HD
ATOM     50  C   UNL A   1      45.859  31.613  28.766  1.00  0.00     0.037 A 
ATOM     51  C   UNL A   1      43.545  25.127  27.519  1.00  0.00     0.037 A 
ATOM     52  C   UNL A   1      46.851  30.700  28.262  1.00  0.00     0.049 A 
ATOM     53  C   UNL A   1      44.967  25.539  27.212  1.00  0.00     0.074 A 
ATOM     54  C   UNL A   1      48.195  30.935  28.025  1.00  0.00     0.029 A 
ATOM     55  N   UNL A   1      46.610  29.380  27.914  1.00  0.00    -0.354 N 
ATOM     56  N   UNL A   1      45.557  26.694  27.417  1.00  0.00    -0.248 NA
ATOM     57  C   UNL A   1      45.838  24.524  26.600  1.00  0.00     0.031 C 
ATOM     58  C   UNL A   1      48.753  29.775  27.481  1.00  0.00     0.029 A 
ATOM     59  C   UNL A   1      47.774  28.795  27.440  1.00  0.00     0.049 A 
ATOM     60  H   UNL A   1      45.741  28.924  27.990  1.00  0.00     0.167 HD
ATOM     61  C   UNL A   1      46.875  26.529  26.997  1.00  0.00     0.074 A 
ATOM     62  C   UNL A   1      46.998  25.164  26.533  1.00  0.00     0.031 C 
ATOM     63  C   UNL A   1      47.892  27.427  26.998  1.00  0.00     0.037 A 
BRANCH  50  64
ATOM     64  C   UNL A   1      46.280  33.026  29.071  1.00  0.00     0.058 A 
ATOM     65  C   UNL A   1      46.768  33.395  30.334  1.00  0.00     0.135 A 
ATOM     66  C   UNL A   1      46.233  34.015  28.075  1.00  0.00     0.135 A 
ATOM     67  F   UNL A   1      46.817  32.496  31.330  1.00  0.00    -0.206 F 
ATOM     68  C   UNL A   1      47.174  34.698  30.606  1.00  0.00     0.059 A 
ATOM     69  C   UNL A   1      46.662  35.317  28.314  1.00  0.00     0.059 A 
ATOM     70  F   UNL A   1      45.772  33.718  26.848  1.00  0.00    -0.206 F 
ATOM     71  C   UNL A   1      47.119  35.651  29.588  1.00  0.00     0.060 A 
BRANCH  71  72
ATOM     72  S   UNL A   1      47.662  37.333  29.955  1.00  0.00     0.124 S 
ATOM     73  O   UNL A   1      47.233  37.482  31.343  1.00  0.00    -0.237 OA
ATOM     74  O   UNL A   1      49.103  37.247  29.743  1.00  0.00    -0.237 OA
ATOM     75  O   UNL A   1      46.934  38.147  28.985  1.00  0.00    -0.744 OA
ENDBRANCH  71  72
ENDBRANCH  50  64
BRANCH  51  76
ATOM     76  C   UNL A   1      43.085  23.742  27.212  1.00  0.00     0.058 A 
ATOM     77  C   UNL A   1      43.061  22.750  28.203  1.00  0.00     0.135 A 
ATOM     78  C   UNL A   1      42.694  23.374  25.915  1.00  0.00     0.135 A 
ATOM     79  F   UNL A   1      43.442  23.044  29.456  1.00  0.00    -0.206 F 
ATOM     80  C   UNL A   1      42.691  21.438  27.917  1.00  0.00     0.059 A 
ATOM     81  C   UNL A   1      42.289  22.077  25.610  1.00  0.00     0.059 A 
ATOM     82  F   UNL A   1      42.694  24.284  24.927  1.00  0.00    -0.206 F 
ATOM     83  C   UNL A   1      42.306  21.112  26.616  1.00  0.00     0.060 A 
BRANCH  83  84
ATOM     84  S   UNL A   1      41.802  19.414  26.263  1.00  0.00     0.124 S 
ATOM     85  O   UNL A   1      42.161  18.737  27.504  1.00  0.00    -0.237 OA
ATOM     86  O   UNL A   1      40.373  19.566  26.009  1.00  0.00    -0.237 OA
ATOM     87  O   UNL A   1      42.605  19.061  25.097  1.00  0.00    -0.744 OA
ENDBRANCH  83  84
ENDBRANCH  51  76
BRANCH  63  88
ATOM     88  C   UNL A   1      49.248  26.957  26.536  1.00  0.00     0.058 A 
ATOM     89  C   UNL A   1      50.160  26.340  27.407  1.00  0.00     0.135 A 
ATOM     90  C   UNL A   1      49.614  27.073  25.185  1.00  0.00     0.135 A 
ATOM     91  F   UNL A   1      49.865  26.207  28.711  1.00  0.00    -0.206 F 
ATOM     92  C   UNL A   1      51.393  25.876  26.960  1.00  0.00     0.059 A 
ATOM     93  C   UNL A   1      50.829  26.587  24.710  1.00  0.00     0.059 A 
ATOM     94  F   UNL A   1      48.777  27.643  24.303  1.00  0.00    -0.206 F 
ATOM     95  C   UNL A   1      51.717  25.999  25.607  1.00  0.00     0.060 A 
BRANCH  95  96
ATOM     96  S   UNL A   1      53.305  25.357  25.035  1.00  0.00     0.124 S 
ATOM     97  O   UNL A   1      53.254  25.668  23.611  1.00  0.00    -0.237 OA
ATOM     98  O   UNL A   1      54.257  26.137  25.820  1.00  0.00    -0.237 OA
ATOM     99  O   UNL A   1      53.239  23.938  25.371  1.00  0.00    -0.744 OA
ENDBRANCH  95  96
ENDBRANCH  63  88
ENDBRANCH  37  38
ENDBRANCH  30  32
ENDBRANCH  29  30
ENDBRANCH  28  29
ENDBRANCH  27  28
ENDBRANCH  26  27
ENDBRANCH   1  26
TORSDOF 22
ENDMDL
MODEL 2
REMARK VINA RESULT:     -10.5      5.836     10.451
REMARK SMILES C[C@@H]1[C@@H](C(=O)OCCOCCOCCOC(=O)c2ccc(-c3c4nc(c(-c5c(F)cc(S(=O)(=O)[O-])cc5F)c5ccc([nH]5)c(-c5c(F)cc(S(=O)(=O)[O-])cc5F)c5nc(c(-c6c(F)cc(S(=O)(=O)[O-])cc6F)c6ccc3[nH]6)C=C5)C=C4)cc2)CC[N@@H+]1C[C@H]1Cc2ccccc2O1
REMARK SMILES IDX 11 1 10 2 9 3 8 4 7 5 6 6 4 7 5 8 3 9 1 10 2 11 86 12 84 13
REMARK SMILES IDX 85 14 87 16 88 17 89 18 96 19 90 20 95 21 91 22 94 23 92 24
REMARK SMILES IDX 93 25 12 26 13 27 14 28 15 29 16 30 17 31 18 32 19 33 83 34
REMARK SMILES IDX 20 35 82 36 21 37 22 38 23 39 76 40 24 41 81 42 75 43 77 44
REMARK SMILES IDX 25 45 80 46 74 47 73 48 26 50 60 51 39 52 59 53 40 54 43 55
REMARK SMILES IDX 58 56 78 57 41 58 42 59 57 61 79 62 44 63 27 64 28 65 37 66
REMARK SMILES IDX 29 67 30 68 36 69 38 70 31 71 32 72 33 73 34 74 35 75 61 76
REMARK SMILES IDX 62 77 71 78 63 79 64 80 70 81 72 82 65 83 66 84 67 85 68 86
REMARK SMILES IDX 69 87 45 88 46 89 55 90 47 91 48 92 54 93 56 94 49 95 50 96
REMARK SMILES IDX 51 97 52 98 53 99
REMARK H PARENT 86 15 77 49 43 60
REMARK Flexibility Score: inf
ROOT
ATOM      1  C   UNL A   1      32.256  29.289  26.647  1.00  0.00     0.188 C 
ENDROOT
BRANCH   1   2
ATOM      2  C   UNL A   1      32.025  29.733  25.186  1.00  0.00     0.188 C 
BRANCH   2   3
ATOM      3  O   UNL A   1      32.811  29.047  24.237  1.00  0.00    -0.376 OA
BRANCH   3   4
ATOM      4  C   UNL A   1      32.365  28.853  22.905  1.00  0.00     0.202 C 
BRANCH   4   5
ATOM      5  C   UNL A   1      31.124  28.053  22.482  1.00  0.00     0.261 C 
BRANCH   5   6
ATOM      6  O   UNL A   1      31.344  26.779  21.892  1.00  0.00    -0.463 OA
BRANCH   6   7
ATOM      7  C   UNL A   1      32.454  26.101  22.310  1.00  0.00     0.315 C 
ATOM      8  O   UNL A   1      33.507  26.043  21.700  1.00  0.00    -0.252 OA
BRANCH   7   9
ATOM      9  C   UNL A   1      32.157  25.530  23.679  1.00  0.00     0.162 C 
ATOM     10  C   UNL A   1      33.536  24.930  25.676  1.00  0.00     0.076 C 
ATOM     11  C   UNL A   1      33.223  24.570  24.212  1.00  0.00     0.195 C 
ATOM     12  N   UNL A   1      32.657  23.242  23.932  1.00  0.00    -0.329 N 
ATOM     13  C   UNL A   1      30.884  24.714  23.614  1.00  0.00     0.083 C 
ATOM     14  C   UNL A   1      31.420  23.371  23.179  1.00  0.00     0.263 C 
ATOM     15  H   UNL A   1      33.361  22.806  23.337  1.00  0.00     0.348 HD
BRANCH  12  16
ATOM     16  C   UNL A   1      32.762  22.155  24.891  1.00  0.00     0.308 C 
BRANCH  16  17
ATOM     17  C   UNL A   1      33.069  20.734  24.385  1.00  0.00     0.232 C 
ATOM     18  C   UNL A   1      34.485  20.211  24.656  1.00  0.00     0.090 C 
ATOM     19  O   UNL A   1      32.150  19.789  25.016  1.00  0.00    -0.484 OA
ATOM     20  C   UNL A   1      34.178  18.766  24.636  1.00  0.00    -0.002 A 
ATOM     21  C   UNL A   1      32.827  18.601  24.892  1.00  0.00     0.123 A 
ATOM     22  C   UNL A   1      35.011  17.686  24.423  1.00  0.00     0.007 A 
ATOM     23  C   UNL A   1      32.250  17.356  24.977  1.00  0.00     0.047 A 
ATOM     24  C   UNL A   1      34.441  16.414  24.468  1.00  0.00     0.001 A 
ATOM     25  C   UNL A   1      33.072  16.249  24.750  1.00  0.00     0.004 A 
ENDBRANCH  16  17
ENDBRANCH  12  16
ENDBRANCH   7   9
ENDBRANCH   6   7
ENDBRANCH   5   6
ENDBRANCH   4   5
ENDBRANCH   3   4
ENDBRANCH   2   3
ENDBRANCH   1   2
BRANCH   1  26
ATOM     26  O   UNL A   1      33.488  29.596  27.267  1.00  0.00    -0.376 OA
BRANCH  26  27
ATOM     27  C   UNL A   1      33.908  30.952  27.287  1.00  0.00     0.202 C 
BRANCH  27  28
ATOM     28  C   UNL A   1      33.050  32.097  27.879  1.00  0.00     0.261 C 
BRANCH  28  29
ATOM     29  O   UNL A   1      33.389  33.451  27.524  1.00  0.00    -0.460 OA
BRANCH  29  30
ATOM     30  C   UNL A   1      33.406  34.352  28.538  1.00  0.00     0.338 C 
ATOM     31  O   UNL A   1      32.523  35.158  28.813  1.00  0.00    -0.246 OA
BRANCH  30  32
ATOM     32  C   UNL A   1      34.561  34.100  29.427  1.00  0.00     0.060 A 
ATOM     33  C   UNL A   1      35.862  34.235  28.913  1.00  0.00     0.016 A 
ATOM     34  C   UNL A   1      34.371  33.687  30.746  1.00  0.00     0.016 A 
ATOM     35  C   UNL A   1      36.974  33.944  29.709  1.00  0.00     0.010 A 
ATOM     36  C   UNL A   1      35.486  33.366  31.532  1.00  0.00     0.010 A 
ATOM     37  C   UNL A   1      36.791  33.464  31.012  1.00  0.00    -0.014 A 
BRANCH  37  38
ATOM     38  C   UNL A   1      37.933  32.883  31.770  1.00  0.00     0.031 A 
ATOM     39  C   UNL A   1      38.644  31.690  31.186  1.00  0.00     0.074 A 
ATOM     40  C   UNL A   1      38.334  33.389  32.951  1.00  0.00     0.049 A 
ATOM     41  N   UNL A   1      39.583  30.942  31.706  1.00  0.00    -0.248 NA
ATOM     42  C   UNL A   1      38.234  31.285  29.831  1.00  0.00     0.031 C 
ATOM     43  C   UNL A   1      37.772  34.571  33.602  1.00  0.00     0.029 A 
ATOM     44  N   UNL A   1      39.304  32.955  33.824  1.00  0.00    -0.354 N 
ATOM     45  C   UNL A   1      39.869  29.974  30.750  1.00  0.00     0.074 A 
ATOM     46  C   UNL A   1      38.982  30.211  29.631  1.00  0.00     0.031 C 
ATOM     47  C   UNL A   1      38.392  34.756  34.782  1.00  0.00     0.029 A 
ATOM     48  C   UNL A   1      39.368  33.685  34.989  1.00  0.00     0.049 A 
ATOM     49  H   UNL A   1      39.897  32.194  33.633  1.00  0.00     0.167 HD
ATOM     50  C   UNL A   1      40.791  28.983  30.794  1.00  0.00     0.037 A 
ATOM     51  C   UNL A   1      40.104  33.492  36.103  1.00  0.00     0.037 A 
ATOM     52  C   UNL A   1      41.667  28.745  31.912  1.00  0.00     0.049 A 
ATOM     53  C   UNL A   1      41.057  32.321  36.170  1.00  0.00     0.074 A 
ATOM     54  C   UNL A   1      42.635  27.765  32.052  1.00  0.00     0.029 A 
ATOM     55  N   UNL A   1      41.680  29.488  33.083  1.00  0.00    -0.354 N 
ATOM     56  N   UNL A   1      41.324  31.416  35.256  1.00  0.00    -0.248 NA
ATOM     57  C   UNL A   1      41.811  32.145  37.421  1.00  0.00     0.031 C 
ATOM     58  C   UNL A   1      43.195  27.881  33.328  1.00  0.00     0.029 A 
ATOM     59  C   UNL A   1      42.622  28.974  33.960  1.00  0.00     0.049 A 
ATOM     60  H   UNL A   1      41.105  30.266  33.265  1.00  0.00     0.167 HD
ATOM     61  C   UNL A   1      42.301  30.592  35.809  1.00  0.00     0.074 A 
ATOM     62  C   UNL A   1      42.584  31.107  37.131  1.00  0.00     0.031 C 
ATOM     63  C   UNL A   1      42.912  29.507  35.268  1.00  0.00     0.037 A 
BRANCH  50  64
ATOM     64  C   UNL A   1      40.886  28.064  29.606  1.00  0.00     0.058 A 
ATOM     65  C   UNL A   1      41.885  28.214  28.633  1.00  0.00     0.135 A 
ATOM     66  C   UNL A   1      39.989  26.992  29.461  1.00  0.00     0.135 A 
ATOM     67  F   UNL A   1      42.758  29.232  28.710  1.00  0.00    -0.206 F 
ATOM     68  C   UNL A   1      41.980  27.350  27.547  1.00  0.00     0.059 A 
ATOM     69  C   UNL A   1      40.083  26.097  28.400  1.00  0.00     0.059 A 
ATOM     70  F   UNL A   1      39.011  26.802  30.362  1.00  0.00    -0.206 F 
ATOM     71  C   UNL A   1      41.075  26.293  27.440  1.00  0.00     0.060 A 
BRANCH  71  72
ATOM     72  S   UNL A   1      41.221  25.175  26.031  1.00  0.00     0.124 S 
ATOM     73  O   UNL A   1      39.858  24.662  25.922  1.00  0.00    -0.237 OA
ATOM     74  O   UNL A   1      41.646  26.074  24.963  1.00  0.00    -0.237 OA
ATOM     75  O   UNL A   1      42.222  24.205  26.466  1.00  0.00    -0.744 OA
ENDBRANCH  71  72
ENDBRANCH  50  64
BRANCH  51  76
ATOM     76  C   UNL A   1      39.968  34.413  37.267  1.00  0.00     0.058 A 
ATOM     77  C   UNL A   1      39.056  34.145  38.299  1.00  0.00     0.135 A 
ATOM     78  C   UNL A   1      40.719  35.595  37.355  1.00  0.00     0.135 A 
ATOM     79  F   UNL A   1      38.300  33.037  38.255  1.00  0.00    -0.206 F 
ATOM     80  C   UNL A   1      38.874  35.026  39.362  1.00  0.00     0.059 A 
ATOM     81  C   UNL A   1      40.579  36.477  38.425  1.00  0.00     0.059 A 
ATOM     82  F   UNL A   1      41.609  35.900  36.398  1.00  0.00    -0.206 F 
ATOM     83  C   UNL A   1      39.642  36.189  39.417  1.00  0.00     0.060 A 
BRANCH  83  84
ATOM     84  S   UNL A   1      39.418  37.310  40.814  1.00  0.00     0.124 S 
ATOM     85  O   UNL A   1      40.779  37.785  41.032  1.00  0.00    -0.237 OA
ATOM     86  O   UNL A   1      38.480  38.289  40.273  1.00  0.00    -0.237 OA
ATOM     87  O   UNL A   1      38.877  36.444  41.857  1.00  0.00    -0.744 OA
ENDBRANCH  83  84
ENDBRANCH  51  76
BRANCH  63  88
ATOM     88  C   UNL A   1      43.989  28.829  36.075  1.00  0.00     0.058 A 
ATOM     89  C   UNL A   1      45.316  29.289  36.083  1.00  0.00     0.135 A 
ATOM     90  C   UNL A   1      43.673  27.737  36.901  1.00  0.00     0.135 A 
ATOM     91  F   UNL A   1      45.676  30.326  35.310  1.00  0.00    -0.206 F 
ATOM     92  C   UNL A   1      46.293  28.678  36.863  1.00  0.00     0.059 A 
ATOM     93  C   UNL A   1      44.628  27.131  37.713  1.00  0.00     0.059 A 
ATOM     94  F   UNL A   1      42.418  27.261  36.943  1.00  0.00    -0.206 F 
ATOM     95  C   UNL A   1      45.938  27.602  37.679  1.00  0.00     0.060 A 
BRANCH  95  96
ATOM     96  S   UNL A   1      47.210  26.844  38.713  1.00  0.00     0.124 S 
ATOM     97  O   UNL A   1      47.676  25.757  37.860  1.00  0.00    -0.237 OA
ATOM     98  O   UNL A   1      48.149  27.944  38.909  1.00  0.00    -0.237 OA
ATOM     99  O   UNL A   1      46.477  26.434  39.908  1.00  0.00    -0.744 OA
ENDBRANCH  95  96
ENDBRANCH  63  88
ENDBRANCH  37  38
ENDBRANCH  30  32
ENDBRANCH  29  30
ENDBRANCH  28  29
ENDBRANCH  27  28
ENDBRANCH  26  27
ENDBRANCH   1  26
TORSDOF 22
ENDMDL
MODEL 3
REMARK VINA RESULT:     -10.4      1.321      8.311
REMARK SMILES C[C@@H]1[C@@H](C(=O)OCCOCCOCCOC(=O)c2ccc(-c3c4nc(c(-c5c(F)cc(S(=O)(=O)[O-])cc5F)c5ccc([nH]5)c(-c5c(F)cc(S(=O)(=O)[O-])cc5F)c5nc(c(-c6c(F)cc(S(=O)(=O)[O-])cc6F)c6ccc3[nH]6)C=C5)C=C4)cc2)CC[N@@H+]1C[C@H]1Cc2ccccc2O1
REMARK SMILES IDX 11 1 10 2 9 3 8 4 7 5 6 6 4 7 5 8 3 9 1 10 2 11 86 12 84 13
REMARK SMILES IDX 85 14 87 16 88 17 89 18 96 19 90 20 95 21 91 22 94 23 92 24
REMARK SMILES IDX 93 25 12 26 13 27 14 28 15 29 16 30 17 31 18 32 19 33 83 34
REMARK SMILES IDX 20 35 82 36 21 37 22 38 23 39 76 40 24 41 81 42 75 43 77 44
REMARK SMILES IDX 25 45 80 46 74 47 73 48 26 50 60 51 39 52 59 53 40 54 43 55
REMARK SMILES IDX 58 56 78 57 41 58 42 59 57 61 79 62 44 63 27 64 28 65 37 66
REMARK SMILES IDX 29 67 30 68 36 69 38 70 31 71 32 72 33 73 34 74 35 75 61 76
REMARK SMILES IDX 62 77 71 78 63 79 64 80 70 81 72 82 65 83 66 84 67 85 68 86
REMARK SMILES IDX 69 87 45 88 46 89 55 90 47 91 48 92 54 93 56 94 49 95 50 96
REMARK SMILES IDX 51 97 52 98 53 99
REMARK H PARENT 86 15 77 49 43 60
REMARK Flexibility Score: inf
ROOT
ATOM      1  C   UNL A   1      34.791  33.109  28.688  1.00  0.00     0.188 C 
ENDROOT
BRANCH   1   2
ATOM      2  C   UNL A   1      34.978  31.734  28.010  1.00  0.00     0.188 C 
BRANCH   2   3
ATOM      3  O   UNL A   1      33.806  30.952  27.946  1.00  0.00    -0.376 OA
BRANCH   3   4
ATOM      4  C   UNL A   1      33.576  30.045  26.881  1.00  0.00     0.202 C 
BRANCH   4   5
ATOM      5  C   UNL A   1      32.373  29.099  26.752  1.00  0.00     0.261 C 
BRANCH   5   6
ATOM      6  O   UNL A   1      32.141  28.514  25.478  1.00  0.00    -0.463 OA
BRANCH   6   7
ATOM      7  C   UNL A   1      31.129  29.055  24.738  1.00  0.00     0.315 C 
ATOM      8  O   UNL A   1      30.848  30.240  24.698  1.00  0.00    -0.252 OA
BRANCH   7   9
ATOM      9  C   UNL A   1      30.502  27.939  23.930  1.00  0.00     0.162 C 
ATOM     10  C   UNL A   1      29.754  25.607  24.428  1.00  0.00     0.076 C 
ATOM     11  C   UNL A   1      30.976  26.534  24.309  1.00  0.00     0.195 C 
ATOM     12  N   UNL A   1      31.983  26.225  23.283  1.00  0.00    -0.329 N 
ATOM     13  C   UNL A   1      30.877  28.106  22.473  1.00  0.00     0.083 C 
ATOM     14  C   UNL A   1      32.202  27.382  22.429  1.00  0.00     0.263 C 
ATOM     15  H   UNL A   1      32.828  26.051  23.826  1.00  0.00     0.348 HD
BRANCH  12  16
ATOM     16  C   UNL A   1      32.071  24.906  22.681  1.00  0.00     0.308 C 
BRANCH  16  17
ATOM     17  C   UNL A   1      32.425  23.698  23.566  1.00  0.00     0.232 C 
ATOM     18  C   UNL A   1      31.914  22.334  23.086  1.00  0.00     0.090 C 
ATOM     19  O   UNL A   1      33.878  23.583  23.666  1.00  0.00    -0.484 OA
ATOM     20  C   UNL A   1      32.926  21.488  23.751  1.00  0.00    -0.002 A 
ATOM     21  C   UNL A   1      34.042  22.266  24.015  1.00  0.00     0.123 A 
ATOM     22  C   UNL A   1      32.881  20.150  24.087  1.00  0.00     0.007 A 
ATOM     23  C   UNL A   1      35.172  21.742  24.596  1.00  0.00     0.047 A 
ATOM     24  C   UNL A   1      34.002  19.605  24.712  1.00  0.00     0.001 A 
ATOM     25  C   UNL A   1      35.142  20.392  24.958  1.00  0.00     0.004 A 
ENDBRANCH  16  17
ENDBRANCH  12  16
ENDBRANCH   7   9
ENDBRANCH   6   7
ENDBRANCH   5   6
ENDBRANCH   4   5
ENDBRANCH   3   4
ENDBRANCH   2   3
ENDBRANCH   1   2
BRANCH   1  26
ATOM     26  O   UNL A   1      34.299  33.156  30.012  1.00  0.00    -0.376 OA
BRANCH  26  27
ATOM     27  C   UNL A   1      34.980  33.975  30.951  1.00  0.00     0.202 C 
BRANCH  27  28
ATOM     28  C   UNL A   1      36.182  33.481  31.793  1.00  0.00     0.261 C 
BRANCH  28  29
ATOM     29  O   UNL A   1      37.213  32.729  31.126  1.00  0.00    -0.460 OA
BRANCH  29  30
ATOM     30  C   UNL A   1      37.174  31.382  31.287  1.00  0.00     0.338 C 
ATOM     31  O   UNL A   1      36.233  30.725  31.717  1.00  0.00    -0.246 OA
BRANCH  30  32
ATOM     32  C   UNL A   1      38.365  30.758  30.668  1.00  0.00     0.060 A 
ATOM     33  C   UNL A   1      39.450  30.396  31.486  1.00  0.00     0.016 A 
ATOM     34  C   UNL A   1      38.439  30.572  29.288  1.00  0.00     0.016 A 
ATOM     35  C   UNL A   1      40.615  29.863  30.924  1.00  0.00     0.010 A 
ATOM     36  C   UNL A   1      39.618  30.066  28.725  1.00  0.00     0.010 A 
ATOM     37  C   UNL A   1      40.722  29.735  29.534  1.00  0.00    -0.014 A 
BRANCH  37  38
ATOM     38  C   UNL A   1      42.038  29.443  28.903  1.00  0.00     0.031 A 
ATOM     39  C   UNL A   1      42.308  28.038  28.432  1.00  0.00     0.074 A 
ATOM     40  C   UNL A   1      42.982  30.392  28.753  1.00  0.00     0.049 A 
ATOM     41  N   UNL A   1      43.410  27.513  27.961  1.00  0.00    -0.248 NA
ATOM     42  C   UNL A   1      41.179  27.096  28.507  1.00  0.00     0.031 C 
ATOM     43  C   UNL A   1      42.832  31.801  29.113  1.00  0.00     0.029 A 
ATOM     44  N   UNL A   1      44.266  30.304  28.270  1.00  0.00    -0.354 N 
ATOM     45  C   UNL A   1      43.112  26.181  27.694  1.00  0.00     0.074 A 
ATOM     46  C   UNL A   1      41.735  25.971  28.085  1.00  0.00     0.031 C 
ATOM     47  C   UNL A   1      43.988  32.441  28.859  1.00  0.00     0.029 A 
ATOM     48  C   UNL A   1      44.972  31.483  28.354  1.00  0.00     0.049 A 
ATOM     49  H   UNL A   1      44.645  29.475  27.899  1.00  0.00     0.167 HD
ATOM     50  C   UNL A   1      43.909  25.222  27.165  1.00  0.00     0.037 A 
ATOM     51  C   UNL A   1      46.267  31.747  28.086  1.00  0.00     0.037 A 
ATOM     52  C   UNL A   1      45.282  25.433  26.785  1.00  0.00     0.049 A 
ATOM     53  C   UNL A   1      47.165  30.638  27.588  1.00  0.00     0.074 A 
ATOM     54  C   UNL A   1      46.172  24.522  26.240  1.00  0.00     0.029 A 
ATOM     55  N   UNL A   1      45.966  26.632  26.913  1.00  0.00    -0.354 N 
ATOM     56  N   UNL A   1      46.870  29.384  27.334  1.00  0.00    -0.248 NA
ATOM     57  C   UNL A   1      48.574  30.980  27.342  1.00  0.00     0.031 C 
ATOM     58  C   UNL A   1      47.409  25.156  26.090  1.00  0.00     0.029 A 
ATOM     59  C   UNL A   1      47.274  26.479  26.481  1.00  0.00     0.049 A 
ATOM     60  H   UNL A   1      45.581  27.468  27.260  1.00  0.00     0.167 HD
ATOM     61  C   UNL A   1      48.044  28.803  26.861  1.00  0.00     0.074 A 
ATOM     62  C   UNL A   1      49.052  29.842  26.858  1.00  0.00     0.031 C 
ATOM     63  C   UNL A   1      48.267  27.525  26.462  1.00  0.00     0.037 A 
BRANCH  50  64
ATOM     64  C   UNL A   1      43.322  23.848  26.987  1.00  0.00     0.058 A 
ATOM     65  C   UNL A   1      42.925  23.371  25.727  1.00  0.00     0.135 A 
ATOM     66  C   UNL A   1      43.194  22.979  28.083  1.00  0.00     0.135 A 
ATOM     67  F   UNL A   1      43.008  24.165  24.647  1.00  0.00    -0.206 F 
ATOM     68  C   UNL A   1      42.401  22.094  25.565  1.00  0.00     0.059 A 
ATOM     69  C   UNL A   1      42.701  21.686  27.939  1.00  0.00     0.059 A 
ATOM     70  F   UNL A   1      43.555  23.383  29.312  1.00  0.00    -0.206 F 
ATOM     71  C   UNL A   1      42.295  21.257  26.676  1.00  0.00     0.060 A 
BRANCH  71  72
ATOM     72  S   UNL A   1      41.624  19.597  26.444  1.00  0.00     0.124 S 
ATOM     73  O   UNL A   1      40.202  19.879  26.271  1.00  0.00    -0.237 OA
ATOM     74  O   UNL A   1      42.330  19.142  25.250  1.00  0.00    -0.237 OA
ATOM     75  O   UNL A   1      41.981  18.908  27.680  1.00  0.00    -0.744 OA
ENDBRANCH  71  72
ENDBRANCH  50  64
BRANCH  51  76
ATOM     76  C   UNL A   1      46.817  33.117  28.295  1.00  0.00     0.058 A 
ATOM     77  C   UNL A   1      47.386  33.489  29.522  1.00  0.00     0.135 A 
ATOM     78  C   UNL A   1      46.752  34.092  27.287  1.00  0.00     0.135 A 
ATOM     79  F   UNL A   1      47.457  32.601  30.526  1.00  0.00    -0.206 F 
ATOM     80  C   UNL A   1      47.849  34.782  29.752  1.00  0.00     0.059 A 
ATOM     81  C   UNL A   1      47.237  35.383  27.481  1.00  0.00     0.059 A 
ATOM     82  F   UNL A   1      46.220  33.791  26.092  1.00  0.00    -0.206 F 
ATOM     83  C   UNL A   1      47.771  35.723  28.724  1.00  0.00     0.060 A 
BRANCH  83  84
ATOM     84  S   UNL A   1      48.399  37.388  29.025  1.00  0.00     0.124 S 
ATOM     85  O   UNL A   1      47.570  38.182  28.125  1.00  0.00    -0.237 OA
ATOM     86  O   UNL A   1      48.139  37.560  30.451  1.00  0.00    -0.237 OA
ATOM     87  O   UNL A   1      49.808  37.288  28.658  1.00  0.00    -0.744 OA
ENDBRANCH  83  84
ENDBRANCH  51  76
BRANCH  63  88
ATOM     88  C   UNL A   1      49.635  27.180  25.934  1.00  0.00     0.058 A 
ATOM     89  C   UNL A   1      50.660  26.707  26.769  1.00  0.00     0.135 A 
ATOM     90  C   UNL A   1      49.904  27.266  24.557  1.00  0.00     0.135 A 
ATOM     91  F   UNL A   1      50.461  26.609  28.094  1.00  0.00    -0.206 F 
ATOM     92  C   UNL A   1      51.907  26.355  26.263  1.00  0.00     0.059 A 
ATOM     93  C   UNL A   1      51.134  26.889  24.025  1.00  0.00     0.059 A 
ATOM     94  F   UNL A   1      48.958  27.699  23.708  1.00  0.00    -0.206 F 
ATOM     95  C   UNL A   1      52.134  26.445  24.888  1.00  0.00     0.060 A 
BRANCH  95  96
ATOM     96  S   UNL A   1      53.745  25.948  24.241  1.00  0.00     0.124 S 
ATOM     97  O   UNL A   1      53.849  24.577  24.728  1.00  0.00    -0.237 OA
ATOM     98  O   UNL A   1      53.563  26.097  22.801  1.00  0.00    -0.237 OA
ATOM     99  O   UNL A   1      54.666  26.902  24.852  1.00  0.00    -0.744 OA
ENDBRANCH  95  96
ENDBRANCH  63  88
ENDBRANCH  37  38
ENDBRANCH  30  32
ENDBRANCH  29  30
ENDBRANCH  28  29
ENDBRANCH  27  28
ENDBRANCH  26  27
ENDBRANCH   1  26
TORSDOF 22
ENDMDL
