MODEL 1
REMARK VINA RESULT:     -11.4      0.000      0.000
REMARK SMILES O=C(OCCOCCOCCOC(=O)C1(C/C=C/c2ccccc2)Cc2ccccc2C1)c1ccc(-c2c3nc(c(-c4c(F)cc(S(=O)(=O)[O-])cc4F)c4ccc([nH]4)c(-c4c(F)cc(S(=O)(=O)[O-])cc4F)c4nc(c(-c5c(F)cc(S(=O)(=O)[O-])cc5F)c5ccc2[nH]5)C=C4)C=C3)cc1
REMARK SMILES IDX 7 1 6 2 5 3 4 4 3 5 2 6 1 7 33 8 34 9 98 10 35 11 97 12
REMARK SMILES IDX 36 13 37 14 38 15 91 16 39 17 96 18 90 19 92 20 40 21 95 22
REMARK SMILES IDX 89 23 88 24 41 26 75 27 54 28 74 29 55 30 58 31 73 32 93 33
REMARK SMILES IDX 56 34 57 35 72 37 94 38 59 39 42 40 43 41 52 42 44 43 45 44
REMARK SMILES IDX 51 45 53 46 46 47 47 48 48 49 49 50 50 51 76 52 77 53 86 54
REMARK SMILES IDX 78 55 79 56 85 57 87 58 80 59 81 60 82 61 83 62 84 63 60 64
REMARK SMILES IDX 61 65 70 66 62 67 63 68 69 69 71 70 64 71 65 72 66 73 67 74
REMARK SMILES IDX 68 75 8 76 9 77 10 78 11 79 12 80 13 81 14 82 15 83 25 84
REMARK SMILES IDX 32 85 26 86 31 87 27 88 30 89 28 90 29 91 16 92 17 93 18 94
REMARK SMILES IDX 19 95 20 96 24 97 21 98 23 99 22 100
REMARK H PARENT 92 25 58 36
REMARK Flexibility Score: inf
ROOT
ATOM      1  C   UNL A   1      32.286  29.018  27.053  1.00  0.00     0.188 C 
ENDROOT
BRANCH   1   2
ATOM      2  O   UNL A   1      33.512  29.650  27.446  1.00  0.00    -0.376 OA
BRANCH   2   3
ATOM      3  C   UNL A   1      33.472  31.080  27.358  1.00  0.00     0.202 C 
BRANCH   3   4
ATOM      4  C   UNL A   1      34.263  31.832  28.440  1.00  0.00     0.261 C 
BRANCH   4   5
ATOM      5  O   UNL A   1      35.667  31.542  28.421  1.00  0.00    -0.460 OA
BRANCH   5   6
ATOM      6  C   UNL A   1      36.459  31.120  29.437  1.00  0.00     0.338 C 
ATOM      7  O   UNL A   1      36.063  31.314  30.586  1.00  0.00    -0.246 OA
BRANCH   6   8
ATOM      8  C   UNL A   1      37.787  30.439  29.262  1.00  0.00     0.060 A 
ATOM      9  C   UNL A   1      38.739  30.212  30.261  1.00  0.00     0.016 A 
ATOM     10  C   UNL A   1      38.075  29.956  27.972  1.00  0.00     0.016 A 
ATOM     11  C   UNL A   1      39.959  29.603  29.985  1.00  0.00     0.010 A 
ATOM     12  C   UNL A   1      39.292  29.327  27.687  1.00  0.00     0.010 A 
ATOM     13  C   UNL A   1      40.248  29.173  28.695  1.00  0.00    -0.014 A 
BRANCH  13  14
ATOM     14  C   UNL A   1      41.628  28.749  28.389  1.00  0.00     0.031 A 
ATOM     15  C   UNL A   1      42.697  29.783  28.494  1.00  0.00     0.074 A 
ATOM     16  C   UNL A   1      41.921  27.463  28.131  1.00  0.00     0.049 A 
ATOM     17  N   UNL A   1      43.972  29.672  28.261  1.00  0.00    -0.248 NA
ATOM     18  C   UNL A   1      42.269  31.125  28.929  1.00  0.00     0.031 C 
ATOM     19  C   UNL A   1      40.939  26.392  28.105  1.00  0.00     0.029 A 
ATOM     20  N   UNL A   1      43.100  26.826  27.857  1.00  0.00    -0.354 N 
ATOM     21  C   UNL A   1      44.498  30.932  28.492  1.00  0.00     0.074 A 
ATOM     22  C   UNL A   1      43.406  31.797  28.876  1.00  0.00     0.031 C 
ATOM     23  C   UNL A   1      41.539  25.226  27.838  1.00  0.00     0.029 A 
ATOM     24  C   UNL A   1      42.951  25.479  27.608  1.00  0.00     0.049 A 
ATOM     25  H   UNL A   1      43.972  27.284  27.839  1.00  0.00     0.167 HD
ATOM     26  C   UNL A   1      45.785  31.323  28.372  1.00  0.00     0.037 A 
ATOM     27  C   UNL A   1      43.845  24.560  27.198  1.00  0.00     0.037 A 
ATOM     28  C   UNL A   1      46.831  30.431  27.954  1.00  0.00     0.049 A 
ATOM     29  C   UNL A   1      45.256  25.027  27.003  1.00  0.00     0.074 A 
ATOM     30  C   UNL A   1      48.166  30.706  27.740  1.00  0.00     0.029 A 
ATOM     31  N   UNL A   1      46.644  29.081  27.668  1.00  0.00    -0.354 N 
ATOM     32  N   UNL A   1      45.744  26.233  27.189  1.00  0.00    -0.248 NA
ATOM     33  C   UNL A   1      46.234  24.042  26.537  1.00  0.00     0.031 C 
ATOM     34  C   UNL A   1      48.774  29.536  27.271  1.00  0.00     0.029 A 
ATOM     35  C   UNL A   1      47.834  28.515  27.254  1.00  0.00     0.049 A 
ATOM     36  H   UNL A   1      45.789  28.600  27.751  1.00  0.00     0.167 HD
ATOM     37  C   UNL A   1      47.089  26.154  26.870  1.00  0.00     0.074 A 
ATOM     38  C   UNL A   1      47.341  24.774  26.493  1.00  0.00     0.031 C 
ATOM     39  C   UNL A   1      48.030  27.130  26.885  1.00  0.00     0.037 A 
BRANCH  26  40
ATOM     40  C   UNL A   1      46.065  32.781  28.595  1.00  0.00     0.058 A 
ATOM     41  C   UNL A   1      46.343  33.304  29.870  1.00  0.00     0.135 A 
ATOM     42  C   UNL A   1      45.956  33.684  27.528  1.00  0.00     0.135 A 
ATOM     43  F   UNL A   1      46.416  32.489  30.935  1.00  0.00    -0.206 F 
ATOM     44  C   UNL A   1      46.451  34.674  30.084  1.00  0.00     0.059 A 
ATOM     45  C   UNL A   1      46.091  35.056  27.714  1.00  0.00     0.059 A 
ATOM     46  F   UNL A   1      45.674  33.240  26.292  1.00  0.00    -0.206 F 
ATOM     47  C   UNL A   1      46.312  35.543  29.001  1.00  0.00     0.060 A 
BRANCH  47  48
ATOM     48  S   UNL A   1      46.397  37.321  29.301  1.00  0.00     0.124 S 
ATOM     49  O   UNL A   1      45.216  37.531  30.133  1.00  0.00    -0.237 OA
ATOM     50  O   UNL A   1      47.681  37.461  29.979  1.00  0.00    -0.237 OA
ATOM     51  O   UNL A   1      46.333  37.895  27.961  1.00  0.00    -0.744 OA
ENDBRANCH  47  48
ENDBRANCH  26  40
BRANCH  27  52
ATOM     52  C   UNL A   1      43.403  23.166  26.908  1.00  0.00     0.058 A 
ATOM     53  C   UNL A   1      43.330  22.668  25.599  1.00  0.00     0.135 A 
ATOM     54  C   UNL A   1      43.117  22.271  27.956  1.00  0.00     0.135 A 
ATOM     55  F   UNL A   1      43.584  23.476  24.560  1.00  0.00    -0.206 F 
ATOM     56  C   UNL A   1      43.000  21.338  25.340  1.00  0.00     0.059 A 
ATOM     57  C   UNL A   1      42.813  20.932  27.724  1.00  0.00     0.059 A 
ATOM     58  F   UNL A   1      43.178  22.688  29.230  1.00  0.00    -0.206 F 
ATOM     59  C   UNL A   1      42.754  20.474  26.409  1.00  0.00     0.060 A 
BRANCH  59  60
ATOM     60  S   UNL A   1      42.405  18.734  26.065  1.00  0.00     0.124 S 
ATOM     61  O   UNL A   1      40.998  18.786  25.680  1.00  0.00    -0.237 OA
ATOM     62  O   UNL A   1      43.349  18.438  24.993  1.00  0.00    -0.237 OA
ATOM     63  O   UNL A   1      42.686  18.075  27.338  1.00  0.00    -0.744 OA
ENDBRANCH  59  60
ENDBRANCH  27  52
BRANCH  39  64
ATOM     64  C   UNL A   1      49.423  26.730  26.503  1.00  0.00     0.058 A 
ATOM     65  C   UNL A   1      50.294  26.137  27.426  1.00  0.00     0.135 A 
ATOM     66  C   UNL A   1      49.846  26.856  25.171  1.00  0.00     0.135 A 
ATOM     67  F   UNL A   1      49.934  26.008  28.713  1.00  0.00    -0.206 F 
ATOM     68  C   UNL A   1      51.546  25.676  27.039  1.00  0.00     0.059 A 
ATOM     69  C   UNL A   1      51.082  26.378  24.757  1.00  0.00     0.059 A 
ATOM     70  F   UNL A   1      49.039  27.412  24.254  1.00  0.00    -0.206 F 
ATOM     71  C   UNL A   1      51.925  25.792  25.700  1.00  0.00     0.060 A 
BRANCH  71  72
ATOM     72  S   UNL A   1      53.519  25.117  25.194  1.00  0.00     0.124 S 
ATOM     73  O   UNL A   1      53.644  25.647  23.841  1.00  0.00    -0.237 OA
ATOM     74  O   UNL A   1      54.426  25.686  26.186  1.00  0.00    -0.237 OA
ATOM     75  O   UNL A   1      53.322  23.674  25.289  1.00  0.00    -0.744 OA
ENDBRANCH  71  72
ENDBRANCH  39  64
ENDBRANCH  13  14
ENDBRANCH   6   8
ENDBRANCH   5   6
ENDBRANCH   4   5
ENDBRANCH   3   4
ENDBRANCH   2   3
ENDBRANCH   1   2
BRANCH   1  76
ATOM     76  C   UNL A   1      32.467  27.959  25.961  1.00  0.00     0.188 C 
BRANCH  76  77
ATOM     77  O   UNL A   1      32.260  28.380  24.614  1.00  0.00    -0.376 OA
BRANCH  77  78
ATOM     78  C   UNL A   1      31.129  27.852  23.933  1.00  0.00     0.202 C 
BRANCH  78  79
ATOM     79  C   UNL A   1      31.369  27.004  22.679  1.00  0.00     0.261 C 
BRANCH  79  80
ATOM     80  O   UNL A   1      31.857  25.678  22.922  1.00  0.00    -0.463 OA
BRANCH  80  81
ATOM     81  C   UNL A   1      33.172  25.484  22.624  1.00  0.00     0.313 C 
ATOM     82  O   UNL A   1      33.755  26.023  21.686  1.00  0.00    -0.252 OA
BRANCH  81  83
ATOM     83  C   UNL A   1      33.819  24.443  23.520  1.00  0.00     0.079 C 
ATOM     84  C   UNL A   1      34.928  23.720  22.695  1.00  0.00     0.055 C 
ATOM     85  C   UNL A   1      34.607  25.020  24.727  1.00  0.00     0.055 C 
ATOM     86  C   UNL A   1      35.851  23.235  23.768  1.00  0.00    -0.044 A 
ATOM     87  C   UNL A   1      35.654  23.960  24.943  1.00  0.00    -0.044 A 
ATOM     88  C   UNL A   1      36.782  22.213  23.695  1.00  0.00     0.004 A 
ATOM     89  C   UNL A   1      36.368  23.641  26.085  1.00  0.00     0.004 A 
ATOM     90  C   UNL A   1      37.489  21.875  24.849  1.00  0.00     0.000 A 
ATOM     91  C   UNL A   1      37.272  22.575  26.043  1.00  0.00     0.000 A 
BRANCH  83  92
ATOM     92  C   UNL A   1      32.697  23.438  23.921  1.00  0.00     0.047 C 
BRANCH  92  93
ATOM     93  C   UNL A   1      33.012  21.989  23.626  1.00  0.00    -0.025 C 
ATOM     94  C   UNL A   1      33.051  21.006  24.539  1.00  0.00     0.004 C 
BRANCH  94  95
ATOM     95  C   UNL A   1      33.389  19.615  24.198  1.00  0.00    -0.026 A 
ATOM     96  C   UNL A   1      32.463  18.841  23.491  1.00  0.00     0.008 A 
ATOM     97  C   UNL A   1      34.598  19.023  24.593  1.00  0.00     0.008 A 
ATOM     98  C   UNL A   1      32.752  17.516  23.155  1.00  0.00     0.001 A 
ATOM     99  C   UNL A   1      34.891  17.701  24.252  1.00  0.00     0.001 A 
ATOM    100  C   UNL A   1      33.969  16.948  23.530  1.00  0.00     0.000 A 
ENDBRANCH  94  95
ENDBRANCH  92  93
ENDBRANCH  83  92
ENDBRANCH  81  83
ENDBRANCH  80  81
ENDBRANCH  79  80
ENDBRANCH  78  79
ENDBRANCH  77  78
ENDBRANCH  76  77
ENDBRANCH   1  76
TORSDOF 23
ENDMDL
MODEL 2
REMARK VINA RESULT:     -10.6      1.858      3.939
REMARK SMILES O=C(OCCOCCOCCOC(=O)C1(C/C=C/c2ccccc2)Cc2ccccc2C1)c1ccc(-c2c3nc(c(-c4c(F)cc(S(=O)(=O)[O-])cc4F)c4ccc([nH]4)c(-c4c(F)cc(S(=O)(=O)[O-])cc4F)c4nc(c(-c5c(F)cc(S(=O)(=O)[O-])cc5F)c5ccc2[nH]5)C=C4)C=C3)cc1
REMARK SMILES IDX 7 1 6 2 5 3 4 4 3 5 2 6 1 7 33 8 34 9 98 10 35 11 97 12
REMARK SMILES IDX 36 13 37 14 38 15 91 16 39 17 96 18 90 19 92 20 40 21 95 22
REMARK SMILES IDX 89 23 88 24 41 26 75 27 54 28 74 29 55 30 58 31 73 32 93 33
REMARK SMILES IDX 56 34 57 35 72 37 94 38 59 39 42 40 43 41 52 42 44 43 45 44
REMARK SMILES IDX 51 45 53 46 46 47 47 48 48 49 49 50 50 51 76 52 77 53 86 54
REMARK SMILES IDX 78 55 79 56 85 57 87 58 80 59 81 60 82 61 83 62 84 63 60 64
REMARK SMILES IDX 61 65 70 66 62 67 63 68 69 69 71 70 64 71 65 72 66 73 67 74
REMARK SMILES IDX 68 75 8 76 9 77 10 78 11 79 12 80 13 81 14 82 15 83 25 84
REMARK SMILES IDX 32 85 26 86 31 87 27 88 30 89 28 90 29 91 16 92 17 93 18 94
REMARK SMILES IDX 19 95 20 96 24 97 21 98 23 99 22 100
REMARK H PARENT 92 25 58 36
REMARK Flexibility Score: inf
ROOT
ATOM      1  C   UNL A   1      34.654  33.587  27.984  1.00  0.00     0.188 C 
ENDROOT
BRANCH   1   2
ATOM      2  O   UNL A   1      35.285  34.285  29.066  1.00  0.00    -0.376 OA
BRANCH   2   3
ATOM      3  C   UNL A   1      35.006  33.718  30.352  1.00  0.00     0.202 C 
BRANCH   3   4
ATOM      4  C   UNL A   1      36.125  32.851  30.950  1.00  0.00     0.261 C 
BRANCH   4   5
ATOM      5  O   UNL A   1      35.911  31.445  30.773  1.00  0.00    -0.460 OA
BRANCH   5   6
ATOM      6  C   UNL A   1      36.743  30.416  31.070  1.00  0.00     0.338 C 
ATOM      7  O   UNL A   1      36.363  29.601  31.910  1.00  0.00    -0.246 OA
BRANCH   6   8
ATOM      8  C   UNL A   1      38.096  30.205  30.454  1.00  0.00     0.060 A 
ATOM      9  C   UNL A   1      38.386  30.161  29.086  1.00  0.00     0.016 A 
ATOM     10  C   UNL A   1      39.176  30.075  31.347  1.00  0.00     0.016 A 
ATOM     11  C   UNL A   1      39.674  29.922  28.617  1.00  0.00     0.010 A 
ATOM     12  C   UNL A   1      40.477  29.851  30.887  1.00  0.00     0.010 A 
ATOM     13  C   UNL A   1      40.722  29.749  29.514  1.00  0.00    -0.014 A 
BRANCH  13  14
ATOM     14  C   UNL A   1      42.017  29.269  28.997  1.00  0.00     0.031 A 
ATOM     15  C   UNL A   1      43.146  30.242  28.979  1.00  0.00     0.074 A 
ATOM     16  C   UNL A   1      42.198  27.981  28.655  1.00  0.00     0.049 A 
ATOM     17  N   UNL A   1      44.366  30.076  28.559  1.00  0.00    -0.248 NA
ATOM     18  C   UNL A   1      42.861  31.585  29.515  1.00  0.00     0.031 C 
ATOM     19  C   UNL A   1      41.164  26.963  28.737  1.00  0.00     0.029 A 
ATOM     20  N   UNL A   1      43.288  27.297  28.191  1.00  0.00    -0.354 N 
ATOM     21  C   UNL A   1      44.990  31.298  28.752  1.00  0.00     0.074 A 
ATOM     22  C   UNL A   1      44.015  32.200  29.320  1.00  0.00     0.031 C 
ATOM     23  C   UNL A   1      41.653  25.780  28.346  1.00  0.00     0.029 A 
ATOM     24  C   UNL A   1      43.029  25.971  27.922  1.00  0.00     0.049 A 
ATOM     25  H   UNL A   1      44.172  27.711  28.062  1.00  0.00     0.167 HD
ATOM     26  C   UNL A   1      46.266  31.628  28.458  1.00  0.00     0.037 A 
ATOM     27  C   UNL A   1      43.802  25.026  27.355  1.00  0.00     0.037 A 
ATOM     28  C   UNL A   1      47.189  30.702  27.863  1.00  0.00     0.049 A 
ATOM     29  C   UNL A   1      45.194  25.429  26.972  1.00  0.00     0.074 A 
ATOM     30  C   UNL A   1      48.493  30.918  27.465  1.00  0.00     0.029 A 
ATOM     31  N   UNL A   1      46.888  29.376  27.562  1.00  0.00    -0.354 N 
ATOM     32  N   UNL A   1      45.771  26.600  27.124  1.00  0.00    -0.248 NA
ATOM     33  C   UNL A   1      46.038  24.415  26.335  1.00  0.00     0.031 C 
ATOM     34  C   UNL A   1      48.960  29.739  26.874  1.00  0.00     0.029 A 
ATOM     35  C   UNL A   1      47.973  28.768  26.960  1.00  0.00     0.049 A 
ATOM     36  H   UNL A   1      46.028  28.936  27.753  1.00  0.00     0.167 HD
ATOM     37  C   UNL A   1      47.049  26.465  26.611  1.00  0.00     0.074 A 
ATOM     38  C   UNL A   1      47.167  25.091  26.155  1.00  0.00     0.031 C 
ATOM     39  C   UNL A   1      48.035  27.392  26.521  1.00  0.00     0.037 A 
BRANCH  26  40
ATOM     40  C   UNL A   1      46.657  33.059  28.687  1.00  0.00     0.058 A 
ATOM     41  C   UNL A   1      47.153  33.513  29.922  1.00  0.00     0.135 A 
ATOM     42  C   UNL A   1      46.437  34.012  27.681  1.00  0.00     0.135 A 
ATOM     43  F   UNL A   1      47.342  32.650  30.933  1.00  0.00    -0.206 F 
ATOM     44  C   UNL A   1      47.368  34.866  30.165  1.00  0.00     0.059 A 
ATOM     45  C   UNL A   1      46.673  35.366  27.892  1.00  0.00     0.059 A 
ATOM     46  F   UNL A   1      45.947  33.636  26.489  1.00  0.00    -0.206 F 
ATOM     47  C   UNL A   1      47.113  35.786  29.147  1.00  0.00     0.060 A 
BRANCH  47  48
ATOM     48  S   UNL A   1      47.341  37.543  29.492  1.00  0.00     0.124 S 
ATOM     49  O   UNL A   1      48.172  37.497  30.692  1.00  0.00    -0.237 OA
ATOM     50  O   UNL A   1      48.003  38.015  28.281  1.00  0.00    -0.237 OA
ATOM     51  O   UNL A   1      45.980  38.029  29.689  1.00  0.00    -0.744 OA
ENDBRANCH  47  48
ENDBRANCH  26  40
BRANCH  27  52
ATOM     52  C   UNL A   1      43.245  23.669  27.087  1.00  0.00     0.058 A 
ATOM     53  C   UNL A   1      42.936  23.238  25.789  1.00  0.00     0.135 A 
ATOM     54  C   UNL A   1      43.085  22.739  28.130  1.00  0.00     0.135 A 
ATOM     55  F   UNL A   1      43.060  24.082  24.754  1.00  0.00    -0.206 F 
ATOM     56  C   UNL A   1      42.498  21.938  25.534  1.00  0.00     0.059 A 
ATOM     57  C   UNL A   1      42.677  21.428  27.898  1.00  0.00     0.059 A 
ATOM     58  F   UNL A   1      43.373  23.091  29.393  1.00  0.00    -0.206 F 
ATOM     59  C   UNL A   1      42.382  21.037  26.594  1.00  0.00     0.060 A 
BRANCH  59  60
ATOM     60  S   UNL A   1      41.890  19.333  26.243  1.00  0.00     0.124 S 
ATOM     61  O   UNL A   1      42.609  19.068  25.001  1.00  0.00    -0.237 OA
ATOM     62  O   UNL A   1      42.374  18.624  27.423  1.00  0.00    -0.237 OA
ATOM     63  O   UNL A   1      40.437  19.419  26.124  1.00  0.00    -0.744 OA
ENDBRANCH  59  60
ENDBRANCH  27  52
BRANCH  39  64
ATOM     64  C   UNL A   1      49.334  26.938  25.927  1.00  0.00     0.058 A 
ATOM     65  C   UNL A   1      49.618  27.112  24.566  1.00  0.00     0.135 A 
ATOM     66  C   UNL A   1      50.338  26.414  26.756  1.00  0.00     0.135 A 
ATOM     67  F   UNL A   1      48.682  27.599  23.735  1.00  0.00    -0.206 F 
ATOM     68  C   UNL A   1      50.861  26.783  24.043  1.00  0.00     0.059 A 
ATOM     69  C   UNL A   1      51.596  26.103  26.260  1.00  0.00     0.059 A 
ATOM     70  F   UNL A   1      50.109  26.237  28.067  1.00  0.00    -0.206 F 
ATOM     71  C   UNL A   1      51.846  26.290  24.901  1.00  0.00     0.060 A 
BRANCH  71  72
ATOM     72  S   UNL A   1      53.483  25.942  24.225  1.00  0.00     0.124 S 
ATOM     73  O   UNL A   1      53.719  24.588  24.714  1.00  0.00    -0.237 OA
ATOM     74  O   UNL A   1      53.258  26.068  22.789  1.00  0.00    -0.237 OA
ATOM     75  O   UNL A   1      54.321  26.980  24.816  1.00  0.00    -0.744 OA
ENDBRANCH  71  72
ENDBRANCH  39  64
ENDBRANCH  13  14
ENDBRANCH   6   8
ENDBRANCH   5   6
ENDBRANCH   4   5
ENDBRANCH   3   4
ENDBRANCH   2   3
ENDBRANCH   1   2
BRANCH   1  76
ATOM     76  C   UNL A   1      35.289  32.227  27.679  1.00  0.00     0.188 C 
BRANCH  76  77
ATOM     77  O   UNL A   1      34.399  31.150  27.394  1.00  0.00    -0.376 OA
BRANCH  77  78
ATOM     78  C   UNL A   1      34.863  29.833  27.664  1.00  0.00     0.202 C 
BRANCH  78  79
ATOM     79  C   UNL A   1      34.432  28.704  26.722  1.00  0.00     0.261 C 
BRANCH  79  80
ATOM     80  O   UNL A   1      33.103  28.821  26.197  1.00  0.00    -0.463 OA
BRANCH  80  81
ATOM     81  C   UNL A   1      33.005  28.696  24.843  1.00  0.00     0.313 C 
ATOM     82  O   UNL A   1      33.968  28.611  24.086  1.00  0.00    -0.252 OA
BRANCH  81  83
ATOM     83  C   UNL A   1      31.568  28.779  24.359  1.00  0.00     0.079 C 
ATOM     84  C   UNL A   1      30.980  30.145  24.830  1.00  0.00     0.055 C 
ATOM     85  C   UNL A   1      31.402  28.844  22.817  1.00  0.00     0.055 C 
ATOM     86  C   UNL A   1      29.895  30.381  23.826  1.00  0.00    -0.044 A 
ATOM     87  C   UNL A   1      30.119  29.619  22.680  1.00  0.00    -0.044 A 
ATOM     88  C   UNL A   1      28.788  31.205  23.944  1.00  0.00     0.004 A 
ATOM     89  C   UNL A   1      29.206  29.643  21.640  1.00  0.00     0.004 A 
ATOM     90  C   UNL A   1      27.855  31.216  22.907  1.00  0.00     0.000 A 
ATOM     91  C   UNL A   1      28.055  30.426  21.767  1.00  0.00     0.000 A 
BRANCH  83  92
ATOM     92  C   UNL A   1      30.802  27.597  25.026  1.00  0.00     0.047 C 
BRANCH  92  93
ATOM     93  C   UNL A   1      31.330  26.225  24.677  1.00  0.00    -0.025 C 
ATOM     94  C   UNL A   1      30.675  25.071  24.880  1.00  0.00     0.004 C 
BRANCH  94  95
ATOM     95  C   UNL A   1      31.250  23.758  24.542  1.00  0.00    -0.026 A 
ATOM     96  C   UNL A   1      31.210  22.732  25.491  1.00  0.00     0.008 A 
ATOM     97  C   UNL A   1      31.875  23.513  23.310  1.00  0.00     0.008 A 
ATOM     98  C   UNL A   1      31.751  21.476  25.203  1.00  0.00     0.001 A 
ATOM     99  C   UNL A   1      32.409  22.255  23.018  1.00  0.00     0.001 A 
ATOM    100  C   UNL A   1      32.343  21.236  23.965  1.00  0.00     0.000 A 
ENDBRANCH  94  95
ENDBRANCH  92  93
ENDBRANCH  83  92
ENDBRANCH  81  83
ENDBRANCH  80  81
ENDBRANCH  79  80
ENDBRANCH  78  79
ENDBRANCH  77  78
ENDBRANCH  76  77
ENDBRANCH   1  76
TORSDOF 23
ENDMDL
MODEL 3
REMARK VINA RESULT:     -10.5      1.236      8.122
REMARK SMILES O=C(OCCOCCOCCOC(=O)C1(C/C=C/c2ccccc2)Cc2ccccc2C1)c1ccc(-c2c3nc(c(-c4c(F)cc(S(=O)(=O)[O-])cc4F)c4ccc([nH]4)c(-c4c(F)cc(S(=O)(=O)[O-])cc4F)c4nc(c(-c5c(F)cc(S(=O)(=O)[O-])cc5F)c5ccc2[nH]5)C=C4)C=C3)cc1
REMARK SMILES IDX 7 1 6 2 5 3 4 4 3 5 2 6 1 7 33 8 34 9 98 10 35 11 97 12
REMARK SMILES IDX 36 13 37 14 38 15 91 16 39 17 96 18 90 19 92 20 40 21 95 22
REMARK SMILES IDX 89 23 88 24 41 26 75 27 54 28 74 29 55 30 58 31 73 32 93 33
REMARK SMILES IDX 56 34 57 35 72 37 94 38 59 39 42 40 43 41 52 42 44 43 45 44
REMARK SMILES IDX 51 45 53 46 46 47 47 48 48 49 49 50 50 51 76 52 77 53 86 54
REMARK SMILES IDX 78 55 79 56 85 57 87 58 80 59 81 60 82 61 83 62 84 63 60 64
REMARK SMILES IDX 61 65 70 66 62 67 63 68 69 69 71 70 64 71 65 72 66 73 67 74
REMARK SMILES IDX 68 75 8 76 9 77 10 78 11 79 12 80 13 81 14 82 15 83 25 84
REMARK SMILES IDX 32 85 26 86 31 87 27 88 30 89 28 90 29 91 16 92 17 93 18 94
REMARK SMILES IDX 19 95 20 96 24 97 21 98 23 99 22 100
REMARK H PARENT 92 25 58 36
REMARK Flexibility Score: inf
ROOT
ATOM      1  C   UNL A   1      33.271  31.018  27.315  1.00  0.00     0.188 C 
ENDROOT
BRANCH   1   2
ATOM      2  O   UNL A   1      34.685  30.816  27.188  1.00  0.00    -0.376 OA
BRANCH   2   3
ATOM      3  C   UNL A   1      35.466  31.742  27.954  1.00  0.00     0.202 C 
BRANCH   3   4
ATOM      4  C   UNL A   1      35.025  31.930  29.414  1.00  0.00     0.261 C 
BRANCH   4   5
ATOM      5  O   UNL A   1      35.822  31.188  30.347  1.00  0.00    -0.460 OA
BRANCH   5   6
ATOM      6  C   UNL A   1      37.049  31.489  30.840  1.00  0.00     0.338 C 
ATOM      7  O   UNL A   1      37.115  32.359  31.709  1.00  0.00    -0.246 OA
BRANCH   6   8
ATOM      8  C   UNL A   1      38.331  30.845  30.399  1.00  0.00     0.060 A 
ATOM      9  C   UNL A   1      39.234  30.154  31.213  1.00  0.00     0.016 A 
ATOM     10  C   UNL A   1      38.626  30.919  29.024  1.00  0.00     0.016 A 
ATOM     11  C   UNL A   1      40.418  29.623  30.709  1.00  0.00     0.010 A 
ATOM     12  C   UNL A   1      39.805  30.375  28.504  1.00  0.00     0.010 A 
ATOM     13  C   UNL A   1      40.717  29.746  29.356  1.00  0.00    -0.014 A 
BRANCH  13  14
ATOM     14  C   UNL A   1      42.073  29.384  28.902  1.00  0.00     0.031 A 
ATOM     15  C   UNL A   1      42.275  27.993  28.404  1.00  0.00     0.074 A 
ATOM     16  C   UNL A   1      43.056  30.299  28.840  1.00  0.00     0.049 A 
ATOM     17  N   UNL A   1      43.364  27.427  27.972  1.00  0.00    -0.248 NA
ATOM     18  C   UNL A   1      41.085  27.126  28.385  1.00  0.00     0.031 C 
ATOM     19  C   UNL A   1      42.897  31.693  29.223  1.00  0.00     0.029 A 
ATOM     20  N   UNL A   1      44.359  30.224  28.432  1.00  0.00    -0.354 N 
ATOM     21  C   UNL A   1      43.000  26.128  27.655  1.00  0.00     0.074 A 
ATOM     22  C   UNL A   1      41.593  25.985  27.950  1.00  0.00     0.031 C 
ATOM     23  C   UNL A   1      44.045  32.354  29.034  1.00  0.00     0.029 A 
ATOM     24  C   UNL A   1      45.048  31.409  28.572  1.00  0.00     0.049 A 
ATOM     25  H   UNL A   1      44.766  29.402  28.074  1.00  0.00     0.167 HD
ATOM     26  C   UNL A   1      43.791  25.145  27.175  1.00  0.00     0.037 A 
ATOM     27  C   UNL A   1      46.351  31.691  28.389  1.00  0.00     0.037 A 
ATOM     28  C   UNL A   1      45.195  25.328  26.928  1.00  0.00     0.049 A 
ATOM     29  C   UNL A   1      47.229  30.568  27.922  1.00  0.00     0.074 A 
ATOM     30  C   UNL A   1      46.123  24.404  26.493  1.00  0.00     0.029 A 
ATOM     31  N   UNL A   1      45.875  26.528  27.118  1.00  0.00    -0.354 N 
ATOM     32  N   UNL A   1      46.886  29.328  27.657  1.00  0.00    -0.248 NA
ATOM     33  C   UNL A   1      48.652  30.857  27.741  1.00  0.00     0.031 C 
ATOM     34  C   UNL A   1      47.373  25.031  26.474  1.00  0.00     0.029 A 
ATOM     35  C   UNL A   1      47.217  26.363  26.834  1.00  0.00     0.049 A 
ATOM     36  H   UNL A   1      45.459  27.372  27.410  1.00  0.00     0.167 HD
ATOM     37  C   UNL A   1      48.049  28.686  27.268  1.00  0.00     0.074 A 
ATOM     38  C   UNL A   1      49.105  29.682  27.319  1.00  0.00     0.031 C 
ATOM     39  C   UNL A   1      48.230  27.392  26.904  1.00  0.00     0.037 A 
BRANCH  26  40
ATOM     40  C   UNL A   1      43.154  23.796  27.006  1.00  0.00     0.058 A 
ATOM     41  C   UNL A   1      42.896  22.946  28.095  1.00  0.00     0.135 A 
ATOM     42  C   UNL A   1      42.888  23.307  25.718  1.00  0.00     0.135 A 
ATOM     43  F   UNL A   1      43.171  23.347  29.346  1.00  0.00    -0.206 F 
ATOM     44  C   UNL A   1      42.445  21.643  27.909  1.00  0.00     0.059 A 
ATOM     45  C   UNL A   1      42.409  22.018  25.510  1.00  0.00     0.059 A 
ATOM     46  F   UNL A   1      43.133  24.070  24.641  1.00  0.00    -0.206 F 
ATOM     47  C   UNL A   1      42.216  21.185  26.610  1.00  0.00     0.060 A 
BRANCH  47  48
ATOM     48  S   UNL A   1      41.687  19.475  26.378  1.00  0.00     0.124 S 
ATOM     49  O   UNL A   1      42.134  18.861  27.625  1.00  0.00    -0.237 OA
ATOM     50  O   UNL A   1      40.243  19.614  26.224  1.00  0.00    -0.237 OA
ATOM     51  O   UNL A   1      42.405  19.057  25.179  1.00  0.00    -0.744 OA
ENDBRANCH  47  48
ENDBRANCH  26  40
BRANCH  27  52
ATOM     52  C   UNL A   1      46.871  33.053  28.702  1.00  0.00     0.058 A 
ATOM     53  C   UNL A   1      47.367  33.383  29.971  1.00  0.00     0.135 A 
ATOM     54  C   UNL A   1      46.952  34.037  27.700  1.00  0.00     0.135 A 
ATOM     55  F   UNL A   1      47.309  32.489  30.968  1.00  0.00    -0.206 F 
ATOM     56  C   UNL A   1      47.932  34.632  30.232  1.00  0.00     0.059 A 
ATOM     57  C   UNL A   1      47.537  35.280  27.929  1.00  0.00     0.059 A 
ATOM     58  F   UNL A   1      46.500  33.776  26.464  1.00  0.00    -0.206 F 
ATOM     59  C   UNL A   1      48.023  35.570  29.202  1.00  0.00     0.060 A 
BRANCH  59  60
ATOM     60  S   UNL A   1      48.828  37.155  29.531  1.00  0.00     0.124 S 
ATOM     61  O   UNL A   1      49.224  37.570  28.189  1.00  0.00    -0.237 OA
ATOM     62  O   UNL A   1      47.751  37.925  30.144  1.00  0.00    -0.237 OA
ATOM     63  O   UNL A   1      49.924  36.798  30.429  1.00  0.00    -0.744 OA
ENDBRANCH  59  60
ENDBRANCH  27  52
BRANCH  39  64
ATOM     64  C   UNL A   1      49.620  26.990  26.512  1.00  0.00     0.058 A 
ATOM     65  C   UNL A   1      50.526  26.475  27.449  1.00  0.00     0.135 A 
ATOM     66  C   UNL A   1      50.006  27.033  25.163  1.00  0.00     0.135 A 
ATOM     67  F   UNL A   1      50.201  26.428  28.751  1.00  0.00    -0.206 F 
ATOM     68  C   UNL A   1      51.775  26.011  27.059  1.00  0.00     0.059 A 
ATOM     69  C   UNL A   1      51.239  26.550  24.749  1.00  0.00     0.059 A 
ATOM     70  F   UNL A   1      49.165  27.513  24.234  1.00  0.00    -0.206 F 
ATOM     71  C   UNL A   1      52.117  26.042  25.706  1.00  0.00     0.060 A 
BRANCH  71  72
ATOM     72  S   UNL A   1      53.710  25.361  25.203  1.00  0.00     0.124 S 
ATOM     73  O   UNL A   1      53.610  25.427  23.749  1.00  0.00    -0.237 OA
ATOM     74  O   UNL A   1      54.652  26.290  25.818  1.00  0.00    -0.237 OA
ATOM     75  O   UNL A   1      53.700  24.018  25.774  1.00  0.00    -0.744 OA
ENDBRANCH  71  72
ENDBRANCH  39  64
ENDBRANCH  13  14
ENDBRANCH   6   8
ENDBRANCH   5   6
ENDBRANCH   4   5
ENDBRANCH   3   4
ENDBRANCH   2   3
ENDBRANCH   1   2
BRANCH   1  76
ATOM     76  C   UNL A   1      32.434  29.966  26.581  1.00  0.00     0.188 C 
BRANCH  76  77
ATOM     77  O   UNL A   1      32.728  29.756  25.201  1.00  0.00    -0.376 OA
BRANCH  77  78
ATOM     78  C   UNL A   1      31.816  28.961  24.454  1.00  0.00     0.202 C 
BRANCH  78  79
ATOM     79  C   UNL A   1      32.217  28.535  23.038  1.00  0.00     0.261 C 
BRANCH  79  80
ATOM     80  O   UNL A   1      31.924  27.172  22.703  1.00  0.00    -0.463 OA
BRANCH  80  81
ATOM     81  C   UNL A   1      33.014  26.382  22.495  1.00  0.00     0.313 C 
ATOM     82  O   UNL A   1      33.887  26.615  21.662  1.00  0.00    -0.252 OA
BRANCH  81  83
ATOM     83  C   UNL A   1      32.981  25.119  23.337  1.00  0.00     0.079 C 
ATOM     84  C   UNL A   1      34.321  25.035  24.130  1.00  0.00     0.055 C 
ATOM     85  C   UNL A   1      31.912  25.114  24.463  1.00  0.00     0.055 C 
ATOM     86  C   UNL A   1      33.936  24.196  25.309  1.00  0.00    -0.044 A 
ATOM     87  C   UNL A   1      32.552  24.218  25.489  1.00  0.00    -0.044 A 
ATOM     88  C   UNL A   1      34.763  23.462  26.141  1.00  0.00     0.004 A 
ATOM     89  C   UNL A   1      31.970  23.465  26.493  1.00  0.00     0.004 A 
ATOM     90  C   UNL A   1      34.178  22.684  27.141  1.00  0.00     0.000 A 
ATOM     91  C   UNL A   1      32.787  22.673  27.306  1.00  0.00     0.000 A 
BRANCH  83  92
ATOM     92  C   UNL A   1      32.859  23.923  22.346  1.00  0.00     0.047 C 
BRANCH  92  93
ATOM     93  C   UNL A   1      33.027  22.560  22.977  1.00  0.00    -0.025 C 
ATOM     94  C   UNL A   1      32.136  21.559  22.903  1.00  0.00     0.004 C 
BRANCH  94  95
ATOM     95  C   UNL A   1      32.341  20.258  23.561  1.00  0.00    -0.026 A 
ATOM     96  C   UNL A   1      32.538  20.217  24.944  1.00  0.00     0.008 A 
ATOM     97  C   UNL A   1      32.386  19.056  22.838  1.00  0.00     0.008 A 
ATOM     98  C   UNL A   1      32.740  18.998  25.598  1.00  0.00     0.001 A 
ATOM     99  C   UNL A   1      32.580  17.837  23.491  1.00  0.00     0.001 A 
ATOM    100  C   UNL A   1      32.754  17.808  24.873  1.00  0.00     0.000 A 
ENDBRANCH  94  95
ENDBRANCH  92  93
ENDBRANCH  83  92
ENDBRANCH  81  83
ENDBRANCH  80  81
ENDBRANCH  79  80
ENDBRANCH  78  79
ENDBRANCH  77  78
ENDBRANCH  76  77
ENDBRANCH   1  76
TORSDOF 23
ENDMDL
