MODEL 1
REMARK VINA RESULT:      -8.9      0.000      0.000
REMARK SMILES CN(CC(=O)OCCOCCOCCOC(=O)c1ccc(-c2c3nc(c(-c4c(F)cc(S(=O)(=O)[O-])cc4F)c4ccc([nH]4)c(-c4c(F)cc(S(=O)(=O)[O-])cc4F)c4nc(c(-c5c(F)cc(S(=O)(=O)[O-])cc5F)c5ccc2[nH]5)C=C4)C=C3)cc1)C(=O)c1ccccn1
REMARK SMILES IDX 10 1 9 2 8 3 7 4 6 5 4 6 5 7 3 8 2 9 1 10 84 11 85 12 86 13
REMARK SMILES IDX 87 14 91 15 88 16 90 17 89 18 11 19 12 20 13 21 14 22 15 23
REMARK SMILES IDX 16 24 17 25 18 26 19 27 83 28 20 29 82 30 21 31 22 32 23 33
REMARK SMILES IDX 76 34 24 35 81 36 75 37 77 38 25 39 80 40 74 41 73 42 26 44
REMARK SMILES IDX 60 45 39 46 59 47 40 48 43 49 58 50 78 51 41 52 42 53 57 55
REMARK SMILES IDX 79 56 44 57 27 58 28 59 37 60 29 61 30 62 36 63 38 64 31 65
REMARK SMILES IDX 32 66 33 67 34 68 35 69 61 70 62 71 71 72 63 73 64 74 70 75
REMARK SMILES IDX 72 76 65 77 66 78 67 79 68 80 69 81 45 82 46 83 55 84 47 85
REMARK SMILES IDX 48 86 54 87 56 88 49 89 50 90 51 91 52 92 53 93
REMARK H PARENT 77 43 43 54
REMARK Flexibility Score: inf
ROOT
ATOM      1  C   UNL A   1      33.999  29.173  26.952  1.00  0.00     0.188 C 
ENDROOT
BRANCH   1   2
ATOM      2  O   UNL A   1      33.286  29.216  25.741  1.00  0.00    -0.376 OA
BRANCH   2   3
ATOM      3  C   UNL A   1      31.955  28.739  25.832  1.00  0.00     0.202 C 
BRANCH   3   4
ATOM      4  C   UNL A   1      31.615  27.586  26.839  1.00  0.00     0.261 C 
BRANCH   4   5
ATOM      5  O   UNL A   1      31.481  26.198  26.356  1.00  0.00    -0.462 OA
BRANCH   5   6
ATOM      6  C   UNL A   1      30.271  25.739  25.911  1.00  0.00     0.325 C 
ATOM      7  O   UNL A   1      29.478  25.171  26.660  1.00  0.00    -0.250 OA
BRANCH   6   8
ATOM      8  C   UNL A   1      29.884  25.974  24.368  1.00  0.00     0.242 C 
BRANCH   8   9
ATOM      9  N   UNL A   1      30.713  26.291  23.142  1.00  0.00    -0.329 N 
ATOM     10  C   UNL A   1      30.606  27.675  22.692  1.00  0.00     0.147 C 
BRANCH   9  11
ATOM     11  C   UNL A   1      31.791  25.588  22.470  1.00  0.00     0.272 C 
ATOM     12  O   UNL A   1      32.058  25.870  21.298  1.00  0.00    -0.267 OA
BRANCH  11  13
ATOM     13  C   UNL A   1      32.641  24.495  23.079  1.00  0.00     0.128 A 
ATOM     14  C   UNL A   1      32.002  22.870  23.088  1.00  0.00     0.034 A 
ATOM     15  N   UNL A   1      34.146  24.940  23.899  1.00  0.00    -0.251 NA
ATOM     16  C   UNL A   1      32.760  21.526  23.821  1.00  0.00     0.004 A 
ATOM     17  C   UNL A   1      35.047  23.657  24.750  1.00  0.00     0.112 A 
ATOM     18  C   UNL A   1      34.252  21.802  24.671  1.00  0.00     0.020 A 
ENDBRANCH  11  13
ENDBRANCH   9  11
ENDBRANCH   8   9
ENDBRANCH   6   8
ENDBRANCH   5   6
ENDBRANCH   4   5
ENDBRANCH   3   4
ENDBRANCH   2   3
ENDBRANCH   1   2
BRANCH   1  19
ATOM     19  C   UNL A   1      34.689  30.472  27.406  1.00  0.00     0.188 C 
BRANCH  19  20
ATOM     20  O   UNL A   1      33.912  31.422  28.057  1.00  0.00    -0.376 OA
BRANCH  20  21
ATOM     21  C   UNL A   1      33.169  32.306  27.252  1.00  0.00     0.202 C 
BRANCH  21  22
ATOM     22  C   UNL A   1      32.361  33.510  27.799  1.00  0.00     0.261 C 
BRANCH  22  23
ATOM     23  O   UNL A   1      33.005  34.787  28.012  1.00  0.00    -0.460 OA
BRANCH  23  24
ATOM     24  C   UNL A   1      33.277  35.139  29.312  1.00  0.00     0.338 C 
ATOM     25  O   UNL A   1      32.842  36.152  29.824  1.00  0.00    -0.246 OA
BRANCH  24  26
ATOM     26  C   UNL A   1      34.198  33.993  29.909  1.00  0.00     0.060 A 
ATOM     27  C   UNL A   1      34.407  32.817  31.562  1.00  0.00     0.016 A 
ATOM     28  C   UNL A   1      35.741  34.537  29.120  1.00  0.00     0.016 A 
ATOM     29  C   UNL A   1      36.011  32.417  32.156  1.00  0.00     0.010 A 
ATOM     30  C   UNL A   1      37.268  34.035  29.813  1.00  0.00     0.010 A 
ATOM     31  C   UNL A   1      37.374  33.002  31.254  1.00  0.00    -0.014 A 
BRANCH  31  32
ATOM     32  C   UNL A   1      38.630  32.484  31.774  1.00  0.00     0.031 A 
ATOM     33  C   UNL A   1      38.999  32.940  33.125  1.00  0.00     0.074 A 
ATOM     34  C   UNL A   1      39.202  31.453  31.116  1.00  0.00     0.049 A 
ATOM     35  N   UNL A   1      39.908  32.464  33.917  1.00  0.00    -0.248 NA
ATOM     36  C   UNL A   1      38.225  34.062  33.679  1.00  0.00     0.031 C 
ATOM     37  C   UNL A   1      38.789  30.930  29.800  1.00  0.00     0.029 A 
ATOM     38  N   UNL A   1      40.183  30.584  31.501  1.00  0.00    -0.354 N 
ATOM     39  C   UNL A   1      39.807  33.228  35.066  1.00  0.00     0.074 A 
ATOM     40  C   UNL A   1      38.797  34.231  34.853  1.00  0.00     0.031 C 
ATOM     41  C   UNL A   1      39.426  29.776  29.552  1.00  0.00     0.029 A 
ATOM     42  C   UNL A   1      40.374  29.538  30.625  1.00  0.00     0.049 A 
ATOM     43  H   UNL A   1      40.705  30.695  32.328  1.00  0.00     0.167 HD
ATOM     44  C   UNL A   1      40.504  33.077  36.205  1.00  0.00     0.037 A 
ATOM     45  C   UNL A   1      41.242  28.513  30.693  1.00  0.00     0.037 A 
ATOM     46  C   UNL A   1      41.530  32.089  36.333  1.00  0.00     0.049 A 
ATOM     47  C   UNL A   1      42.122  28.478  31.909  1.00  0.00     0.074 A 
ATOM     48  C   UNL A   1      42.408  31.890  37.375  1.00  0.00     0.029 A 
ATOM     49  N   UNL A   1      41.827  31.141  35.356  1.00  0.00    -0.354 N 
ATOM     50  N   UNL A   1      42.082  29.253  32.970  1.00  0.00    -0.248 NA
ATOM     51  C   UNL A   1      43.169  27.457  31.939  1.00  0.00     0.031 C 
ATOM     52  C   UNL A   1      43.293  30.879  36.990  1.00  0.00     0.029 A 
ATOM     53  C   UNL A   1      42.899  30.373  35.757  1.00  0.00     0.049 A 
ATOM     54  H   UNL A   1      41.343  31.037  34.505  1.00  0.00     0.167 HD
ATOM     55  C   UNL A   1      43.079  28.794  33.815  1.00  0.00     0.074 A 
ATOM     56  C   UNL A   1      43.692  27.663  33.139  1.00  0.00     0.031 C 
ATOM     57  C   UNL A   1      43.458  29.254  35.034  1.00  0.00     0.037 A 
BRANCH  44  58
ATOM     58  C   UNL A   1      40.237  34.085  37.277  1.00  0.00     0.058 A 
ATOM     59  C   UNL A   1      39.259  33.888  38.268  1.00  0.00     0.135 A 
ATOM     60  C   UNL A   1      40.889  35.325  37.232  1.00  0.00     0.135 A 
ATOM     61  F   UNL A   1      38.553  32.746  38.309  1.00  0.00    -0.206 F 
ATOM     62  C   UNL A   1      38.918  34.899  39.159  1.00  0.00     0.059 A 
ATOM     63  C   UNL A   1      40.596  36.332  38.141  1.00  0.00     0.059 A 
ATOM     64  F   UNL A   1      41.791  35.581  36.273  1.00  0.00    -0.206 F 
ATOM     65  C   UNL A   1      39.600  36.114  39.091  1.00  0.00     0.060 A 
BRANCH  65  66
ATOM     66  S   UNL A   1      39.174  37.405  40.274  1.00  0.00     0.124 S 
ATOM     67  O   UNL A   1      38.399  38.322  39.443  1.00  0.00    -0.237 OA
ATOM     68  O   UNL A   1      38.417  36.661  41.276  1.00  0.00    -0.237 OA
ATOM     69  O   UNL A   1      40.472  37.904  40.714  1.00  0.00    -0.744 OA
ENDBRANCH  65  66
ENDBRANCH  44  58
BRANCH  45  70
ATOM     70  C   UNL A   1      41.348  27.506  29.598  1.00  0.00     0.058 A 
ATOM     71  C   UNL A   1      42.450  27.474  28.730  1.00  0.00     0.135 A 
ATOM     72  C   UNL A   1      40.336  26.553  29.386  1.00  0.00     0.135 A 
ATOM     73  F   UNL A   1      43.447  28.359  28.877  1.00  0.00    -0.206 F 
ATOM     74  C   UNL A   1      42.538  26.550  27.688  1.00  0.00     0.059 A 
ATOM     75  C   UNL A   1      40.417  25.598  28.376  1.00  0.00     0.059 A 
ATOM     76  F   UNL A   1      39.257  26.527  30.184  1.00  0.00    -0.206 F 
ATOM     77  C   UNL A   1      41.518  25.611  27.525  1.00  0.00     0.060 A 
BRANCH  77  78
ATOM     78  S   UNL A   1      41.666  24.390  26.202  1.00  0.00     0.124 S 
ATOM     79  O   UNL A   1      41.651  25.235  25.014  1.00  0.00    -0.237 OA
ATOM     80  O   UNL A   1      42.941  23.755  26.520  1.00  0.00    -0.237 OA
ATOM     81  O   UNL A   1      40.489  23.547  26.390  1.00  0.00    -0.744 OA
ENDBRANCH  77  78
ENDBRANCH  45  70
BRANCH  57  82
ATOM     82  C   UNL A   1      44.530  28.477  35.738  1.00  0.00     0.058 A 
ATOM     83  C   UNL A   1      44.237  27.436  36.630  1.00  0.00     0.135 A 
ATOM     84  C   UNL A   1      45.877  28.760  35.462  1.00  0.00     0.135 A 
ATOM     85  F   UNL A   1      42.963  27.131  36.925  1.00  0.00    -0.206 F 
ATOM     86  C   UNL A   1      45.251  26.733  37.265  1.00  0.00     0.059 A 
ATOM     87  C   UNL A   1      46.904  28.033  36.041  1.00  0.00     0.059 A 
ATOM     88  F   UNL A   1      46.204  29.737  34.598  1.00  0.00    -0.206 F 
ATOM     89  C   UNL A   1      46.580  27.036  36.958  1.00  0.00     0.060 A 
BRANCH  89  90
ATOM     90  S   UNL A   1      47.882  26.097  37.772  1.00  0.00     0.124 S 
ATOM     91  O   UNL A   1      48.641  25.600  36.630  1.00  0.00    -0.237 OA
ATOM     92  O   UNL A   1      48.542  27.122  38.576  1.00  0.00    -0.237 OA
ATOM     93  O   UNL A   1      47.151  25.086  38.530  1.00  0.00    -0.744 OA
ENDBRANCH  89  90
ENDBRANCH  57  82
ENDBRANCH  31  32
ENDBRANCH  24  26
ENDBRANCH  23  24
ENDBRANCH  22  23
ENDBRANCH  21  22
ENDBRANCH  20  21
ENDBRANCH  19  20
ENDBRANCH   1  19
TORSDOF 23
ENDMDL
MODEL 2
REMARK VINA RESULT:      -8.7      0.951      2.047
REMARK SMILES CN(CC(=O)OCCOCCOCCOC(=O)c1ccc(-c2c3nc(c(-c4c(F)cc(S(=O)(=O)[O-])cc4F)c4ccc([nH]4)c(-c4c(F)cc(S(=O)(=O)[O-])cc4F)c4nc(c(-c5c(F)cc(S(=O)(=O)[O-])cc5F)c5ccc2[nH]5)C=C4)C=C3)cc1)C(=O)c1ccccn1
REMARK SMILES IDX 10 1 9 2 8 3 7 4 6 5 4 6 5 7 3 8 2 9 1 10 84 11 85 12 86 13
REMARK SMILES IDX 87 14 91 15 88 16 90 17 89 18 11 19 12 20 13 21 14 22 15 23
REMARK SMILES IDX 16 24 17 25 18 26 19 27 83 28 20 29 82 30 21 31 22 32 23 33
REMARK SMILES IDX 76 34 24 35 81 36 75 37 77 38 25 39 80 40 74 41 73 42 26 44
REMARK SMILES IDX 60 45 39 46 59 47 40 48 43 49 58 50 78 51 41 52 42 53 57 55
REMARK SMILES IDX 79 56 44 57 27 58 28 59 37 60 29 61 30 62 36 63 38 64 31 65
REMARK SMILES IDX 32 66 33 67 34 68 35 69 61 70 62 71 71 72 63 73 64 74 70 75
REMARK SMILES IDX 72 76 65 77 66 78 67 79 68 80 69 81 45 82 46 83 55 84 47 85
REMARK SMILES IDX 48 86 54 87 56 88 49 89 50 90 51 91 52 92 53 93
REMARK H PARENT 77 43 43 54
REMARK Flexibility Score: inf
ROOT
ATOM      1  C   UNL A   1      34.005  29.446  27.230  1.00  0.00     0.188 C 
ENDROOT
BRANCH   1   2
ATOM      2  O   UNL A   1      33.573  29.356  25.895  1.00  0.00    -0.376 OA
BRANCH   2   3
ATOM      3  C   UNL A   1      32.257  28.853  25.742  1.00  0.00     0.202 C 
BRANCH   3   4
ATOM      4  C   UNL A   1      31.562  28.131  26.947  1.00  0.00     0.261 C 
BRANCH   4   5
ATOM      5  O   UNL A   1      31.636  26.661  27.073  1.00  0.00    -0.462 OA
BRANCH   5   6
ATOM      6  C   UNL A   1      30.995  25.862  26.167  1.00  0.00     0.325 C 
ATOM      7  O   UNL A   1      29.842  25.473  26.346  1.00  0.00    -0.250 OA
BRANCH   6   8
ATOM      8  C   UNL A   1      31.779  25.443  24.826  1.00  0.00     0.242 C 
BRANCH   8   9
ATOM      9  N   UNL A   1      33.231  25.121  24.549  1.00  0.00    -0.329 N 
ATOM     10  C   UNL A   1      34.159  25.650  25.544  1.00  0.00     0.147 C 
BRANCH   9  11
ATOM     11  C   UNL A   1      33.882  24.183  23.652  1.00  0.00     0.272 C 
ATOM     12  O   UNL A   1      34.377  24.598  22.599  1.00  0.00    -0.267 OA
BRANCH  11  13
ATOM     13  C   UNL A   1      34.004  22.693  23.879  1.00  0.00     0.128 A 
ATOM     14  C   UNL A   1      32.581  21.709  23.645  1.00  0.00     0.034 A 
ATOM     15  N   UNL A   1      35.521  22.050  24.530  1.00  0.00    -0.251 NA
ATOM     16  C   UNL A   1      32.492  20.031  23.953  1.00  0.00     0.004 A 
ATOM     17  C   UNL A   1      35.586  20.316  24.942  1.00  0.00     0.112 A 
ATOM     18  C   UNL A   1      33.905  19.250  24.600  1.00  0.00     0.020 A 
ENDBRANCH  11  13
ENDBRANCH   9  11
ENDBRANCH   8   9
ENDBRANCH   6   8
ENDBRANCH   5   6
ENDBRANCH   4   5
ENDBRANCH   3   4
ENDBRANCH   2   3
ENDBRANCH   1   2
BRANCH   1  19
ATOM     19  C   UNL A   1      34.660  30.768  27.668  1.00  0.00     0.188 C 
BRANCH  19  20
ATOM     20  O   UNL A   1      33.849  31.720  28.274  1.00  0.00    -0.376 OA
BRANCH  20  21
ATOM     21  C   UNL A   1      33.314  32.729  27.450  1.00  0.00     0.202 C 
BRANCH  21  22
ATOM     22  C   UNL A   1      32.473  33.922  27.972  1.00  0.00     0.261 C 
BRANCH  22  23
ATOM     23  O   UNL A   1      33.121  35.147  28.387  1.00  0.00    -0.460 OA
BRANCH  23  24
ATOM     24  C   UNL A   1      33.244  35.358  29.739  1.00  0.00     0.338 C 
ATOM     25  O   UNL A   1      32.699  36.281  30.312  1.00  0.00    -0.246 OA
BRANCH  24  26
ATOM     26  C   UNL A   1      34.175  34.201  30.296  1.00  0.00     0.060 A 
ATOM     27  C   UNL A   1      34.381  32.955  31.898  1.00  0.00     0.016 A 
ATOM     28  C   UNL A   1      35.720  34.803  29.553  1.00  0.00     0.016 A 
ATOM     29  C   UNL A   1      35.984  32.553  32.495  1.00  0.00     0.010 A 
ATOM     30  C   UNL A   1      37.245  34.294  30.244  1.00  0.00     0.010 A 
ATOM     31  C   UNL A   1      37.349  33.198  31.639  1.00  0.00    -0.014 A 
BRANCH  31  32
ATOM     32  C   UNL A   1      38.606  32.677  32.151  1.00  0.00     0.031 A 
ATOM     33  C   UNL A   1      38.928  33.039  33.543  1.00  0.00     0.074 A 
ATOM     34  C   UNL A   1      39.223  31.714  31.434  1.00  0.00     0.049 A 
ATOM     35  N   UNL A   1      39.830  32.530  34.321  1.00  0.00    -0.248 NA
ATOM     36  C   UNL A   1      38.108  34.095  34.158  1.00  0.00     0.031 C 
ATOM     37  C   UNL A   1      38.858  31.282  30.072  1.00  0.00     0.029 A 
ATOM     38  N   UNL A   1      40.219  30.845  31.779  1.00  0.00    -0.354 N 
ATOM     39  C   UNL A   1      39.679  33.202  35.520  1.00  0.00     0.074 A 
ATOM     40  C   UNL A   1      38.647  34.190  35.356  1.00  0.00     0.031 C 
ATOM     41  C   UNL A   1      39.534  30.167  29.755  1.00  0.00     0.029 A 
ATOM     42  C   UNL A   1      40.462  29.874  30.833  1.00  0.00     0.049 A 
ATOM     43  H   UNL A   1      40.717  30.908  32.626  1.00  0.00     0.167 HD
ATOM     44  C   UNL A   1      40.352  32.984  36.663  1.00  0.00     0.037 A 
ATOM     45  C   UNL A   1      41.357  28.870  30.847  1.00  0.00     0.037 A 
ATOM     46  C   UNL A   1      41.403  32.016  36.745  1.00  0.00     0.049 A 
ATOM     47  C   UNL A   1      42.208  28.767  32.081  1.00  0.00     0.074 A 
ATOM     48  C   UNL A   1      42.260  31.764  37.792  1.00  0.00     0.029 A 
ATOM     49  N   UNL A   1      41.751  31.154  35.708  1.00  0.00    -0.354 N 
ATOM     50  N   UNL A   1      42.119  29.459  33.195  1.00  0.00    -0.248 NA
ATOM     51  C   UNL A   1      43.282  27.776  32.062  1.00  0.00     0.031 C 
ATOM     52  C   UNL A   1      43.183  30.808  37.357  1.00  0.00     0.029 A 
ATOM     53  C   UNL A   1      42.834  30.386  36.079  1.00  0.00     0.049 A 
ATOM     54  H   UNL A   1      41.291  31.101  34.839  1.00  0.00     0.167 HD
ATOM     55  C   UNL A   1      43.108  28.965  34.030  1.00  0.00     0.074 A 
ATOM     56  C   UNL A   1      43.770  27.904  33.288  1.00  0.00     0.031 C 
ATOM     57  C   UNL A   1      43.443  29.341  35.289  1.00  0.00     0.037 A 
BRANCH  44  58
ATOM     58  C   UNL A   1      40.030  33.900  37.800  1.00  0.00     0.058 A 
ATOM     59  C   UNL A   1      40.724  35.104  38.016  1.00  0.00     0.135 A 
ATOM     60  C   UNL A   1      39.092  33.499  38.762  1.00  0.00     0.135 A 
ATOM     61  F   UNL A   1      41.685  35.496  37.164  1.00  0.00    -0.206 F 
ATOM     62  C   UNL A   1      40.517  35.862  39.163  1.00  0.00     0.059 A 
ATOM     63  C   UNL A   1      38.837  34.264  39.891  1.00  0.00     0.059 A 
ATOM     64  F   UNL A   1      38.443  32.333  38.629  1.00  0.00    -0.206 F 
ATOM     65  C   UNL A   1      39.564  35.437  40.089  1.00  0.00     0.060 A 
BRANCH  65  66
ATOM     66  S   UNL A   1      39.281  36.447  41.553  1.00  0.00     0.124 S 
ATOM     67  O   UNL A   1      38.017  35.906  42.045  1.00  0.00    -0.237 OA
ATOM     68  O   UNL A   1      40.458  36.148  42.362  1.00  0.00    -0.237 OA
ATOM     69  O   UNL A   1      39.216  37.805  41.022  1.00  0.00    -0.744 OA
ENDBRANCH  65  66
ENDBRANCH  44  58
BRANCH  45  70
ATOM     70  C   UNL A   1      41.519  27.953  29.683  1.00  0.00     0.058 A 
ATOM     71  C   UNL A   1      40.571  26.962  29.385  1.00  0.00     0.135 A 
ATOM     72  C   UNL A   1      42.643  28.038  28.841  1.00  0.00     0.135 A 
ATOM     73  F   UNL A   1      39.479  26.826  30.154  1.00  0.00    -0.206 F 
ATOM     74  C   UNL A   1      40.734  26.086  28.313  1.00  0.00     0.059 A 
ATOM     75  C   UNL A   1      42.812  27.200  27.743  1.00  0.00     0.059 A 
ATOM     76  F   UNL A   1      43.585  28.967  29.068  1.00  0.00    -0.206 F 
ATOM     77  C   UNL A   1      41.856  26.218  27.493  1.00  0.00     0.060 A 
BRANCH  77  78
ATOM     78  S   UNL A   1      42.034  25.109  26.079  1.00  0.00     0.124 S 
ATOM     79  O   UNL A   1      43.468  24.839  26.091  1.00  0.00    -0.237 OA
ATOM     80  O   UNL A   1      41.170  23.996  26.459  1.00  0.00    -0.237 OA
ATOM     81  O   UNL A   1      41.555  25.912  24.958  1.00  0.00    -0.744 OA
ENDBRANCH  77  78
ENDBRANCH  45  70
BRANCH  57  82
ATOM     82  C   UNL A   1      44.519  28.542  35.961  1.00  0.00     0.058 A 
ATOM     83  C   UNL A   1      45.875  28.885  35.869  1.00  0.00     0.135 A 
ATOM     84  C   UNL A   1      44.162  27.439  36.754  1.00  0.00     0.135 A 
ATOM     85  F   UNL A   1      46.263  29.930  35.121  1.00  0.00    -0.206 F 
ATOM     86  C   UNL A   1      46.849  28.127  36.504  1.00  0.00     0.059 A 
ATOM     87  C   UNL A   1      45.113  26.703  37.441  1.00  0.00     0.059 A 
ATOM     88  F   UNL A   1      42.872  27.086  36.886  1.00  0.00    -0.206 F 
ATOM     89  C   UNL A   1      46.456  27.042  37.291  1.00  0.00     0.060 A 
BRANCH  89  90
ATOM     90  S   UNL A   1      47.730  26.084  38.128  1.00  0.00     0.124 S 
ATOM     91  O   UNL A   1      47.771  26.732  39.434  1.00  0.00    -0.237 OA
ATOM     92  O   UNL A   1      47.166  24.738  38.103  1.00  0.00    -0.237 OA
ATOM     93  O   UNL A   1      48.909  26.282  37.291  1.00  0.00    -0.744 OA
ENDBRANCH  89  90
ENDBRANCH  57  82
ENDBRANCH  31  32
ENDBRANCH  24  26
ENDBRANCH  23  24
ENDBRANCH  22  23
ENDBRANCH  21  22
ENDBRANCH  20  21
ENDBRANCH  19  20
ENDBRANCH   1  19
TORSDOF 23
ENDMDL
MODEL 3
REMARK VINA RESULT:      -8.7      2.076      8.923
REMARK SMILES CN(CC(=O)OCCOCCOCCOC(=O)c1ccc(-c2c3nc(c(-c4c(F)cc(S(=O)(=O)[O-])cc4F)c4ccc([nH]4)c(-c4c(F)cc(S(=O)(=O)[O-])cc4F)c4nc(c(-c5c(F)cc(S(=O)(=O)[O-])cc5F)c5ccc2[nH]5)C=C4)C=C3)cc1)C(=O)c1ccccn1
REMARK SMILES IDX 10 1 9 2 8 3 7 4 6 5 4 6 5 7 3 8 2 9 1 10 84 11 85 12 86 13
REMARK SMILES IDX 87 14 91 15 88 16 90 17 89 18 11 19 12 20 13 21 14 22 15 23
REMARK SMILES IDX 16 24 17 25 18 26 19 27 83 28 20 29 82 30 21 31 22 32 23 33
REMARK SMILES IDX 76 34 24 35 81 36 75 37 77 38 25 39 80 40 74 41 73 42 26 44
REMARK SMILES IDX 60 45 39 46 59 47 40 48 43 49 58 50 78 51 41 52 42 53 57 55
REMARK SMILES IDX 79 56 44 57 27 58 28 59 37 60 29 61 30 62 36 63 38 64 31 65
REMARK SMILES IDX 32 66 33 67 34 68 35 69 61 70 62 71 71 72 63 73 64 74 70 75
REMARK SMILES IDX 72 76 65 77 66 78 67 79 68 80 69 81 45 82 46 83 55 84 47 85
REMARK SMILES IDX 48 86 54 87 56 88 49 89 50 90 51 91 52 92 53 93
REMARK H PARENT 77 43 43 54
REMARK Flexibility Score: inf
ROOT
ATOM      1  C   UNL A   1      34.790  29.093  27.094  1.00  0.00     0.188 C 
ENDROOT
BRANCH   1   2
ATOM      2  O   UNL A   1      33.785  28.699  26.194  1.00  0.00    -0.376 OA
BRANCH   2   3
ATOM      3  C   UNL A   1      33.332  27.368  26.373  1.00  0.00     0.202 C 
BRANCH   3   4
ATOM      4  C   UNL A   1      31.815  27.103  26.667  1.00  0.00     0.261 C 
BRANCH   4   5
ATOM      5  O   UNL A   1      31.368  25.763  27.099  1.00  0.00    -0.462 OA
BRANCH   5   6
ATOM      6  C   UNL A   1      30.641  24.975  26.249  1.00  0.00     0.325 C 
ATOM      7  O   UNL A   1      30.439  23.784  26.483  1.00  0.00    -0.250 OA
BRANCH   6   8
ATOM      8  C   UNL A   1      30.027  25.644  24.922  1.00  0.00     0.242 C 
BRANCH   8   9
ATOM      9  N   UNL A   1      30.643  26.048  23.600  1.00  0.00    -0.329 N 
ATOM     10  C   UNL A   1      31.264  24.946  22.872  1.00  0.00     0.147 C 
BRANCH   9  11
ATOM     11  C   UNL A   1      30.526  27.239  22.778  1.00  0.00     0.272 C 
ATOM     12  O   UNL A   1      30.986  27.230  21.632  1.00  0.00    -0.267 OA
BRANCH  11  13
ATOM     13  C   UNL A   1      29.887  28.541  23.206  1.00  0.00     0.128 A 
ATOM     14  C   UNL A   1      28.345  28.966  22.506  1.00  0.00     0.034 A 
ATOM     15  N   UNL A   1      30.804  29.640  24.250  1.00  0.00    -0.251 NA
ATOM     16  C   UNL A   1      27.519  30.436  22.780  1.00  0.00     0.004 A 
ATOM     17  C   UNL A   1      30.099  31.239  24.607  1.00  0.00     0.112 A 
ATOM     18  C   UNL A   1      28.294  31.624  23.786  1.00  0.00     0.020 A 
ENDBRANCH  11  13
ENDBRANCH   9  11
ENDBRANCH   8   9
ENDBRANCH   6   8
ENDBRANCH   5   6
ENDBRANCH   4   5
ENDBRANCH   3   4
ENDBRANCH   2   3
ENDBRANCH   1   2
BRANCH   1  19
ATOM     19  C   UNL A   1      34.810  30.572  27.520  1.00  0.00     0.188 C 
BRANCH  19  20
ATOM     20  O   UNL A   1      33.639  31.111  28.037  1.00  0.00    -0.376 OA
BRANCH  20  21
ATOM     21  C   UNL A   1      32.907  31.978  27.205  1.00  0.00     0.202 C 
BRANCH  21  22
ATOM     22  C   UNL A   1      32.500  33.422  27.596  1.00  0.00     0.261 C 
BRANCH  22  23
ATOM     23  O   UNL A   1      33.512  34.403  27.923  1.00  0.00    -0.460 OA
BRANCH  23  24
ATOM     24  C   UNL A   1      33.641  34.746  29.247  1.00  0.00     0.338 C 
ATOM     25  O   UNL A   1      33.113  35.730  29.726  1.00  0.00    -0.246 OA
BRANCH  24  26
ATOM     26  C   UNL A   1      34.552  33.634  29.917  1.00  0.00     0.060 A 
ATOM     27  C   UNL A   1      34.598  32.359  31.509  1.00  0.00     0.016 A 
ATOM     28  C   UNL A   1      36.148  34.352  29.427  1.00  0.00     0.016 A 
ATOM     29  C   UNL A   1      36.117  32.040  32.333  1.00  0.00     0.010 A 
ATOM     30  C   UNL A   1      37.583  33.919  30.331  1.00  0.00     0.010 A 
ATOM     31  C   UNL A   1      37.549  32.794  31.705  1.00  0.00    -0.014 A 
BRANCH  31  32
ATOM     32  C   UNL A   1      38.747  32.337  32.391  1.00  0.00     0.031 A 
ATOM     33  C   UNL A   1      39.683  31.538  31.580  1.00  0.00     0.074 A 
ATOM     34  C   UNL A   1      39.030  32.888  33.590  1.00  0.00     0.049 A 
ATOM     35  N   UNL A   1      40.910  31.218  31.845  1.00  0.00    -0.248 NA
ATOM     36  C   UNL A   1      39.188  31.059  30.280  1.00  0.00     0.031 C 
ATOM     37  C   UNL A   1      38.135  33.759  34.375  1.00  0.00     0.029 A 
ATOM     38  N   UNL A   1      40.185  32.892  34.319  1.00  0.00    -0.354 N 
ATOM     39  C   UNL A   1      41.333  30.504  30.739  1.00  0.00     0.074 A 
ATOM     40  C   UNL A   1      40.226  30.386  29.829  1.00  0.00     0.031 C 
ATOM     41  C   UNL A   1      38.813  34.298  35.399  1.00  0.00     0.029 A 
ATOM     42  C   UNL A   1      40.146  33.725  35.417  1.00  0.00     0.049 A 
ATOM     43  H   UNL A   1      40.973  32.351  34.082  1.00  0.00     0.167 HD
ATOM     44  C   UNL A   1      42.562  30.008  30.515  1.00  0.00     0.037 A 
ATOM     45  C   UNL A   1      41.095  33.971  36.337  1.00  0.00     0.037 A 
ATOM     46  C   UNL A   1      43.607  30.118  31.486  1.00  0.00     0.049 A 
ATOM     47  C   UNL A   1      42.403  33.259  36.139  1.00  0.00     0.074 A 
ATOM     48  C   UNL A   1      44.866  29.562  31.463  1.00  0.00     0.029 A 
ATOM     49  N   UNL A   1      43.489  30.825  32.681  1.00  0.00    -0.354 N 
ATOM     50  N   UNL A   1      42.782  32.514  35.125  1.00  0.00    -0.248 NA
ATOM     51  C   UNL A   1      43.399  33.399  37.200  1.00  0.00     0.031 C 
ATOM     52  C   UNL A   1      45.479  29.861  32.683  1.00  0.00     0.029 A 
ATOM     53  C   UNL A   1      44.646  30.694  33.420  1.00  0.00     0.049 A 
ATOM     54  H   UNL A   1      42.698  31.342  32.956  1.00  0.00     0.167 HD
ATOM     55  C   UNL A   1      44.079  32.117  35.408  1.00  0.00     0.074 A 
ATOM     56  C   UNL A   1      44.417  32.723  36.685  1.00  0.00     0.031 C 
ATOM     57  C   UNL A   1      44.918  31.331  34.687  1.00  0.00     0.037 A 
BRANCH  44  58
ATOM     58  C   UNL A   1      42.733  29.220  29.256  1.00  0.00     0.058 A 
ATOM     59  C   UNL A   1      42.985  29.831  28.014  1.00  0.00     0.135 A 
ATOM     60  C   UNL A   1      42.513  27.835  29.276  1.00  0.00     0.135 A 
ATOM     61  F   UNL A   1      43.128  31.164  27.930  1.00  0.00    -0.206 F 
ATOM     62  C   UNL A   1      42.984  29.097  26.834  1.00  0.00     0.059 A 
ATOM     63  C   UNL A   1      42.554  27.077  28.115  1.00  0.00     0.059 A 
ATOM     64  F   UNL A   1      42.217  27.214  30.427  1.00  0.00    -0.206 F 
ATOM     65  C   UNL A   1      42.777  27.719  26.898  1.00  0.00     0.060 A 
BRANCH  65  66
ATOM     66  S   UNL A   1      42.813  26.774  25.364  1.00  0.00     0.124 S 
ATOM     67  O   UNL A   1      43.025  27.825  24.374  1.00  0.00    -0.237 OA
ATOM     68  O   UNL A   1      43.941  25.875  25.587  1.00  0.00    -0.237 OA
ATOM     69  O   UNL A   1      41.502  26.134  25.328  1.00  0.00    -0.744 OA
ENDBRANCH  65  66
ENDBRANCH  44  58
BRANCH  45  70
ATOM     70  C   UNL A   1      40.837  34.860  37.506  1.00  0.00     0.058 A 
ATOM     71  C   UNL A   1      40.211  34.388  38.669  1.00  0.00     0.135 A 
ATOM     72  C   UNL A   1      41.202  36.219  37.481  1.00  0.00     0.135 A 
ATOM     73  F   UNL A   1      39.833  33.102  38.753  1.00  0.00    -0.206 F 
ATOM     74  C   UNL A   1      39.944  35.224  39.753  1.00  0.00     0.059 A 
ATOM     75  C   UNL A   1      40.980  37.066  38.563  1.00  0.00     0.059 A 
ATOM     76  F   UNL A   1      41.809  36.733  36.400  1.00  0.00    -0.206 F 
ATOM     77  C   UNL A   1      40.340  36.561  39.692  1.00  0.00     0.060 A 
BRANCH  77  78
ATOM     78  S   UNL A   1      40.032  37.624  41.120  1.00  0.00     0.124 S 
ATOM     79  O   UNL A   1      41.385  37.862  41.610  1.00  0.00    -0.237 OA
ATOM     80  O   UNL A   1      39.364  38.767  40.505  1.00  0.00    -0.237 OA
ATOM     81  O   UNL A   1      39.187  36.799  41.977  1.00  0.00    -0.744 OA
ENDBRANCH  77  78
ENDBRANCH  45  70
BRANCH  57  82
ATOM     82  C   UNL A   1      46.304  31.158  35.234  1.00  0.00     0.058 A 
ATOM     83  C   UNL A   1      47.351  32.034  34.913  1.00  0.00     0.135 A 
ATOM     84  C   UNL A   1      46.560  30.115  36.138  1.00  0.00     0.135 A 
ATOM     85  F   UNL A   1      47.152  33.044  34.052  1.00  0.00    -0.206 F 
ATOM     86  C   UNL A   1      48.622  31.849  35.436  1.00  0.00     0.059 A 
ATOM     87  C   UNL A   1      47.808  29.947  36.715  1.00  0.00     0.059 A 
ATOM     88  F   UNL A   1      45.582  29.263  36.489  1.00  0.00    -0.206 F 
ATOM     89  C   UNL A   1      48.838  30.806  36.340  1.00  0.00     0.060 A 
BRANCH  89  90
ATOM     90  S   UNL A   1      50.488  30.595  37.028  1.00  0.00     0.124 S 
ATOM     91  O   UNL A   1      50.860  31.975  37.321  1.00  0.00    -0.237 OA
ATOM     92  O   UNL A   1      50.231  29.746  38.187  1.00  0.00    -0.237 OA
ATOM     93  O   UNL A   1      51.231  29.961  35.944  1.00  0.00    -0.744 OA
ENDBRANCH  89  90
ENDBRANCH  57  82
ENDBRANCH  31  32
ENDBRANCH  24  26
ENDBRANCH  23  24
ENDBRANCH  22  23
ENDBRANCH  21  22
ENDBRANCH  20  21
ENDBRANCH  19  20
ENDBRANCH   1  19
TORSDOF 23
ENDMDL
