MODEL 1
REMARK VINA RESULT:     -11.0      0.000      0.000
REMARK SMILES O=C(OCCOCCOCCOC(=O)[C@@H]1[C@H](C(=O)NCc2ccccc2Cl)[C@@H]2C=C[C@H]1C2)c1ccc(-c2c3nc(c(-c4c(F)cc(S(=O)(=O)[O-])cc4F)c4ccc([nH]4)c(-c4c(F)cc(S(=O)(=O)[O-])cc4F)c4nc(c(-c5c(F)cc(S(=O)(=O)[O-])cc5F)c5ccc2[nH]5)C=C4)C=C3)cc1
REMARK SMILES IDX 7 1 6 2 5 3 4 4 3 5 2 6 1 7 33 8 34 9 98 10 35 11 97 12
REMARK SMILES IDX 36 13 37 14 38 15 91 16 39 17 96 18 90 19 92 20 40 21 95 22
REMARK SMILES IDX 89 23 88 24 41 26 75 27 54 28 74 29 55 30 58 31 73 32 93 33
REMARK SMILES IDX 56 34 57 35 72 37 94 38 59 39 42 40 43 41 52 42 44 43 45 44
REMARK SMILES IDX 51 45 53 46 46 47 47 48 48 49 49 50 50 51 76 52 77 53 86 54
REMARK SMILES IDX 78 55 79 56 85 57 87 58 80 59 81 60 82 61 83 62 84 63 60 64
REMARK SMILES IDX 61 65 70 66 62 67 63 68 69 69 71 70 64 71 65 72 66 73 67 74
REMARK SMILES IDX 68 75 8 76 9 77 10 78 11 79 12 80 13 81 14 82 15 83 16 84
REMARK SMILES IDX 31 85 28 86 30 87 32 88 29 89 17 90 18 91 19 92 20 94 21 95
REMARK SMILES IDX 22 96 26 97 23 98 25 99 27 100 24 101
REMARK H PARENT 92 25 58 36 19 93
REMARK Flexibility Score: inf
ROOT
ATOM      1  C   UNL A   1      37.205  22.651  25.250  1.00  0.00     0.188 C 
ENDROOT
BRANCH   1   2
ATOM      2  O   UNL A   1      37.055  21.338  24.642  1.00  0.00    -0.376 OA
BRANCH   2   3
ATOM      3  C   UNL A   1      38.049  20.313  24.875  1.00  0.00     0.202 C 
BRANCH   3   4
ATOM      4  C   UNL A   1      39.270  20.639  25.730  1.00  0.00     0.261 C 
BRANCH   4   5
ATOM      5  O   UNL A   1      40.204  19.591  25.992  1.00  0.00    -0.460 OA
BRANCH   5   6
ATOM      6  C   UNL A   1      41.548  19.642  26.108  1.00  0.00     0.338 C 
ATOM      7  O   UNL A   1      42.190  18.609  25.934  1.00  0.00    -0.246 OA
BRANCH   6   8
ATOM      8  C   UNL A   1      42.274  20.882  26.499  1.00  0.00     0.060 A 
ATOM      9  C   UNL A   1      42.292  21.419  27.789  1.00  0.00     0.016 A 
ATOM     10  C   UNL A   1      42.964  21.557  25.481  1.00  0.00     0.016 A 
ATOM     11  C   UNL A   1      43.117  22.500  28.095  1.00  0.00     0.010 A 
ATOM     12  C   UNL A   1      43.658  22.738  25.749  1.00  0.00     0.010 A 
ATOM     13  C   UNL A   1      43.741  23.213  27.061  1.00  0.00    -0.014 A 
BRANCH  13  14
ATOM     14  C   UNL A   1      44.054  24.639  27.316  1.00  0.00     0.031 A 
ATOM     15  C   UNL A   1      45.485  25.020  27.099  1.00  0.00     0.074 A 
ATOM     16  C   UNL A   1      43.138  25.560  27.665  1.00  0.00     0.049 A 
ATOM     17  N   UNL A   1      46.026  26.203  27.057  1.00  0.00    -0.248 NA
ATOM     18  C   UNL A   1      46.427  23.914  26.837  1.00  0.00     0.031 C 
ATOM     19  C   UNL A   1      41.729  25.286  27.853  1.00  0.00     0.029 A 
ATOM     20  N   UNL A   1      43.237  26.905  27.905  1.00  0.00    -0.354 N 
ATOM     21  C   UNL A   1      47.346  25.982  26.701  1.00  0.00     0.074 A 
ATOM     22  C   UNL A   1      47.530  24.564  26.520  1.00  0.00     0.031 C 
ATOM     23  C   UNL A   1      41.068  26.418  28.142  1.00  0.00     0.029 A 
ATOM     24  C   UNL A   1      42.038  27.499  28.236  1.00  0.00     0.049 A 
ATOM     25  H   UNL A   1      44.086  27.401  27.847  1.00  0.00     0.167 HD
ATOM     26  C   UNL A   1      48.339  26.886  26.592  1.00  0.00     0.037 A 
ATOM     27  C   UNL A   1      41.772  28.768  28.604  1.00  0.00     0.037 A 
ATOM     28  C   UNL A   1      48.178  28.253  26.982  1.00  0.00     0.049 A 
ATOM     29  C   UNL A   1      42.935  29.725  28.641  1.00  0.00     0.074 A 
ATOM     30  C   UNL A   1      49.137  29.240  27.070  1.00  0.00     0.029 A 
ATOM     31  N   UNL A   1      46.979  28.803  27.423  1.00  0.00    -0.354 N 
ATOM     32  N   UNL A   1      44.186  29.508  28.299  1.00  0.00    -0.248 NA
ATOM     33  C   UNL A   1      42.670  31.083  29.125  1.00  0.00     0.031 C 
ATOM     34  C   UNL A   1      48.533  30.367  27.636  1.00  0.00     0.029 A 
ATOM     35  C   UNL A   1      47.181  30.110  27.818  1.00  0.00     0.049 A 
ATOM     36  H   UNL A   1      46.116  28.331  27.449  1.00  0.00     0.167 HD
ATOM     37  C   UNL A   1      44.852  30.707  28.502  1.00  0.00     0.074 A 
ATOM     38  C   UNL A   1      43.862  31.649  28.990  1.00  0.00     0.031 C 
ATOM     39  C   UNL A   1      46.159  31.009  28.303  1.00  0.00     0.037 A 
BRANCH  26  40
ATOM     40  C   UNL A   1      49.676  26.349  26.186  1.00  0.00     0.058 A 
ATOM     41  C   UNL A   1      50.548  25.761  27.120  1.00  0.00     0.135 A 
ATOM     42  C   UNL A   1      50.136  26.526  24.873  1.00  0.00     0.135 A 
ATOM     43  F   UNL A   1      50.178  25.631  28.404  1.00  0.00    -0.206 F 
ATOM     44  C   UNL A   1      51.838  25.384  26.765  1.00  0.00     0.059 A 
ATOM     45  C   UNL A   1      51.413  26.133  24.493  1.00  0.00     0.059 A 
ATOM     46  F   UNL A   1      49.359  27.128  23.960  1.00  0.00    -0.206 F 
ATOM     47  C   UNL A   1      52.260  25.575  25.448  1.00  0.00     0.060 A 
BRANCH  47  48
ATOM     48  S   UNL A   1      53.940  25.087  25.006  1.00  0.00     0.124 S 
ATOM     49  O   UNL A   1      53.831  23.631  25.006  1.00  0.00    -0.237 OA
ATOM     50  O   UNL A   1      54.107  25.710  23.697  1.00  0.00    -0.237 OA
ATOM     51  O   UNL A   1      54.752  25.655  26.077  1.00  0.00    -0.744 OA
ENDBRANCH  47  48
ENDBRANCH  26  40
BRANCH  27  52
ATOM     52  C   UNL A   1      40.395  29.180  29.007  1.00  0.00     0.058 A 
ATOM     53  C   UNL A   1      40.014  29.277  30.354  1.00  0.00     0.135 A 
ATOM     54  C   UNL A   1      39.419  29.487  28.041  1.00  0.00     0.135 A 
ATOM     55  F   UNL A   1      40.894  28.981  31.322  1.00  0.00    -0.206 F 
ATOM     56  C   UNL A   1      38.724  29.653  30.729  1.00  0.00     0.059 A 
ATOM     57  C   UNL A   1      38.133  29.892  28.391  1.00  0.00     0.059 A 
ATOM     58  F   UNL A   1      39.717  29.413  26.734  1.00  0.00    -0.206 F 
ATOM     59  C   UNL A   1      37.790  29.966  29.738  1.00  0.00     0.060 A 
BRANCH  59  60
ATOM     60  S   UNL A   1      36.137  30.503  30.233  1.00  0.00     0.124 S 
ATOM     61  O   UNL A   1      35.308  29.923  29.183  1.00  0.00    -0.237 OA
ATOM     62  O   UNL A   1      36.003  29.904  31.557  1.00  0.00    -0.237 OA
ATOM     63  O   UNL A   1      36.239  31.960  30.222  1.00  0.00    -0.744 OA
ENDBRANCH  59  60
ENDBRANCH  27  52
BRANCH  39  64
ATOM     64  C   UNL A   1      46.587  32.420  28.571  1.00  0.00     0.058 A 
ATOM     65  C   UNL A   1      47.002  32.841  29.843  1.00  0.00     0.135 A 
ATOM     66  C   UNL A   1      46.672  33.334  27.508  1.00  0.00     0.135 A 
ATOM     67  F   UNL A   1      46.936  32.004  30.889  1.00  0.00    -0.206 F 
ATOM     68  C   UNL A   1      47.474  34.131  30.054  1.00  0.00     0.059 A 
ATOM     69  C   UNL A   1      47.174  34.615  27.690  1.00  0.00     0.059 A 
ATOM     70  F   UNL A   1      46.301  32.968  26.270  1.00  0.00    -0.206 F 
ATOM     71  C   UNL A   1      47.563  35.006  28.969  1.00  0.00     0.060 A 
BRANCH  71  72
ATOM     72  S   UNL A   1      48.227  36.660  29.248  1.00  0.00     0.124 S 
ATOM     73  O   UNL A   1      49.086  36.439  30.407  1.00  0.00    -0.237 OA
ATOM     74  O   UNL A   1      48.913  36.935  27.990  1.00  0.00    -0.237 OA
ATOM     75  O   UNL A   1      47.035  37.467  29.495  1.00  0.00    -0.744 OA
ENDBRANCH  71  72
ENDBRANCH  39  64
ENDBRANCH  13  14
ENDBRANCH   6   8
ENDBRANCH   5   6
ENDBRANCH   4   5
ENDBRANCH   3   4
ENDBRANCH   2   3
ENDBRANCH   1   2
BRANCH   1  76
ATOM     76  C   UNL A   1      36.005  23.752  25.027  1.00  0.00     0.188 C 
BRANCH  76  77
ATOM     77  O   UNL A   1      35.411  23.830  23.704  1.00  0.00    -0.376 OA
BRANCH  77  78
ATOM     78  C   UNL A   1      33.989  23.523  23.413  1.00  0.00     0.202 C 
BRANCH  78  79
ATOM     79  C   UNL A   1      32.931  24.487  22.712  1.00  0.00     0.261 C 
BRANCH  79  80
ATOM     80  O   UNL A   1      32.445  25.520  23.545  1.00  0.00    -0.463 OA
BRANCH  80  81
ATOM     81  C   UNL A   1      33.315  26.525  23.753  1.00  0.00     0.310 C 
ATOM     82  O   UNL A   1      33.960  27.099  22.907  1.00  0.00    -0.252 OA
BRANCH  81  83
ATOM     83  C   UNL A   1      33.342  26.779  25.212  1.00  0.00     0.119 C 
ATOM     84  C   UNL A   1      31.975  26.696  26.003  1.00  0.00     0.100 C 
ATOM     85  C   UNL A   1      33.949  28.164  25.581  1.00  0.00     0.027 C 
ATOM     86  C   UNL A   1      32.074  28.058  26.830  1.00  0.00     0.025 C 
ATOM     87  C   UNL A   1      33.079  29.332  25.190  1.00  0.00    -0.027 C 
ATOM     88  C   UNL A   1      33.614  28.187  27.073  1.00  0.00     0.017 C 
ATOM     89  C   UNL A   1      31.992  29.298  25.976  1.00  0.00    -0.027 C 
BRANCH  84  90
ATOM     90  C   UNL A   1      30.580  25.756  25.785  1.00  0.00     0.224 C 
ATOM     91  O   UNL A   1      30.479  24.825  26.615  1.00  0.00    -0.275 OA
ATOM     92  N   UNL A   1      29.501  25.632  24.941  1.00  0.00    -0.352 N 
ATOM     93  H   UNL A   1      29.035  24.780  25.105  1.00  0.00     0.163 HD
BRANCH  92  94
ATOM     94  C   UNL A   1      28.842  26.373  23.886  1.00  0.00     0.153 C 
BRANCH  94  95
ATOM     95  C   UNL A   1      28.875  27.811  23.395  1.00  0.00    -0.010 A 
ATOM     96  C   UNL A   1      30.178  28.315  23.050  1.00  0.00     0.007 A 
ATOM     97  C   UNL A   1      27.794  28.586  23.018  1.00  0.00     0.046 A 
ATOM     98  C   UNL A   1      30.372  29.410  22.206  1.00  0.00     0.000 A 
ATOM     99  C   UNL A   1      27.987  29.699  22.178  1.00  0.00     0.021 A 
ATOM    100  Cl  UNL A   1      26.210  28.216  23.561  1.00  0.00    -0.084 Cl
ATOM    101  C   UNL A   1      29.261  30.077  21.729  1.00  0.00     0.002 A 
ENDBRANCH  94  95
ENDBRANCH  92  94
ENDBRANCH  84  90
ENDBRANCH  81  83
ENDBRANCH  80  81
ENDBRANCH  79  80
ENDBRANCH  78  79
ENDBRANCH  77  78
ENDBRANCH  76  77
ENDBRANCH   1  76
TORSDOF 23
ENDMDL
MODEL 2
REMARK VINA RESULT:     -10.7      1.212      2.430
REMARK SMILES O=C(OCCOCCOCCOC(=O)[C@@H]1[C@H](C(=O)NCc2ccccc2Cl)[C@@H]2C=C[C@H]1C2)c1ccc(-c2c3nc(c(-c4c(F)cc(S(=O)(=O)[O-])cc4F)c4ccc([nH]4)c(-c4c(F)cc(S(=O)(=O)[O-])cc4F)c4nc(c(-c5c(F)cc(S(=O)(=O)[O-])cc5F)c5ccc2[nH]5)C=C4)C=C3)cc1
REMARK SMILES IDX 7 1 6 2 5 3 4 4 3 5 2 6 1 7 33 8 34 9 98 10 35 11 97 12
REMARK SMILES IDX 36 13 37 14 38 15 91 16 39 17 96 18 90 19 92 20 40 21 95 22
REMARK SMILES IDX 89 23 88 24 41 26 75 27 54 28 74 29 55 30 58 31 73 32 93 33
REMARK SMILES IDX 56 34 57 35 72 37 94 38 59 39 42 40 43 41 52 42 44 43 45 44
REMARK SMILES IDX 51 45 53 46 46 47 47 48 48 49 49 50 50 51 76 52 77 53 86 54
REMARK SMILES IDX 78 55 79 56 85 57 87 58 80 59 81 60 82 61 83 62 84 63 60 64
REMARK SMILES IDX 61 65 70 66 62 67 63 68 69 69 71 70 64 71 65 72 66 73 67 74
REMARK SMILES IDX 68 75 8 76 9 77 10 78 11 79 12 80 13 81 14 82 15 83 16 84
REMARK SMILES IDX 31 85 28 86 30 87 32 88 29 89 17 90 18 91 19 92 20 94 21 95
REMARK SMILES IDX 22 96 26 97 23 98 25 99 27 100 24 101
REMARK H PARENT 92 25 58 36 19 93
REMARK Flexibility Score: inf
ROOT
ATOM      1  C   UNL A   1      37.099  22.708  25.141  1.00  0.00     0.188 C 
ENDROOT
BRANCH   1   2
ATOM      2  O   UNL A   1      36.870  21.308  24.817  1.00  0.00    -0.376 OA
BRANCH   2   3
ATOM      3  C   UNL A   1      37.918  20.333  25.026  1.00  0.00     0.202 C 
BRANCH   3   4
ATOM      4  C   UNL A   1      39.198  20.758  25.739  1.00  0.00     0.261 C 
BRANCH   4   5
ATOM      5  O   UNL A   1      40.144  19.743  26.080  1.00  0.00    -0.460 OA
BRANCH   5   6
ATOM      6  C   UNL A   1      41.492  19.796  26.113  1.00  0.00     0.338 C 
ATOM      7  O   UNL A   1      42.124  18.768  25.879  1.00  0.00    -0.246 OA
BRANCH   6   8
ATOM      8  C   UNL A   1      42.239  21.029  26.483  1.00  0.00     0.060 A 
ATOM      9  C   UNL A   1      42.341  21.538  27.780  1.00  0.00     0.016 A 
ATOM     10  C   UNL A   1      42.858  21.730  25.436  1.00  0.00     0.016 A 
ATOM     11  C   UNL A   1      43.181  22.617  28.054  1.00  0.00     0.010 A 
ATOM     12  C   UNL A   1      43.565  22.907  25.683  1.00  0.00     0.010 A 
ATOM     13  C   UNL A   1      43.733  23.354  26.997  1.00  0.00    -0.014 A 
BRANCH  13  14
ATOM     14  C   UNL A   1      44.058  24.776  27.262  1.00  0.00     0.031 A 
ATOM     15  C   UNL A   1      45.494  25.145  27.055  1.00  0.00     0.074 A 
ATOM     16  C   UNL A   1      43.149  25.703  27.612  1.00  0.00     0.049 A 
ATOM     17  N   UNL A   1      46.046  26.323  27.022  1.00  0.00    -0.248 NA
ATOM     18  C   UNL A   1      46.427  24.031  26.791  1.00  0.00     0.031 C 
ATOM     19  C   UNL A   1      41.736  25.442  27.790  1.00  0.00     0.029 A 
ATOM     20  N   UNL A   1      43.260  27.045  27.860  1.00  0.00    -0.354 N 
ATOM     21  C   UNL A   1      47.366  26.091  26.673  1.00  0.00     0.074 A 
ATOM     22  C   UNL A   1      47.538  24.672  26.484  1.00  0.00     0.031 C 
ATOM     23  C   UNL A   1      41.085  26.578  28.082  1.00  0.00     0.029 A 
ATOM     24  C   UNL A   1      42.064  27.649  28.188  1.00  0.00     0.049 A 
ATOM     25  H   UNL A   1      44.113  27.534  27.809  1.00  0.00     0.167 HD
ATOM     26  C   UNL A   1      48.368  26.986  26.574  1.00  0.00     0.037 A 
ATOM     27  C   UNL A   1      41.808  28.918  28.562  1.00  0.00     0.037 A 
ATOM     28  C   UNL A   1      48.218  28.353  26.971  1.00  0.00     0.049 A 
ATOM     29  C   UNL A   1      42.980  29.864  28.611  1.00  0.00     0.074 A 
ATOM     30  C   UNL A   1      49.185  29.329  27.070  1.00  0.00     0.029 A 
ATOM     31  N   UNL A   1      47.022  28.912  27.409  1.00  0.00    -0.354 N 
ATOM     32  N   UNL A   1      44.230  29.637  28.274  1.00  0.00    -0.248 NA
ATOM     33  C   UNL A   1      42.725  31.222  29.101  1.00  0.00     0.031 C 
ATOM     34  C   UNL A   1      48.590  30.459  27.639  1.00  0.00     0.029 A 
ATOM     35  C   UNL A   1      47.234  30.214  27.812  1.00  0.00     0.049 A 
ATOM     36  H   UNL A   1      46.155  28.447  27.428  1.00  0.00     0.167 HD
ATOM     37  C   UNL A   1      44.907  30.829  28.488  1.00  0.00     0.074 A 
ATOM     38  C   UNL A   1      43.923  31.777  28.976  1.00  0.00     0.031 C 
ATOM     39  C   UNL A   1      46.218  31.119  28.297  1.00  0.00     0.037 A 
BRANCH  26  40
ATOM     40  C   UNL A   1      49.702  26.439  26.172  1.00  0.00     0.058 A 
ATOM     41  C   UNL A   1      50.543  25.796  27.097  1.00  0.00     0.135 A 
ATOM     42  C   UNL A   1      50.192  26.660  24.877  1.00  0.00     0.135 A 
ATOM     43  F   UNL A   1      50.145  25.621  28.368  1.00  0.00    -0.206 F 
ATOM     44  C   UNL A   1      51.832  25.407  26.752  1.00  0.00     0.059 A 
ATOM     45  C   UNL A   1      51.468  26.257  24.505  1.00  0.00     0.059 A 
ATOM     46  F   UNL A   1      49.445  27.315  23.974  1.00  0.00    -0.206 F 
ATOM     47  C   UNL A   1      52.285  25.643  25.452  1.00  0.00     0.060 A 
BRANCH  47  48
ATOM     48  S   UNL A   1      53.963  25.139  25.023  1.00  0.00     0.124 S 
ATOM     49  O   UNL A   1      54.150  25.810  23.739  1.00  0.00    -0.237 OA
ATOM     50  O   UNL A   1      54.740  25.673  26.136  1.00  0.00    -0.237 OA
ATOM     51  O   UNL A   1      53.876  23.683  24.962  1.00  0.00    -0.744 OA
ENDBRANCH  47  48
ENDBRANCH  26  40
BRANCH  27  52
ATOM     52  C   UNL A   1      40.433  29.342  28.960  1.00  0.00     0.058 A 
ATOM     53  C   UNL A   1      39.425  29.576  28.012  1.00  0.00     0.135 A 
ATOM     54  C   UNL A   1      40.095  29.527  30.312  1.00  0.00     0.135 A 
ATOM     55  F   UNL A   1      39.690  29.434  26.705  1.00  0.00    -0.206 F 
ATOM     56  C   UNL A   1      38.144  29.980  28.384  1.00  0.00     0.059 A 
ATOM     57  C   UNL A   1      38.815  29.903  30.712  1.00  0.00     0.059 A 
ATOM     58  F   UNL A   1      41.013  29.322  31.271  1.00  0.00    -0.206 F 
ATOM     59  C   UNL A   1      37.845  30.136  29.740  1.00  0.00     0.060 A 
BRANCH  59  60
ATOM     60  S   UNL A   1      36.167  30.609  30.217  1.00  0.00     0.124 S 
ATOM     61  O   UNL A   1      35.374  30.012  29.150  1.00  0.00    -0.237 OA
ATOM     62  O   UNL A   1      36.037  29.990  31.533  1.00  0.00    -0.237 OA
ATOM     63  O   UNL A   1      36.218  32.068  30.224  1.00  0.00    -0.744 OA
ENDBRANCH  59  60
ENDBRANCH  27  52
BRANCH  39  64
ATOM     64  C   UNL A   1      46.658  32.525  28.576  1.00  0.00     0.058 A 
ATOM     65  C   UNL A   1      46.568  33.537  27.610  1.00  0.00     0.135 A 
ATOM     66  C   UNL A   1      47.085  32.875  29.868  1.00  0.00     0.135 A 
ATOM     67  F   UNL A   1      46.167  33.250  26.362  1.00  0.00    -0.206 F 
ATOM     68  C   UNL A   1      46.903  34.852  27.913  1.00  0.00     0.059 A 
ATOM     69  C   UNL A   1      47.390  34.187  30.201  1.00  0.00     0.059 A 
ATOM     70  F   UNL A   1      47.171  31.941  30.829  1.00  0.00    -0.206 F 
ATOM     71  C   UNL A   1      47.304  35.166  29.213  1.00  0.00     0.060 A 
BRANCH  71  72
ATOM     72  S   UNL A   1      47.685  36.885  29.605  1.00  0.00     0.124 S 
ATOM     73  O   UNL A   1      46.807  37.127  30.746  1.00  0.00    -0.237 OA
ATOM     74  O   UNL A   1      49.112  36.827  29.902  1.00  0.00    -0.237 OA
ATOM     75  O   UNL A   1      47.333  37.599  28.381  1.00  0.00    -0.744 OA
ENDBRANCH  71  72
ENDBRANCH  39  64
ENDBRANCH  13  14
ENDBRANCH   6   8
ENDBRANCH   5   6
ENDBRANCH   4   5
ENDBRANCH   3   4
ENDBRANCH   2   3
ENDBRANCH   1   2
BRANCH   1  76
ATOM     76  C   UNL A   1      35.797  23.705  25.245  1.00  0.00     0.188 C 
BRANCH  76  77
ATOM     77  O   UNL A   1      35.159  24.099  24.001  1.00  0.00    -0.376 OA
BRANCH  77  78
ATOM     78  C   UNL A   1      34.527  23.148  23.055  1.00  0.00     0.202 C 
BRANCH  78  79
ATOM     79  C   UNL A   1      33.273  23.435  22.113  1.00  0.00     0.261 C 
BRANCH  79  80
ATOM     80  O   UNL A   1      32.024  23.360  22.768  1.00  0.00    -0.463 OA
BRANCH  80  81
ATOM     81  C   UNL A   1      31.412  24.547  22.941  1.00  0.00     0.310 C 
ATOM     82  O   UNL A   1      31.514  25.514  22.223  1.00  0.00    -0.252 OA
BRANCH  81  83
ATOM     83  C   UNL A   1      30.609  24.443  24.181  1.00  0.00     0.119 C 
ATOM     84  C   UNL A   1      29.873  25.745  24.696  1.00  0.00     0.100 C 
ATOM     85  C   UNL A   1      31.426  23.922  25.397  1.00  0.00     0.027 C 
ATOM     86  C   UNL A   1      30.311  25.697  26.231  1.00  0.00     0.025 C 
ATOM     87  C   UNL A   1      32.453  24.902  25.906  1.00  0.00    -0.027 C 
ATOM     88  C   UNL A   1      30.396  24.158  26.503  1.00  0.00     0.017 C 
ATOM     89  C   UNL A   1      31.785  25.930  26.452  1.00  0.00    -0.027 C 
BRANCH  84  90
ATOM     90  C   UNL A   1      29.197  27.075  23.890  1.00  0.00     0.224 C 
ATOM     91  O   UNL A   1      28.035  26.860  23.473  1.00  0.00    -0.275 OA
ATOM     92  N   UNL A   1      29.520  28.346  23.476  1.00  0.00    -0.352 N 
ATOM     93  H   UNL A   1      28.842  28.683  22.846  1.00  0.00     0.163 HD
BRANCH  92  94
ATOM     94  C   UNL A   1      30.553  29.339  23.684  1.00  0.00     0.153 C 
BRANCH  94  95
ATOM     95  C   UNL A   1      31.883  29.373  24.419  1.00  0.00    -0.010 A 
ATOM     96  C   UNL A   1      31.834  29.890  25.761  1.00  0.00     0.007 A 
ATOM     97  C   UNL A   1      33.057  28.751  24.041  1.00  0.00     0.046 A 
ATOM     98  C   UNL A   1      32.811  29.617  26.719  1.00  0.00     0.000 A 
ATOM     99  C   UNL A   1      34.053  28.486  25.001  1.00  0.00     0.021 A 
ATOM    100  Cl  UNL A   1      33.330  28.295  22.410  1.00  0.00    -0.084 Cl
ATOM    101  C   UNL A   1      33.908  28.866  26.343  1.00  0.00     0.002 A 
ENDBRANCH  94  95
ENDBRANCH  92  94
ENDBRANCH  84  90
ENDBRANCH  81  83
ENDBRANCH  80  81
ENDBRANCH  79  80
ENDBRANCH  78  79
ENDBRANCH  77  78
ENDBRANCH  76  77
ENDBRANCH   1  76
TORSDOF 23
ENDMDL
MODEL 3
REMARK VINA RESULT:     -10.5      5.143      8.503
REMARK SMILES O=C(OCCOCCOCCOC(=O)[C@@H]1[C@H](C(=O)NCc2ccccc2Cl)[C@@H]2C=C[C@H]1C2)c1ccc(-c2c3nc(c(-c4c(F)cc(S(=O)(=O)[O-])cc4F)c4ccc([nH]4)c(-c4c(F)cc(S(=O)(=O)[O-])cc4F)c4nc(c(-c5c(F)cc(S(=O)(=O)[O-])cc5F)c5ccc2[nH]5)C=C4)C=C3)cc1
REMARK SMILES IDX 7 1 6 2 5 3 4 4 3 5 2 6 1 7 33 8 34 9 98 10 35 11 97 12
REMARK SMILES IDX 36 13 37 14 38 15 91 16 39 17 96 18 90 19 92 20 40 21 95 22
REMARK SMILES IDX 89 23 88 24 41 26 75 27 54 28 74 29 55 30 58 31 73 32 93 33
REMARK SMILES IDX 56 34 57 35 72 37 94 38 59 39 42 40 43 41 52 42 44 43 45 44
REMARK SMILES IDX 51 45 53 46 46 47 47 48 48 49 49 50 50 51 76 52 77 53 86 54
REMARK SMILES IDX 78 55 79 56 85 57 87 58 80 59 81 60 82 61 83 62 84 63 60 64
REMARK SMILES IDX 61 65 70 66 62 67 63 68 69 69 71 70 64 71 65 72 66 73 67 74
REMARK SMILES IDX 68 75 8 76 9 77 10 78 11 79 12 80 13 81 14 82 15 83 16 84
REMARK SMILES IDX 31 85 28 86 30 87 32 88 29 89 17 90 18 91 19 92 20 94 21 95
REMARK SMILES IDX 22 96 26 97 23 98 25 99 27 100 24 101
REMARK H PARENT 92 25 58 36 19 93
REMARK Flexibility Score: inf
ROOT
ATOM      1  C   UNL A   1      30.287  29.206  23.557  1.00  0.00     0.188 C 
ENDROOT
BRANCH   1   2
ATOM      2  O   UNL A   1      31.458  29.707  24.259  1.00  0.00    -0.376 OA
BRANCH   2   3
ATOM      3  C   UNL A   1      31.764  29.232  25.591  1.00  0.00     0.202 C 
BRANCH   3   4
ATOM      4  C   UNL A   1      32.381  30.194  26.601  1.00  0.00     0.261 C 
BRANCH   4   5
ATOM      5  O   UNL A   1      33.806  30.235  26.705  1.00  0.00    -0.460 OA
BRANCH   5   6
ATOM      6  C   UNL A   1      34.588  30.919  27.565  1.00  0.00     0.338 C 
ATOM      7  O   UNL A   1      34.324  32.099  27.787  1.00  0.00    -0.246 OA
BRANCH   6   8
ATOM      8  C   UNL A   1      35.792  30.321  28.206  1.00  0.00     0.060 A 
ATOM      9  C   UNL A   1      35.796  29.679  29.447  1.00  0.00     0.016 A 
ATOM     10  C   UNL A   1      37.004  30.442  27.508  1.00  0.00     0.016 A 
ATOM     11  C   UNL A   1      36.939  29.022  29.901  1.00  0.00     0.010 A 
ATOM     12  C   UNL A   1      38.189  29.929  28.039  1.00  0.00     0.010 A 
ATOM     13  C   UNL A   1      38.159  29.212  29.238  1.00  0.00    -0.014 A 
BRANCH  13  14
ATOM     14  C   UNL A   1      39.396  29.058  30.042  1.00  0.00     0.031 A 
ATOM     15  C   UNL A   1      40.320  27.975  29.577  1.00  0.00     0.074 A 
ATOM     16  C   UNL A   1      39.721  29.846  31.081  1.00  0.00     0.049 A 
ATOM     17  N   UNL A   1      41.542  27.720  29.945  1.00  0.00    -0.248 NA
ATOM     18  C   UNL A   1      39.813  27.093  28.507  1.00  0.00     0.031 C 
ATOM     19  C   UNL A   1      38.908  30.941  31.567  1.00  0.00     0.029 A 
ATOM     20  N   UNL A   1      40.816  29.871  31.903  1.00  0.00    -0.354 N 
ATOM     21  C   UNL A   1      41.962  26.699  29.110  1.00  0.00     0.074 A 
ATOM     22  C   UNL A   1      40.885  26.387  28.204  1.00  0.00     0.031 C 
ATOM     23  C   UNL A   1      39.528  31.569  32.577  1.00  0.00     0.029 A 
ATOM     24  C   UNL A   1      40.767  30.861  32.862  1.00  0.00     0.049 A 
ATOM     25  H   UNL A   1      41.569  29.242  31.817  1.00  0.00     0.167 HD
ATOM     26  C   UNL A   1      43.134  26.035  29.136  1.00  0.00     0.037 A 
ATOM     27  C   UNL A   1      41.618  31.133  33.871  1.00  0.00     0.037 A 
ATOM     28  C   UNL A   1      44.099  26.221  30.177  1.00  0.00     0.049 A 
ATOM     29  C   UNL A   1      42.841  30.261  33.985  1.00  0.00     0.074 A 
ATOM     30  C   UNL A   1      45.255  25.509  30.413  1.00  0.00     0.029 A 
ATOM     31  N   UNL A   1      43.971  27.152  31.202  1.00  0.00    -0.354 N 
ATOM     32  N   UNL A   1      43.236  29.295  33.185  1.00  0.00    -0.248 NA
ATOM     33  C   UNL A   1      43.725  30.493  35.131  1.00  0.00     0.031 C 
ATOM     34  C   UNL A   1      45.789  25.959  31.624  1.00  0.00     0.029 A 
ATOM     35  C   UNL A   1      45.013  27.010  32.095  1.00  0.00     0.049 A 
ATOM     36  H   UNL A   1      43.246  27.812  31.278  1.00  0.00     0.167 HD
ATOM     37  C   UNL A   1      44.425  28.819  33.717  1.00  0.00     0.074 A 
ATOM     38  C   UNL A   1      44.690  29.612  34.903  1.00  0.00     0.031 C 
ATOM     39  C   UNL A   1      45.230  27.824  33.269  1.00  0.00     0.037 A 
BRANCH  26  40
ATOM     40  C   UNL A   1      43.310  24.970  28.099  1.00  0.00     0.058 A 
ATOM     41  C   UNL A   1      42.893  23.646  28.324  1.00  0.00     0.135 A 
ATOM     42  C   UNL A   1      44.005  25.250  26.913  1.00  0.00     0.135 A 
ATOM     43  F   UNL A   1      42.284  23.314  29.474  1.00  0.00    -0.206 F 
ATOM     44  C   UNL A   1      43.176  22.635  27.414  1.00  0.00     0.059 A 
ATOM     45  C   UNL A   1      44.276  24.258  25.979  1.00  0.00     0.059 A 
ATOM     46  F   UNL A   1      44.468  26.487  26.677  1.00  0.00    -0.206 F 
ATOM     47  C   UNL A   1      43.869  22.952  26.244  1.00  0.00     0.060 A 
BRANCH  47  48
ATOM     48  S   UNL A   1      44.235  21.627  25.076  1.00  0.00     0.124 S 
ATOM     49  O   UNL A   1      44.028  22.299  23.797  1.00  0.00    -0.237 OA
ATOM     50  O   UNL A   1      45.619  21.301  25.404  1.00  0.00    -0.237 OA
ATOM     51  O   UNL A   1      43.255  20.598  25.410  1.00  0.00    -0.744 OA
ENDBRANCH  47  48
ENDBRANCH  26  40
BRANCH  27  52
ATOM     52  C   UNL A   1      41.322  32.213  34.858  1.00  0.00     0.058 A 
ATOM     53  C   UNL A   1      40.486  31.999  35.965  1.00  0.00     0.135 A 
ATOM     54  C   UNL A   1      41.873  33.498  34.711  1.00  0.00     0.135 A 
ATOM     55  F   UNL A   1      39.915  30.800  36.150  1.00  0.00    -0.206 F 
ATOM     56  C   UNL A   1      40.203  33.012  36.880  1.00  0.00     0.059 A 
ATOM     57  C   UNL A   1      41.628  34.520  35.627  1.00  0.00     0.059 A 
ATOM     58  F   UNL A   1      42.680  33.772  33.674  1.00  0.00    -0.206 F 
ATOM     59  C   UNL A   1      40.785  34.270  36.706  1.00  0.00     0.060 A 
BRANCH  59  60
ATOM     60  S   UNL A   1      40.455  35.562  37.926  1.00  0.00     0.124 S 
ATOM     61  O   UNL A   1      39.466  34.919  38.782  1.00  0.00    -0.237 OA
ATOM     62  O   UNL A   1      41.774  35.769  38.518  1.00  0.00    -0.237 OA
ATOM     63  O   UNL A   1      39.961  36.672  37.117  1.00  0.00    -0.744 OA
ENDBRANCH  59  60
ENDBRANCH  27  52
BRANCH  39  64
ATOM     64  C   UNL A   1      46.490  27.561  34.037  1.00  0.00     0.058 A 
ATOM     65  C   UNL A   1      46.544  26.622  35.076  1.00  0.00     0.135 A 
ATOM     66  C   UNL A   1      47.683  28.196  33.652  1.00  0.00     0.135 A 
ATOM     67  F   UNL A   1      45.430  25.992  35.480  1.00  0.00    -0.206 F 
ATOM     68  C   UNL A   1      47.740  26.332  35.722  1.00  0.00     0.059 A 
ATOM     69  C   UNL A   1      48.894  27.895  34.259  1.00  0.00     0.059 A 
ATOM     70  F   UNL A   1      47.681  29.091  32.651  1.00  0.00    -0.206 F 
ATOM     71  C   UNL A   1      48.910  26.968  35.300  1.00  0.00     0.060 A 
BRANCH  71  72
ATOM     72  S   UNL A   1      50.463  26.542  36.111  1.00  0.00     0.124 S 
ATOM     73  O   UNL A   1      50.093  25.332  36.837  1.00  0.00    -0.237 OA
ATOM     74  O   UNL A   1      51.363  26.354  34.978  1.00  0.00    -0.237 OA
ATOM     75  O   UNL A   1      50.745  27.711  36.940  1.00  0.00    -0.744 OA
ENDBRANCH  71  72
ENDBRANCH  39  64
ENDBRANCH  13  14
ENDBRANCH   6   8
ENDBRANCH   5   6
ENDBRANCH   4   5
ENDBRANCH   3   4
ENDBRANCH   2   3
ENDBRANCH   1   2
BRANCH   1  76
ATOM     76  C   UNL A   1      30.404  27.762  22.781  1.00  0.00     0.188 C 
BRANCH  76  77
ATOM     77  O   UNL A   1      29.463  26.723  23.163  1.00  0.00    -0.376 OA
BRANCH  77  78
ATOM     78  C   UNL A   1      29.268  26.250  24.555  1.00  0.00     0.202 C 
BRANCH  78  79
ATOM     79  C   UNL A   1      30.406  25.786  25.571  1.00  0.00     0.261 C 
BRANCH  79  80
ATOM     80  O   UNL A   1      30.324  24.429  25.954  1.00  0.00    -0.463 OA
BRANCH  80  81
ATOM     81  C   UNL A   1      31.332  23.660  25.501  1.00  0.00     0.310 C 
ATOM     82  O   UNL A   1      31.372  22.452  25.518  1.00  0.00    -0.252 OA
BRANCH  81  83
ATOM     83  C   UNL A   1      32.381  24.575  24.996  1.00  0.00     0.119 C 
ATOM     84  C   UNL A   1      33.286  24.075  23.799  1.00  0.00     0.100 C 
ATOM     85  C   UNL A   1      33.375  25.035  26.101  1.00  0.00     0.027 C 
ATOM     86  C   UNL A   1      34.721  24.453  24.387  1.00  0.00     0.025 C 
ATOM     87  C   UNL A   1      34.286  23.939  26.594  1.00  0.00    -0.027 C 
ATOM     88  C   UNL A   1      34.409  25.740  25.220  1.00  0.00     0.017 C 
ATOM     89  C   UNL A   1      35.123  23.636  25.589  1.00  0.00    -0.027 C 
BRANCH  84  90
ATOM     90  C   UNL A   1      32.982  23.047  22.484  1.00  0.00     0.224 C 
ATOM     91  O   UNL A   1      33.319  23.542  21.384  1.00  0.00    -0.275 OA
ATOM     92  N   UNL A   1      32.423  21.824  22.195  1.00  0.00    -0.352 N 
ATOM     93  H   UNL A   1      32.291  21.730  21.224  1.00  0.00     0.163 HD
BRANCH  92  94
ATOM     94  C   UNL A   1      31.969  20.635  22.884  1.00  0.00     0.153 C 
BRANCH  94  95
ATOM     95  C   UNL A   1      32.634  19.374  23.412  1.00  0.00    -0.010 A 
ATOM     96  C   UNL A   1      32.451  18.196  22.606  1.00  0.00     0.007 A 
ATOM     97  C   UNL A   1      33.574  19.291  24.421  1.00  0.00     0.046 A 
ATOM     98  C   UNL A   1      33.297  17.088  22.673  1.00  0.00     0.000 A 
ATOM     99  C   UNL A   1      34.421  18.168  24.501  1.00  0.00     0.021 A 
ATOM    100  Cl  UNL A   1      33.729  20.537  25.589  1.00  0.00    -0.084 Cl
ATOM    101  C   UNL A   1      34.322  17.099  23.600  1.00  0.00     0.002 A 
ENDBRANCH  94  95
ENDBRANCH  92  94
ENDBRANCH  84  90
ENDBRANCH  81  83
ENDBRANCH  80  81
ENDBRANCH  79  80
ENDBRANCH  78  79
ENDBRANCH  77  78
ENDBRANCH  76  77
ENDBRANCH   1  76
TORSDOF 23
ENDMDL
