MODEL 1
REMARK VINA RESULT:     -10.5      0.000      0.000
REMARK SMILES O=C(OCCOCCOCCOC(=O)c1cc(NC(=O)c2ccc(Br)o2)ccc1O)c1ccc(-c2c3nc(c(-c4c(F)cc(S(=O)(=O)[O-])cc4F)c4ccc([nH]4)c(-c4c(F)cc(S(=O)(=O)[O-])cc4F)c4nc(c(-c5c(F)cc(S(=O)(=O)[O-])cc5F)c5ccc2[nH]5)C=C4)C=C3)cc1
REMARK SMILES IDX 7 1 6 2 5 3 4 4 3 5 2 6 1 7 31 8 32 9 96 10 33 11 95 12
REMARK SMILES IDX 34 13 35 14 36 15 89 16 37 17 94 18 88 19 90 20 38 21 93 22
REMARK SMILES IDX 87 23 86 24 39 26 73 27 52 28 72 29 53 30 56 31 71 32 91 33
REMARK SMILES IDX 54 34 55 35 70 37 92 38 57 39 40 40 41 41 50 42 42 43 43 44
REMARK SMILES IDX 49 45 51 46 44 47 45 48 46 49 47 50 48 51 74 52 75 53 84 54
REMARK SMILES IDX 76 55 77 56 83 57 85 58 78 59 79 60 80 61 81 62 82 63 58 64
REMARK SMILES IDX 59 65 68 66 60 67 61 68 67 69 69 70 62 71 63 72 64 73 65 74
REMARK SMILES IDX 66 75 8 76 9 77 10 78 11 79 12 80 13 81 14 82 15 83 16 84
REMARK SMILES IDX 29 85 17 86 28 87 27 88 30 89 18 91 19 92 20 94 21 95 22 96
REMARK SMILES IDX 26 97 23 98 24 99 25 100
REMARK H PARENT 90 25 56 36 30 90 18 93
REMARK Flexibility Score: inf
ROOT
ATOM      1  C   UNL A   1      37.760  22.313  25.358  1.00  0.00     0.188 C 
ENDROOT
BRANCH   1   2
ATOM      2  O   UNL A   1      38.788  22.830  26.195  1.00  0.00    -0.376 OA
BRANCH   2   3
ATOM      3  C   UNL A   1      39.855  21.911  26.432  1.00  0.00     0.202 C 
BRANCH   3   4
ATOM      4  C   UNL A   1      40.732  22.272  27.643  1.00  0.00     0.261 C 
BRANCH   4   5
ATOM      5  O   UNL A   1      41.812  23.158  27.299  1.00  0.00    -0.460 OA
BRANCH   5   6
ATOM      6  C   UNL A   1      41.775  24.457  26.917  1.00  0.00     0.338 C 
ATOM      7  O   UNL A   1      42.128  24.717  25.766  1.00  0.00    -0.246 OA
BRANCH   6   8
ATOM      8  C   UNL A   1      41.426  25.612  27.811  1.00  0.00     0.060 A 
ATOM      9  C   UNL A   1      42.225  26.726  28.065  1.00  0.00     0.016 A 
ATOM     10  C   UNL A   1      40.155  25.577  28.425  1.00  0.00     0.016 A 
ATOM     11  C   UNL A   1      41.824  27.726  28.946  1.00  0.00     0.010 A 
ATOM     12  C   UNL A   1      39.724  26.599  29.283  1.00  0.00     0.010 A 
ATOM     13  C   UNL A   1      40.588  27.653  29.585  1.00  0.00    -0.014 A 
BRANCH  13  14
ATOM     14  C   UNL A   1      40.354  28.570  30.720  1.00  0.00     0.031 A 
ATOM     15  C   UNL A   1      41.281  28.473  31.898  1.00  0.00     0.074 A 
ATOM     16  C   UNL A   1      39.473  29.580  30.613  1.00  0.00     0.049 A 
ATOM     17  N   UNL A   1      41.354  29.235  32.955  1.00  0.00    -0.248 NA
ATOM     18  C   UNL A   1      42.285  27.396  31.860  1.00  0.00     0.031 C 
ATOM     19  C   UNL A   1      38.629  29.839  29.448  1.00  0.00     0.029 A 
ATOM     20  N   UNL A   1      39.177  30.603  31.476  1.00  0.00    -0.354 N 
ATOM     21  C   UNL A   1      42.415  28.737  33.700  1.00  0.00     0.074 A 
ATOM     22  C   UNL A   1      42.935  27.588  32.995  1.00  0.00     0.031 C 
ATOM     23  C   UNL A   1      37.925  30.962  29.665  1.00  0.00     0.029 A 
ATOM     24  C   UNL A   1      38.223  31.468  30.997  1.00  0.00     0.049 A 
ATOM     25  H   UNL A   1      39.608  30.709  32.356  1.00  0.00     0.167 HD
ATOM     26  C   UNL A   1      42.921  29.207  34.862  1.00  0.00     0.037 A 
ATOM     27  C   UNL A   1      37.647  32.541  31.573  1.00  0.00     0.037 A 
ATOM     28  C   UNL A   1      42.386  30.342  35.559  1.00  0.00     0.049 A 
ATOM     29  C   UNL A   1      38.136  32.968  32.929  1.00  0.00     0.074 A 
ATOM     30  C   UNL A   1      42.769  30.867  36.778  1.00  0.00     0.029 A 
ATOM     31  N   UNL A   1      41.340  31.127  35.091  1.00  0.00    -0.354 N 
ATOM     32  N   UNL A   1      39.112  32.459  33.644  1.00  0.00    -0.248 NA
ATOM     33  C   UNL A   1      37.459  34.111  33.553  1.00  0.00     0.031 C 
ATOM     34  C   UNL A   1      41.929  31.947  37.067  1.00  0.00     0.029 A 
ATOM     35  C   UNL A   1      41.051  32.121  36.007  1.00  0.00     0.049 A 
ATOM     36  H   UNL A   1      40.875  30.995  34.234  1.00  0.00     0.167 HD
ATOM     37  C   UNL A   1      39.186  33.237  34.792  1.00  0.00     0.074 A 
ATOM     38  C   UNL A   1      38.160  34.254  34.671  1.00  0.00     0.031 C 
ATOM     39  C   UNL A   1      40.025  33.122  35.850  1.00  0.00     0.037 A 
BRANCH  26  40
ATOM     40  C   UNL A   1      44.070  28.445  35.456  1.00  0.00     0.058 A 
ATOM     41  C   UNL A   1      43.871  27.409  36.381  1.00  0.00     0.135 A 
ATOM     42  C   UNL A   1      45.390  28.793  35.131  1.00  0.00     0.135 A 
ATOM     43  F   UNL A   1      42.627  27.062  36.752  1.00  0.00    -0.206 F 
ATOM     44  C   UNL A   1      44.942  26.763  36.990  1.00  0.00     0.059 A 
ATOM     45  C   UNL A   1      46.477  28.146  35.710  1.00  0.00     0.059 A 
ATOM     46  F   UNL A   1      45.633  29.787  34.263  1.00  0.00    -0.206 F 
ATOM     47  C   UNL A   1      46.243  27.146  36.652  1.00  0.00     0.060 A 
BRANCH  47  48
ATOM     48  S   UNL A   1      47.625  26.326  37.473  1.00  0.00     0.124 S 
ATOM     49  O   UNL A   1      47.394  24.932  37.108  1.00  0.00    -0.237 OA
ATOM     50  O   UNL A   1      48.782  26.961  36.848  1.00  0.00    -0.237 OA
ATOM     51  O   UNL A   1      47.422  26.650  38.882  1.00  0.00    -0.744 OA
ENDBRANCH  47  48
ENDBRANCH  26  40
BRANCH  27  52
ATOM     52  C   UNL A   1      36.531  33.251  30.890  1.00  0.00     0.058 A 
ATOM     53  C   UNL A   1      35.199  33.109  31.307  1.00  0.00     0.135 A 
ATOM     54  C   UNL A   1      36.785  34.094  29.795  1.00  0.00     0.135 A 
ATOM     55  F   UNL A   1      34.903  32.314  32.346  1.00  0.00    -0.206 F 
ATOM     56  C   UNL A   1      34.158  33.766  30.657  1.00  0.00     0.059 A 
ATOM     57  C   UNL A   1      35.764  34.776  29.142  1.00  0.00     0.059 A 
ATOM     58  F   UNL A   1      38.042  34.286  29.368  1.00  0.00    -0.206 F 
ATOM     59  C   UNL A   1      34.452  34.599  29.575  1.00  0.00     0.060 A 
BRANCH  59  60
ATOM     60  S   UNL A   1      33.106  35.499  28.775  1.00  0.00     0.124 S 
ATOM     61  O   UNL A   1      32.367  36.006  29.926  1.00  0.00    -0.237 OA
ATOM     62  O   UNL A   1      33.835  36.491  27.990  1.00  0.00    -0.237 OA
ATOM     63  O   UNL A   1      32.437  34.464  27.994  1.00  0.00    -0.744 OA
ENDBRANCH  59  60
ENDBRANCH  27  52
BRANCH  39  64
ATOM     64  C   UNL A   1      39.884  34.137  36.944  1.00  0.00     0.058 A 
ATOM     65  C   UNL A   1      40.563  35.362  36.897  1.00  0.00     0.135 A 
ATOM     66  C   UNL A   1      39.011  33.903  38.018  1.00  0.00     0.135 A 
ATOM     67  F   UNL A   1      41.414  35.626  35.893  1.00  0.00    -0.206 F 
ATOM     68  C   UNL A   1      40.395  36.319  37.891  1.00  0.00     0.059 A 
ATOM     69  C   UNL A   1      38.809  34.854  39.010  1.00  0.00     0.059 A 
ATOM     70  F   UNL A   1      38.332  32.747  38.098  1.00  0.00    -0.206 F 
ATOM     71  C   UNL A   1      39.514  36.056  38.942  1.00  0.00     0.060 A 
BRANCH  71  72
ATOM     72  S   UNL A   1      39.270  37.322  40.205  1.00  0.00     0.124 S 
ATOM     73  O   UNL A   1      38.792  36.524  41.329  1.00  0.00    -0.237 OA
ATOM     74  O   UNL A   1      40.610  37.883  40.349  1.00  0.00    -0.237 OA
ATOM     75  O   UNL A   1      38.286  38.215  39.602  1.00  0.00    -0.744 OA
ENDBRANCH  71  72
ENDBRANCH  39  64
ENDBRANCH  13  14
ENDBRANCH   6   8
ENDBRANCH   5   6
ENDBRANCH   4   5
ENDBRANCH   3   4
ENDBRANCH   2   3
ENDBRANCH   1   2
BRANCH   1  76
ATOM     76  C   UNL A   1      37.720  20.793  25.157  1.00  0.00     0.188 C 
BRANCH  76  77
ATOM     77  O   UNL A   1      36.528  20.220  24.648  1.00  0.00    -0.376 OA
BRANCH  77  78
ATOM     78  C   UNL A   1      36.298  18.839  24.930  1.00  0.00     0.202 C 
BRANCH  78  79
ATOM     79  C   UNL A   1      34.917  18.249  24.618  1.00  0.00     0.261 C 
BRANCH  79  80
ATOM     80  O   UNL A   1      34.007  19.167  23.981  1.00  0.00    -0.460 OA
BRANCH  80  81
ATOM     81  C   UNL A   1      33.067  19.701  24.803  1.00  0.00     0.342 C 
ATOM     82  O   UNL A   1      32.155  19.114  25.360  1.00  0.00    -0.246 OA
BRANCH  81  83
ATOM     83  C   UNL A   1      33.339  21.126  25.043  1.00  0.00     0.103 A 
ATOM     84  C   UNL A   1      33.428  22.002  23.941  1.00  0.00     0.045 A 
ATOM     85  C   UNL A   1      33.696  21.546  26.325  1.00  0.00     0.130 A 
ATOM     86  C   UNL A   1      33.839  23.321  24.134  1.00  0.00     0.042 A 
ATOM     87  C   UNL A   1      34.140  22.846  26.517  1.00  0.00     0.049 A 
ATOM     88  C   UNL A   1      34.191  23.728  25.432  1.00  0.00     0.030 A 
BRANCH  85  89
ATOM     89  O   UNL A   1      33.647  20.677  27.374  1.00  0.00    -0.507 OA
ATOM     90  H   UNL A   1      34.371  20.614  27.966  1.00  0.00     0.293 HD
ENDBRANCH  85  89
BRANCH  86  91
ATOM     91  N   UNL A   1      34.052  24.277  23.125  1.00  0.00    -0.319 N 
ATOM     92  C   UNL A   1      33.344  25.351  22.635  1.00  0.00     0.291 C 
ATOM     93  H   UNL A   1      34.909  24.146  22.658  1.00  0.00     0.170 HD
ATOM     94  O   UNL A   1      33.674  25.757  21.517  1.00  0.00    -0.265 OA
BRANCH  92  95
ATOM     95  C   UNL A   1      32.339  26.024  23.416  1.00  0.00     0.193 A 
ATOM     96  C   UNL A   1      32.418  27.016  24.375  1.00  0.00     0.057 A 
ATOM     97  O   UNL A   1      31.023  25.789  23.118  1.00  0.00    -0.444 OA
ATOM     98  C   UNL A   1      31.089  27.424  24.652  1.00  0.00     0.059 A 
ATOM     99  C   UNL A   1      30.277  26.629  23.881  1.00  0.00     0.170 A 
ATOM    100  Br  UNL A   1      28.413  26.705  23.858  1.00  0.00    -0.008 Br
ENDBRANCH  92  95
ENDBRANCH  86  91
ENDBRANCH  81  83
ENDBRANCH  80  81
ENDBRANCH  79  80
ENDBRANCH  78  79
ENDBRANCH  77  78
ENDBRANCH  76  77
ENDBRANCH   1  76
TORSDOF 23
ENDMDL
MODEL 2
REMARK VINA RESULT:     -10.4      4.881      6.883
REMARK SMILES O=C(OCCOCCOCCOC(=O)c1cc(NC(=O)c2ccc(Br)o2)ccc1O)c1ccc(-c2c3nc(c(-c4c(F)cc(S(=O)(=O)[O-])cc4F)c4ccc([nH]4)c(-c4c(F)cc(S(=O)(=O)[O-])cc4F)c4nc(c(-c5c(F)cc(S(=O)(=O)[O-])cc5F)c5ccc2[nH]5)C=C4)C=C3)cc1
REMARK SMILES IDX 7 1 6 2 5 3 4 4 3 5 2 6 1 7 31 8 32 9 96 10 33 11 95 12
REMARK SMILES IDX 34 13 35 14 36 15 89 16 37 17 94 18 88 19 90 20 38 21 93 22
REMARK SMILES IDX 87 23 86 24 39 26 73 27 52 28 72 29 53 30 56 31 71 32 91 33
REMARK SMILES IDX 54 34 55 35 70 37 92 38 57 39 40 40 41 41 50 42 42 43 43 44
REMARK SMILES IDX 49 45 51 46 44 47 45 48 46 49 47 50 48 51 74 52 75 53 84 54
REMARK SMILES IDX 76 55 77 56 83 57 85 58 78 59 79 60 80 61 81 62 82 63 58 64
REMARK SMILES IDX 59 65 68 66 60 67 61 68 67 69 69 70 62 71 63 72 64 73 65 74
REMARK SMILES IDX 66 75 8 76 9 77 10 78 11 79 12 80 13 81 14 82 15 83 16 84
REMARK SMILES IDX 29 85 17 86 28 87 27 88 30 89 18 91 19 92 20 94 21 95 22 96
REMARK SMILES IDX 26 97 23 98 24 99 25 100
REMARK H PARENT 90 25 56 36 30 90 18 93
REMARK Flexibility Score: inf
ROOT
ATOM      1  C   UNL A   1      35.023  24.574  25.110  1.00  0.00     0.188 C 
ENDROOT
BRANCH   1   2
ATOM      2  O   UNL A   1      35.605  24.032  23.929  1.00  0.00    -0.376 OA
BRANCH   2   3
ATOM      3  C   UNL A   1      36.666  23.111  24.181  1.00  0.00     0.202 C 
BRANCH   3   4
ATOM      4  C   UNL A   1      36.987  22.923  25.673  1.00  0.00     0.261 C 
BRANCH   4   5
ATOM      5  O   UNL A   1      38.186  22.156  25.888  1.00  0.00    -0.460 OA
BRANCH   5   6
ATOM      6  C   UNL A   1      39.414  22.566  26.286  1.00  0.00     0.338 C 
ATOM      7  O   UNL A   1      40.307  21.719  26.324  1.00  0.00    -0.246 OA
BRANCH   6   8
ATOM      8  C   UNL A   1      39.749  23.948  26.771  1.00  0.00     0.060 A 
ATOM      9  C   UNL A   1      40.225  25.000  25.991  1.00  0.00     0.016 A 
ATOM     10  C   UNL A   1      39.527  24.210  28.140  1.00  0.00     0.016 A 
ATOM     11  C   UNL A   1      40.544  26.235  26.547  1.00  0.00     0.010 A 
ATOM     12  C   UNL A   1      39.807  25.463  28.704  1.00  0.00     0.010 A 
ATOM     13  C   UNL A   1      40.370  26.464  27.910  1.00  0.00    -0.014 A 
BRANCH  13  14
ATOM     14  C   UNL A   1      41.002  27.669  28.485  1.00  0.00     0.031 A 
ATOM     15  C   UNL A   1      42.493  27.799  28.366  1.00  0.00     0.074 A 
ATOM     16  C   UNL A   1      40.250  28.698  28.916  1.00  0.00     0.049 A 
ATOM     17  N   UNL A   1      43.263  28.804  28.684  1.00  0.00    -0.248 NA
ATOM     18  C   UNL A   1      43.209  26.655  27.774  1.00  0.00     0.031 C 
ATOM     19  C   UNL A   1      38.788  28.719  28.936  1.00  0.00     0.029 A 
ATOM     20  N   UNL A   1      40.610  29.938  29.373  1.00  0.00    -0.354 N 
ATOM     21  C   UNL A   1      44.547  28.419  28.322  1.00  0.00     0.074 A 
ATOM     22  C   UNL A   1      44.462  27.078  27.793  1.00  0.00     0.031 C 
ATOM     23  C   UNL A   1      38.379  29.924  29.365  1.00  0.00     0.029 A 
ATOM     24  C   UNL A   1      39.540  30.735  29.702  1.00  0.00     0.049 A 
ATOM     25  H   UNL A   1      41.546  30.232  29.457  1.00  0.00     0.167 HD
ATOM     26  C   UNL A   1      45.694  29.130  28.408  1.00  0.00     0.037 A 
ATOM     27  C   UNL A   1      39.502  31.975  30.227  1.00  0.00     0.037 A 
ATOM     28  C   UNL A   1      45.766  30.457  28.948  1.00  0.00     0.049 A 
ATOM     29  C   UNL A   1      40.803  32.698  30.439  1.00  0.00     0.074 A 
ATOM     30  C   UNL A   1      46.881  31.248  29.152  1.00  0.00     0.029 A 
ATOM     31  N   UNL A   1      44.667  31.190  29.377  1.00  0.00    -0.354 N 
ATOM     32  N   UNL A   1      42.016  32.303  30.133  1.00  0.00    -0.248 NA
ATOM     33  C   UNL A   1      40.735  34.028  31.056  1.00  0.00     0.031 C 
ATOM     34  C   UNL A   1      46.459  32.445  29.741  1.00  0.00     0.029 A 
ATOM     35  C   UNL A   1      45.078  32.416  29.864  1.00  0.00     0.049 A 
ATOM     36  H   UNL A   1      43.733  30.880  29.339  1.00  0.00     0.167 HD
ATOM     37  C   UNL A   1      42.857  33.348  30.495  1.00  0.00     0.074 A 
ATOM     38  C   UNL A   1      42.010  34.394  31.035  1.00  0.00     0.031 C 
ATOM     39  C   UNL A   1      44.205  33.437  30.389  1.00  0.00     0.037 A 
BRANCH  26  40
ATOM     40  C   UNL A   1      46.949  28.443  27.955  1.00  0.00     0.058 A 
ATOM     41  C   UNL A   1      47.409  28.538  26.632  1.00  0.00     0.135 A 
ATOM     42  C   UNL A   1      47.674  27.639  28.847  1.00  0.00     0.135 A 
ATOM     43  F   UNL A   1      46.730  29.267  25.731  1.00  0.00    -0.206 F 
ATOM     44  C   UNL A   1      48.527  27.832  26.200  1.00  0.00     0.059 A 
ATOM     45  C   UNL A   1      48.808  26.942  28.443  1.00  0.00     0.059 A 
ATOM     46  F   UNL A   1      47.267  27.504  30.119  1.00  0.00    -0.206 F 
ATOM     47  C   UNL A   1      49.215  27.030  27.113  1.00  0.00     0.060 A 
BRANCH  47  48
ATOM     48  S   UNL A   1      50.644  26.092  26.533  1.00  0.00     0.124 S 
ATOM     49  O   UNL A   1      51.746  26.948  26.960  1.00  0.00    -0.237 OA
ATOM     50  O   UNL A   1      50.504  24.831  27.256  1.00  0.00    -0.237 OA
ATOM     51  O   UNL A   1      50.433  26.010  25.091  1.00  0.00    -0.744 OA
ENDBRANCH  47  48
ENDBRANCH  26  40
BRANCH  27  52
ATOM     52  C   UNL A   1      38.201  32.585  30.618  1.00  0.00     0.058 A 
ATOM     53  C   UNL A   1      37.446  33.353  29.720  1.00  0.00     0.135 A 
ATOM     54  C   UNL A   1      37.688  32.405  31.914  1.00  0.00     0.135 A 
ATOM     55  F   UNL A   1      37.891  33.556  28.471  1.00  0.00    -0.206 F 
ATOM     56  C   UNL A   1      36.235  33.931  30.094  1.00  0.00     0.059 A 
ATOM     57  C   UNL A   1      36.473  32.957  32.305  1.00  0.00     0.059 A 
ATOM     58  F   UNL A   1      38.357  31.661  32.807  1.00  0.00    -0.206 F 
ATOM     59  C   UNL A   1      35.758  33.726  31.390  1.00  0.00     0.060 A 
BRANCH  59  60
ATOM     60  S   UNL A   1      34.157  34.424  31.852  1.00  0.00     0.124 S 
ATOM     61  O   UNL A   1      33.677  33.444  32.818  1.00  0.00    -0.237 OA
ATOM     62  O   UNL A   1      34.542  35.725  32.390  1.00  0.00    -0.237 OA
ATOM     63  O   UNL A   1      33.440  34.470  30.582  1.00  0.00    -0.744 OA
ENDBRANCH  59  60
ENDBRANCH  27  52
BRANCH  39  64
ATOM     64  C   UNL A   1      44.841  34.716  30.843  1.00  0.00     0.058 A 
ATOM     65  C   UNL A   1      45.290  34.883  32.160  1.00  0.00     0.135 A 
ATOM     66  C   UNL A   1      45.057  35.761  29.931  1.00  0.00     0.135 A 
ATOM     67  F   UNL A   1      45.098  33.913  33.069  1.00  0.00    -0.206 F 
ATOM     68  C   UNL A   1      45.919  36.054  32.565  1.00  0.00     0.059 A 
ATOM     69  C   UNL A   1      45.705  36.931  30.308  1.00  0.00     0.059 A 
ATOM     70  F   UNL A   1      44.651  35.642  28.656  1.00  0.00    -0.206 F 
ATOM     71  C   UNL A   1      46.124  37.071  31.631  1.00  0.00     0.060 A 
BRANCH  71  72
ATOM     72  S   UNL A   1      46.980  38.570  32.156  1.00  0.00     0.124 S 
ATOM     73  O   UNL A   1      47.814  38.066  33.241  1.00  0.00    -0.237 OA
ATOM     74  O   UNL A   1      47.689  38.967  30.943  1.00  0.00    -0.237 OA
ATOM     75  O   UNL A   1      45.892  39.457  32.557  1.00  0.00    -0.744 OA
ENDBRANCH  71  72
ENDBRANCH  39  64
ENDBRANCH  13  14
ENDBRANCH   6   8
ENDBRANCH   5   6
ENDBRANCH   4   5
ENDBRANCH   3   4
ENDBRANCH   2   3
ENDBRANCH   1   2
BRANCH   1  76
ATOM     76  C   UNL A   1      33.841  25.535  24.928  1.00  0.00     0.188 C 
BRANCH  76  77
ATOM     77  O   UNL A   1      34.066  26.742  24.221  1.00  0.00    -0.376 OA
BRANCH  77  78
ATOM     78  C   UNL A   1      33.832  27.962  24.926  1.00  0.00     0.202 C 
BRANCH  78  79
ATOM     79  C   UNL A   1      33.186  29.130  24.170  1.00  0.00     0.261 C 
BRANCH  79  80
ATOM     80  O   UNL A   1      32.229  28.736  23.168  1.00  0.00    -0.460 OA
BRANCH  80  81
ATOM     81  C   UNL A   1      30.965  28.549  23.629  1.00  0.00     0.342 C 
ATOM     82  O   UNL A   1      30.130  29.407  23.860  1.00  0.00    -0.246 OA
BRANCH  81  83
ATOM     83  C   UNL A   1      30.658  27.115  23.734  1.00  0.00     0.103 A 
ATOM     84  C   UNL A   1      30.233  26.593  24.973  1.00  0.00     0.045 A 
ATOM     85  C   UNL A   1      30.980  26.269  22.671  1.00  0.00     0.130 A 
ATOM     86  C   UNL A   1      30.090  25.215  25.134  1.00  0.00     0.042 A 
ATOM     87  C   UNL A   1      30.874  24.896  22.836  1.00  0.00     0.049 A 
ATOM     88  C   UNL A   1      30.414  24.379  24.052  1.00  0.00     0.030 A 
BRANCH  85  89
ATOM     89  O   UNL A   1      31.431  26.785  21.492  1.00  0.00    -0.507 OA
ATOM     90  H   UNL A   1      32.349  26.788  21.301  1.00  0.00     0.293 HD
ENDBRANCH  85  89
BRANCH  86  91
ATOM     91  N   UNL A   1      29.756  24.551  26.328  1.00  0.00    -0.319 N 
ATOM     92  C   UNL A   1      30.174  23.398  26.951  1.00  0.00     0.291 C 
ATOM     93  H   UNL A   1      29.058  25.023  26.837  1.00  0.00     0.170 HD
ATOM     94  O   UNL A   1      29.421  22.941  27.816  1.00  0.00    -0.265 OA
BRANCH  92  95
ATOM     95  C   UNL A   1      31.460  22.806  26.681  1.00  0.00     0.193 A 
ATOM     96  C   UNL A   1      32.657  22.832  27.369  1.00  0.00     0.057 A 
ATOM     97  O   UNL A   1      31.560  21.928  25.634  1.00  0.00    -0.444 OA
ATOM     98  C   UNL A   1      33.518  21.906  26.729  1.00  0.00     0.059 A 
ATOM     99  C   UNL A   1      32.812  21.402  25.664  1.00  0.00     0.170 A 
ATOM    100  Br  UNL A   1      33.463  20.153  24.442  1.00  0.00    -0.008 Br
ENDBRANCH  92  95
ENDBRANCH  86  91
ENDBRANCH  81  83
ENDBRANCH  80  81
ENDBRANCH  79  80
ENDBRANCH  78  79
ENDBRANCH  77  78
ENDBRANCH  76  77
ENDBRANCH   1  76
TORSDOF 23
ENDMDL
MODEL 3
REMARK VINA RESULT:     -10.3      6.376     12.251
REMARK SMILES O=C(OCCOCCOCCOC(=O)c1cc(NC(=O)c2ccc(Br)o2)ccc1O)c1ccc(-c2c3nc(c(-c4c(F)cc(S(=O)(=O)[O-])cc4F)c4ccc([nH]4)c(-c4c(F)cc(S(=O)(=O)[O-])cc4F)c4nc(c(-c5c(F)cc(S(=O)(=O)[O-])cc5F)c5ccc2[nH]5)C=C4)C=C3)cc1
REMARK SMILES IDX 7 1 6 2 5 3 4 4 3 5 2 6 1 7 31 8 32 9 96 10 33 11 95 12
REMARK SMILES IDX 34 13 35 14 36 15 89 16 37 17 94 18 88 19 90 20 38 21 93 22
REMARK SMILES IDX 87 23 86 24 39 26 73 27 52 28 72 29 53 30 56 31 71 32 91 33
REMARK SMILES IDX 54 34 55 35 70 37 92 38 57 39 40 40 41 41 50 42 42 43 43 44
REMARK SMILES IDX 49 45 51 46 44 47 45 48 46 49 47 50 48 51 74 52 75 53 84 54
REMARK SMILES IDX 76 55 77 56 83 57 85 58 78 59 79 60 80 61 81 62 82 63 58 64
REMARK SMILES IDX 59 65 68 66 60 67 61 68 67 69 69 70 62 71 63 72 64 73 65 74
REMARK SMILES IDX 66 75 8 76 9 77 10 78 11 79 12 80 13 81 14 82 15 83 16 84
REMARK SMILES IDX 29 85 17 86 28 87 27 88 30 89 18 91 19 92 20 94 21 95 22 96
REMARK SMILES IDX 26 97 23 98 24 99 25 100
REMARK H PARENT 90 25 56 36 30 90 18 93
REMARK Flexibility Score: inf
ROOT
ATOM      1  C   UNL A   1      35.331  32.983  28.008  1.00  0.00     0.188 C 
ENDROOT
BRANCH   1   2
ATOM      2  O   UNL A   1      35.647  33.897  29.052  1.00  0.00    -0.376 OA
BRANCH   2   3
ATOM      3  C   UNL A   1      34.762  33.824  30.170  1.00  0.00     0.202 C 
BRANCH   3   4
ATOM      4  C   UNL A   1      35.376  33.147  31.408  1.00  0.00     0.261 C 
BRANCH   4   5
ATOM      5  O   UNL A   1      36.711  32.665  31.169  1.00  0.00    -0.460 OA
BRANCH   5   6
ATOM      6  C   UNL A   1      37.348  31.593  31.696  1.00  0.00     0.338 C 
ATOM      7  O   UNL A   1      37.013  31.236  32.826  1.00  0.00    -0.246 OA
BRANCH   6   8
ATOM      8  C   UNL A   1      38.494  30.865  31.052  1.00  0.00     0.060 A 
ATOM      9  C   UNL A   1      39.578  30.290  31.713  1.00  0.00     0.016 A 
ATOM     10  C   UNL A   1      38.446  30.724  29.648  1.00  0.00     0.016 A 
ATOM     11  C   UNL A   1      40.612  29.670  31.017  1.00  0.00     0.010 A 
ATOM     12  C   UNL A   1      39.461  30.066  28.940  1.00  0.00     0.010 A 
ATOM     13  C   UNL A   1      40.577  29.583  29.627  1.00  0.00    -0.014 A 
BRANCH  13  14
ATOM     14  C   UNL A   1      41.825  29.195  28.938  1.00  0.00     0.031 A 
ATOM     15  C   UNL A   1      42.926  30.213  28.862  1.00  0.00     0.074 A 
ATOM     16  C   UNL A   1      42.036  27.918  28.573  1.00  0.00     0.049 A 
ATOM     17  N   UNL A   1      44.145  30.078  28.416  1.00  0.00    -0.248 NA
ATOM     18  C   UNL A   1      42.623  31.553  29.395  1.00  0.00     0.031 C 
ATOM     19  C   UNL A   1      41.077  26.827  28.739  1.00  0.00     0.029 A 
ATOM     20  N   UNL A   1      43.142  27.313  28.034  1.00  0.00    -0.354 N 
ATOM     21  C   UNL A   1      44.756  31.308  28.624  1.00  0.00     0.074 A 
ATOM     22  C   UNL A   1      43.767  32.188  29.203  1.00  0.00     0.031 C 
ATOM     23  C   UNL A   1      41.647  25.683  28.326  1.00  0.00     0.029 A 
ATOM     24  C   UNL A   1      42.982  25.966  27.818  1.00  0.00     0.049 A 
ATOM     25  H   UNL A   1      43.973  27.798  27.822  1.00  0.00     0.167 HD
ATOM     26  C   UNL A   1      46.035  31.666  28.370  1.00  0.00     0.037 A 
ATOM     27  C   UNL A   1      43.814  25.064  27.262  1.00  0.00     0.037 A 
ATOM     28  C   UNL A   1      47.004  30.786  27.783  1.00  0.00     0.049 A 
ATOM     29  C   UNL A   1      45.190  25.518  26.863  1.00  0.00     0.074 A 
ATOM     30  C   UNL A   1      48.307  31.058  27.413  1.00  0.00     0.029 A 
ATOM     31  N   UNL A   1      46.766  29.453  27.474  1.00  0.00    -0.354 N 
ATOM     32  N   UNL A   1      45.740  26.699  27.026  1.00  0.00    -0.248 NA
ATOM     33  C   UNL A   1      46.060  24.528  26.218  1.00  0.00     0.031 C 
ATOM     34  C   UNL A   1      48.845  29.899  26.844  1.00  0.00     0.029 A 
ATOM     35  C   UNL A   1      47.892  28.894  26.899  1.00  0.00     0.049 A 
ATOM     36  H   UNL A   1      45.920  28.977  27.640  1.00  0.00     0.167 HD
ATOM     37  C   UNL A   1      47.032  26.587  26.526  1.00  0.00     0.074 A 
ATOM     38  C   UNL A   1      47.181  25.220  26.064  1.00  0.00     0.031 C 
ATOM     39  C   UNL A   1      48.006  27.526  26.457  1.00  0.00     0.037 A 
BRANCH  26  40
ATOM     40  C   UNL A   1      46.413  33.085  28.681  1.00  0.00     0.058 A 
ATOM     41  C   UNL A   1      46.265  34.114  27.738  1.00  0.00     0.135 A 
ATOM     42  C   UNL A   1      46.979  33.408  29.924  1.00  0.00     0.135 A 
ATOM     43  F   UNL A   1      45.761  33.849  26.521  1.00  0.00    -0.206 F 
ATOM     44  C   UNL A   1      46.695  35.410  28.004  1.00  0.00     0.059 A 
ATOM     45  C   UNL A   1      47.396  34.702  30.220  1.00  0.00     0.059 A 
ATOM     46  F   UNL A   1      47.156  32.456  30.853  1.00  0.00    -0.206 F 
ATOM     47  C   UNL A   1      47.267  35.691  29.247  1.00  0.00     0.060 A 
BRANCH  47  48
ATOM     48  S   UNL A   1      47.853  37.368  29.569  1.00  0.00     0.124 S 
ATOM     49  O   UNL A   1      46.602  38.061  29.861  1.00  0.00    -0.237 OA
ATOM     50  O   UNL A   1      48.750  37.173  30.705  1.00  0.00    -0.237 OA
ATOM     51  O   UNL A   1      48.503  37.745  28.318  1.00  0.00    -0.744 OA
ENDBRANCH  47  48
ENDBRANCH  26  40
BRANCH  27  52
ATOM     52  C   UNL A   1      43.356  23.669  27.021  1.00  0.00     0.058 A 
ATOM     53  C   UNL A   1      43.258  22.732  28.061  1.00  0.00     0.135 A 
ATOM     54  C   UNL A   1      43.003  23.246  25.728  1.00  0.00     0.135 A 
ATOM     55  F   UNL A   1      43.585  23.085  29.314  1.00  0.00    -0.206 F 
ATOM     56  C   UNL A   1      42.841  21.424  27.827  1.00  0.00     0.059 A 
ATOM     57  C   UNL A   1      42.565  21.951  25.473  1.00  0.00     0.059 A 
ATOM     58  F   UNL A   1      43.054  24.106  24.700  1.00  0.00    -0.206 F 
ATOM     59  C   UNL A   1      42.496  21.044  26.529  1.00  0.00     0.060 A 
BRANCH  59  60
ATOM     60  S   UNL A   1      41.893  19.366  26.241  1.00  0.00     0.124 S 
ATOM     61  O   UNL A   1      40.462  19.592  26.076  1.00  0.00    -0.237 OA
ATOM     62  O   UNL A   1      42.629  18.986  25.039  1.00  0.00    -0.237 OA
ATOM     63  O   UNL A   1      42.291  18.662  27.456  1.00  0.00    -0.744 OA
ENDBRANCH  59  60
ENDBRANCH  27  52
BRANCH  39  64
ATOM     64  C   UNL A   1      49.324  27.098  25.884  1.00  0.00     0.058 A 
ATOM     65  C   UNL A   1      49.627  27.283  24.529  1.00  0.00     0.135 A 
ATOM     66  C   UNL A   1      50.314  26.555  26.718  1.00  0.00     0.135 A 
ATOM     67  F   UNL A   1      48.708  27.793  23.693  1.00  0.00    -0.206 F 
ATOM     68  C   UNL A   1      50.867  26.926  24.011  1.00  0.00     0.059 A 
ATOM     69  C   UNL A   1      51.568  26.213  26.227  1.00  0.00     0.059 A 
ATOM     70  F   UNL A   1      50.071  26.369  28.025  1.00  0.00    -0.206 F 
ATOM     71  C   UNL A   1      51.831  26.395  24.869  1.00  0.00     0.060 A 
BRANCH  71  72
ATOM     72  S   UNL A   1      53.452  25.975  24.197  1.00  0.00     0.124 S 
ATOM     73  O   UNL A   1      54.262  27.093  24.667  1.00  0.00    -0.237 OA
ATOM     74  O   UNL A   1      53.727  24.685  24.824  1.00  0.00    -0.237 OA
ATOM     75  O   UNL A   1      53.218  25.927  22.757  1.00  0.00    -0.744 OA
ENDBRANCH  71  72
ENDBRANCH  39  64
ENDBRANCH  13  14
ENDBRANCH   6   8
ENDBRANCH   5   6
ENDBRANCH   4   5
ENDBRANCH   3   4
ENDBRANCH   2   3
ENDBRANCH   1   2
BRANCH   1  76
ATOM     76  C   UNL A   1      34.041  32.168  28.160  1.00  0.00     0.188 C 
BRANCH  76  77
ATOM     77  O   UNL A   1      33.711  31.246  27.135  1.00  0.00    -0.376 OA
BRANCH  77  78
ATOM     78  C   UNL A   1      32.326  30.959  26.939  1.00  0.00     0.202 C 
BRANCH  78  79
ATOM     79  C   UNL A   1      31.911  30.192  25.677  1.00  0.00     0.261 C 
BRANCH  79  80
ATOM     80  O   UNL A   1      33.004  29.591  24.957  1.00  0.00    -0.460 OA
BRANCH  80  81
ATOM     81  C   UNL A   1      32.643  28.894  23.848  1.00  0.00     0.342 C 
ATOM     82  O   UNL A   1      33.213  28.874  22.771  1.00  0.00    -0.246 OA
BRANCH  81  83
ATOM     83  C   UNL A   1      31.480  28.039  24.131  1.00  0.00     0.103 A 
ATOM     84  C   UNL A   1      31.526  27.161  25.233  1.00  0.00     0.045 A 
ATOM     85  C   UNL A   1      30.442  27.970  23.200  1.00  0.00     0.130 A 
ATOM     86  C   UNL A   1      30.502  26.233  25.424  1.00  0.00     0.042 A 
ATOM     87  C   UNL A   1      29.440  27.025  23.366  1.00  0.00     0.049 A 
ATOM     88  C   UNL A   1      29.463  26.180  24.479  1.00  0.00     0.030 A 
BRANCH  85  89
ATOM     89  O   UNL A   1      30.432  28.797  22.115  1.00  0.00    -0.507 OA
ATOM     90  H   UNL A   1      30.950  28.589  21.362  1.00  0.00     0.293 HD
ENDBRANCH  85  89
BRANCH  86  91
ATOM     91  N   UNL A   1      30.456  25.246  26.425  1.00  0.00    -0.319 N 
ATOM     92  C   UNL A   1      30.803  23.916  26.497  1.00  0.00     0.291 C 
ATOM     93  H   UNL A   1      30.089  25.587  27.272  1.00  0.00     0.170 HD
ATOM     94  O   UNL A   1      30.306  23.273  27.427  1.00  0.00    -0.265 OA
BRANCH  92  95
ATOM     95  C   UNL A   1      31.763  23.326  25.600  1.00  0.00     0.193 A 
ATOM     96  C   UNL A   1      31.653  22.342  24.637  1.00  0.00     0.057 A 
ATOM     97  O   UNL A   1      33.014  23.882  25.535  1.00  0.00    -0.444 OA
ATOM     98  C   UNL A   1      32.883  22.317  23.934  1.00  0.00     0.059 A 
ATOM     99  C   UNL A   1      33.686  23.255  24.536  1.00  0.00     0.170 A 
ATOM    100  Br  UNL A   1      35.442  23.638  24.039  1.00  0.00    -0.008 Br
ENDBRANCH  92  95
ENDBRANCH  86  91
ENDBRANCH  81  83
ENDBRANCH  80  81
ENDBRANCH  79  80
ENDBRANCH  78  79
ENDBRANCH  77  78
ENDBRANCH  76  77
ENDBRANCH   1  76
TORSDOF 23
ENDMDL
