MODEL 1
REMARK VINA RESULT:      -8.8      0.000      0.000
REMARK SMILES CC(=O)N1CCN(c2c(Cl)cccc2[C@@H]2C[C@H](C(=O)OCCOCCOCCOC(=O)c3ccc(-c4c5nc(c(-c6c(F)cc(S(=O)(=O)[O-])cc6F)c6ccc([nH]6)c(-c6c(F)cc(S(=O)(=O)[O-])cc6F)c6nc(c(-c7c(F)cc(S(=O)(=O)[O-])cc7F)c7ccc4[nH]7)C=C6)C=C5)cc3)CC2=O)CC1
REMARK SMILES IDX 25 1 24 2 23 3 22 4 21 5 20 6 18 7 19 8 17 9 15 10 16 11
REMARK SMILES IDX 99 12 98 13 100 14 14 15 8 16 9 17 10 18 11 19 13 20 12 21
REMARK SMILES IDX 7 22 1 23 2 24 3 25 4 26 5 27 102 28 6 29 101 30 26 31 27 32
REMARK SMILES IDX 28 33 29 34 30 35 31 36 32 37 33 38 97 39 34 40 96 41 35 42
REMARK SMILES IDX 36 43 37 44 90 45 38 46 95 47 89 48 91 49 39 50 94 51 88 52
REMARK SMILES IDX 87 53 40 55 74 56 53 57 73 58 54 59 57 60 72 61 92 62 55 63
REMARK SMILES IDX 56 64 71 66 93 67 58 68 41 69 42 70 51 71 43 72 44 73 50 74
REMARK SMILES IDX 52 75 45 76 46 77 47 78 48 79 49 80 75 81 76 82 85 83 77 84
REMARK SMILES IDX 78 85 84 86 86 87 79 88 80 89 81 90 82 91 83 92 59 93 60 94
REMARK SMILES IDX 69 95 61 96 62 97 68 98 70 99 63 100 64 101 65 102 66 103
REMARK SMILES IDX 67 104
REMARK H PARENT 91 54 57 65
REMARK Flexibility Score: inf
ROOT
ATOM      1  C   UNL A   1      34.046  31.966  28.000  1.00  0.00     0.188 C 
ENDROOT
BRANCH   1   2
ATOM      2  C   UNL A   1      35.001  30.789  27.664  1.00  0.00     0.188 C 
BRANCH   2   3
ATOM      3  O   UNL A   1      36.395  30.935  27.904  1.00  0.00    -0.376 OA
BRANCH   3   4
ATOM      4  C   UNL A   1      37.016  30.061  28.833  1.00  0.00     0.202 C 
BRANCH   4   5
ATOM      5  C   UNL A   1      38.527  30.189  29.086  1.00  0.00     0.261 C 
BRANCH   5   6
ATOM      6  O   UNL A   1      39.088  29.201  29.980  1.00  0.00    -0.463 OA
BRANCH   6   7
ATOM      7  C   UNL A   1      39.437  28.019  29.418  1.00  0.00     0.309 C 
ATOM      8  O   UNL A   1      38.822  26.976  29.610  1.00  0.00    -0.252 OA
BRANCH   7   9
ATOM      9  C   UNL A   1      40.732  28.071  28.594  1.00  0.00     0.107 C 
ATOM     10  C   UNL A   1      41.941  26.315  27.252  1.00  0.00     0.089 C 
ATOM     11  C   UNL A   1      41.352  26.673  28.625  1.00  0.00     0.032 C 
ATOM     12  C   UNL A   1      41.515  27.461  26.389  1.00  0.00     0.141 C 
ATOM     13  C   UNL A   1      40.678  28.461  27.123  1.00  0.00     0.091 C 
ATOM     14  O   UNL A   1      41.775  27.580  25.196  1.00  0.00    -0.299 OA
BRANCH  10  15
ATOM     15  C   UNL A   1      41.415  24.941  26.870  1.00  0.00    -0.013 A 
ATOM     16  C   UNL A   1      42.307  23.903  26.486  1.00  0.00     0.060 A 
ATOM     17  C   UNL A   1      41.786  22.588  26.379  1.00  0.00     0.064 A 
ATOM     18  Cl  UNL A   1      42.795  21.228  26.011  1.00  0.00    -0.082 Cl
ATOM     19  C   UNL A   1      40.455  22.306  26.680  1.00  0.00     0.023 A 
ATOM     20  C   UNL A   1      40.058  24.640  27.111  1.00  0.00     0.007 A 
ATOM     21  C   UNL A   1      39.600  23.330  27.060  1.00  0.00     0.002 A 
BRANCH  16  22
ATOM     22  N   UNL A   1      43.658  24.158  26.305  1.00  0.00    -0.367 N 
ATOM     23  C   UNL A   1      48.471  25.033  26.826  1.00  0.00     0.114 C 
ATOM     24  C   UNL A   1      47.464  25.487  25.805  1.00  0.00     0.219 C 
ATOM     25  O   UNL A   1      47.833  25.776  24.665  1.00  0.00    -0.275 OA
ATOM     26  N   UNL A   1      46.140  25.516  26.190  1.00  0.00    -0.339 N 
ATOM     27  C   UNL A   1      45.110  25.834  25.203  1.00  0.00     0.141 C 
ATOM     28  C   UNL A   1      45.597  25.142  27.507  1.00  0.00     0.141 C 
ATOM     29  C   UNL A   1      44.166  24.644  25.019  1.00  0.00     0.138 C 
ATOM     30  C   UNL A   1      44.611  23.955  27.403  1.00  0.00     0.138 C 
ENDBRANCH  16  22
ENDBRANCH  10  15
ENDBRANCH   7   9
ENDBRANCH   6   7
ENDBRANCH   5   6
ENDBRANCH   4   5
ENDBRANCH   3   4
ENDBRANCH   2   3
ENDBRANCH   1   2
BRANCH   1  31
ATOM     31  O   UNL A   1      34.700  33.210  27.989  1.00  0.00    -0.376 OA
BRANCH  31  32
ATOM     32  C   UNL A   1      33.942  34.386  27.849  1.00  0.00     0.202 C 
BRANCH  32  33
ATOM     33  C   UNL A   1      33.490  35.245  29.044  1.00  0.00     0.261 C 
BRANCH  33  34
ATOM     34  O   UNL A   1      32.902  34.607  30.187  1.00  0.00    -0.460 OA
BRANCH  34  35
ATOM     35  C   UNL A   1      32.926  35.290  31.354  1.00  0.00     0.338 C 
ATOM     36  O   UNL A   1      32.095  36.116  31.727  1.00  0.00    -0.246 OA
BRANCH  35  37
ATOM     37  C   UNL A   1      34.040  34.807  32.199  1.00  0.00     0.060 A 
ATOM     38  C   UNL A   1      34.872  35.731  32.847  1.00  0.00     0.016 A 
ATOM     39  C   UNL A   1      34.305  33.439  32.299  1.00  0.00     0.016 A 
ATOM     40  C   UNL A   1      35.989  35.287  33.569  1.00  0.00     0.010 A 
ATOM     41  C   UNL A   1      35.435  33.001  33.003  1.00  0.00     0.010 A 
ATOM     42  C   UNL A   1      36.303  33.920  33.618  1.00  0.00    -0.014 A 
BRANCH  42  43
ATOM     43  C   UNL A   1      37.599  33.451  34.187  1.00  0.00     0.031 A 
ATOM     44  C   UNL A   1      37.757  33.370  35.679  1.00  0.00     0.074 A 
ATOM     45  C   UNL A   1      38.643  33.136  33.397  1.00  0.00     0.049 A 
ATOM     46  N   UNL A   1      38.821  33.082  36.381  1.00  0.00    -0.248 NA
ATOM     47  C   UNL A   1      36.567  33.686  36.485  1.00  0.00     0.031 C 
ATOM     48  C   UNL A   1      38.629  33.209  31.943  1.00  0.00     0.029 A 
ATOM     49  N   UNL A   1      39.915  32.708  33.697  1.00  0.00    -0.354 N 
ATOM     50  C   UNL A   1      38.443  33.214  37.711  1.00  0.00     0.074 A 
ATOM     51  C   UNL A   1      37.051  33.611  37.717  1.00  0.00     0.031 C 
ATOM     52  C   UNL A   1      39.824  32.812  31.473  1.00  0.00     0.029 A 
ATOM     53  C   UNL A   1      40.706  32.493  32.590  1.00  0.00     0.049 A 
ATOM     54  H   UNL A   1      40.231  32.566  34.619  1.00  0.00     0.167 HD
ATOM     55  C   UNL A   1      39.193  33.033  38.824  1.00  0.00     0.037 A 
ATOM     56  C   UNL A   1      41.995  32.108  32.482  1.00  0.00     0.037 A 
ATOM     57  C   UNL A   1      40.578  32.633  38.816  1.00  0.00     0.049 A 
ATOM     58  C   UNL A   1      42.803  31.902  33.739  1.00  0.00     0.074 A 
ATOM     59  C   UNL A   1      41.410  32.408  39.900  1.00  0.00     0.029 A 
ATOM     60  N   UNL A   1      41.336  32.405  37.678  1.00  0.00    -0.354 N 
ATOM     61  N   UNL A   1      42.422  32.008  34.990  1.00  0.00    -0.248 NA
ATOM     62  C   UNL A   1      44.223  31.552  33.575  1.00  0.00     0.031 C 
ATOM     63  C   UNL A   1      42.684  32.095  39.417  1.00  0.00     0.029 A 
ATOM     64  C   UNL A   1      42.632  32.062  38.034  1.00  0.00     0.049 A 
ATOM     65  H   UNL A   1      41.004  32.475  36.753  1.00  0.00     0.167 HD
ATOM     66  C   UNL A   1      43.549  31.728  35.758  1.00  0.00     0.074 A 
ATOM     67  C   UNL A   1      44.619  31.417  34.833  1.00  0.00     0.031 C 
ATOM     68  C   UNL A   1      43.688  31.740  37.106  1.00  0.00     0.037 A 
BRANCH  55  69
ATOM     69  C   UNL A   1      38.548  33.301  40.154  1.00  0.00     0.058 A 
ATOM     70  C   UNL A   1      37.809  32.320  40.831  1.00  0.00     0.135 A 
ATOM     71  C   UNL A   1      38.728  34.542  40.788  1.00  0.00     0.135 A 
ATOM     72  F   UNL A   1      37.589  31.125  40.260  1.00  0.00    -0.206 F 
ATOM     73  C   UNL A   1      37.264  32.560  42.087  1.00  0.00     0.059 A 
ATOM     74  C   UNL A   1      38.216  34.795  42.057  1.00  0.00     0.059 A 
ATOM     75  F   UNL A   1      39.421  35.518  40.181  1.00  0.00    -0.206 F 
ATOM     76  C   UNL A   1      37.479  33.799  42.696  1.00  0.00     0.060 A 
BRANCH  76  77
ATOM     77  S   UNL A   1      36.799  34.080  44.343  1.00  0.00     0.124 S 
ATOM     78  O   UNL A   1      37.975  33.876  45.183  1.00  0.00    -0.237 OA
ATOM     79  O   UNL A   1      36.318  35.455  44.249  1.00  0.00    -0.237 OA
ATOM     80  O   UNL A   1      35.760  33.062  44.462  1.00  0.00    -0.744 OA
ENDBRANCH  76  77
ENDBRANCH  55  69
BRANCH  56  81
ATOM     81  C   UNL A   1      42.632  31.920  31.144  1.00  0.00     0.058 A 
ATOM     82  C   UNL A   1      43.146  33.012  30.423  1.00  0.00     0.135 A 
ATOM     83  C   UNL A   1      42.702  30.657  30.534  1.00  0.00     0.135 A 
ATOM     84  F   UNL A   1      43.093  34.246  30.949  1.00  0.00    -0.206 F 
ATOM     85  C   UNL A   1      43.671  32.865  29.141  1.00  0.00     0.059 A 
ATOM     86  C   UNL A   1      43.256  30.478  29.271  1.00  0.00     0.059 A 
ATOM     87  F   UNL A   1      42.238  29.573  31.176  1.00  0.00    -0.206 F 
ATOM     88  C   UNL A   1      43.719  31.592  28.572  1.00  0.00     0.060 A 
BRANCH  88  89
ATOM     89  S   UNL A   1      44.406  31.402  26.912  1.00  0.00     0.124 S 
ATOM     90  O   UNL A   1      44.403  32.779  26.434  1.00  0.00    -0.237 OA
ATOM     91  O   UNL A   1      45.717  30.822  27.185  1.00  0.00    -0.237 OA
ATOM     92  O   UNL A   1      43.456  30.505  26.260  1.00  0.00    -0.744 OA
ENDBRANCH  88  89
ENDBRANCH  56  81
BRANCH  68  93
ATOM     93  C   UNL A   1      45.033  31.371  37.674  1.00  0.00     0.058 A 
ATOM     94  C   UNL A   1      46.006  32.339  37.967  1.00  0.00     0.135 A 
ATOM     95  C   UNL A   1      45.330  30.033  37.980  1.00  0.00     0.135 A 
ATOM     96  F   UNL A   1      45.778  33.634  37.689  1.00  0.00    -0.206 F 
ATOM     97  C   UNL A   1      47.235  31.993  38.520  1.00  0.00     0.059 A 
ATOM     98  C   UNL A   1      46.539  29.666  38.562  1.00  0.00     0.059 A 
ATOM     99  F   UNL A   1      44.431  29.067  37.731  1.00  0.00    -0.206 F 
ATOM    100  C   UNL A   1      47.491  30.652  38.818  1.00  0.00     0.060 A 
BRANCH 100 101
ATOM    101  S   UNL A   1      49.074  30.219  39.568  1.00  0.00     0.124 S 
ATOM    102  O   UNL A   1      49.706  29.450  38.500  1.00  0.00    -0.237 OA
ATOM    103  O   UNL A   1      49.661  31.529  39.838  1.00  0.00    -0.237 OA
ATOM    104  O   UNL A   1      48.694  29.454  40.751  1.00  0.00    -0.744 OA
ENDBRANCH 100 101
ENDBRANCH  68  93
ENDBRANCH  42  43
ENDBRANCH  35  37
ENDBRANCH  34  35
ENDBRANCH  33  34
ENDBRANCH  32  33
ENDBRANCH  31  32
ENDBRANCH   1  31
TORSDOF 22
ENDMDL
MODEL 2
REMARK VINA RESULT:      -8.5      3.491     10.555
REMARK SMILES CC(=O)N1CCN(c2c(Cl)cccc2[C@@H]2C[C@H](C(=O)OCCOCCOCCOC(=O)c3ccc(-c4c5nc(c(-c6c(F)cc(S(=O)(=O)[O-])cc6F)c6ccc([nH]6)c(-c6c(F)cc(S(=O)(=O)[O-])cc6F)c6nc(c(-c7c(F)cc(S(=O)(=O)[O-])cc7F)c7ccc4[nH]7)C=C6)C=C5)cc3)CC2=O)CC1
REMARK SMILES IDX 25 1 24 2 23 3 22 4 21 5 20 6 18 7 19 8 17 9 15 10 16 11
REMARK SMILES IDX 99 12 98 13 100 14 14 15 8 16 9 17 10 18 11 19 13 20 12 21
REMARK SMILES IDX 7 22 1 23 2 24 3 25 4 26 5 27 102 28 6 29 101 30 26 31 27 32
REMARK SMILES IDX 28 33 29 34 30 35 31 36 32 37 33 38 97 39 34 40 96 41 35 42
REMARK SMILES IDX 36 43 37 44 90 45 38 46 95 47 89 48 91 49 39 50 94 51 88 52
REMARK SMILES IDX 87 53 40 55 74 56 53 57 73 58 54 59 57 60 72 61 92 62 55 63
REMARK SMILES IDX 56 64 71 66 93 67 58 68 41 69 42 70 51 71 43 72 44 73 50 74
REMARK SMILES IDX 52 75 45 76 46 77 47 78 48 79 49 80 75 81 76 82 85 83 77 84
REMARK SMILES IDX 78 85 84 86 86 87 79 88 80 89 81 90 82 91 83 92 59 93 60 94
REMARK SMILES IDX 69 95 61 96 62 97 68 98 70 99 63 100 64 101 65 102 66 103
REMARK SMILES IDX 67 104
REMARK H PARENT 91 54 57 65
REMARK Flexibility Score: inf
ROOT
ATOM      1  C   UNL A   1      47.243  27.916  26.806  1.00  0.00     0.188 C 
ENDROOT
BRANCH   1   2
ATOM      2  C   UNL A   1      48.414  27.467  27.723  1.00  0.00     0.188 C 
BRANCH   2   3
ATOM      3  O   UNL A   1      49.519  28.341  27.917  1.00  0.00    -0.376 OA
BRANCH   3   4
ATOM      4  C   UNL A   1      50.048  29.021  26.789  1.00  0.00     0.202 C 
BRANCH   4   5
ATOM      5  C   UNL A   1      50.252  30.544  26.863  1.00  0.00     0.261 C 
BRANCH   5   6
ATOM      6  O   UNL A   1      49.558  31.206  27.944  1.00  0.00    -0.463 OA
BRANCH   6   7
ATOM      7  C   UNL A   1      48.273  31.558  27.699  1.00  0.00     0.309 C 
ATOM      8  O   UNL A   1      47.764  31.514  26.584  1.00  0.00    -0.252 OA
BRANCH   7   9
ATOM      9  C   UNL A   1      47.528  32.115  28.921  1.00  0.00     0.107 C 
ATOM     10  C   UNL A   1      45.488  33.580  29.121  1.00  0.00     0.089 C 
ATOM     11  C   UNL A   1      46.888  33.441  28.504  1.00  0.00     0.032 C 
ATOM     12  C   UNL A   1      45.268  32.251  29.772  1.00  0.00     0.141 C 
ATOM     13  C   UNL A   1      46.408  31.304  29.559  1.00  0.00     0.091 C 
ATOM     14  O   UNL A   1      44.260  31.926  30.390  1.00  0.00    -0.299 OA
BRANCH  10  15
ATOM     15  C   UNL A   1      44.528  33.960  28.006  1.00  0.00    -0.013 A 
ATOM     16  C   UNL A   1      43.603  35.025  28.174  1.00  0.00     0.060 A 
ATOM     17  C   UNL A   1      42.910  35.489  27.027  1.00  0.00     0.064 A 
ATOM     18  Cl  UNL A   1      41.829  36.842  27.091  1.00  0.00    -0.082 Cl
ATOM     19  C   UNL A   1      43.153  34.953  25.763  1.00  0.00     0.023 A 
ATOM     20  C   UNL A   1      44.712  33.393  26.727  1.00  0.00     0.007 A 
ATOM     21  C   UNL A   1      44.065  33.918  25.616  1.00  0.00     0.002 A 
BRANCH  16  22
ATOM     22  N   UNL A   1      43.449  35.643  29.406  1.00  0.00    -0.367 N 
ATOM     23  C   UNL A   1      43.881  38.382  33.470  1.00  0.00     0.114 C 
ATOM     24  C   UNL A   1      43.330  37.003  33.232  1.00  0.00     0.219 C 
ATOM     25  O   UNL A   1      42.463  36.551  33.982  1.00  0.00    -0.275 OA
ATOM     26  N   UNL A   1      43.801  36.313  32.135  1.00  0.00    -0.339 N 
ATOM     27  C   UNL A   1      43.212  35.019  31.791  1.00  0.00     0.141 C 
ATOM     28  C   UNL A   1      44.792  36.787  31.155  1.00  0.00     0.141 C 
ATOM     29  C   UNL A   1      42.543  35.090  30.417  1.00  0.00     0.138 C 
ATOM     30  C   UNL A   1      44.197  36.864  29.730  1.00  0.00     0.138 C 
ENDBRANCH  16  22
ENDBRANCH  10  15
ENDBRANCH   7   9
ENDBRANCH   6   7
ENDBRANCH   5   6
ENDBRANCH   4   5
ENDBRANCH   3   4
ENDBRANCH   2   3
ENDBRANCH   1   2
BRANCH   1  31
ATOM     31  O   UNL A   1      47.173  27.169  25.618  1.00  0.00    -0.376 OA
BRANCH  31  32
ATOM     32  C   UNL A   1      45.916  26.879  25.059  1.00  0.00     0.202 C 
BRANCH  32  33
ATOM     33  C   UNL A   1      44.960  25.819  25.636  1.00  0.00     0.261 C 
BRANCH  33  34
ATOM     34  O   UNL A   1      43.555  25.913  25.358  1.00  0.00    -0.460 OA
BRANCH  34  35
ATOM     35  C   UNL A   1      43.009  27.151  25.362  1.00  0.00     0.338 C 
ATOM     36  O   UNL A   1      42.588  27.760  24.381  1.00  0.00    -0.246 OA
BRANCH  35  37
ATOM     37  C   UNL A   1      42.862  27.633  26.753  1.00  0.00     0.060 A 
ATOM     38  C   UNL A   1      42.100  26.893  27.668  1.00  0.00     0.016 A 
ATOM     39  C   UNL A   1      43.424  28.852  27.138  1.00  0.00     0.016 A 
ATOM     40  C   UNL A   1      41.872  27.390  28.959  1.00  0.00     0.010 A 
ATOM     41  C   UNL A   1      43.177  29.356  28.422  1.00  0.00     0.010 A 
ATOM     42  C   UNL A   1      42.375  28.646  29.333  1.00  0.00    -0.014 A 
BRANCH  42  43
ATOM     43  C   UNL A   1      41.960  29.288  30.613  1.00  0.00     0.031 A 
ATOM     44  C   UNL A   1      40.689  30.087  30.653  1.00  0.00     0.074 A 
ATOM     45  C   UNL A   1      42.718  29.201  31.723  1.00  0.00     0.049 A 
ATOM     46  N   UNL A   1      40.194  30.802  31.630  1.00  0.00    -0.248 NA
ATOM     47  C   UNL A   1      39.885  30.108  29.421  1.00  0.00     0.031 C 
ATOM     48  C   UNL A   1      43.986  28.491  31.803  1.00  0.00     0.029 A 
ATOM     49  N   UNL A   1      42.546  29.719  32.986  1.00  0.00    -0.354 N 
ATOM     50  C   UNL A   1      39.041  31.386  31.123  1.00  0.00     0.074 A 
ATOM     51  C   UNL A   1      38.910  30.944  29.751  1.00  0.00     0.031 C 
ATOM     52  C   UNL A   1      44.467  28.591  33.055  1.00  0.00     0.029 A 
ATOM     53  C   UNL A   1      43.563  29.406  33.860  1.00  0.00     0.049 A 
ATOM     54  H   UNL A   1      41.766  30.263  33.242  1.00  0.00     0.167 HD
ATOM     55  C   UNL A   1      38.178  32.226  31.743  1.00  0.00     0.037 A 
ATOM     56  C   UNL A   1      43.763  29.751  35.149  1.00  0.00     0.037 A 
ATOM     57  C   UNL A   1      38.307  32.661  33.111  1.00  0.00     0.049 A 
ATOM     58  C   UNL A   1      42.778  30.677  35.818  1.00  0.00     0.074 A 
ATOM     59  C   UNL A   1      37.465  33.497  33.826  1.00  0.00     0.029 A 
ATOM     60  N   UNL A   1      39.337  32.306  33.968  1.00  0.00    -0.354 N 
ATOM     61  N   UNL A   1      41.679  31.202  35.330  1.00  0.00    -0.248 NA
ATOM     62  C   UNL A   1      43.071  31.084  37.201  1.00  0.00     0.031 C 
ATOM     63  C   UNL A   1      38.014  33.690  35.097  1.00  0.00     0.029 A 
ATOM     64  C   UNL A   1      39.163  32.924  35.198  1.00  0.00     0.049 A 
ATOM     65  H   UNL A   1      40.081  31.704  33.739  1.00  0.00     0.167 HD
ATOM     66  C   UNL A   1      41.146  31.988  36.349  1.00  0.00     0.074 A 
ATOM     67  C   UNL A   1      42.026  31.847  37.489  1.00  0.00     0.031 C 
ATOM     68  C   UNL A   1      40.037  32.767  36.334  1.00  0.00     0.037 A 
BRANCH  55  69
ATOM     69  C   UNL A   1      37.028  32.766  30.940  1.00  0.00     0.058 A 
ATOM     70  C   UNL A   1      35.737  32.227  31.038  1.00  0.00     0.135 A 
ATOM     71  C   UNL A   1      37.212  33.882  30.107  1.00  0.00     0.135 A 
ATOM     72  F   UNL A   1      35.511  31.146  31.802  1.00  0.00    -0.206 F 
ATOM     73  C   UNL A   1      34.669  32.770  30.333  1.00  0.00     0.059 A 
ATOM     74  C   UNL A   1      36.153  34.460  29.415  1.00  0.00     0.059 A 
ATOM     75  F   UNL A   1      38.430  34.432  29.973  1.00  0.00    -0.206 F 
ATOM     76  C   UNL A   1      34.885  33.892  29.530  1.00  0.00     0.060 A 
BRANCH  76  77
ATOM     77  S   UNL A   1      33.480  34.609  28.653  1.00  0.00     0.124 S 
ATOM     78  O   UNL A   1      32.569  34.904  29.755  1.00  0.00    -0.237 OA
ATOM     79  O   UNL A   1      34.081  35.769  28.001  1.00  0.00    -0.237 OA
ATOM     80  O   UNL A   1      33.055  33.539  27.757  1.00  0.00    -0.744 OA
ENDBRANCH  76  77
ENDBRANCH  55  69
BRANCH  56  81
ATOM     81  C   UNL A   1      44.955  29.257  35.902  1.00  0.00     0.058 A 
ATOM     82  C   UNL A   1      44.902  28.070  36.654  1.00  0.00     0.135 A 
ATOM     83  C   UNL A   1      46.158  29.981  35.927  1.00  0.00     0.135 A 
ATOM     84  F   UNL A   1      43.773  27.345  36.680  1.00  0.00    -0.206 F 
ATOM     85  C   UNL A   1      45.979  27.639  37.424  1.00  0.00     0.059 A 
ATOM     86  C   UNL A   1      47.261  29.552  36.659  1.00  0.00     0.059 A 
ATOM     87  F   UNL A   1      46.276  31.117  35.221  1.00  0.00    -0.206 F 
ATOM     88  C   UNL A   1      47.155  28.390  37.422  1.00  0.00     0.060 A 
BRANCH  88  89
ATOM     89  S   UNL A   1      48.554  27.827  38.417  1.00  0.00     0.124 S 
ATOM     90  O   UNL A   1      48.240  26.413  38.591  1.00  0.00    -0.237 OA
ATOM     91  O   UNL A   1      49.690  28.128  37.551  1.00  0.00    -0.237 OA
ATOM     92  O   UNL A   1      48.458  28.648  39.621  1.00  0.00    -0.744 OA
ENDBRANCH  88  89
ENDBRANCH  56  81
BRANCH  68  93
ATOM     93  C   UNL A   1      39.682  33.501  37.599  1.00  0.00     0.058 A 
ATOM     94  C   UNL A   1      38.777  32.974  38.535  1.00  0.00     0.135 A 
ATOM     95  C   UNL A   1      40.297  34.726  37.905  1.00  0.00     0.135 A 
ATOM     96  F   UNL A   1      38.154  31.809  38.291  1.00  0.00    -0.206 F 
ATOM     97  C   UNL A   1      38.477  33.646  39.716  1.00  0.00     0.059 A 
ATOM     98  C   UNL A   1      40.037  35.400  39.094  1.00  0.00     0.059 A 
ATOM     99  F   UNL A   1      41.179  35.271  37.051  1.00  0.00    -0.206 F 
ATOM    100  C   UNL A   1      39.116  34.857  39.989  1.00  0.00     0.060 A 
BRANCH 100 101
ATOM    101  S   UNL A   1      38.745  35.702  41.540  1.00  0.00     0.124 S 
ATOM    102  O   UNL A   1      38.897  37.102  41.158  1.00  0.00    -0.237 OA
ATOM    103  O   UNL A   1      37.379  35.265  41.814  1.00  0.00    -0.237 OA
ATOM    104  O   UNL A   1      39.756  35.189  42.459  1.00  0.00    -0.744 OA
ENDBRANCH 100 101
ENDBRANCH  68  93
ENDBRANCH  42  43
ENDBRANCH  35  37
ENDBRANCH  34  35
ENDBRANCH  33  34
ENDBRANCH  32  33
ENDBRANCH  31  32
ENDBRANCH   1  31
TORSDOF 22
ENDMDL
MODEL 3
REMARK VINA RESULT:      -8.4      3.972      9.414
REMARK SMILES CC(=O)N1CCN(c2c(Cl)cccc2[C@@H]2C[C@H](C(=O)OCCOCCOCCOC(=O)c3ccc(-c4c5nc(c(-c6c(F)cc(S(=O)(=O)[O-])cc6F)c6ccc([nH]6)c(-c6c(F)cc(S(=O)(=O)[O-])cc6F)c6nc(c(-c7c(F)cc(S(=O)(=O)[O-])cc7F)c7ccc4[nH]7)C=C6)C=C5)cc3)CC2=O)CC1
REMARK SMILES IDX 25 1 24 2 23 3 22 4 21 5 20 6 18 7 19 8 17 9 15 10 16 11
REMARK SMILES IDX 99 12 98 13 100 14 14 15 8 16 9 17 10 18 11 19 13 20 12 21
REMARK SMILES IDX 7 22 1 23 2 24 3 25 4 26 5 27 102 28 6 29 101 30 26 31 27 32
REMARK SMILES IDX 28 33 29 34 30 35 31 36 32 37 33 38 97 39 34 40 96 41 35 42
REMARK SMILES IDX 36 43 37 44 90 45 38 46 95 47 89 48 91 49 39 50 94 51 88 52
REMARK SMILES IDX 87 53 40 55 74 56 53 57 73 58 54 59 57 60 72 61 92 62 55 63
REMARK SMILES IDX 56 64 71 66 93 67 58 68 41 69 42 70 51 71 43 72 44 73 50 74
REMARK SMILES IDX 52 75 45 76 46 77 47 78 48 79 49 80 75 81 76 82 85 83 77 84
REMARK SMILES IDX 78 85 84 86 86 87 79 88 80 89 81 90 82 91 83 92 59 93 60 94
REMARK SMILES IDX 69 95 61 96 62 97 68 98 70 99 63 100 64 101 65 102 66 103
REMARK SMILES IDX 67 104
REMARK H PARENT 91 54 57 65
REMARK Flexibility Score: inf
ROOT
ATOM      1  C   UNL A   1      40.610  28.092  27.033  1.00  0.00     0.188 C 
ENDROOT
BRANCH   1   2
ATOM      2  C   UNL A   1      39.288  28.907  27.054  1.00  0.00     0.188 C 
BRANCH   2   3
ATOM      3  O   UNL A   1      38.202  28.448  27.851  1.00  0.00    -0.376 OA
BRANCH   3   4
ATOM      4  C   UNL A   1      37.243  29.395  28.294  1.00  0.00     0.202 C 
BRANCH   4   5
ATOM      5  C   UNL A   1      36.103  29.805  27.346  1.00  0.00     0.261 C 
BRANCH   5   6
ATOM      6  O   UNL A   1      34.791  29.864  27.950  1.00  0.00    -0.463 OA
BRANCH   6   7
ATOM      7  C   UNL A   1      33.762  29.437  27.180  1.00  0.00     0.309 C 
ATOM      8  O   UNL A   1      32.589  29.499  27.532  1.00  0.00    -0.252 OA
BRANCH   7   9
ATOM      9  C   UNL A   1      34.192  28.771  25.865  1.00  0.00     0.107 C 
ATOM     10  C   UNL A   1      33.360  26.714  24.673  1.00  0.00     0.089 C 
ATOM     11  C   UNL A   1      33.909  27.273  25.994  1.00  0.00     0.032 C 
ATOM     12  C   UNL A   1      33.186  27.938  23.830  1.00  0.00     0.141 C 
ATOM     13  C   UNL A   1      33.545  29.198  24.554  1.00  0.00     0.091 C 
ATOM     14  O   UNL A   1      32.762  27.947  22.679  1.00  0.00    -0.299 OA
BRANCH  10  15
ATOM     15  C   UNL A   1      32.103  25.922  24.994  1.00  0.00    -0.013 A 
ATOM     16  C   UNL A   1      32.173  24.533  25.284  1.00  0.00     0.060 A 
ATOM     17  C   UNL A   1      31.015  23.907  25.811  1.00  0.00     0.064 A 
ATOM     18  Cl  UNL A   1      31.008  22.241  26.289  1.00  0.00    -0.082 Cl
ATOM     19  C   UNL A   1      29.854  24.631  26.080  1.00  0.00     0.023 A 
ATOM     20  C   UNL A   1      30.898  26.621  25.219  1.00  0.00     0.007 A 
ATOM     21  C   UNL A   1      29.805  25.988  25.798  1.00  0.00     0.002 A 
BRANCH  16  22
ATOM     22  N   UNL A   1      33.362  23.835  25.133  1.00  0.00    -0.367 N 
ATOM     23  C   UNL A   1      37.838  21.854  25.619  1.00  0.00     0.114 C 
ATOM     24  C   UNL A   1      37.047  22.286  24.415  1.00  0.00     0.219 C 
ATOM     25  O   UNL A   1      37.249  21.749  23.324  1.00  0.00    -0.275 OA
ATOM     26  N   UNL A   1      36.082  23.251  24.604  1.00  0.00    -0.339 N 
ATOM     27  C   UNL A   1      35.205  23.620  23.493  1.00  0.00     0.141 C 
ATOM     28  C   UNL A   1      35.732  23.911  25.873  1.00  0.00     0.141 C 
ATOM     29  C   UNL A   1      33.751  23.285  23.831  1.00  0.00     0.138 C 
ATOM     30  C   UNL A   1      34.264  23.639  26.274  1.00  0.00     0.138 C 
ENDBRANCH  16  22
ENDBRANCH  10  15
ENDBRANCH   7   9
ENDBRANCH   6   7
ENDBRANCH   5   6
ENDBRANCH   4   5
ENDBRANCH   3   4
ENDBRANCH   2   3
ENDBRANCH   1   2
BRANCH   1  31
ATOM     31  O   UNL A   1      40.405  26.741  26.705  1.00  0.00    -0.376 OA
BRANCH  31  32
ATOM     32  C   UNL A   1      41.243  26.127  25.758  1.00  0.00     0.202 C 
BRANCH  32  33
ATOM     33  C   UNL A   1      41.882  24.742  25.969  1.00  0.00     0.261 C 
BRANCH  33  34
ATOM     34  O   UNL A   1      43.022  24.617  26.831  1.00  0.00    -0.460 OA
BRANCH  34  35
ATOM     35  C   UNL A   1      43.971  25.578  26.739  1.00  0.00     0.338 C 
ATOM     36  O   UNL A   1      44.744  25.743  25.798  1.00  0.00    -0.246 OA
BRANCH  35  37
ATOM     37  C   UNL A   1      43.865  26.504  27.887  1.00  0.00     0.060 A 
ATOM     38  C   UNL A   1      43.273  26.067  29.081  1.00  0.00     0.016 A 
ATOM     39  C   UNL A   1      44.293  27.828  27.765  1.00  0.00     0.016 A 
ATOM     40  C   UNL A   1      43.077  26.965  30.140  1.00  0.00     0.010 A 
ATOM     41  C   UNL A   1      44.076  28.728  28.817  1.00  0.00     0.010 A 
ATOM     42  C   UNL A   1      43.441  28.314  30.001  1.00  0.00    -0.014 A 
BRANCH  42  43
ATOM     43  C   UNL A   1      43.041  29.324  31.022  1.00  0.00     0.031 A 
ATOM     44  C   UNL A   1      43.912  29.530  32.228  1.00  0.00     0.074 A 
ATOM     45  C   UNL A   1      41.897  30.026  30.909  1.00  0.00     0.049 A 
ATOM     46  N   UNL A   1      43.706  30.282  33.277  1.00  0.00    -0.248 NA
ATOM     47  C   UNL A   1      45.168  28.763  32.272  1.00  0.00     0.031 C 
ATOM     48  C   UNL A   1      40.951  29.892  29.811  1.00  0.00     0.029 A 
ATOM     49  N   UNL A   1      41.329  30.979  31.724  1.00  0.00    -0.354 N 
ATOM     50  C   UNL A   1      44.784  30.057  34.122  1.00  0.00     0.074 A 
ATOM     51  C   UNL A   1      45.643  29.095  33.465  1.00  0.00     0.031 C 
ATOM     52  C   UNL A   1      39.933  30.748  30.002  1.00  0.00     0.029 A 
ATOM     53  C   UNL A   1      40.130  31.468  31.256  1.00  0.00     0.049 A 
ATOM     54  H   UNL A   1      41.744  31.283  32.564  1.00  0.00     0.167 HD
ATOM     55  C   UNL A   1      45.027  30.594  35.342  1.00  0.00     0.037 A 
ATOM     56  C   UNL A   1      39.275  32.370  31.781  1.00  0.00     0.037 A 
ATOM     57  C   UNL A   1      44.174  31.555  35.992  1.00  0.00     0.049 A 
ATOM     58  C   UNL A   1      39.578  32.961  33.135  1.00  0.00     0.074 A 
ATOM     59  C   UNL A   1      44.355  32.168  37.222  1.00  0.00     0.029 A 
ATOM     60  N   UNL A   1      42.981  32.042  35.478  1.00  0.00    -0.354 N 
ATOM     61  N   UNL A   1      40.616  32.754  33.911  1.00  0.00    -0.248 NA
ATOM     62  C   UNL A   1      38.584  33.886  33.702  1.00  0.00     0.031 C 
ATOM     63  C   UNL A   1      43.248  32.982  37.474  1.00  0.00     0.029 A 
ATOM     64  C   UNL A   1      42.406  32.929  36.376  1.00  0.00     0.049 A 
ATOM     65  H   UNL A   1      42.599  31.794  34.605  1.00  0.00     0.167 HD
ATOM     66  C   UNL A   1      40.404  33.530  35.047  1.00  0.00     0.074 A 
ATOM     67  C   UNL A   1      39.156  34.234  34.847  1.00  0.00     0.031 C 
ATOM     68  C   UNL A   1      41.168  33.637  36.161  1.00  0.00     0.037 A 
BRANCH  55  69
ATOM     69  C   UNL A   1      46.252  30.131  36.078  1.00  0.00     0.058 A 
ATOM     70  C   UNL A   1      47.481  30.797  35.968  1.00  0.00     0.135 A 
ATOM     71  C   UNL A   1      46.174  29.038  36.958  1.00  0.00     0.135 A 
ATOM     72  F   UNL A   1      47.615  31.833  35.125  1.00  0.00    -0.206 F 
ATOM     73  C   UNL A   1      48.593  30.393  36.698  1.00  0.00     0.059 A 
ATOM     74  C   UNL A   1      47.266  28.634  37.721  1.00  0.00     0.059 A 
ATOM     75  F   UNL A   1      45.023  28.361  37.096  1.00  0.00    -0.206 F 
ATOM     76  C   UNL A   1      48.473  29.315  37.578  1.00  0.00     0.060 A 
BRANCH  76  77
ATOM     77  S   UNL A   1      49.916  28.829  38.548  1.00  0.00     0.124 S 
ATOM     78  O   UNL A   1      50.003  29.924  39.509  1.00  0.00    -0.237 OA
ATOM     79  O   UNL A   1      49.503  27.540  39.093  1.00  0.00    -0.237 OA
ATOM     80  O   UNL A   1      50.989  28.775  37.561  1.00  0.00    -0.744 OA
ENDBRANCH  76  77
ENDBRANCH  55  69
BRANCH  56  81
ATOM     81  C   UNL A   1      38.026  32.758  31.058  1.00  0.00     0.058 A 
ATOM     82  C   UNL A   1      38.045  33.731  30.044  1.00  0.00     0.135 A 
ATOM     83  C   UNL A   1      36.781  32.201  31.393  1.00  0.00     0.135 A 
ATOM     84  F   UNL A   1      39.204  34.309  29.692  1.00  0.00    -0.206 F 
ATOM     85  C   UNL A   1      36.878  34.160  29.417  1.00  0.00     0.059 A 
ATOM     86  C   UNL A   1      35.606  32.586  30.755  1.00  0.00     0.059 A 
ATOM     87  F   UNL A   1      36.699  31.259  32.346  1.00  0.00    -0.206 F 
ATOM     88  C   UNL A   1      35.661  33.583  29.782  1.00  0.00     0.060 A 
BRANCH  88  89
ATOM     89  S   UNL A   1      34.150  34.136  28.963  1.00  0.00     0.124 S 
ATOM     90  O   UNL A   1      33.291  34.437  30.103  1.00  0.00    -0.237 OA
ATOM     91  O   UNL A   1      34.618  35.285  28.194  1.00  0.00    -0.237 OA
ATOM     92  O   UNL A   1      33.759  32.976  28.166  1.00  0.00    -0.744 OA
ENDBRANCH  88  89
ENDBRANCH  56  81
BRANCH  68  93
ATOM     93  C   UNL A   1      40.703  34.579  37.240  1.00  0.00     0.058 A 
ATOM     94  C   UNL A   1      40.892  35.967  37.147  1.00  0.00     0.135 A 
ATOM     95  C   UNL A   1      40.010  34.088  38.359  1.00  0.00     0.135 A 
ATOM     96  F   UNL A   1      41.554  36.490  36.102  1.00  0.00    -0.206 F 
ATOM     97  C   UNL A   1      40.432  36.833  38.135  1.00  0.00     0.059 A 
ATOM     98  C   UNL A   1      39.514  34.937  39.343  1.00  0.00     0.059 A 
ATOM     99  F   UNL A   1      39.792  32.770  38.494  1.00  0.00    -0.206 F 
ATOM    100  C   UNL A   1      39.740  36.308  39.228  1.00  0.00     0.060 A 
BRANCH 100 101
ATOM    101  S   UNL A   1      39.118  37.444  40.486  1.00  0.00     0.124 S 
ATOM    102  O   UNL A   1      40.306  37.655  41.306  1.00  0.00    -0.237 OA
ATOM    103  O   UNL A   1      38.687  38.588  39.687  1.00  0.00    -0.237 OA
ATOM    104  O   UNL A   1      38.041  36.691  41.122  1.00  0.00    -0.744 OA
ENDBRANCH 100 101
ENDBRANCH  68  93
ENDBRANCH  42  43
ENDBRANCH  35  37
ENDBRANCH  34  35
ENDBRANCH  33  34
ENDBRANCH  32  33
ENDBRANCH  31  32
ENDBRANCH   1  31
TORSDOF 22
ENDMDL
