MODEL 1
REMARK VINA RESULT:      -9.5      0.000      0.000
REMARK SMILES CC[C@@H]([NH3+])C(=O)N1CC[C@H](C(=O)OCCOCCOCCOC(=O)c2ccc(-c3c4nc(c(-c5c(F)cc(S(=O)(=O)[O-])cc5F)c5ccc([nH]5)c(-c5c(F)cc(S(=O)(=O)[O-])cc5F)c5nc(c(-c6c(F)cc(S(=O)(=O)[O-])cc6F)c6ccc3[nH]6)C=C5)C=C4)cc2)[C@@H]1C
REMARK SMILES IDX 17 1 16 2 15 3 14 4 13 5 11 6 12 7 10 8 7 9 8 10 91 11 9 12
REMARK SMILES IDX 92 13 5 14 6 15 3 16 2 17 1 18 4 19 18 23 19 24 20 25 21 26
REMARK SMILES IDX 22 27 23 28 24 29 25 30 26 31 90 32 27 33 89 34 28 35 29 36
REMARK SMILES IDX 30 37 83 38 31 39 88 40 82 41 84 42 32 43 87 44 81 45 80 46
REMARK SMILES IDX 33 48 67 49 46 50 66 51 47 52 50 53 65 54 85 55 48 56 49 57
REMARK SMILES IDX 64 59 86 60 51 61 34 62 35 63 44 64 36 65 37 66 43 67 45 68
REMARK SMILES IDX 38 69 39 70 40 71 41 72 42 73 68 74 69 75 78 76 70 77 71 78
REMARK SMILES IDX 77 79 79 80 72 81 73 82 74 83 75 84 76 85 52 86 53 87 62 88
REMARK SMILES IDX 54 89 55 90 61 91 63 92 56 93 57 94 58 95 59 96 60 97
REMARK H PARENT 4 20 4 21 4 22 84 47 50 58
REMARK Flexibility Score: inf
ROOT
ATOM      1  C   UNL A   1      41.100  20.526  27.405  1.00  0.00     0.188 C 
ENDROOT
BRANCH   1   2
ATOM      2  O   UNL A   1      39.932  21.331  27.272  1.00  0.00    -0.376 OA
BRANCH   2   3
ATOM      3  C   UNL A   1      39.392  21.471  25.962  1.00  0.00     0.202 C 
BRANCH   3   4
ATOM      4  C   UNL A   1      38.006  22.117  25.885  1.00  0.00     0.261 C 
BRANCH   4   5
ATOM      5  O   UNL A   1      36.976  21.253  25.345  1.00  0.00    -0.463 OA
BRANCH   5   6
ATOM      6  C   UNL A   1      35.695  21.607  25.660  1.00  0.00     0.311 C 
ATOM      7  O   UNL A   1      35.305  21.786  26.805  1.00  0.00    -0.252 OA
BRANCH   6   8
ATOM      8  C   UNL A   1      34.796  21.666  24.421  1.00  0.00     0.123 C 
ATOM      9  N   UNL A   1      32.701  22.758  24.832  1.00  0.00    -0.334 N 
ATOM     10  C   UNL A   1      32.633  21.419  25.398  1.00  0.00     0.121 C 
ATOM     11  C   UNL A   1      33.998  22.975  24.182  1.00  0.00     0.096 C 
ATOM     12  C   UNL A   1      33.676  20.637  24.605  1.00  0.00     0.039 C 
ATOM     13  C   UNL A   1      34.747  24.181  24.712  1.00  0.00     0.032 C 
BRANCH   9  14
ATOM     14  C   UNL A   1      31.551  23.520  24.859  1.00  0.00     0.280 C 
ATOM     15  O   UNL A   1      30.748  23.445  23.919  1.00  0.00    -0.268 OA
BRANCH  14  16
ATOM     16  C   UNL A   1      31.307  24.613  25.938  1.00  0.00     0.270 C 
BRANCH  16  17
ATOM     17  C   UNL A   1      31.523  26.067  25.532  1.00  0.00     0.072 C 
ATOM     18  C   UNL A   1      31.956  26.964  26.687  1.00  0.00     0.011 C 
ENDBRANCH  16  17
BRANCH  16  19
ATOM     19  N   UNL A   1      29.977  24.408  26.558  1.00  0.00    -0.347 N 
ATOM     20  H   UNL A   1      29.893  23.439  26.870  1.00  0.00     0.345 HD
ATOM     21  H   UNL A   1      29.248  24.608  25.873  1.00  0.00     0.345 HD
ATOM     22  H   UNL A   1      29.874  25.032  27.357  1.00  0.00     0.345 HD
ENDBRANCH  16  19
ENDBRANCH  14  16
ENDBRANCH   9  14
ENDBRANCH   6   8
ENDBRANCH   5   6
ENDBRANCH   4   5
ENDBRANCH   3   4
ENDBRANCH   2   3
ENDBRANCH   1   2
BRANCH   1  23
ATOM     23  C   UNL A   1      41.775  20.129  26.083  1.00  0.00     0.188 C 
BRANCH  23  24
ATOM     24  O   UNL A   1      43.165  20.426  25.979  1.00  0.00    -0.376 OA
BRANCH  24  25
ATOM     25  C   UNL A   1      43.540  21.785  26.196  1.00  0.00     0.202 C 
BRANCH  25  26
ATOM     26  C   UNL A   1      42.807  22.788  25.302  1.00  0.00     0.261 C 
BRANCH  26  27
ATOM     27  O   UNL A   1      42.113  23.782  26.088  1.00  0.00    -0.460 OA
BRANCH  27  28
ATOM     28  C   UNL A   1      42.304  25.067  25.704  1.00  0.00     0.338 C 
ATOM     29  O   UNL A   1      42.776  25.454  24.649  1.00  0.00    -0.246 OA
BRANCH  28  30
ATOM     30  C   UNL A   1      41.723  25.996  26.692  1.00  0.00     0.060 A 
ATOM     31  C   UNL A   1      42.144  27.328  26.648  1.00  0.00     0.016 A 
ATOM     32  C   UNL A   1      40.902  25.553  27.728  1.00  0.00     0.016 A 
ATOM     33  C   UNL A   1      41.792  28.215  27.665  1.00  0.00     0.010 A 
ATOM     34  C   UNL A   1      40.551  26.443  28.753  1.00  0.00     0.010 A 
ATOM     35  C   UNL A   1      41.026  27.770  28.749  1.00  0.00    -0.014 A 
BRANCH  35  36
ATOM     36  C   UNL A   1      40.854  28.644  29.941  1.00  0.00     0.031 A 
ATOM     37  C   UNL A   1      41.813  28.509  31.097  1.00  0.00     0.074 A 
ATOM     38  C   UNL A   1      39.903  29.596  29.978  1.00  0.00     0.049 A 
ATOM     39  N   UNL A   1      41.791  29.087  32.271  1.00  0.00    -0.248 NA
ATOM     40  C   UNL A   1      42.954  27.601  30.896  1.00  0.00     0.031 C 
ATOM     41  C   UNL A   1      38.978  29.909  28.891  1.00  0.00     0.029 A 
ATOM     42  N   UNL A   1      39.569  30.486  30.970  1.00  0.00    -0.354 N 
ATOM     43  C   UNL A   1      42.895  28.597  32.957  1.00  0.00     0.074 A 
ATOM     44  C   UNL A   1      43.560  27.661  32.073  1.00  0.00     0.031 C 
ATOM     45  C   UNL A   1      38.192  30.932  29.268  1.00  0.00     0.029 A 
ATOM     46  C   UNL A   1      38.518  31.308  30.642  1.00  0.00     0.049 A 
ATOM     47  H   UNL A   1      40.038  30.530  31.834  1.00  0.00     0.167 HD
ATOM     48  C   UNL A   1      43.321  28.897  34.209  1.00  0.00     0.037 A 
ATOM     49  C   UNL A   1      37.876  32.240  31.373  1.00  0.00     0.037 A 
ATOM     50  C   UNL A   1      42.670  29.839  35.082  1.00  0.00     0.049 A 
ATOM     51  C   UNL A   1      38.305  32.492  32.795  1.00  0.00     0.074 A 
ATOM     52  C   UNL A   1      42.998  30.181  36.382  1.00  0.00     0.029 A 
ATOM     53  N   UNL A   1      41.561  30.599  34.738  1.00  0.00    -0.354 N 
ATOM     54  N   UNL A   1      39.302  31.962  33.463  1.00  0.00    -0.248 NA
ATOM     55  C   UNL A   1      37.508  33.454  33.569  1.00  0.00     0.031 C 
ATOM     56  C   UNL A   1      42.068  31.125  36.836  1.00  0.00     0.029 A 
ATOM     57  C   UNL A   1      41.185  31.399  35.805  1.00  0.00     0.049 A 
ATOM     58  H   UNL A   1      41.109  30.573  33.865  1.00  0.00     0.167 HD
ATOM     59  C   UNL A   1      39.264  32.540  34.728  1.00  0.00     0.074 A 
ATOM     60  C   UNL A   1      38.153  33.468  34.730  1.00  0.00     0.031 C 
ATOM     61  C   UNL A   1      40.076  32.322  35.792  1.00  0.00     0.037 A 
BRANCH  48  62
ATOM     62  C   UNL A   1      44.524  28.154  34.720  1.00  0.00     0.058 A 
ATOM     63  C   UNL A   1      45.824  28.672  34.600  1.00  0.00     0.135 A 
ATOM     64  C   UNL A   1      44.376  26.895  35.323  1.00  0.00     0.135 A 
ATOM     65  F   UNL A   1      46.025  29.864  34.015  1.00  0.00    -0.206 F 
ATOM     66  C   UNL A   1      46.936  27.949  35.020  1.00  0.00     0.059 A 
ATOM     67  C   UNL A   1      45.472  26.165  35.772  1.00  0.00     0.059 A 
ATOM     68  F   UNL A   1      43.155  26.353  35.464  1.00  0.00    -0.206 F 
ATOM     69  C   UNL A   1      46.751  26.691  35.594  1.00  0.00     0.060 A 
BRANCH  69  70
ATOM     70  S   UNL A   1      48.203  25.740  36.092  1.00  0.00     0.124 S 
ATOM     71  O   UNL A   1      49.232  26.311  35.230  1.00  0.00    -0.237 OA
ATOM     72  O   UNL A   1      48.317  26.058  37.512  1.00  0.00    -0.237 OA
ATOM     73  O   UNL A   1      47.825  24.361  35.792  1.00  0.00    -0.744 OA
ENDBRANCH  69  70
ENDBRANCH  48  62
BRANCH  49  74
ATOM     74  C   UNL A   1      36.733  32.990  30.784  1.00  0.00     0.058 A 
ATOM     75  C   UNL A   1      36.945  34.046  29.887  1.00  0.00     0.135 A 
ATOM     76  C   UNL A   1      35.405  32.666  31.110  1.00  0.00     0.135 A 
ATOM     77  F   UNL A   1      38.195  34.409  29.561  1.00  0.00    -0.206 F 
ATOM     78  C   UNL A   1      35.885  34.759  29.335  1.00  0.00     0.059 A 
ATOM     79  C   UNL A   1      34.328  33.348  30.552  1.00  0.00     0.059 A 
ATOM     80  F   UNL A   1      35.148  31.664  31.965  1.00  0.00    -0.206 F 
ATOM     81  C   UNL A   1      34.578  34.398  29.671  1.00  0.00     0.060 A 
BRANCH  81  82
ATOM     82  S   UNL A   1      33.205  35.295  28.913  1.00  0.00     0.124 S 
ATOM     83  O   UNL A   1      32.428  35.688  30.082  1.00  0.00    -0.237 OA
ATOM     84  O   UNL A   1      33.890  36.375  28.209  1.00  0.00    -0.237 OA
ATOM     85  O   UNL A   1      32.585  34.293  28.051  1.00  0.00    -0.744 OA
ENDBRANCH  81  82
ENDBRANCH  49  74
BRANCH  61  86
ATOM     86  C   UNL A   1      39.812  33.120  37.039  1.00  0.00     0.058 A 
ATOM     87  C   UNL A   1      40.537  34.286  37.332  1.00  0.00     0.135 A 
ATOM     88  C   UNL A   1      38.797  32.737  37.929  1.00  0.00     0.135 A 
ATOM     89  F   UNL A   1      41.523  34.692  36.518  1.00  0.00    -0.206 F 
ATOM     90  C   UNL A   1      40.275  35.034  38.476  1.00  0.00     0.059 A 
ATOM     91  C   UNL A   1      38.504  33.482  39.067  1.00  0.00     0.059 A 
ATOM     92  F   UNL A   1      38.068  31.635  37.689  1.00  0.00    -0.206 F 
ATOM     93  C   UNL A   1      39.257  34.623  39.339  1.00  0.00     0.060 A 
BRANCH  93  94
ATOM     94  S   UNL A   1      38.905  35.618  40.805  1.00  0.00     0.124 S 
ATOM     95  O   UNL A   1      37.769  34.904  41.379  1.00  0.00    -0.237 OA
ATOM     96  O   UNL A   1      40.154  35.529  41.554  1.00  0.00    -0.237 OA
ATOM     97  O   UNL A   1      38.605  36.937  40.255  1.00  0.00    -0.744 OA
ENDBRANCH  93  94
ENDBRANCH  61  86
ENDBRANCH  35  36
ENDBRANCH  28  30
ENDBRANCH  27  28
ENDBRANCH  26  27
ENDBRANCH  25  26
ENDBRANCH  24  25
ENDBRANCH  23  24
ENDBRANCH   1  23
TORSDOF 24
ENDMDL
MODEL 2
REMARK VINA RESULT:      -9.1      1.721      8.743
REMARK SMILES CC[C@@H]([NH3+])C(=O)N1CC[C@H](C(=O)OCCOCCOCCOC(=O)c2ccc(-c3c4nc(c(-c5c(F)cc(S(=O)(=O)[O-])cc5F)c5ccc([nH]5)c(-c5c(F)cc(S(=O)(=O)[O-])cc5F)c5nc(c(-c6c(F)cc(S(=O)(=O)[O-])cc6F)c6ccc3[nH]6)C=C5)C=C4)cc2)[C@@H]1C
REMARK SMILES IDX 17 1 16 2 15 3 14 4 13 5 11 6 12 7 10 8 7 9 8 10 91 11 9 12
REMARK SMILES IDX 92 13 5 14 6 15 3 16 2 17 1 18 4 19 18 23 19 24 20 25 21 26
REMARK SMILES IDX 22 27 23 28 24 29 25 30 26 31 90 32 27 33 89 34 28 35 29 36
REMARK SMILES IDX 30 37 83 38 31 39 88 40 82 41 84 42 32 43 87 44 81 45 80 46
REMARK SMILES IDX 33 48 67 49 46 50 66 51 47 52 50 53 65 54 85 55 48 56 49 57
REMARK SMILES IDX 64 59 86 60 51 61 34 62 35 63 44 64 36 65 37 66 43 67 45 68
REMARK SMILES IDX 38 69 39 70 40 71 41 72 42 73 68 74 69 75 78 76 70 77 71 78
REMARK SMILES IDX 77 79 79 80 72 81 73 82 74 83 75 84 76 85 52 86 53 87 62 88
REMARK SMILES IDX 54 89 55 90 61 91 63 92 56 93 57 94 58 95 59 96 60 97
REMARK H PARENT 4 20 4 21 4 22 84 47 50 58
REMARK Flexibility Score: inf
ROOT
ATOM      1  C   UNL A   1      35.658  21.900  24.302  1.00  0.00     0.188 C 
ENDROOT
BRANCH   1   2
ATOM      2  O   UNL A   1      34.243  21.852  24.148  1.00  0.00    -0.376 OA
BRANCH   2   3
ATOM      3  C   UNL A   1      33.485  21.448  25.283  1.00  0.00     0.202 C 
BRANCH   3   4
ATOM      4  C   UNL A   1      32.271  22.322  25.611  1.00  0.00     0.261 C 
BRANCH   4   5
ATOM      5  O   UNL A   1      31.501  22.728  24.454  1.00  0.00    -0.463 OA
BRANCH   5   6
ATOM      6  C   UNL A   1      31.726  24.005  24.023  1.00  0.00     0.311 C 
ATOM      7  O   UNL A   1      31.488  24.388  22.887  1.00  0.00    -0.252 OA
BRANCH   6   8
ATOM      8  C   UNL A   1      32.390  24.865  25.104  1.00  0.00     0.123 C 
ATOM      9  N   UNL A   1      31.793  27.182  24.958  1.00  0.00    -0.334 N 
ATOM     10  C   UNL A   1      32.770  26.900  23.917  1.00  0.00     0.121 C 
ATOM     11  C   UNL A   1      31.529  25.980  25.756  1.00  0.00     0.096 C 
ATOM     12  C   UNL A   1      33.510  25.672  24.439  1.00  0.00     0.039 C 
ATOM     13  C   UNL A   1      30.066  25.589  25.800  1.00  0.00     0.032 C 
BRANCH   9  14
ATOM     14  C   UNL A   1      31.399  28.495  25.124  1.00  0.00     0.280 C 
ATOM     15  O   UNL A   1      30.826  29.081  24.197  1.00  0.00    -0.268 OA
BRANCH  14  16
ATOM     16  C   UNL A   1      31.811  29.331  26.369  1.00  0.00     0.270 C 
BRANCH  16  17
ATOM     17  C   UNL A   1      32.940  28.791  27.241  1.00  0.00     0.072 C 
ATOM     18  C   UNL A   1      34.329  29.044  26.664  1.00  0.00     0.011 C 
ENDBRANCH  16  17
BRANCH  16  19
ATOM     19  N   UNL A   1      32.055  30.735  25.963  1.00  0.00    -0.347 N 
ATOM     20  H   UNL A   1      32.873  30.776  25.354  1.00  0.00     0.345 HD
ATOM     21  H   UNL A   1      32.222  31.304  26.793  1.00  0.00     0.345 HD
ATOM     22  H   UNL A   1      31.241  31.092  25.464  1.00  0.00     0.345 HD
ENDBRANCH  16  19
ENDBRANCH  14  16
ENDBRANCH   9  14
ENDBRANCH   6   8
ENDBRANCH   5   6
ENDBRANCH   4   5
ENDBRANCH   3   4
ENDBRANCH   2   3
ENDBRANCH   1   2
BRANCH   1  23
ATOM     23  C   UNL A   1      36.177  21.539  25.703  1.00  0.00     0.188 C 
BRANCH  23  24
ATOM     24  O   UNL A   1      37.213  22.370  26.217  1.00  0.00    -0.376 OA
BRANCH  24  25
ATOM     25  C   UNL A   1      38.516  22.167  25.673  1.00  0.00     0.202 C 
BRANCH  25  26
ATOM     26  C   UNL A   1      39.656  22.618  26.590  1.00  0.00     0.261 C 
BRANCH  26  27
ATOM     27  O   UNL A   1      39.854  24.047  26.517  1.00  0.00    -0.460 OA
BRANCH  27  28
ATOM     28  C   UNL A   1      40.987  24.510  27.097  1.00  0.00     0.338 C 
ATOM     29  O   UNL A   1      42.126  24.130  26.884  1.00  0.00    -0.246 OA
BRANCH  28  30
ATOM     30  C   UNL A   1      40.695  25.674  27.954  1.00  0.00     0.060 A 
ATOM     31  C   UNL A   1      41.729  26.589  28.172  1.00  0.00     0.016 A 
ATOM     32  C   UNL A   1      39.491  25.795  28.649  1.00  0.00     0.016 A 
ATOM     33  C   UNL A   1      41.589  27.601  29.121  1.00  0.00     0.010 A 
ATOM     34  C   UNL A   1      39.352  26.810  29.606  1.00  0.00     0.010 A 
ATOM     35  C   UNL A   1      40.414  27.696  29.877  1.00  0.00    -0.014 A 
BRANCH  35  36
ATOM     36  C   UNL A   1      40.359  28.616  31.045  1.00  0.00     0.031 A 
ATOM     37  C   UNL A   1      39.361  29.746  31.046  1.00  0.00     0.074 A 
ATOM     38  C   UNL A   1      41.135  28.417  32.127  1.00  0.00     0.049 A 
ATOM     39  N   UNL A   1      39.210  30.724  31.902  1.00  0.00    -0.248 NA
ATOM     40  C   UNL A   1      38.402  29.771  29.930  1.00  0.00     0.031 C 
ATOM     41  C   UNL A   1      42.066  27.305  32.307  1.00  0.00     0.029 A 
ATOM     42  N   UNL A   1      41.251  29.143  33.288  1.00  0.00    -0.354 N 
ATOM     43  C   UNL A   1      38.158  31.494  31.419  1.00  0.00     0.074 A 
ATOM     44  C   UNL A   1      37.718  30.877  30.184  1.00  0.00     0.031 C 
ATOM     45  C   UNL A   1      42.645  27.411  33.516  1.00  0.00     0.029 A 
ATOM     46  C   UNL A   1      42.170  28.629  34.170  1.00  0.00     0.049 A 
ATOM     47  H   UNL A   1      40.724  29.955  33.470  1.00  0.00     0.167 HD
ATOM     48  C   UNL A   1      37.607  32.612  31.952  1.00  0.00     0.037 A 
ATOM     49  C   UNL A   1      42.600  29.099  35.358  1.00  0.00     0.037 A 
ATOM     50  C   UNL A   1      38.033  33.215  33.187  1.00  0.00     0.049 A 
ATOM     51  C   UNL A   1      42.041  30.394  35.889  1.00  0.00     0.074 A 
ATOM     52  C   UNL A   1      37.568  34.371  33.791  1.00  0.00     0.029 A 
ATOM     53  N   UNL A   1      39.022  32.704  34.016  1.00  0.00    -0.354 N 
ATOM     54  N   UNL A   1      41.104  31.158  35.381  1.00  0.00    -0.248 NA
ATOM     55  C   UNL A   1      42.615  30.900  37.144  1.00  0.00     0.031 C 
ATOM     56  C   UNL A   1      38.297  34.576  34.969  1.00  0.00     0.029 A 
ATOM     57  C   UNL A   1      39.189  33.527  35.119  1.00  0.00     0.049 A 
ATOM     58  H   UNL A   1      39.529  31.878  33.846  1.00  0.00     0.167 HD
ATOM     59  C   UNL A   1      40.961  32.224  36.264  1.00  0.00     0.074 A 
ATOM     60  C   UNL A   1      41.901  32.001  37.343  1.00  0.00     0.031 C 
ATOM     61  C   UNL A   1      40.128  33.291  36.189  1.00  0.00     0.037 A 
BRANCH  48  62
ATOM     62  C   UNL A   1      36.512  33.277  31.166  1.00  0.00     0.058 A 
ATOM     63  C   UNL A   1      36.778  34.025  30.007  1.00  0.00     0.135 A 
ATOM     64  C   UNL A   1      35.177  33.180  31.589  1.00  0.00     0.135 A 
ATOM     65  F   UNL A   1      38.039  34.165  29.568  1.00  0.00    -0.206 F 
ATOM     66  C   UNL A   1      35.764  34.688  29.322  1.00  0.00     0.059 A 
ATOM     67  C   UNL A   1      34.145  33.815  30.905  1.00  0.00     0.059 A 
ATOM     68  F   UNL A   1      34.866  32.477  32.690  1.00  0.00    -0.206 F 
ATOM     69  C   UNL A   1      34.452  34.586  29.785  1.00  0.00     0.060 A 
BRANCH  69  70
ATOM     70  S   UNL A   1      33.151  35.489  28.917  1.00  0.00     0.124 S 
ATOM     71  O   UNL A   1      32.527  34.422  28.142  1.00  0.00    -0.237 OA
ATOM     72  O   UNL A   1      32.353  36.027  30.013  1.00  0.00    -0.237 OA
ATOM     73  O   UNL A   1      33.888  36.481  28.138  1.00  0.00    -0.744 OA
ENDBRANCH  69  70
ENDBRANCH  48  62
BRANCH  49  74
ATOM     74  C   UNL A   1      43.639  28.355  36.120  1.00  0.00     0.058 A 
ATOM     75  C   UNL A   1      43.294  27.291  36.966  1.00  0.00     0.135 A 
ATOM     76  C   UNL A   1      44.998  28.695  36.020  1.00  0.00     0.135 A 
ATOM     77  F   UNL A   1      42.008  26.941  37.114  1.00  0.00    -0.206 F 
ATOM     78  C   UNL A   1      44.257  26.592  37.689  1.00  0.00     0.059 A 
ATOM     79  C   UNL A   1      45.981  27.996  36.713  1.00  0.00     0.059 A 
ATOM     80  F   UNL A   1      45.381  29.706  35.225  1.00  0.00    -0.206 F 
ATOM     81  C   UNL A   1      45.600  26.950  37.551  1.00  0.00     0.060 A 
BRANCH  81  82
ATOM     82  S   UNL A   1      46.849  26.007  38.454  1.00  0.00     0.124 S 
ATOM     83  O   UNL A   1      48.027  26.852  38.297  1.00  0.00    -0.237 OA
ATOM     84  O   UNL A   1      46.282  25.947  39.798  1.00  0.00    -0.237 OA
ATOM     85  O   UNL A   1      46.886  24.732  37.743  1.00  0.00    -0.744 OA
ENDBRANCH  81  82
ENDBRANCH  49  74
BRANCH  61  86
ATOM     86  C   UNL A   1      40.172  34.286  37.316  1.00  0.00     0.058 A 
ATOM     87  C   UNL A   1      39.384  34.129  38.466  1.00  0.00     0.135 A 
ATOM     88  C   UNL A   1      41.044  35.385  37.262  1.00  0.00     0.135 A 
ATOM     89  F   UNL A   1      38.529  33.099  38.565  1.00  0.00    -0.206 F 
ATOM     90  C   UNL A   1      39.444  35.040  39.516  1.00  0.00     0.059 A 
ATOM     91  C   UNL A   1      41.136  36.296  38.310  1.00  0.00     0.059 A 
ATOM     92  F   UNL A   1      41.827  35.575  36.188  1.00  0.00    -0.206 F 
ATOM     93  C   UNL A   1      40.322  36.121  39.429  1.00  0.00     0.060 A 
BRANCH  93  94
ATOM     94  S   UNL A   1      40.415  37.281  40.811  1.00  0.00     0.124 S 
ATOM     95  O   UNL A   1      41.535  38.126  40.411  1.00  0.00    -0.237 OA
ATOM     96  O   UNL A   1      39.101  37.914  40.781  1.00  0.00    -0.237 OA
ATOM     97  O   UNL A   1      40.660  36.416  41.962  1.00  0.00    -0.744 OA
ENDBRANCH  93  94
ENDBRANCH  61  86
ENDBRANCH  35  36
ENDBRANCH  28  30
ENDBRANCH  27  28
ENDBRANCH  26  27
ENDBRANCH  25  26
ENDBRANCH  24  25
ENDBRANCH  23  24
ENDBRANCH   1  23
TORSDOF 24
ENDMDL
MODEL 3
REMARK VINA RESULT:      -9.1      1.564      3.066
REMARK SMILES CC[C@@H]([NH3+])C(=O)N1CC[C@H](C(=O)OCCOCCOCCOC(=O)c2ccc(-c3c4nc(c(-c5c(F)cc(S(=O)(=O)[O-])cc5F)c5ccc([nH]5)c(-c5c(F)cc(S(=O)(=O)[O-])cc5F)c5nc(c(-c6c(F)cc(S(=O)(=O)[O-])cc6F)c6ccc3[nH]6)C=C5)C=C4)cc2)[C@@H]1C
REMARK SMILES IDX 17 1 16 2 15 3 14 4 13 5 11 6 12 7 10 8 7 9 8 10 91 11 9 12
REMARK SMILES IDX 92 13 5 14 6 15 3 16 2 17 1 18 4 19 18 23 19 24 20 25 21 26
REMARK SMILES IDX 22 27 23 28 24 29 25 30 26 31 90 32 27 33 89 34 28 35 29 36
REMARK SMILES IDX 30 37 83 38 31 39 88 40 82 41 84 42 32 43 87 44 81 45 80 46
REMARK SMILES IDX 33 48 67 49 46 50 66 51 47 52 50 53 65 54 85 55 48 56 49 57
REMARK SMILES IDX 64 59 86 60 51 61 34 62 35 63 44 64 36 65 37 66 43 67 45 68
REMARK SMILES IDX 38 69 39 70 40 71 41 72 42 73 68 74 69 75 78 76 70 77 71 78
REMARK SMILES IDX 77 79 79 80 72 81 73 82 74 83 75 84 76 85 52 86 53 87 62 88
REMARK SMILES IDX 54 89 55 90 61 91 63 92 56 93 57 94 58 95 59 96 60 97
REMARK H PARENT 4 20 4 21 4 22 84 47 50 58
REMARK Flexibility Score: inf
ROOT
ATOM      1  C   UNL A   1      35.739  21.496  24.394  1.00  0.00     0.188 C 
ENDROOT
BRANCH   1   2
ATOM      2  O   UNL A   1      34.355  21.169  24.310  1.00  0.00    -0.376 OA
BRANCH   2   3
ATOM      3  C   UNL A   1      33.665  20.968  25.540  1.00  0.00     0.202 C 
BRANCH   3   4
ATOM      4  C   UNL A   1      32.419  21.832  25.747  1.00  0.00     0.261 C 
BRANCH   4   5
ATOM      5  O   UNL A   1      31.916  22.450  24.537  1.00  0.00    -0.463 OA
BRANCH   5   6
ATOM      6  C   UNL A   1      32.128  23.795  24.438  1.00  0.00     0.311 C 
ATOM      7  O   UNL A   1      32.130  24.404  23.378  1.00  0.00    -0.252 OA
BRANCH   6   8
ATOM      8  C   UNL A   1      32.445  24.427  25.798  1.00  0.00     0.123 C 
ATOM      9  N   UNL A   1      32.165  26.808  25.817  1.00  0.00    -0.334 N 
ATOM     10  C   UNL A   1      33.415  26.504  25.137  1.00  0.00     0.121 C 
ATOM     11  C   UNL A   1      31.521  25.575  26.284  1.00  0.00     0.096 C 
ATOM     12  C   UNL A   1      33.800  25.133  25.683  1.00  0.00     0.039 C 
ATOM     13  C   UNL A   1      30.107  25.397  25.770  1.00  0.00     0.032 C 
BRANCH   9  14
ATOM     14  C   UNL A   1      31.867  28.137  26.040  1.00  0.00     0.280 C 
ATOM     15  O   UNL A   1      31.436  28.488  27.146  1.00  0.00    -0.268 OA
BRANCH  14  16
ATOM     16  C   UNL A   1      31.875  29.189  24.895  1.00  0.00     0.270 C 
BRANCH  16  17
ATOM     17  C   UNL A   1      30.887  28.995  23.750  1.00  0.00     0.072 C 
ATOM     18  C   UNL A   1      29.768  30.031  23.728  1.00  0.00     0.011 C 
ENDBRANCH  16  17
BRANCH  16  19
ATOM     19  N   UNL A   1      31.783  30.550  25.474  1.00  0.00    -0.347 N 
ATOM     20  H   UNL A   1      30.843  30.920  25.325  1.00  0.00     0.345 HD
ATOM     21  H   UNL A   1      32.463  31.160  25.020  1.00  0.00     0.345 HD
ATOM     22  H   UNL A   1      31.977  30.509  26.474  1.00  0.00     0.345 HD
ENDBRANCH  16  19
ENDBRANCH  14  16
ENDBRANCH   9  14
ENDBRANCH   6   8
ENDBRANCH   5   6
ENDBRANCH   4   5
ENDBRANCH   3   4
ENDBRANCH   2   3
ENDBRANCH   1   2
BRANCH   1  23
ATOM     23  C   UNL A   1      36.332  21.477  25.812  1.00  0.00     0.188 C 
BRANCH  23  24
ATOM     24  O   UNL A   1      37.509  22.254  26.006  1.00  0.00    -0.376 OA
BRANCH  24  25
ATOM     25  C   UNL A   1      38.752  21.580  25.814  1.00  0.00     0.202 C 
BRANCH  25  26
ATOM     26  C   UNL A   1      39.885  22.086  26.710  1.00  0.00     0.261 C 
BRANCH  26  27
ATOM     27  O   UNL A   1      40.142  23.491  26.488  1.00  0.00    -0.460 OA
BRANCH  27  28
ATOM     28  C   UNL A   1      41.234  23.990  27.117  1.00  0.00     0.338 C 
ATOM     29  O   UNL A   1      42.376  23.573  27.042  1.00  0.00    -0.246 OA
BRANCH  28  30
ATOM     30  C   UNL A   1      40.899  25.239  27.826  1.00  0.00     0.060 A 
ATOM     31  C   UNL A   1      41.895  26.215  27.918  1.00  0.00     0.016 A 
ATOM     32  C   UNL A   1      39.695  25.397  28.514  1.00  0.00     0.016 A 
ATOM     33  C   UNL A   1      41.720  27.330  28.736  1.00  0.00     0.010 A 
ATOM     34  C   UNL A   1      39.521  26.516  29.340  1.00  0.00     0.010 A 
ATOM     35  C   UNL A   1      40.547  27.471  29.487  1.00  0.00    -0.014 A 
BRANCH  35  36
ATOM     36  C   UNL A   1      40.461  28.526  30.534  1.00  0.00     0.031 A 
ATOM     37  C   UNL A   1      41.443  28.511  31.676  1.00  0.00     0.074 A 
ATOM     38  C   UNL A   1      39.567  29.529  30.442  1.00  0.00     0.049 A 
ATOM     39  N   UNL A   1      41.489  29.262  32.747  1.00  0.00    -0.248 NA
ATOM     40  C   UNL A   1      42.524  27.515  31.596  1.00  0.00     0.031 C 
ATOM     41  C   UNL A   1      38.630  29.728  29.338  1.00  0.00     0.029 A 
ATOM     42  N   UNL A   1      39.314  30.579  31.290  1.00  0.00    -0.354 N 
ATOM     43  C   UNL A   1      42.583  28.816  33.479  1.00  0.00     0.074 A 
ATOM     44  C   UNL A   1      43.166  27.717  32.737  1.00  0.00     0.031 C 
ATOM     45  C   UNL A   1      37.916  30.844  29.567  1.00  0.00     0.029 A 
ATOM     46  C   UNL A   1      38.304  31.405  30.860  1.00  0.00     0.049 A 
ATOM     47  H   UNL A   1      39.811  30.726  32.128  1.00  0.00     0.167 HD
ATOM     48  C   UNL A   1      43.062  29.278  34.661  1.00  0.00     0.037 A 
ATOM     49  C   UNL A   1      37.737  32.475  31.452  1.00  0.00     0.037 A 
ATOM     50  C   UNL A   1      42.492  30.380  35.390  1.00  0.00     0.049 A 
ATOM     51  C   UNL A   1      38.222  32.915  32.809  1.00  0.00     0.074 A 
ATOM     52  C   UNL A   1      42.877  30.897  36.615  1.00  0.00     0.029 A 
ATOM     53  N   UNL A   1      41.419  31.145  34.955  1.00  0.00    -0.354 N 
ATOM     54  N   UNL A   1      39.206  32.433  33.531  1.00  0.00    -0.248 NA
ATOM     55  C   UNL A   1      37.504  34.031  33.441  1.00  0.00     0.031 C 
ATOM     56  C   UNL A   1      42.016  31.954  36.936  1.00  0.00     0.029 A 
ATOM     57  C   UNL A   1      41.121  32.121  35.893  1.00  0.00     0.049 A 
ATOM     58  H   UNL A   1      40.941  31.014  34.105  1.00  0.00     0.167 HD
ATOM     59  C   UNL A   1      39.238  33.199  34.691  1.00  0.00     0.074 A 
ATOM     60  C   UNL A   1      38.183  34.184  34.571  1.00  0.00     0.031 C 
ATOM     61  C   UNL A   1      40.067  33.097  35.760  1.00  0.00     0.037 A 
BRANCH  48  62
ATOM     62  C   UNL A   1      44.235  28.549  35.256  1.00  0.00     0.058 A 
ATOM     63  C   UNL A   1      44.069  27.467  36.134  1.00  0.00     0.135 A 
ATOM     64  C   UNL A   1      45.545  28.953  34.955  1.00  0.00     0.135 A 
ATOM     65  F   UNL A   1      42.837  27.051  36.470  1.00  0.00    -0.206 F 
ATOM     66  C   UNL A   1      45.161  26.840  36.728  1.00  0.00     0.059 A 
ATOM     67  C   UNL A   1      46.652  28.325  35.518  1.00  0.00     0.059 A 
ATOM     68  F   UNL A   1      45.761  29.982  34.119  1.00  0.00    -0.206 F 
ATOM     69  C   UNL A   1      46.448  27.283  36.422  1.00  0.00     0.060 A 
BRANCH  69  70
ATOM     70  S   UNL A   1      47.855  26.494  37.234  1.00  0.00     0.124 S 
ATOM     71  O   UNL A   1      47.964  25.251  36.478  1.00  0.00    -0.237 OA
ATOM     72  O   UNL A   1      48.926  27.461  37.021  1.00  0.00    -0.237 OA
ATOM     73  O   UNL A   1      47.411  26.351  38.618  1.00  0.00    -0.744 OA
ENDBRANCH  69  70
ENDBRANCH  48  62
BRANCH  49  74
ATOM     74  C   UNL A   1      36.623  33.195  30.777  1.00  0.00     0.058 A 
ATOM     75  C   UNL A   1      35.289  32.811  30.973  1.00  0.00     0.135 A 
ATOM     76  C   UNL A   1      36.871  34.280  29.920  1.00  0.00     0.135 A 
ATOM     77  F   UNL A   1      35.001  31.767  31.764  1.00  0.00    -0.206 F 
ATOM     78  C   UNL A   1      34.239  33.472  30.342  1.00  0.00     0.059 A 
ATOM     79  C   UNL A   1      35.837  34.972  29.297  1.00  0.00     0.059 A 
ATOM     80  F   UNL A   1      38.130  34.687  29.697  1.00  0.00    -0.206 F 
ATOM     81  C   UNL A   1      34.524  34.556  29.508  1.00  0.00     0.060 A 
BRANCH  81  82
ATOM     82  S   UNL A   1      33.154  35.440  28.731  1.00  0.00     0.124 S 
ATOM     83  O   UNL A   1      32.415  34.350  28.106  1.00  0.00    -0.237 OA
ATOM     84  O   UNL A   1      32.506  36.075  29.875  1.00  0.00    -0.237 OA
ATOM     85  O   UNL A   1      33.824  36.358  27.814  1.00  0.00    -0.744 OA
ENDBRANCH  81  82
ENDBRANCH  49  74
BRANCH  61  86
ATOM     86  C   UNL A   1      39.887  34.092  36.873  1.00  0.00     0.058 A 
ATOM     87  C   UNL A   1      40.412  35.391  36.791  1.00  0.00     0.135 A 
ATOM     88  C   UNL A   1      39.145  33.754  38.016  1.00  0.00     0.135 A 
ATOM     89  F   UNL A   1      41.134  35.762  35.722  1.00  0.00    -0.206 F 
ATOM     90  C   UNL A   1      40.224  36.315  37.815  1.00  0.00     0.059 A 
ATOM     91  C   UNL A   1      38.927  34.670  39.042  1.00  0.00     0.059 A 
ATOM     92  F   UNL A   1      38.613  32.528  38.139  1.00  0.00    -0.206 F 
ATOM     93  C   UNL A   1      39.481  35.945  38.937  1.00  0.00     0.060 A 
BRANCH  93  94
ATOM     94  S   UNL A   1      39.216  37.162  40.246  1.00  0.00     0.124 S 
ATOM     95  O   UNL A   1      40.583  37.427  40.681  1.00  0.00    -0.237 OA
ATOM     96  O   UNL A   1      38.556  38.252  39.535  1.00  0.00    -0.237 OA
ATOM     97  O   UNL A   1      38.378  36.450  41.205  1.00  0.00    -0.744 OA
ENDBRANCH  93  94
ENDBRANCH  61  86
ENDBRANCH  35  36
ENDBRANCH  28  30
ENDBRANCH  27  28
ENDBRANCH  26  27
ENDBRANCH  25  26
ENDBRANCH  24  25
ENDBRANCH  23  24
ENDBRANCH   1  23
TORSDOF 24
ENDMDL
