MODEL 1
REMARK VINA RESULT:     -10.6      0.000      0.000
REMARK SMILES C[NH+]1CC[NH+]([C@]2(C(=O)OCCOCCOCCOC(=O)c3ccc(-c4c5nc(c(-c6c(F)cc(S(=O)(=O)[O-])cc6F)c6ccc([nH]6)c(-c6c(F)cc(S(=O)(=O)[O-])cc6F)c6nc(c(-c7c(F)cc(S(=O)(=O)[O-])cc7F)c7ccc4[nH]7)C=C6)C=C5)cc3)CCCC2(C)C)CC1
REMARK SMILES IDX 14 1 13 2 12 3 11 4 10 5 9 6 7 7 8 8 6 9 87 10 90 11 88 12
REMARK SMILES IDX 89 13 91 14 92 15 5 16 1 17 2 18 3 19 94 20 4 22 93 23 15 25
REMARK SMILES IDX 16 26 17 27 18 28 19 29 20 30 21 31 22 32 86 33 23 34 85 35
REMARK SMILES IDX 24 36 25 37 26 38 79 39 27 40 84 41 78 42 80 43 28 44 83 45
REMARK SMILES IDX 77 46 76 47 29 49 63 50 42 51 62 52 43 53 46 54 61 55 81 56
REMARK SMILES IDX 44 57 45 58 60 60 82 61 47 62 30 63 31 64 40 65 32 66 33 67
REMARK SMILES IDX 39 68 41 69 34 70 35 71 36 72 37 73 38 74 64 75 65 76 74 77
REMARK SMILES IDX 66 78 67 79 73 80 75 81 68 82 69 83 70 84 71 85 72 86 48 87
REMARK SMILES IDX 49 88 58 89 50 90 51 91 57 92 59 93 52 94 53 95 54 96 55 97
REMARK SMILES IDX 56 98
REMARK H PARENT 2 21 5 24 80 48 46 59
REMARK Flexibility Score: inf
ROOT
ATOM      1  C   UNL A   1      36.995  21.802  24.534  1.00  0.00     0.188 C 
ENDROOT
BRANCH   1   2
ATOM      2  C   UNL A   1      35.524  21.809  24.989  1.00  0.00     0.188 C 
BRANCH   2   3
ATOM      3  O   UNL A   1      35.167  22.548  26.154  1.00  0.00    -0.376 OA
BRANCH   3   4
ATOM      4  C   UNL A   1      34.306  23.668  26.006  1.00  0.00     0.202 C 
BRANCH   4   5
ATOM      5  C   UNL A   1      32.792  23.415  26.066  1.00  0.00     0.261 C 
BRANCH   5   6
ATOM      6  O   UNL A   1      31.996  24.314  25.259  1.00  0.00    -0.459 OA
BRANCH   6   7
ATOM      7  C   UNL A   1      31.774  25.548  25.777  1.00  0.00     0.368 C 
ATOM      8  O   UNL A   1      31.237  25.692  26.877  1.00  0.00    -0.245 OA
BRANCH   7   9
ATOM      9  C   UNL A   1      32.168  26.794  24.804  1.00  0.00     0.201 C 
ATOM     10  C   UNL A   1      33.383  26.589  23.836  1.00  0.00     0.082 C 
ATOM     11  C   UNL A   1      30.932  26.963  23.776  1.00  0.00     0.031 C 
ATOM     12  C   UNL A   1      32.875  26.513  22.402  1.00  0.00     0.008 C 
ATOM     13  C   UNL A   1      31.403  26.194  22.514  1.00  0.00     0.014 C 
ATOM     14  C   UNL A   1      29.598  26.348  24.245  1.00  0.00     0.018 C 
ATOM     15  C   UNL A   1      30.610  28.394  23.312  1.00  0.00     0.018 C 
BRANCH   9  16
ATOM     16  N   UNL A   1      32.552  27.850  25.821  1.00  0.00    -0.311 N 
ATOM     17  C   UNL A   1      34.256  31.345  27.756  1.00  0.00     0.333 C 
ATOM     18  N   UNL A   1      33.793  30.398  26.747  1.00  0.00    -0.328 N 
ATOM     19  C   UNL A   1      32.354  30.143  26.875  1.00  0.00     0.324 C 
ATOM     20  C   UNL A   1      34.505  29.117  26.871  1.00  0.00     0.324 C 
ATOM     21  H   UNL A   1      33.984  30.817  25.836  1.00  0.00     0.348 HD
ATOM     22  C   UNL A   1      31.835  29.132  25.821  1.00  0.00     0.325 C 
ATOM     23  C   UNL A   1      34.029  28.134  25.785  1.00  0.00     0.325 C 
ATOM     24  H   UNL A   1      32.252  27.397  26.684  1.00  0.00     0.349 HD
ENDBRANCH   9  16
ENDBRANCH   7   9
ENDBRANCH   6   7
ENDBRANCH   5   6
ENDBRANCH   4   5
ENDBRANCH   3   4
ENDBRANCH   2   3
ENDBRANCH   1   2
BRANCH   1  25
ATOM     25  O   UNL A   1      37.898  22.192  25.549  1.00  0.00    -0.376 OA
BRANCH  25  26
ATOM     26  C   UNL A   1      38.980  21.317  25.778  1.00  0.00     0.202 C 
BRANCH  26  27
ATOM     27  C   UNL A   1      40.048  21.907  26.708  1.00  0.00     0.261 C 
BRANCH  27  28
ATOM     28  O   UNL A   1      39.912  23.308  27.024  1.00  0.00    -0.460 OA
BRANCH  28  29
ATOM     29  C   UNL A   1      41.014  24.085  26.905  1.00  0.00     0.338 C 
ATOM     30  O   UNL A   1      41.943  23.909  26.130  1.00  0.00    -0.246 OA
BRANCH  29  31
ATOM     31  C   UNL A   1      40.808  25.315  27.710  1.00  0.00     0.060 A 
ATOM     32  C   UNL A   1      41.784  26.324  27.699  1.00  0.00     0.016 A 
ATOM     33  C   UNL A   1      39.653  25.473  28.478  1.00  0.00     0.016 A 
ATOM     34  C   UNL A   1      41.626  27.470  28.487  1.00  0.00     0.010 A 
ATOM     35  C   UNL A   1      39.505  26.610  29.279  1.00  0.00     0.010 A 
ATOM     36  C   UNL A   1      40.504  27.601  29.317  1.00  0.00    -0.014 A 
BRANCH  36  37
ATOM     37  C   UNL A   1      40.443  28.664  30.357  1.00  0.00     0.031 A 
ATOM     38  C   UNL A   1      41.365  28.556  31.545  1.00  0.00     0.074 A 
ATOM     39  C   UNL A   1      39.583  29.695  30.271  1.00  0.00     0.049 A 
ATOM     40  N   UNL A   1      41.416  29.285  32.629  1.00  0.00    -0.248 NA
ATOM     41  C   UNL A   1      42.359  27.471  31.502  1.00  0.00     0.031 C 
ATOM     42  C   UNL A   1      38.673  29.949  29.158  1.00  0.00     0.029 A 
ATOM     43  N   UNL A   1      39.325  30.716  31.155  1.00  0.00    -0.354 N 
ATOM     44  C   UNL A   1      42.435  28.742  33.404  1.00  0.00     0.074 A 
ATOM     45  C   UNL A   1      42.958  27.605  32.676  1.00  0.00     0.031 C 
ATOM     46  C   UNL A   1      37.940  31.043  29.433  1.00  0.00     0.029 A 
ATOM     47  C   UNL A   1      38.299  31.545  30.760  1.00  0.00     0.049 A 
ATOM     48  H   UNL A   1      39.827  30.844  31.992  1.00  0.00     0.167 HD
ATOM     49  C   UNL A   1      42.896  29.152  34.609  1.00  0.00     0.037 A 
ATOM     50  C   UNL A   1      37.698  32.565  31.408  1.00  0.00     0.037 A 
ATOM     51  C   UNL A   1      42.374  30.282  35.334  1.00  0.00     0.049 A 
ATOM     52  C   UNL A   1      38.174  32.955  32.787  1.00  0.00     0.074 A 
ATOM     53  C   UNL A   1      42.785  30.785  36.556  1.00  0.00     0.029 A 
ATOM     54  N   UNL A   1      41.319  31.078  34.910  1.00  0.00    -0.354 N 
ATOM     55  N   UNL A   1      39.147  32.442  33.503  1.00  0.00    -0.248 NA
ATOM     56  C   UNL A   1      37.468  34.065  33.447  1.00  0.00     0.031 C 
ATOM     57  C   UNL A   1      41.942  31.846  36.900  1.00  0.00     0.029 A 
ATOM     58  C   UNL A   1      41.048  32.050  35.861  1.00  0.00     0.049 A 
ATOM     59  H   UNL A   1      40.835  30.969  34.059  1.00  0.00     0.167 HD
ATOM     60  C   UNL A   1      39.191  33.188  34.679  1.00  0.00     0.074 A 
ATOM     61  C   UNL A   1      38.153  34.192  34.576  1.00  0.00     0.031 C 
ATOM     62  C   UNL A   1      40.019  33.055  35.746  1.00  0.00     0.037 A 
BRANCH  49  63
ATOM     63  C   UNL A   1      44.005  28.354  35.241  1.00  0.00     0.058 A 
ATOM     64  C   UNL A   1      45.358  28.657  35.021  1.00  0.00     0.135 A 
ATOM     65  C   UNL A   1      43.707  27.288  36.108  1.00  0.00     0.135 A 
ATOM     66  F   UNL A   1      45.702  29.652  34.188  1.00  0.00    -0.206 F 
ATOM     67  C   UNL A   1      46.375  27.915  35.614  1.00  0.00     0.059 A 
ATOM     68  C   UNL A   1      44.708  26.555  36.737  1.00  0.00     0.059 A 
ATOM     69  F   UNL A   1      42.430  26.954  36.353  1.00  0.00    -0.206 F 
ATOM     70  C   UNL A   1      46.040  26.866  36.471  1.00  0.00     0.060 A 
BRANCH  70  71
ATOM     71  S   UNL A   1      47.372  25.917  37.234  1.00  0.00     0.124 S 
ATOM     72  O   UNL A   1      46.995  25.966  38.643  1.00  0.00    -0.237 OA
ATOM     73  O   UNL A   1      47.236  24.616  36.587  1.00  0.00    -0.237 OA
ATOM     74  O   UNL A   1      48.573  26.668  36.880  1.00  0.00    -0.744 OA
ENDBRANCH  70  71
ENDBRANCH  49  63
BRANCH  50  75
ATOM     75  C   UNL A   1      36.559  33.285  30.772  1.00  0.00     0.058 A 
ATOM     76  C   UNL A   1      36.767  34.192  29.723  1.00  0.00     0.135 A 
ATOM     77  C   UNL A   1      35.240  33.093  31.214  1.00  0.00     0.135 A 
ATOM     78  F   UNL A   1      38.009  34.428  29.277  1.00  0.00    -0.206 F 
ATOM     79  C   UNL A   1      35.713  34.893  29.143  1.00  0.00     0.059 A 
ATOM     80  C   UNL A   1      34.166  33.759  30.630  1.00  0.00     0.059 A 
ATOM     81  F   UNL A   1      34.983  32.235  32.213  1.00  0.00    -0.206 F 
ATOM     82  C   UNL A   1      34.414  34.664  29.600  1.00  0.00     0.060 A 
BRANCH  82  83
ATOM     83  S   UNL A   1      33.050  35.541  28.804  1.00  0.00     0.124 S 
ATOM     84  O   UNL A   1      33.761  36.552  28.029  1.00  0.00    -0.237 OA
ATOM     85  O   UNL A   1      32.413  34.478  28.033  1.00  0.00    -0.237 OA
ATOM     86  O   UNL A   1      32.270  36.043  29.931  1.00  0.00    -0.744 OA
ENDBRANCH  82  83
ENDBRANCH  50  75
BRANCH  62  87
ATOM     87  C   UNL A   1      39.881  34.044  36.874  1.00  0.00     0.058 A 
ATOM     88  C   UNL A   1      40.520  35.294  36.852  1.00  0.00     0.135 A 
ATOM     89  C   UNL A   1      39.045  33.759  37.967  1.00  0.00     0.135 A 
ATOM     90  F   UNL A   1      41.334  35.619  35.836  1.00  0.00    -0.206 F 
ATOM     91  C   UNL A   1      40.352  36.215  37.883  1.00  0.00     0.059 A 
ATOM     92  C   UNL A   1      38.838  34.678  38.992  1.00  0.00     0.059 A 
ATOM     93  F   UNL A   1      38.399  32.584  38.036  1.00  0.00    -0.206 F 
ATOM     94  C   UNL A   1      39.507  35.900  38.947  1.00  0.00     0.060 A 
BRANCH  94  95
ATOM     95  S   UNL A   1      39.269  37.120  40.257  1.00  0.00     0.124 S 
ATOM     96  O   UNL A   1      38.515  38.158  39.560  1.00  0.00    -0.237 OA
ATOM     97  O   UNL A   1      38.526  36.361  41.259  1.00  0.00    -0.237 OA
ATOM     98  O   UNL A   1      40.631  37.483  40.637  1.00  0.00    -0.744 OA
ENDBRANCH  94  95
ENDBRANCH  62  87
ENDBRANCH  36  37
ENDBRANCH  29  31
ENDBRANCH  28  29
ENDBRANCH  27  28
ENDBRANCH  26  27
ENDBRANCH  25  26
ENDBRANCH   1  25
TORSDOF 21
ENDMDL
MODEL 2
REMARK VINA RESULT:     -10.4      5.217     11.008
REMARK SMILES C[NH+]1CC[NH+]([C@]2(C(=O)OCCOCCOCCOC(=O)c3ccc(-c4c5nc(c(-c6c(F)cc(S(=O)(=O)[O-])cc6F)c6ccc([nH]6)c(-c6c(F)cc(S(=O)(=O)[O-])cc6F)c6nc(c(-c7c(F)cc(S(=O)(=O)[O-])cc7F)c7ccc4[nH]7)C=C6)C=C5)cc3)CCCC2(C)C)CC1
REMARK SMILES IDX 14 1 13 2 12 3 11 4 10 5 9 6 7 7 8 8 6 9 87 10 90 11 88 12
REMARK SMILES IDX 89 13 91 14 92 15 5 16 1 17 2 18 3 19 94 20 4 22 93 23 15 25
REMARK SMILES IDX 16 26 17 27 18 28 19 29 20 30 21 31 22 32 86 33 23 34 85 35
REMARK SMILES IDX 24 36 25 37 26 38 79 39 27 40 84 41 78 42 80 43 28 44 83 45
REMARK SMILES IDX 77 46 76 47 29 49 63 50 42 51 62 52 43 53 46 54 61 55 81 56
REMARK SMILES IDX 44 57 45 58 60 60 82 61 47 62 30 63 31 64 40 65 32 66 33 67
REMARK SMILES IDX 39 68 41 69 34 70 35 71 36 72 37 73 38 74 64 75 65 76 74 77
REMARK SMILES IDX 66 78 67 79 73 80 75 81 68 82 69 83 70 84 71 85 72 86 48 87
REMARK SMILES IDX 49 88 58 89 50 90 51 91 57 92 59 93 52 94 53 95 54 96 55 97
REMARK SMILES IDX 56 98
REMARK H PARENT 2 21 5 24 80 48 46 59
REMARK Flexibility Score: inf
ROOT
ATOM      1  C   UNL A   1      33.258  28.990  24.615  1.00  0.00     0.188 C 
ENDROOT
BRANCH   1   2
ATOM      2  C   UNL A   1      32.462  28.404  23.434  1.00  0.00     0.188 C 
BRANCH   2   3
ATOM      3  O   UNL A   1      32.522  27.001  23.192  1.00  0.00    -0.376 OA
BRANCH   3   4
ATOM      4  C   UNL A   1      33.020  26.554  21.939  1.00  0.00     0.202 C 
BRANCH   4   5
ATOM      5  C   UNL A   1      32.988  25.044  21.658  1.00  0.00     0.261 C 
BRANCH   5   6
ATOM      6  O   UNL A   1      33.912  24.261  22.450  1.00  0.00    -0.459 OA
BRANCH   6   7
ATOM      7  C   UNL A   1      33.390  23.185  23.089  1.00  0.00     0.368 C 
ATOM      8  O   UNL A   1      32.268  22.757  22.810  1.00  0.00    -0.245 OA
BRANCH   7   9
ATOM      9  C   UNL A   1      34.300  22.583  24.300  1.00  0.00     0.201 C 
ATOM     10  C   UNL A   1      35.854  22.589  24.096  1.00  0.00     0.082 C 
ATOM     11  C   UNL A   1      34.111  23.599  25.543  1.00  0.00     0.031 C 
ATOM     12  C   UNL A   1      36.480  23.608  25.040  1.00  0.00     0.008 C 
ATOM     13  C   UNL A   1      35.352  24.525  25.446  1.00  0.00     0.014 C 
ATOM     14  C   UNL A   1      32.847  24.481  25.487  1.00  0.00     0.018 C 
ATOM     15  C   UNL A   1      34.146  22.981  26.952  1.00  0.00     0.018 C 
BRANCH   9  16
ATOM     16  N   UNL A   1      33.835  21.142  24.329  1.00  0.00    -0.311 N 
ATOM     17  C   UNL A   1      33.064  17.036  25.518  1.00  0.00     0.333 C 
ATOM     18  N   UNL A   1      33.410  18.453  25.547  1.00  0.00    -0.328 N 
ATOM     19  C   UNL A   1      32.292  19.285  25.087  1.00  0.00     0.324 C 
ATOM     20  C   UNL A   1      34.573  18.723  24.687  1.00  0.00     0.324 C 
ATOM     21  H   UNL A   1      33.630  18.686  26.515  1.00  0.00     0.348 HD
ATOM     22  C   UNL A   1      32.633  20.796  25.098  1.00  0.00     0.325 C 
ATOM     23  C   UNL A   1      34.946  20.216  24.746  1.00  0.00     0.325 C 
ATOM     24  H   UNL A   1      33.554  21.016  23.356  1.00  0.00     0.349 HD
ENDBRANCH   9  16
ENDBRANCH   7   9
ENDBRANCH   6   7
ENDBRANCH   5   6
ENDBRANCH   4   5
ENDBRANCH   3   4
ENDBRANCH   2   3
ENDBRANCH   1   2
BRANCH   1  25
ATOM     25  O   UNL A   1      32.525  29.026  25.823  1.00  0.00    -0.376 OA
BRANCH  25  26
ATOM     26  C   UNL A   1      31.954  30.272  26.158  1.00  0.00     0.202 C 
BRANCH  26  27
ATOM     27  C   UNL A   1      32.848  31.121  27.070  1.00  0.00     0.261 C 
BRANCH  27  28
ATOM     28  O   UNL A   1      33.851  30.406  27.822  1.00  0.00    -0.460 OA
BRANCH  28  29
ATOM     29  C   UNL A   1      34.624  31.122  28.672  1.00  0.00     0.338 C 
ATOM     30  O   UNL A   1      34.250  32.033  29.396  1.00  0.00    -0.246 OA
BRANCH  29  31
ATOM     31  C   UNL A   1      35.957  30.473  28.751  1.00  0.00     0.060 A 
ATOM     32  C   UNL A   1      36.474  30.100  30.001  1.00  0.00     0.016 A 
ATOM     33  C   UNL A   1      36.698  30.235  27.592  1.00  0.00     0.016 A 
ATOM     34  C   UNL A   1      37.747  29.527  30.098  1.00  0.00     0.010 A 
ATOM     35  C   UNL A   1      37.978  29.680  27.692  1.00  0.00     0.010 A 
ATOM     36  C   UNL A   1      38.527  29.353  28.946  1.00  0.00    -0.014 A 
BRANCH  36  37
ATOM     37  C   UNL A   1      39.971  29.006  29.046  1.00  0.00     0.031 A 
ATOM     38  C   UNL A   1      40.939  30.086  29.457  1.00  0.00     0.074 A 
ATOM     39  C   UNL A   1      40.428  27.773  28.763  1.00  0.00     0.049 A 
ATOM     40  N   UNL A   1      42.246  30.061  29.501  1.00  0.00    -0.248 NA
ATOM     41  C   UNL A   1      40.347  31.369  29.870  1.00  0.00     0.031 C 
ATOM     42  C   UNL A   1      39.600  26.625  28.401  1.00  0.00     0.029 A 
ATOM     43  N   UNL A   1      41.713  27.286  28.719  1.00  0.00    -0.354 N 
ATOM     44  C   UNL A   1      42.635  31.325  29.930  1.00  0.00     0.074 A 
ATOM     45  C   UNL A   1      41.426  32.101  30.109  1.00  0.00     0.031 C 
ATOM     46  C   UNL A   1      40.399  25.571  28.153  1.00  0.00     0.029 A 
ATOM     47  C   UNL A   1      41.797  25.980  28.297  1.00  0.00     0.049 A 
ATOM     48  H   UNL A   1      42.500  27.823  28.969  1.00  0.00     0.167 HD
ATOM     49  C   UNL A   1      43.883  31.798  30.159  1.00  0.00     0.037 A 
ATOM     50  C   UNL A   1      42.875  25.214  28.024  1.00  0.00     0.037 A 
ATOM     51  C   UNL A   1      45.086  31.026  29.978  1.00  0.00     0.049 A 
ATOM     52  C   UNL A   1      44.261  25.787  28.207  1.00  0.00     0.074 A 
ATOM     53  C   UNL A   1      46.397  31.413  30.197  1.00  0.00     0.029 A 
ATOM     54  N   UNL A   1      45.128  29.715  29.525  1.00  0.00    -0.354 N 
ATOM     55  N   UNL A   1      44.615  26.979  28.626  1.00  0.00    -0.248 NA
ATOM     56  C   UNL A   1      45.394  24.908  27.879  1.00  0.00     0.031 C 
ATOM     57  C   UNL A   1      47.234  30.359  29.820  1.00  0.00     0.029 A 
ATOM     58  C   UNL A   1      46.443  29.289  29.431  1.00  0.00     0.049 A 
ATOM     59  H   UNL A   1      44.339  29.169  29.304  1.00  0.00     0.167 HD
ATOM     60  C   UNL A   1      46.007  26.980  28.645  1.00  0.00     0.074 A 
ATOM     61  C   UNL A   1      46.432  25.668  28.203  1.00  0.00     0.031 C 
ATOM     62  C   UNL A   1      46.858  27.975  29.000  1.00  0.00     0.037 A 
BRANCH  49  63
ATOM     63  C   UNL A   1      44.018  33.231  30.599  1.00  0.00     0.058 A 
ATOM     64  C   UNL A   1      44.077  34.289  29.679  1.00  0.00     0.135 A 
ATOM     65  C   UNL A   1      44.056  33.552  31.967  1.00  0.00     0.135 A 
ATOM     66  F   UNL A   1      44.063  34.041  28.359  1.00  0.00    -0.206 F 
ATOM     67  C   UNL A   1      44.197  35.611  30.097  1.00  0.00     0.059 A 
ATOM     68  C   UNL A   1      44.143  34.868  32.407  1.00  0.00     0.059 A 
ATOM     69  F   UNL A   1      44.005  32.579  32.891  1.00  0.00    -0.206 F 
ATOM     70  C   UNL A   1      44.228  35.891  31.464  1.00  0.00     0.060 A 
BRANCH  70  71
ATOM     71  S   UNL A   1      44.381  37.611  31.988  1.00  0.00     0.124 S 
ATOM     72  O   UNL A   1      43.478  37.647  33.134  1.00  0.00    -0.237 OA
ATOM     73  O   UNL A   1      45.804  37.716  32.299  1.00  0.00    -0.237 OA
ATOM     74  O   UNL A   1      43.941  38.365  30.819  1.00  0.00    -0.744 OA
ENDBRANCH  70  71
ENDBRANCH  49  63
BRANCH  50  75
ATOM     75  C   UNL A   1      42.695  23.821  27.526  1.00  0.00     0.058 A 
ATOM     76  C   UNL A   1      42.490  22.753  28.412  1.00  0.00     0.135 A 
ATOM     77  C   UNL A   1      42.742  23.528  26.154  1.00  0.00     0.135 A 
ATOM     78  F   UNL A   1      42.457  22.975  29.734  1.00  0.00    -0.206 F 
ATOM     79  C   UNL A   1      42.352  21.444  27.959  1.00  0.00     0.059 A 
ATOM     80  C   UNL A   1      42.577  22.232  25.674  1.00  0.00     0.059 A 
ATOM     81  F   UNL A   1      42.934  24.511  25.261  1.00  0.00    -0.206 F 
ATOM     82  C   UNL A   1      42.391  21.195  26.586  1.00  0.00     0.060 A 
BRANCH  82  83
ATOM     83  S   UNL A   1      42.158  19.499  26.008  1.00  0.00     0.124 S 
ATOM     84  O   UNL A   1      40.705  19.422  25.897  1.00  0.00    -0.237 OA
ATOM     85  O   UNL A   1      42.895  19.502  24.749  1.00  0.00    -0.237 OA
ATOM     86  O   UNL A   1      42.752  18.696  27.072  1.00  0.00    -0.744 OA
ENDBRANCH  82  83
ENDBRANCH  50  75
BRANCH  62  87
ATOM     87  C   UNL A   1      48.337  27.684  28.977  1.00  0.00     0.058 A 
ATOM     88  C   UNL A   1      49.000  27.112  30.074  1.00  0.00     0.135 A 
ATOM     89  C   UNL A   1      49.088  27.924  27.814  1.00  0.00     0.135 A 
ATOM     90  F   UNL A   1      48.334  26.864  31.212  1.00  0.00    -0.206 F 
ATOM     91  C   UNL A   1      50.359  26.810  30.026  1.00  0.00     0.059 A 
ATOM     92  C   UNL A   1      50.439  27.601  27.734  1.00  0.00     0.059 A 
ATOM     93  F   UNL A   1      48.503  28.459  26.730  1.00  0.00    -0.206 F 
ATOM     94  C   UNL A   1      51.069  27.055  28.850  1.00  0.00     0.060 A 
BRANCH  94  95
ATOM     95  S   UNL A   1      52.822  26.624  28.790  1.00  0.00     0.124 S 
ATOM     96  O   UNL A   1      53.436  27.922  28.525  1.00  0.00    -0.237 OA
ATOM     97  O   UNL A   1      53.054  26.073  30.121  1.00  0.00    -0.237 OA
ATOM     98  O   UNL A   1      52.899  25.660  27.697  1.00  0.00    -0.744 OA
ENDBRANCH  94  95
ENDBRANCH  62  87
ENDBRANCH  36  37
ENDBRANCH  29  31
ENDBRANCH  28  29
ENDBRANCH  27  28
ENDBRANCH  26  27
ENDBRANCH  25  26
ENDBRANCH   1  25
TORSDOF 21
ENDMDL
MODEL 3
REMARK VINA RESULT:     -10.4      6.553     12.061
REMARK SMILES C[NH+]1CC[NH+]([C@]2(C(=O)OCCOCCOCCOC(=O)c3ccc(-c4c5nc(c(-c6c(F)cc(S(=O)(=O)[O-])cc6F)c6ccc([nH]6)c(-c6c(F)cc(S(=O)(=O)[O-])cc6F)c6nc(c(-c7c(F)cc(S(=O)(=O)[O-])cc7F)c7ccc4[nH]7)C=C6)C=C5)cc3)CCCC2(C)C)CC1
REMARK SMILES IDX 14 1 13 2 12 3 11 4 10 5 9 6 7 7 8 8 6 9 87 10 90 11 88 12
REMARK SMILES IDX 89 13 91 14 92 15 5 16 1 17 2 18 3 19 94 20 4 22 93 23 15 25
REMARK SMILES IDX 16 26 17 27 18 28 19 29 20 30 21 31 22 32 86 33 23 34 85 35
REMARK SMILES IDX 24 36 25 37 26 38 79 39 27 40 84 41 78 42 80 43 28 44 83 45
REMARK SMILES IDX 77 46 76 47 29 49 63 50 42 51 62 52 43 53 46 54 61 55 81 56
REMARK SMILES IDX 44 57 45 58 60 60 82 61 47 62 30 63 31 64 40 65 32 66 33 67
REMARK SMILES IDX 39 68 41 69 34 70 35 71 36 72 37 73 38 74 64 75 65 76 74 77
REMARK SMILES IDX 66 78 67 79 73 80 75 81 68 82 69 83 70 84 71 85 72 86 48 87
REMARK SMILES IDX 49 88 58 89 50 90 51 91 57 92 59 93 52 94 53 95 54 96 55 97
REMARK SMILES IDX 56 98
REMARK H PARENT 2 21 5 24 80 48 46 59
REMARK Flexibility Score: inf
ROOT
ATOM      1  C   UNL A   1      33.469  29.415  25.073  1.00  0.00     0.188 C 
ENDROOT
BRANCH   1   2
ATOM      2  C   UNL A   1      32.138  29.068  24.382  1.00  0.00     0.188 C 
BRANCH   2   3
ATOM      3  O   UNL A   1      31.653  27.730  24.455  1.00  0.00    -0.376 OA
BRANCH   3   4
ATOM      4  C   UNL A   1      31.348  27.055  23.243  1.00  0.00     0.202 C 
BRANCH   4   5
ATOM      5  C   UNL A   1      32.097  25.747  22.949  1.00  0.00     0.261 C 
BRANCH   5   6
ATOM      6  O   UNL A   1      32.841  25.210  24.067  1.00  0.00    -0.459 OA
BRANCH   6   7
ATOM      7  C   UNL A   1      33.748  24.245  23.776  1.00  0.00     0.368 C 
ATOM      8  O   UNL A   1      34.403  24.277  22.732  1.00  0.00    -0.245 OA
BRANCH   7   9
ATOM      9  C   UNL A   1      33.823  23.013  24.841  1.00  0.00     0.201 C 
ATOM     10  C   UNL A   1      33.329  23.300  26.300  1.00  0.00     0.082 C 
ATOM     11  C   UNL A   1      32.756  21.915  24.325  1.00  0.00     0.031 C 
ATOM     12  C   UNL A   1      32.031  22.542  26.548  1.00  0.00     0.008 C 
ATOM     13  C   UNL A   1      31.494  22.207  25.178  1.00  0.00     0.014 C 
ATOM     14  C   UNL A   1      32.366  22.024  22.836  1.00  0.00     0.018 C 
ATOM     15  C   UNL A   1      33.110  20.438  24.572  1.00  0.00     0.018 C 
BRANCH   9  16
ATOM     16  N   UNL A   1      35.316  22.760  24.892  1.00  0.00    -0.311 N 
ATOM     17  C   UNL A   1      39.401  22.195  26.255  1.00  0.00     0.333 C 
ATOM     18  N   UNL A   1      37.948  22.322  26.224  1.00  0.00    -0.328 N 
ATOM     19  C   UNL A   1      37.343  21.314  25.346  1.00  0.00     0.324 C 
ATOM     20  C   UNL A   1      37.552  23.654  25.742  1.00  0.00     0.324 C 
ATOM     21  H   UNL A   1      37.616  22.184  27.179  1.00  0.00     0.348 HD
ATOM     22  C   UNL A   1      35.799  21.430  25.285  1.00  0.00     0.325 C 
ATOM     23  C   UNL A   1      36.018  23.787  25.738  1.00  0.00     0.325 C 
ATOM     24  H   UNL A   1      35.552  22.828  23.902  1.00  0.00     0.349 HD
ENDBRANCH   9  16
ENDBRANCH   7   9
ENDBRANCH   6   7
ENDBRANCH   5   6
ENDBRANCH   4   5
ENDBRANCH   3   4
ENDBRANCH   2   3
ENDBRANCH   1   2
BRANCH   1  25
ATOM     25  O   UNL A   1      33.443  29.220  26.472  1.00  0.00    -0.376 OA
BRANCH  25  26
ATOM     26  C   UNL A   1      33.336  30.389  27.254  1.00  0.00     0.202 C 
BRANCH  26  27
ATOM     27  C   UNL A   1      34.674  30.839  27.854  1.00  0.00     0.261 C 
BRANCH  27  28
ATOM     28  O   UNL A   1      35.525  29.794  28.367  1.00  0.00    -0.460 OA
BRANCH  28  29
ATOM     29  C   UNL A   1      36.208  30.046  29.508  1.00  0.00     0.338 C 
ATOM     30  O   UNL A   1      35.724  30.218  30.617  1.00  0.00    -0.246 OA
BRANCH  29  31
ATOM     31  C   UNL A   1      37.655  29.856  29.238  1.00  0.00     0.060 A 
ATOM     32  C   UNL A   1      38.100  29.693  27.918  1.00  0.00     0.016 A 
ATOM     33  C   UNL A   1      38.574  29.838  30.289  1.00  0.00     0.016 A 
ATOM     34  C   UNL A   1      39.456  29.470  27.650  1.00  0.00     0.010 A 
ATOM     35  C   UNL A   1      39.926  29.596  30.022  1.00  0.00     0.010 A 
ATOM     36  C   UNL A   1      40.373  29.376  28.706  1.00  0.00    -0.014 A 
BRANCH  36  37
ATOM     37  C   UNL A   1      41.754  28.874  28.476  1.00  0.00     0.031 A 
ATOM     38  C   UNL A   1      42.889  29.867  28.488  1.00  0.00     0.074 A 
ATOM     39  C   UNL A   1      42.009  27.573  28.242  1.00  0.00     0.049 A 
ATOM     40  N   UNL A   1      44.152  29.693  28.199  1.00  0.00    -0.248 NA
ATOM     41  C   UNL A   1      42.543  31.245  28.875  1.00  0.00     0.031 C 
ATOM     42  C   UNL A   1      41.018  26.501  28.250  1.00  0.00     0.029 A 
ATOM     43  N   UNL A   1      43.189  26.937  27.932  1.00  0.00    -0.354 N 
ATOM     44  C   UNL A   1      44.751  30.939  28.353  1.00  0.00     0.074 A 
ATOM     45  C   UNL A   1      43.706  31.865  28.737  1.00  0.00     0.031 C 
ATOM     46  C   UNL A   1      41.626  25.342  27.939  1.00  0.00     0.029 A 
ATOM     47  C   UNL A   1      43.042  25.595  27.669  1.00  0.00     0.049 A 
ATOM     48  H   UNL A   1      44.058  27.400  27.903  1.00  0.00     0.167 HD
ATOM     49  C   UNL A   1      46.051  31.281  28.195  1.00  0.00     0.037 A 
ATOM     50  C   UNL A   1      43.936  24.686  27.228  1.00  0.00     0.037 A 
ATOM     51  C   UNL A   1      47.089  30.360  27.811  1.00  0.00     0.049 A 
ATOM     52  C   UNL A   1      45.365  25.106  26.978  1.00  0.00     0.074 A 
ATOM     53  C   UNL A   1      48.440  30.609  27.638  1.00  0.00     0.029 A 
ATOM     54  N   UNL A   1      46.893  29.015  27.529  1.00  0.00    -0.354 N 
ATOM     55  N   UNL A   1      45.922  26.284  27.140  1.00  0.00    -0.248 NA
ATOM     56  C   UNL A   1      46.288  24.073  26.483  1.00  0.00     0.031 C 
ATOM     57  C   UNL A   1      49.050  29.433  27.194  1.00  0.00     0.029 A 
ATOM     58  C   UNL A   1      48.094  28.431  27.156  1.00  0.00     0.049 A 
ATOM     59  H   UNL A   1      46.030  28.546  27.587  1.00  0.00     0.167 HD
ATOM     60  C   UNL A   1      47.263  26.123  26.802  1.00  0.00     0.074 A 
ATOM     61  C   UNL A   1      47.437  24.734  26.433  1.00  0.00     0.031 C 
ATOM     62  C   UNL A   1      48.261  27.042  26.801  1.00  0.00     0.037 A 
BRANCH  49  63
ATOM     63  C   UNL A   1      46.424  32.725  28.404  1.00  0.00     0.058 A 
ATOM     64  C   UNL A   1      46.379  33.663  27.360  1.00  0.00     0.135 A 
ATOM     65  C   UNL A   1      46.801  33.183  29.678  1.00  0.00     0.135 A 
ATOM     66  F   UNL A   1      46.044  33.279  26.118  1.00  0.00    -0.206 F 
ATOM     67  C   UNL A   1      46.722  34.996  27.566  1.00  0.00     0.059 A 
ATOM     68  C   UNL A   1      47.115  34.517  29.913  1.00  0.00     0.059 A 
ATOM     69  F   UNL A   1      46.862  32.328  30.712  1.00  0.00    -0.206 F 
ATOM     70  C   UNL A   1      47.088  35.414  28.846  1.00  0.00     0.060 A 
BRANCH  70  71
ATOM     71  S   UNL A   1      47.525  37.148  29.095  1.00  0.00     0.124 S 
ATOM     72  O   UNL A   1      48.430  37.382  27.974  1.00  0.00    -0.237 OA
ATOM     73  O   UNL A   1      46.227  37.810  29.011  1.00  0.00    -0.237 OA
ATOM     74  O   UNL A   1      48.147  37.157  30.415  1.00  0.00    -0.744 OA
ENDBRANCH  70  71
ENDBRANCH  49  63
BRANCH  50  75
ATOM     75  C   UNL A   1      43.508  23.281  26.970  1.00  0.00     0.058 A 
ATOM     76  C   UNL A   1      43.252  22.394  28.025  1.00  0.00     0.135 A 
ATOM     77  C   UNL A   1      43.365  22.794  25.661  1.00  0.00     0.135 A 
ATOM     78  F   UNL A   1      43.394  22.803  29.295  1.00  0.00    -0.206 F 
ATOM     79  C   UNL A   1      42.881  21.072  27.795  1.00  0.00     0.059 A 
ATOM     80  C   UNL A   1      42.966  21.485  25.404  1.00  0.00     0.059 A 
ATOM     81  F   UNL A   1      43.596  23.599  24.613  1.00  0.00    -0.206 F 
ATOM     82  C   UNL A   1      42.735  20.628  26.480  1.00  0.00     0.060 A 
BRANCH  82  83
ATOM     83  S   UNL A   1      42.204  18.926  26.195  1.00  0.00     0.124 S 
ATOM     84  O   UNL A   1      42.441  18.320  27.500  1.00  0.00    -0.237 OA
ATOM     85  O   UNL A   1      40.805  19.102  25.818  1.00  0.00    -0.237 OA
ATOM     86  O   UNL A   1      43.084  18.474  25.121  1.00  0.00    -0.744 OA
ENDBRANCH  82  83
ENDBRANCH  50  75
BRANCH  62  87
ATOM     87  C   UNL A   1      49.649  26.578  26.437  1.00  0.00     0.058 A 
ATOM     88  C   UNL A   1      50.488  25.940  27.365  1.00  0.00     0.135 A 
ATOM     89  C   UNL A   1      50.120  26.719  25.121  1.00  0.00     0.135 A 
ATOM     90  F   UNL A   1      50.091  25.782  28.637  1.00  0.00    -0.206 F 
ATOM     91  C   UNL A   1      51.752  25.480  27.006  1.00  0.00     0.059 A 
ATOM     92  C   UNL A   1      51.367  26.238  24.733  1.00  0.00     0.059 A 
ATOM     93  F   UNL A   1      49.356  27.310  24.188  1.00  0.00    -0.206 F 
ATOM     94  C   UNL A   1      52.182  25.630  25.687  1.00  0.00     0.060 A 
BRANCH  94  95
ATOM     95  S   UNL A   1      53.809  24.995  25.227  1.00  0.00     0.124 S 
ATOM     96  O   UNL A   1      54.051  25.691  23.966  1.00  0.00    -0.237 OA
ATOM     97  O   UNL A   1      54.638  25.416  26.352  1.00  0.00    -0.237 OA
ATOM     98  O   UNL A   1      53.595  23.556  25.117  1.00  0.00    -0.744 OA
ENDBRANCH  94  95
ENDBRANCH  62  87
ENDBRANCH  36  37
ENDBRANCH  29  31
ENDBRANCH  28  29
ENDBRANCH  27  28
ENDBRANCH  26  27
ENDBRANCH  25  26
ENDBRANCH   1  25
TORSDOF 21
ENDMDL
