MODEL 1
REMARK VINA RESULT:     -10.8      0.000      0.000
REMARK SMILES O=C(OCCOCCOCCOC(=O)c1nccnc1C(=O)Nc1n[nH]c2ncccc12)c1ccc(-c2c3nc(c(-c4c(F)cc(S(=O)(=O)[O-])cc4F)c4ccc([nH]4)c(-c4c(F)cc(S(=O)(=O)[O-])cc4F)c4nc(c(-c5c(F)cc(S(=O)(=O)[O-])cc5F)c5ccc2[nH]5)C=C4)C=C3)cc1
REMARK SMILES IDX 7 1 6 2 5 3 4 4 3 5 2 6 1 7 33 8 34 9 98 10 35 11 97 12
REMARK SMILES IDX 36 13 37 14 38 15 91 16 39 17 96 18 90 19 92 20 40 21 95 22
REMARK SMILES IDX 89 23 88 24 41 26 75 27 54 28 74 29 55 30 58 31 73 32 93 33
REMARK SMILES IDX 56 34 57 35 72 37 94 38 59 39 42 40 43 41 52 42 44 43 45 44
REMARK SMILES IDX 51 45 53 46 46 47 47 48 48 49 49 50 50 51 76 52 77 53 86 54
REMARK SMILES IDX 78 55 79 56 85 57 87 58 80 59 81 60 82 61 83 62 84 63 60 64
REMARK SMILES IDX 61 65 70 66 62 67 63 68 69 69 71 70 64 71 65 72 66 73 67 74
REMARK SMILES IDX 68 75 8 76 9 77 10 78 11 79 12 80 13 81 14 82 15 83 16 84
REMARK SMILES IDX 20 85 17 86 19 87 18 88 21 89 22 90 23 91 24 93 25 94 32 95
REMARK SMILES IDX 26 96 27 97 31 98 28 100 30 101 29 102
REMARK H PARENT 92 25 58 36 23 92 26 99
REMARK Flexibility Score: inf
ROOT
ATOM      1  C   UNL A   1      40.938  21.406  26.970  1.00  0.00     0.188 C 
ENDROOT
BRANCH   1   2
ATOM      2  O   UNL A   1      41.889  20.952  26.004  1.00  0.00    -0.376 OA
BRANCH   2   3
ATOM      3  C   UNL A   1      43.191  21.517  26.135  1.00  0.00     0.202 C 
BRANCH   3   4
ATOM      4  C   UNL A   1      43.284  22.813  26.954  1.00  0.00     0.261 C 
BRANCH   4   5
ATOM      5  O   UNL A   1      43.106  24.026  26.207  1.00  0.00    -0.460 OA
BRANCH   5   6
ATOM      6  C   UNL A   1      43.536  25.284  26.477  1.00  0.00     0.338 C 
ATOM      7  O   UNL A   1      44.595  25.645  25.962  1.00  0.00    -0.246 OA
BRANCH   6   8
ATOM      8  C   UNL A   1      42.854  26.241  27.413  1.00  0.00     0.060 A 
ATOM      9  C   UNL A   1      43.297  27.525  27.729  1.00  0.00     0.016 A 
ATOM     10  C   UNL A   1      41.681  25.785  28.054  1.00  0.00     0.016 A 
ATOM     11  C   UNL A   1      42.633  28.314  28.660  1.00  0.00     0.010 A 
ATOM     12  C   UNL A   1      41.015  26.565  29.012  1.00  0.00     0.010 A 
ATOM     13  C   UNL A   1      41.521  27.821  29.341  1.00  0.00    -0.014 A 
BRANCH  13  14
ATOM     14  C   UNL A   1      41.102  28.585  30.532  1.00  0.00     0.031 A 
ATOM     15  C   UNL A   1      41.977  28.493  31.749  1.00  0.00     0.074 A 
ATOM     16  C   UNL A   1      40.140  29.516  30.434  1.00  0.00     0.049 A 
ATOM     17  N   UNL A   1      42.000  29.257  32.807  1.00  0.00    -0.248 NA
ATOM     18  C   UNL A   1      43.004  27.435  31.742  1.00  0.00     0.031 C 
ATOM     19  C   UNL A   1      39.321  29.753  29.249  1.00  0.00     0.029 A 
ATOM     20  N   UNL A   1      39.727  30.472  31.325  1.00  0.00    -0.354 N 
ATOM     21  C   UNL A   1      43.075  28.811  33.564  1.00  0.00     0.074 A 
ATOM     22  C   UNL A   1      43.657  27.685  32.866  1.00  0.00     0.031 C 
ATOM     23  C   UNL A   1      38.513  30.803  29.479  1.00  0.00     0.029 A 
ATOM     24  C   UNL A   1      38.733  31.285  30.838  1.00  0.00     0.049 A 
ATOM     25  H   UNL A   1      40.107  30.567  32.228  1.00  0.00     0.167 HD
ATOM     26  C   UNL A   1      43.541  29.306  34.732  1.00  0.00     0.037 A 
ATOM     27  C   UNL A   1      38.071  32.297  31.431  1.00  0.00     0.037 A 
ATOM     28  C   UNL A   1      42.902  30.370  35.453  1.00  0.00     0.049 A 
ATOM     29  C   UNL A   1      38.504  32.722  32.809  1.00  0.00     0.074 A 
ATOM     30  C   UNL A   1      43.206  30.873  36.704  1.00  0.00     0.029 A 
ATOM     31  N   UNL A   1      41.807  31.086  34.987  1.00  0.00    -0.354 N 
ATOM     32  N   UNL A   1      39.507  32.274  33.529  1.00  0.00    -0.248 NA
ATOM     33  C   UNL A   1      37.731  33.792  33.451  1.00  0.00     0.031 C 
ATOM     34  C   UNL A   1      42.267  31.863  37.013  1.00  0.00     0.029 A 
ATOM     35  C   UNL A   1      41.408  32.011  35.935  1.00  0.00     0.049 A 
ATOM     36  H   UNL A   1      41.377  30.954  34.111  1.00  0.00     0.167 HD
ATOM     37  C   UNL A   1      39.495  33.018  34.702  1.00  0.00     0.074 A 
ATOM     38  C   UNL A   1      38.400  33.960  34.583  1.00  0.00     0.031 C 
ATOM     39  C   UNL A   1      40.309  32.932  35.784  1.00  0.00     0.037 A 
BRANCH  26  40
ATOM     40  C   UNL A   1      44.763  28.654  35.308  1.00  0.00     0.058 A 
ATOM     41  C   UNL A   1      44.664  27.552  36.173  1.00  0.00     0.135 A 
ATOM     42  C   UNL A   1      46.042  29.146  35.014  1.00  0.00     0.135 A 
ATOM     43  F   UNL A   1      43.459  27.065  36.513  1.00  0.00    -0.206 F 
ATOM     44  C   UNL A   1      45.793  26.973  36.742  1.00  0.00     0.059 A 
ATOM     45  C   UNL A   1      47.187  28.571  35.557  1.00  0.00     0.059 A 
ATOM     46  F   UNL A   1      46.188  30.209  34.207  1.00  0.00    -0.206 F 
ATOM     47  C   UNL A   1      47.050  27.492  36.430  1.00  0.00     0.060 A 
BRANCH  47  48
ATOM     48  S   UNL A   1      48.507  26.739  37.187  1.00  0.00     0.124 S 
ATOM     49  O   UNL A   1      49.132  26.096  36.035  1.00  0.00    -0.237 OA
ATOM     50  O   UNL A   1      49.213  27.899  37.725  1.00  0.00    -0.237 OA
ATOM     51  O   UNL A   1      47.943  25.834  38.183  1.00  0.00    -0.744 OA
ENDBRANCH  47  48
ENDBRANCH  26  40
BRANCH  27  52
ATOM     52  C   UNL A   1      36.908  32.937  30.755  1.00  0.00     0.058 A 
ATOM     53  C   UNL A   1      37.068  33.921  29.771  1.00  0.00     0.135 A 
ATOM     54  C   UNL A   1      35.595  32.595  31.126  1.00  0.00     0.135 A 
ATOM     55  F   UNL A   1      38.300  34.284  29.380  1.00  0.00    -0.206 F 
ATOM     56  C   UNL A   1      35.975  34.573  29.206  1.00  0.00     0.059 A 
ATOM     57  C   UNL A   1      34.487  33.213  30.559  1.00  0.00     0.059 A 
ATOM     58  F   UNL A   1      35.381  31.641  32.047  1.00  0.00    -0.206 F 
ATOM     59  C   UNL A   1      34.687  34.218  29.615  1.00  0.00     0.060 A 
BRANCH  59  60
ATOM     60  S   UNL A   1      33.271  35.078  28.896  1.00  0.00     0.124 S 
ATOM     61  O   UNL A   1      33.926  36.169  28.184  1.00  0.00    -0.237 OA
ATOM     62  O   UNL A   1      32.671  34.041  28.063  1.00  0.00    -0.237 OA
ATOM     63  O   UNL A   1      32.491  35.469  30.067  1.00  0.00    -0.744 OA
ENDBRANCH  59  60
ENDBRANCH  27  52
BRANCH  39  64
ATOM     64  C   UNL A   1      40.046  33.887  36.912  1.00  0.00     0.058 A 
ATOM     65  C   UNL A   1      40.578  35.185  36.912  1.00  0.00     0.135 A 
ATOM     66  C   UNL A   1      39.219  33.511  37.982  1.00  0.00     0.135 A 
ATOM     67  F   UNL A   1      41.378  35.587  35.911  1.00  0.00    -0.206 F 
ATOM     68  C   UNL A   1      40.324  36.070  37.951  1.00  0.00     0.059 A 
ATOM     69  C   UNL A   1      38.929  34.391  39.019  1.00  0.00     0.059 A 
ATOM     70  F   UNL A   1      38.676  32.283  38.020  1.00  0.00    -0.206 F 
ATOM     71  C   UNL A   1      39.499  35.663  39.002  1.00  0.00     0.060 A 
BRANCH  71  72
ATOM     72  S   UNL A   1      39.158  36.829  40.336  1.00  0.00     0.124 S 
ATOM     73  O   UNL A   1      38.266  36.047  41.186  1.00  0.00    -0.237 OA
ATOM     74  O   UNL A   1      40.488  37.087  40.877  1.00  0.00    -0.237 OA
ATOM     75  O   UNL A   1      38.539  37.958  39.647  1.00  0.00    -0.744 OA
ENDBRANCH  71  72
ENDBRANCH  39  64
ENDBRANCH  13  14
ENDBRANCH   6   8
ENDBRANCH   5   6
ENDBRANCH   4   5
ENDBRANCH   3   4
ENDBRANCH   2   3
ENDBRANCH   1   2
BRANCH   1  76
ATOM     76  C   UNL A   1      39.530  21.597  26.406  1.00  0.00     0.188 C 
BRANCH  76  77
ATOM     77  O   UNL A   1      38.924  22.852  26.670  1.00  0.00    -0.376 OA
BRANCH  77  78
ATOM     78  C   UNL A   1      38.187  23.505  25.644  1.00  0.00     0.202 C 
BRANCH  78  79
ATOM     79  C   UNL A   1      36.519  23.445  25.595  1.00  0.00     0.261 C 
BRANCH  79  80
ATOM     80  O   UNL A   1      35.212  24.037  24.142  1.00  0.00    -0.458 OA
BRANCH  80  81
ATOM     81  C   UNL A   1      34.123  24.506  23.369  1.00  0.00     0.359 C 
ATOM     82  O   UNL A   1      33.446  23.708  22.716  1.00  0.00    -0.244 OA
BRANCH  81  83
ATOM     83  C   UNL A   1      33.718  25.957  23.298  1.00  0.00     0.179 A 
ATOM     84  N   UNL A   1      33.768  26.358  21.977  1.00  0.00    -0.245 NA
ATOM     85  C   UNL A   1      33.302  26.846  24.306  1.00  0.00     0.161 A 
ATOM     86  C   UNL A   1      33.396  27.618  21.681  1.00  0.00     0.132 A 
ATOM     87  N   UNL A   1      33.022  28.155  23.955  1.00  0.00    -0.247 NA
ATOM     88  C   UNL A   1      33.057  28.513  22.658  1.00  0.00     0.132 A 
BRANCH  85  89
ATOM     89  C   UNL A   1      32.995  26.706  25.805  1.00  0.00     0.278 C 
ATOM     90  O   UNL A   1      33.672  27.358  26.614  1.00  0.00    -0.267 OA
ATOM     91  N   UNL A   1      31.954  26.023  26.369  1.00  0.00    -0.303 N 
ATOM     92  H   UNL A   1      31.557  26.433  27.171  1.00  0.00     0.172 HD
BRANCH  91  93
ATOM     93  C   UNL A   1      31.399  24.856  25.968  1.00  0.00     0.164 A 
ATOM     94  N   UNL A   1      30.578  24.843  24.907  1.00  0.00    -0.155 NA
ATOM     95  C   UNL A   1      31.730  23.600  26.496  1.00  0.00     0.063 A 
ATOM     96  N   UNL A   1      30.642  23.596  24.343  1.00  0.00    -0.259 N 
ATOM     97  C   UNL A   1      31.348  22.674  25.052  1.00  0.00     0.157 A 
ATOM     98  C   UNL A   1      32.952  22.930  27.661  1.00  0.00     0.017 A 
ATOM     99  H   UNL A   1      30.206  23.382  23.486  1.00  0.00     0.192 HD
ATOM    100  N   UNL A   1      32.090  21.184  24.639  1.00  0.00    -0.237 NA
ATOM    101  C   UNL A   1      33.813  21.413  27.227  1.00  0.00     0.021 A 
ATOM    102  C   UNL A   1      33.368  20.623  25.724  1.00  0.00     0.113 A 
ENDBRANCH  91  93
ENDBRANCH  85  89
ENDBRANCH  81  83
ENDBRANCH  80  81
ENDBRANCH  79  80
ENDBRANCH  78  79
ENDBRANCH  77  78
ENDBRANCH  76  77
ENDBRANCH   1  76
TORSDOF 22
ENDMDL
MODEL 2
REMARK VINA RESULT:     -10.3      4.213      5.379
REMARK SMILES O=C(OCCOCCOCCOC(=O)c1nccnc1C(=O)Nc1n[nH]c2ncccc12)c1ccc(-c2c3nc(c(-c4c(F)cc(S(=O)(=O)[O-])cc4F)c4ccc([nH]4)c(-c4c(F)cc(S(=O)(=O)[O-])cc4F)c4nc(c(-c5c(F)cc(S(=O)(=O)[O-])cc5F)c5ccc2[nH]5)C=C4)C=C3)cc1
REMARK SMILES IDX 7 1 6 2 5 3 4 4 3 5 2 6 1 7 33 8 34 9 98 10 35 11 97 12
REMARK SMILES IDX 36 13 37 14 38 15 91 16 39 17 96 18 90 19 92 20 40 21 95 22
REMARK SMILES IDX 89 23 88 24 41 26 75 27 54 28 74 29 55 30 58 31 73 32 93 33
REMARK SMILES IDX 56 34 57 35 72 37 94 38 59 39 42 40 43 41 52 42 44 43 45 44
REMARK SMILES IDX 51 45 53 46 46 47 47 48 48 49 49 50 50 51 76 52 77 53 86 54
REMARK SMILES IDX 78 55 79 56 85 57 87 58 80 59 81 60 82 61 83 62 84 63 60 64
REMARK SMILES IDX 61 65 70 66 62 67 63 68 69 69 71 70 64 71 65 72 66 73 67 74
REMARK SMILES IDX 68 75 8 76 9 77 10 78 11 79 12 80 13 81 14 82 15 83 16 84
REMARK SMILES IDX 20 85 17 86 19 87 18 88 21 89 22 90 23 91 24 93 25 94 32 95
REMARK SMILES IDX 26 96 27 97 31 98 28 100 30 101 29 102
REMARK H PARENT 92 25 58 36 23 92 26 99
REMARK Flexibility Score: inf
ROOT
ATOM      1  C   UNL A   1      40.471  21.318  26.587  1.00  0.00     0.188 C 
ENDROOT
BRANCH   1   2
ATOM      2  O   UNL A   1      40.780  19.980  26.188  1.00  0.00    -0.376 OA
BRANCH   2   3
ATOM      3  C   UNL A   1      42.119  19.783  25.740  1.00  0.00     0.202 C 
BRANCH   3   4
ATOM      4  C   UNL A   1      43.084  20.957  25.962  1.00  0.00     0.261 C 
BRANCH   4   5
ATOM      5  O   UNL A   1      43.324  21.781  24.811  1.00  0.00    -0.460 OA
BRANCH   5   6
ATOM      6  C   UNL A   1      43.986  22.960  24.708  1.00  0.00     0.338 C 
ATOM      7  O   UNL A   1      44.704  23.123  23.720  1.00  0.00    -0.246 OA
BRANCH   6   8
ATOM      8  C   UNL A   1      43.966  24.048  25.743  1.00  0.00     0.060 A 
ATOM      9  C   UNL A   1      45.086  24.602  26.363  1.00  0.00     0.016 A 
ATOM     10  C   UNL A   1      42.700  24.525  26.148  1.00  0.00     0.016 A 
ATOM     11  C   UNL A   1      44.964  25.562  27.361  1.00  0.00     0.010 A 
ATOM     12  C   UNL A   1      42.564  25.478  27.170  1.00  0.00     0.010 A 
ATOM     13  C   UNL A   1      43.706  25.966  27.803  1.00  0.00    -0.014 A 
BRANCH  13  14
ATOM     14  C   UNL A   1      43.678  26.714  29.075  1.00  0.00     0.031 A 
ATOM     15  C   UNL A   1      43.955  25.941  30.332  1.00  0.00     0.074 A 
ATOM     16  C   UNL A   1      43.671  28.057  29.069  1.00  0.00     0.049 A 
ATOM     17  N   UNL A   1      44.263  26.385  31.520  1.00  0.00    -0.248 NA
ATOM     18  C   UNL A   1      43.943  24.472  30.216  1.00  0.00     0.031 C 
ATOM     19  C   UNL A   1      43.525  28.889  27.878  1.00  0.00     0.029 A 
ATOM     20  N   UNL A   1      43.845  28.956  30.089  1.00  0.00    -0.354 N 
ATOM     21  C   UNL A   1      44.537  25.253  32.278  1.00  0.00     0.074 A 
ATOM     22  C   UNL A   1      44.321  24.102  31.429  1.00  0.00     0.031 C 
ATOM     23  C   UNL A   1      43.634  30.181  28.233  1.00  0.00     0.029 A 
ATOM     24  C   UNL A   1      43.820  30.266  29.677  1.00  0.00     0.049 A 
ATOM     25  H   UNL A   1      43.975  28.688  31.027  1.00  0.00     0.167 HD
ATOM     26  C   UNL A   1      44.944  25.185  33.566  1.00  0.00     0.037 A 
ATOM     27  C   UNL A   1      43.925  31.403  30.391  1.00  0.00     0.037 A 
ATOM     28  C   UNL A   1      45.072  26.333  34.418  1.00  0.00     0.049 A 
ATOM     29  C   UNL A   1      44.215  31.294  31.865  1.00  0.00     0.074 A 
ATOM     30  C   UNL A   1      45.354  26.379  35.770  1.00  0.00     0.029 A 
ATOM     31  N   UNL A   1      44.905  27.646  33.996  1.00  0.00    -0.354 N 
ATOM     32  N   UNL A   1      44.445  30.216  32.579  1.00  0.00    -0.248 NA
ATOM     33  C   UNL A   1      44.272  32.547  32.628  1.00  0.00     0.031 C 
ATOM     34  C   UNL A   1      45.314  27.718  36.176  1.00  0.00     0.029 A 
ATOM     35  C   UNL A   1      45.056  28.509  35.067  1.00  0.00     0.049 A 
ATOM     36  H   UNL A   1      44.709  27.921  33.072  1.00  0.00     0.167 HD
ATOM     37  C   UNL A   1      44.690  30.662  33.873  1.00  0.00     0.074 A 
ATOM     38  C   UNL A   1      44.603  32.109  33.835  1.00  0.00     0.031 C 
ATOM     39  C   UNL A   1      44.958  29.946  34.993  1.00  0.00     0.037 A 
BRANCH  26  40
ATOM     40  C   UNL A   1      45.217  23.819  34.120  1.00  0.00     0.058 A 
ATOM     41  C   UNL A   1      44.173  22.978  34.540  1.00  0.00     0.135 A 
ATOM     42  C   UNL A   1      46.533  23.354  34.258  1.00  0.00     0.135 A 
ATOM     43  F   UNL A   1      42.898  23.391  34.460  1.00  0.00    -0.206 F 
ATOM     44  C   UNL A   1      44.427  21.728  35.094  1.00  0.00     0.059 A 
ATOM     45  C   UNL A   1      46.809  22.099  34.794  1.00  0.00     0.059 A 
ATOM     46  F   UNL A   1      47.565  24.128  33.890  1.00  0.00    -0.206 F 
ATOM     47  C   UNL A   1      45.750  21.299  35.220  1.00  0.00     0.060 A 
BRANCH  47  48
ATOM     48  S   UNL A   1      46.065  19.680  35.955  1.00  0.00     0.124 S 
ATOM     49  O   UNL A   1      47.512  19.568  35.799  1.00  0.00    -0.237 OA
ATOM     50  O   UNL A   1      45.588  19.861  37.323  1.00  0.00    -0.237 OA
ATOM     51  O   UNL A   1      45.273  18.773  35.132  1.00  0.00    -0.744 OA
ENDBRANCH  47  48
ENDBRANCH  26  40
BRANCH  27  52
ATOM     52  C   UNL A   1      43.705  32.726  29.743  1.00  0.00     0.058 A 
ATOM     53  C   UNL A   1      42.461  33.371  29.772  1.00  0.00     0.135 A 
ATOM     54  C   UNL A   1      44.746  33.351  29.036  1.00  0.00     0.135 A 
ATOM     55  F   UNL A   1      41.434  32.817  30.434  1.00  0.00    -0.206 F 
ATOM     56  C   UNL A   1      42.244  34.567  29.093  1.00  0.00     0.059 A 
ATOM     57  C   UNL A   1      44.562  34.558  28.371  1.00  0.00     0.059 A 
ATOM     58  F   UNL A   1      45.967  32.791  28.996  1.00  0.00    -0.206 F 
ATOM     59  C   UNL A   1      43.299  35.147  28.386  1.00  0.00     0.060 A 
BRANCH  59  60
ATOM     60  S   UNL A   1      43.011  36.687  27.488  1.00  0.00     0.124 S 
ATOM     61  O   UNL A   1      44.303  37.349  27.625  1.00  0.00    -0.237 OA
ATOM     62  O   UNL A   1      42.679  36.207  26.151  1.00  0.00    -0.237 OA
ATOM     63  O   UNL A   1      41.908  37.299  28.224  1.00  0.00    -0.744 OA
ENDBRANCH  59  60
ENDBRANCH  27  52
BRANCH  39  64
ATOM     64  C   UNL A   1      45.184  30.721  36.259  1.00  0.00     0.058 A 
ATOM     65  C   UNL A   1      44.130  31.004  37.141  1.00  0.00     0.135 A 
ATOM     66  C   UNL A   1      46.474  31.145  36.611  1.00  0.00     0.135 A 
ATOM     67  F   UNL A   1      42.878  30.621  36.844  1.00  0.00    -0.206 F 
ATOM     68  C   UNL A   1      44.343  31.711  38.318  1.00  0.00     0.059 A 
ATOM     69  C   UNL A   1      46.715  31.830  37.797  1.00  0.00     0.059 A 
ATOM     70  F   UNL A   1      47.516  30.886  35.805  1.00  0.00    -0.206 F 
ATOM     71  C   UNL A   1      45.640  32.121  38.636  1.00  0.00     0.060 A 
BRANCH  71  72
ATOM     72  S   UNL A   1      45.909  33.019  40.178  1.00  0.00     0.124 S 
ATOM     73  O   UNL A   1      47.122  33.768  39.872  1.00  0.00    -0.237 OA
ATOM     74  O   UNL A   1      44.688  33.809  40.300  1.00  0.00    -0.237 OA
ATOM     75  O   UNL A   1      46.059  31.954  41.166  1.00  0.00    -0.744 OA
ENDBRANCH  71  72
ENDBRANCH  39  64
ENDBRANCH  13  14
ENDBRANCH   6   8
ENDBRANCH   5   6
ENDBRANCH   4   5
ENDBRANCH   3   4
ENDBRANCH   2   3
ENDBRANCH   1   2
BRANCH   1  76
ATOM     76  C   UNL A   1      39.151  21.840  26.020  1.00  0.00     0.188 C 
BRANCH  76  77
ATOM     77  O   UNL A   1      38.625  22.999  26.647  1.00  0.00    -0.376 OA
BRANCH  77  78
ATOM     78  C   UNL A   1      37.603  23.745  25.998  1.00  0.00     0.202 C 
BRANCH  78  79
ATOM     79  C   UNL A   1      37.138  23.406  24.431  1.00  0.00     0.261 C 
BRANCH  79  80
ATOM     80  O   UNL A   1      35.329  23.623  23.507  1.00  0.00    -0.458 OA
BRANCH  80  81
ATOM     81  C   UNL A   1      33.968  23.653  23.124  1.00  0.00     0.359 C 
ATOM     82  O   UNL A   1      33.370  22.598  22.902  1.00  0.00    -0.244 OA
BRANCH  81  83
ATOM     83  C   UNL A   1      33.174  24.927  22.975  1.00  0.00     0.179 A 
ATOM     84  N   UNL A   1      32.682  24.985  21.685  1.00  0.00    -0.245 NA
ATOM     85  C   UNL A   1      32.875  25.938  23.906  1.00  0.00     0.161 A 
ATOM     86  C   UNL A   1      31.899  26.028  21.349  1.00  0.00     0.132 A 
ATOM     87  N   UNL A   1      32.144  27.033  23.478  1.00  0.00    -0.247 NA
ATOM     88  C   UNL A   1      31.659  27.052  22.222  1.00  0.00     0.132 A 
BRANCH  85  89
ATOM     89  C   UNL A   1      33.119  26.121  25.411  1.00  0.00     0.278 C 
ATOM     90  O   UNL A   1      33.983  26.931  25.780  1.00  0.00    -0.267 OA
ATOM     91  N   UNL A   1      32.393  25.574  26.433  1.00  0.00    -0.303 N 
ATOM     92  H   UNL A   1      32.269  26.146  27.224  1.00  0.00     0.172 HD
BRANCH  91  93
ATOM     93  C   UNL A   1      31.823  24.349  26.496  1.00  0.00     0.164 A 
ATOM     94  N   UNL A   1      30.534  24.200  26.158  1.00  0.00    -0.155 NA
ATOM     95  C   UNL A   1      32.524  23.163  26.757  1.00  0.00     0.063 A 
ATOM     96  N   UNL A   1      30.362  22.913  25.718  1.00  0.00    -0.259 N 
ATOM     97  C   UNL A   1      31.438  22.096  25.882  1.00  0.00     0.157 A 
ATOM     98  C   UNL A   1      34.259  22.663  26.958  1.00  0.00     0.017 A 
ATOM     99  H   UNL A   1      29.519  22.603  25.314  1.00  0.00     0.192 HD
ATOM    100  N   UNL A   1      31.916  20.618  25.156  1.00  0.00    -0.237 NA
ATOM    101  C   UNL A   1      34.822  21.163  26.144  1.00  0.00     0.021 A 
ATOM    102  C   UNL A   1      33.637  20.223  25.255  1.00  0.00     0.113 A 
ENDBRANCH  91  93
ENDBRANCH  85  89
ENDBRANCH  81  83
ENDBRANCH  80  81
ENDBRANCH  79  80
ENDBRANCH  78  79
ENDBRANCH  77  78
ENDBRANCH  76  77
ENDBRANCH   1  76
TORSDOF 22
ENDMDL
MODEL 3
REMARK VINA RESULT:     -10.2      2.399      4.157
REMARK SMILES O=C(OCCOCCOCCOC(=O)c1nccnc1C(=O)Nc1n[nH]c2ncccc12)c1ccc(-c2c3nc(c(-c4c(F)cc(S(=O)(=O)[O-])cc4F)c4ccc([nH]4)c(-c4c(F)cc(S(=O)(=O)[O-])cc4F)c4nc(c(-c5c(F)cc(S(=O)(=O)[O-])cc5F)c5ccc2[nH]5)C=C4)C=C3)cc1
REMARK SMILES IDX 7 1 6 2 5 3 4 4 3 5 2 6 1 7 33 8 34 9 98 10 35 11 97 12
REMARK SMILES IDX 36 13 37 14 38 15 91 16 39 17 96 18 90 19 92 20 40 21 95 22
REMARK SMILES IDX 89 23 88 24 41 26 75 27 54 28 74 29 55 30 58 31 73 32 93 33
REMARK SMILES IDX 56 34 57 35 72 37 94 38 59 39 42 40 43 41 52 42 44 43 45 44
REMARK SMILES IDX 51 45 53 46 46 47 47 48 48 49 49 50 50 51 76 52 77 53 86 54
REMARK SMILES IDX 78 55 79 56 85 57 87 58 80 59 81 60 82 61 83 62 84 63 60 64
REMARK SMILES IDX 61 65 70 66 62 67 63 68 69 69 71 70 64 71 65 72 66 73 67 74
REMARK SMILES IDX 68 75 8 76 9 77 10 78 11 79 12 80 13 81 14 82 15 83 16 84
REMARK SMILES IDX 20 85 17 86 19 87 18 88 21 89 22 90 23 91 24 93 25 94 32 95
REMARK SMILES IDX 26 96 27 97 31 98 28 100 30 101 29 102
REMARK H PARENT 92 25 58 36 23 92 26 99
REMARK Flexibility Score: inf
ROOT
ATOM      1  C   UNL A   1      41.142  21.174  26.137  1.00  0.00     0.188 C 
ENDROOT
BRANCH   1   2
ATOM      2  O   UNL A   1      41.513  19.815  25.893  1.00  0.00    -0.376 OA
BRANCH   2   3
ATOM      3  C   UNL A   1      42.852  19.632  25.441  1.00  0.00     0.202 C 
BRANCH   3   4
ATOM      4  C   UNL A   1      43.787  20.841  25.596  1.00  0.00     0.261 C 
BRANCH   4   5
ATOM      5  O   UNL A   1      43.610  21.883  24.625  1.00  0.00    -0.460 OA
BRANCH   5   6
ATOM      6  C   UNL A   1      43.998  23.182  24.664  1.00  0.00     0.338 C 
ATOM      7  O   UNL A   1      44.859  23.541  23.858  1.00  0.00    -0.246 OA
BRANCH   6   8
ATOM      8  C   UNL A   1      43.510  24.194  25.660  1.00  0.00     0.060 A 
ATOM      9  C   UNL A   1      44.152  25.388  25.988  1.00  0.00     0.016 A 
ATOM     10  C   UNL A   1      42.316  23.891  26.350  1.00  0.00     0.016 A 
ATOM     11  C   UNL A   1      43.657  26.232  26.974  1.00  0.00     0.010 A 
ATOM     12  C   UNL A   1      41.818  24.725  27.363  1.00  0.00     0.010 A 
ATOM     13  C   UNL A   1      42.519  25.882  27.699  1.00  0.00    -0.014 A 
BRANCH  13  14
ATOM     14  C   UNL A   1      42.276  26.656  28.932  1.00  0.00     0.031 A 
ATOM     15  C   UNL A   1      43.308  26.561  30.018  1.00  0.00     0.074 A 
ATOM     16  C   UNL A   1      41.318  27.598  28.961  1.00  0.00     0.049 A 
ATOM     17  N   UNL A   1      43.483  27.330  31.058  1.00  0.00    -0.248 NA
ATOM     18  C   UNL A   1      44.313  25.491  29.878  1.00  0.00     0.031 C 
ATOM     19  C   UNL A   1      40.347  27.838  27.898  1.00  0.00     0.029 A 
ATOM     20  N   UNL A   1      41.041  28.563  29.894  1.00  0.00    -0.354 N 
ATOM     21  C   UNL A   1      44.647  26.875  31.664  1.00  0.00     0.074 A 
ATOM     22  C   UNL A   1      45.116  25.740  30.900  1.00  0.00     0.031 C 
ATOM     23  C   UNL A   1      39.589  28.898  28.229  1.00  0.00     0.029 A 
ATOM     24  C   UNL A   1      39.998  29.384  29.542  1.00  0.00     0.049 A 
ATOM     25  H   UNL A   1      41.542  28.657  30.736  1.00  0.00     0.167 HD
ATOM     26  C   UNL A   1      45.274  27.370  32.754  1.00  0.00     0.037 A 
ATOM     27  C   UNL A   1      39.434  30.406  30.214  1.00  0.00     0.037 A 
ATOM     28  C   UNL A   1      44.750  28.445  33.549  1.00  0.00     0.049 A 
ATOM     29  C   UNL A   1      40.056  30.833  31.517  1.00  0.00     0.074 A 
ATOM     30  C   UNL A   1      45.228  28.950  34.744  1.00  0.00     0.029 A 
ATOM     31  N   UNL A   1      43.609  29.170  33.233  1.00  0.00    -0.354 N 
ATOM     32  N   UNL A   1      41.144  30.377  32.096  1.00  0.00    -0.248 NA
ATOM     33  C   UNL A   1      39.390  31.914  32.252  1.00  0.00     0.031 C 
ATOM     34  C   UNL A   1      44.350  29.952  35.172  1.00  0.00     0.029 A 
ATOM     35  C   UNL A   1      43.354  30.105  34.221  1.00  0.00     0.049 A 
ATOM     36  H   UNL A   1      43.062  29.039  32.425  1.00  0.00     0.167 HD
ATOM     37  C   UNL A   1      41.300  31.127  33.255  1.00  0.00     0.074 A 
ATOM     38  C   UNL A   1      40.208  32.081  33.281  1.00  0.00     0.031 C 
ATOM     39  C   UNL A   1      42.253  31.037  34.215  1.00  0.00     0.037 A 
BRANCH  26  40
ATOM     40  C   UNL A   1      46.556  26.707  33.162  1.00  0.00     0.058 A 
ATOM     41  C   UNL A   1      47.800  27.198  32.734  1.00  0.00     0.135 A 
ATOM     42  C   UNL A   1      46.542  25.558  33.965  1.00  0.00     0.135 A 
ATOM     43  F   UNL A   1      47.865  28.275  31.935  1.00  0.00    -0.206 F 
ATOM     44  C   UNL A   1      48.988  26.559  33.076  1.00  0.00     0.059 A 
ATOM     45  C   UNL A   1      47.719  24.914  34.334  1.00  0.00     0.059 A 
ATOM     46  F   UNL A   1      45.377  25.040  34.384  1.00  0.00    -0.206 F 
ATOM     47  C   UNL A   1      48.936  25.415  33.873  1.00  0.00     0.060 A 
BRANCH  47  48
ATOM     48  S   UNL A   1      50.484  24.588  34.297  1.00  0.00     0.124 S 
ATOM     49  O   UNL A   1      49.999  23.313  34.816  1.00  0.00    -0.237 OA
ATOM     50  O   UNL A   1      51.168  24.528  33.008  1.00  0.00    -0.237 OA
ATOM     51  O   UNL A   1      51.087  25.479  35.282  1.00  0.00    -0.744 OA
ENDBRANCH  47  48
ENDBRANCH  26  40
BRANCH  27  52
ATOM     52  C   UNL A   1      38.196  31.056  29.700  1.00  0.00     0.058 A 
ATOM     53  C   UNL A   1      38.207  32.341  29.142  1.00  0.00     0.135 A 
ATOM     54  C   UNL A   1      36.956  30.402  29.803  1.00  0.00     0.135 A 
ATOM     55  F   UNL A   1      39.365  33.009  29.019  1.00  0.00    -0.206 F 
ATOM     56  C   UNL A   1      37.032  32.973  28.742  1.00  0.00     0.059 A 
ATOM     57  C   UNL A   1      35.772  31.000  29.387  1.00  0.00     0.059 A 
ATOM     58  F   UNL A   1      36.889  29.158  30.306  1.00  0.00    -0.206 F 
ATOM     59  C   UNL A   1      35.818  32.297  28.878  1.00  0.00     0.060 A 
BRANCH  59  60
ATOM     60  S   UNL A   1      34.293  33.125  28.377  1.00  0.00     0.124 S 
ATOM     61  O   UNL A   1      33.581  32.041  27.710  1.00  0.00    -0.237 OA
ATOM     62  O   UNL A   1      33.743  33.558  29.658  1.00  0.00    -0.237 OA
ATOM     63  O   UNL A   1      34.768  34.197  27.507  1.00  0.00    -0.744 OA
ENDBRANCH  59  60
ENDBRANCH  27  52
BRANCH  39  64
ATOM     64  C   UNL A   1      42.157  32.000  35.363  1.00  0.00     0.058 A 
ATOM     65  C   UNL A   1      41.574  31.628  36.584  1.00  0.00     0.135 A 
ATOM     66  C   UNL A   1      42.693  33.292  35.252  1.00  0.00     0.135 A 
ATOM     67  F   UNL A   1      41.045  30.403  36.736  1.00  0.00    -0.206 F 
ATOM     68  C   UNL A   1      41.497  32.518  37.649  1.00  0.00     0.059 A 
ATOM     69  C   UNL A   1      42.652  34.189  36.314  1.00  0.00     0.059 A 
ATOM     70  F   UNL A   1      43.273  33.690  34.108  1.00  0.00    -0.206 F 
ATOM     71  C   UNL A   1      42.037  33.797  37.503  1.00  0.00     0.060 A 
BRANCH  71  72
ATOM     72  S   UNL A   1      41.952  34.937  38.899  1.00  0.00     0.124 S 
ATOM     73  O   UNL A   1      43.339  34.950  39.351  1.00  0.00    -0.237 OA
ATOM     74  O   UNL A   1      41.476  36.166  38.274  1.00  0.00    -0.237 OA
ATOM     75  O   UNL A   1      41.002  34.292  39.802  1.00  0.00    -0.744 OA
ENDBRANCH  71  72
ENDBRANCH  39  64
ENDBRANCH  13  14
ENDBRANCH   6   8
ENDBRANCH   5   6
ENDBRANCH   4   5
ENDBRANCH   3   4
ENDBRANCH   2   3
ENDBRANCH   1   2
BRANCH   1  76
ATOM     76  C   UNL A   1      39.632  21.411  26.132  1.00  0.00     0.188 C 
BRANCH  76  77
ATOM     77  O   UNL A   1      39.167  22.455  26.973  1.00  0.00    -0.376 OA
BRANCH  77  78
ATOM     78  C   UNL A   1      38.590  23.618  26.394  1.00  0.00     0.202 C 
BRANCH  78  79
ATOM     79  C   UNL A   1      37.409  23.512  25.218  1.00  0.00     0.261 C 
BRANCH  79  80
ATOM     80  O   UNL A   1      35.524  24.295  25.155  1.00  0.00    -0.458 OA
BRANCH  80  81
ATOM     81  C   UNL A   1      34.361  25.101  25.160  1.00  0.00     0.359 C 
ATOM     82  O   UNL A   1      34.358  26.169  25.778  1.00  0.00    -0.244 OA
BRANCH  81  83
ATOM     83  C   UNL A   1      33.093  24.735  24.432  1.00  0.00     0.179 A 
ATOM     84  N   UNL A   1      32.471  23.715  25.126  1.00  0.00    -0.245 NA
ATOM     85  C   UNL A   1      32.509  25.278  23.273  1.00  0.00     0.161 A 
ATOM     86  C   UNL A   1      31.287  23.263  24.669  1.00  0.00     0.132 A 
ATOM     87  N   UNL A   1      31.339  24.711  22.797  1.00  0.00    -0.247 NA
ATOM     88  C   UNL A   1      30.744  23.733  23.506  1.00  0.00     0.132 A 
BRANCH  85  89
ATOM     89  C   UNL A   1      32.832  26.473  22.364  1.00  0.00     0.278 C 
ATOM     90  O   UNL A   1      33.648  26.316  21.442  1.00  0.00    -0.267 OA
ATOM     91  N   UNL A   1      32.220  27.696  22.367  1.00  0.00    -0.303 N 
ATOM     92  H   UNL A   1      32.100  28.117  21.486  1.00  0.00     0.172 HD
BRANCH  91  93
ATOM     93  C   UNL A   1      31.759  28.401  23.426  1.00  0.00     0.164 A 
ATOM     94  N   UNL A   1      32.631  28.959  24.280  1.00  0.00    -0.155 NA
ATOM     95  C   UNL A   1      30.411  28.728  23.632  1.00  0.00     0.063 A 
ATOM     96  N   UNL A   1      32.024  30.050  24.844  1.00  0.00    -0.259 N 
ATOM     97  C   UNL A   1      30.704  30.198  24.548  1.00  0.00     0.157 A 
ATOM     98  C   UNL A   1      28.852  28.571  22.715  1.00  0.00     0.017 A 
ATOM     99  H   UNL A   1      32.510  30.682  25.424  1.00  0.00     0.192 HD
ATOM    100  N   UNL A   1      29.627  31.531  24.601  1.00  0.00    -0.237 NA
ATOM    101  C   UNL A   1      27.731  29.975  22.675  1.00  0.00     0.021 A 
ATOM    102  C   UNL A   1      28.180  31.403  23.593  1.00  0.00     0.113 A 
ENDBRANCH  91  93
ENDBRANCH  85  89
ENDBRANCH  81  83
ENDBRANCH  80  81
ENDBRANCH  79  80
ENDBRANCH  78  79
ENDBRANCH  77  78
ENDBRANCH  76  77
ENDBRANCH   1  76
TORSDOF 22
ENDMDL
