MODEL 1
REMARK VINA RESULT:     -11.4      0.000      0.000
REMARK SMILES Cc1cccc(NC(=O)C[C@@H]2CCCCO2)c1C(=O)OCCOCCOCCOC(=O)c1ccc(-c2c3nc(c(-c4c(F)cc(S(=O)(=O)[O-])cc4F)c4ccc([nH]4)c(-c4c(F)cc(S(=O)(=O)[O-])cc4F)c4nc(c(-c5c(F)cc(S(=O)(=O)[O-])cc5F)c5ccc2[nH]5)C=C4)C=C3)cc1
REMARK SMILES IDX 24 1 23 2 22 3 21 4 20 5 18 6 19 7 17 8 1 9 2 10 3 11 4 12
REMARK SMILES IDX 6 13 5 14 7 15 8 16 9 18 10 19 11 20 12 21 16 22 13 23 15 24
REMARK SMILES IDX 14 25 25 26 26 27 27 28 28 29 29 30 30 31 31 32 32 33 33 34
REMARK SMILES IDX 97 35 34 36 96 37 35 38 36 39 37 40 90 41 38 42 95 43 89 44
REMARK SMILES IDX 91 45 39 46 94 47 88 48 87 49 40 51 74 52 53 53 73 54 54 55
REMARK SMILES IDX 57 56 72 57 92 58 55 59 56 60 71 62 93 63 58 64 41 65 42 66
REMARK SMILES IDX 51 67 43 68 44 69 50 70 52 71 45 72 46 73 47 74 48 75 49 76
REMARK SMILES IDX 75 77 76 78 85 79 77 80 78 81 84 82 86 83 79 84 80 85 81 86
REMARK SMILES IDX 82 87 83 88 59 89 60 90 69 91 61 92 62 93 68 94 70 95 63 96
REMARK SMILES IDX 64 97 65 98 66 99 67 100
REMARK H PARENT 7 17 91 50 57 61
REMARK Flexibility Score: inf
ROOT
ATOM      1  C   UNL A   1      40.041  21.086  26.545  1.00  0.00     0.188 C 
ENDROOT
BRANCH   1   2
ATOM      2  O   UNL A   1      39.227  21.723  25.531  1.00  0.00    -0.376 OA
BRANCH   2   3
ATOM      3  C   UNL A   1      37.823  22.048  25.610  1.00  0.00     0.202 C 
BRANCH   3   4
ATOM      4  C   UNL A   1      37.074  23.626  25.793  1.00  0.00     0.261 C 
BRANCH   4   5
ATOM      5  O   UNL A   1      35.578  24.336  25.266  1.00  0.00    -0.460 OA
BRANCH   5   6
ATOM      6  C   UNL A   1      34.223  23.904  24.934  1.00  0.00     0.340 C 
ATOM      7  O   UNL A   1      33.206  24.283  25.513  1.00  0.00    -0.246 OA
BRANCH   6   8
ATOM      8  C   UNL A   1      33.724  22.700  24.186  1.00  0.00     0.086 A 
ATOM      9  C   UNL A   1      34.015  21.136  26.184  1.00  0.00     0.045 C 
ATOM     10  C   UNL A   1      33.493  21.484  24.828  1.00  0.00    -0.034 A 
ATOM     11  C   UNL A   1      32.680  20.524  24.187  1.00  0.00     0.004 A 
ATOM     12  C   UNL A   1      32.066  20.761  22.956  1.00  0.00     0.002 A 
ATOM     13  C   UNL A   1      33.178  22.890  22.819  1.00  0.00     0.056 A 
ATOM     14  C   UNL A   1      32.302  21.944  22.283  1.00  0.00     0.027 A 
BRANCH  13  15
ATOM     15  N   UNL A   1      33.460  24.047  22.016  1.00  0.00    -0.325 N 
ATOM     16  C   UNL A   1      32.858  25.276  21.861  1.00  0.00     0.227 C 
ATOM     17  H   UNL A   1      34.260  23.939  21.453  1.00  0.00     0.169 HD
ATOM     18  O   UNL A   1      33.422  26.170  21.225  1.00  0.00    -0.275 OA
BRANCH  16  19
ATOM     19  C   UNL A   1      31.478  25.582  22.383  1.00  0.00     0.132 C 
BRANCH  19  20
ATOM     20  C   UNL A   1      31.454  26.243  23.770  1.00  0.00     0.127 C 
ATOM     21  C   UNL A   1      30.018  26.361  24.295  1.00  0.00     0.033 C 
ATOM     22  O   UNL A   1      32.052  27.532  23.861  1.00  0.00    -0.378 OA
ATOM     23  C   UNL A   1      29.208  27.332  23.439  1.00  0.00     0.005 C 
ATOM     24  C   UNL A   1      31.427  28.577  23.143  1.00  0.00     0.160 C 
ATOM     25  C   UNL A   1      29.918  28.673  23.309  1.00  0.00     0.029 C 
ENDBRANCH  19  20
ENDBRANCH  16  19
ENDBRANCH  13  15
ENDBRANCH   6   8
ENDBRANCH   5   6
ENDBRANCH   4   5
ENDBRANCH   3   4
ENDBRANCH   2   3
ENDBRANCH   1   2
BRANCH   1  26
ATOM     26  C   UNL A   1      40.701  19.695  26.450  1.00  0.00     0.188 C 
BRANCH  26  27
ATOM     27  O   UNL A   1      41.617  19.572  25.373  1.00  0.00    -0.376 OA
BRANCH  27  28
ATOM     28  C   UNL A   1      42.966  19.295  25.751  1.00  0.00     0.202 C 
BRANCH  28  29
ATOM     29  C   UNL A   1      43.946  20.499  25.778  1.00  0.00     0.261 C 
BRANCH  29  30
ATOM     30  O   UNL A   1      43.381  21.746  26.267  1.00  0.00    -0.460 OA
BRANCH  30  31
ATOM     31  C   UNL A   1      43.142  22.792  25.372  1.00  0.00     0.338 C 
ATOM     32  O   UNL A   1      43.051  22.610  24.193  1.00  0.00    -0.246 OA
BRANCH  31  33
ATOM     33  C   UNL A   1      42.691  24.034  26.091  1.00  0.00     0.060 A 
ATOM     34  C   UNL A   1      42.288  25.288  25.623  1.00  0.00     0.016 A 
ATOM     35  C   UNL A   1      42.655  23.901  27.428  1.00  0.00     0.016 A 
ATOM     36  C   UNL A   1      42.078  26.436  26.522  1.00  0.00     0.010 A 
ATOM     37  C   UNL A   1      42.608  25.047  28.206  1.00  0.00     0.010 A 
ATOM     38  C   UNL A   1      42.298  26.386  27.903  1.00  0.00    -0.014 A 
BRANCH  38  39
ATOM     39  C   UNL A   1      42.137  27.628  29.047  1.00  0.00     0.031 A 
ATOM     40  C   UNL A   1      41.073  29.007  29.172  1.00  0.00     0.074 A 
ATOM     41  C   UNL A   1      43.121  27.688  29.975  1.00  0.00     0.049 A 
ATOM     42  N   UNL A   1      41.319  30.085  29.902  1.00  0.00    -0.248 NA
ATOM     43  C   UNL A   1      39.756  29.319  28.487  1.00  0.00     0.031 C 
ATOM     44  C   UNL A   1      43.169  28.505  31.183  1.00  0.00     0.029 A 
ATOM     45  N   UNL A   1      44.403  27.131  29.894  1.00  0.00    -0.354 N 
ATOM     46  C   UNL A   1      40.205  30.939  29.867  1.00  0.00     0.074 A 
ATOM     47  C   UNL A   1      39.405  30.551  28.790  1.00  0.00     0.031 C 
ATOM     48  C   UNL A   1      44.449  28.666  31.545  1.00  0.00     0.029 A 
ATOM     49  C   UNL A   1      45.268  28.042  30.525  1.00  0.00     0.049 A 
ATOM     50  H   UNL A   1      44.649  26.272  29.480  1.00  0.00     0.167 HD
ATOM     51  C   UNL A   1      39.887  31.864  30.807  1.00  0.00     0.037 A 
ATOM     52  C   UNL A   1      46.286  28.634  29.841  1.00  0.00     0.037 A 
ATOM     53  C   UNL A   1      41.109  32.315  31.411  1.00  0.00     0.049 A 
ATOM     54  C   UNL A   1      46.192  30.152  29.801  1.00  0.00     0.074 A 
ATOM     55  C   UNL A   1      41.778  32.002  32.572  1.00  0.00     0.029 A 
ATOM     56  N   UNL A   1      42.028  32.918  30.560  1.00  0.00    -0.354 N 
ATOM     57  N   UNL A   1      45.234  30.868  30.331  1.00  0.00    -0.248 NA
ATOM     58  C   UNL A   1      47.186  30.986  29.128  1.00  0.00     0.031 C 
ATOM     59  C   UNL A   1      43.165  32.226  32.317  1.00  0.00     0.029 A 
ATOM     60  C   UNL A   1      43.310  32.750  31.040  1.00  0.00     0.049 A 
ATOM     61  H   UNL A   1      41.796  33.397  29.731  1.00  0.00     0.167 HD
ATOM     62  C   UNL A   1      45.385  32.186  29.964  1.00  0.00     0.074 A 
ATOM     63  C   UNL A   1      46.667  32.214  29.287  1.00  0.00     0.031 C 
ATOM     64  C   UNL A   1      44.434  33.144  30.194  1.00  0.00     0.037 A 
BRANCH  51  65
ATOM     65  C   UNL A   1      38.446  32.278  31.152  1.00  0.00     0.058 A 
ATOM     66  C   UNL A   1      37.746  33.212  30.361  1.00  0.00     0.135 A 
ATOM     67  C   UNL A   1      37.745  31.909  32.339  1.00  0.00     0.135 A 
ATOM     68  F   UNL A   1      38.302  33.707  29.244  1.00  0.00    -0.206 F 
ATOM     69  C   UNL A   1      36.475  33.719  30.707  1.00  0.00     0.059 A 
ATOM     70  C   UNL A   1      36.453  32.339  32.663  1.00  0.00     0.059 A 
ATOM     71  F   UNL A   1      38.305  31.173  33.310  1.00  0.00    -0.206 F 
ATOM     72  C   UNL A   1      35.834  33.275  31.860  1.00  0.00     0.060 A 
BRANCH  72  73
ATOM     73  S   UNL A   1      34.237  33.963  32.357  1.00  0.00     0.124 S 
ATOM     74  O   UNL A   1      33.592  32.807  32.973  1.00  0.00    -0.237 OA
ATOM     75  O   UNL A   1      34.620  35.038  33.265  1.00  0.00    -0.237 OA
ATOM     76  O   UNL A   1      33.647  34.402  31.094  1.00  0.00    -0.744 OA
ENDBRANCH  72  73
ENDBRANCH  51  65
BRANCH  52  77
ATOM     77  C   UNL A   1      46.871  27.740  28.792  1.00  0.00     0.058 A 
ATOM     78  C   UNL A   1      46.419  27.860  27.464  1.00  0.00     0.135 A 
ATOM     79  C   UNL A   1      48.097  27.101  28.980  1.00  0.00     0.135 A 
ATOM     80  F   UNL A   1      45.243  28.456  27.209  1.00  0.00    -0.206 F 
ATOM     81  C   UNL A   1      47.211  27.498  26.374  1.00  0.00     0.059 A 
ATOM     82  C   UNL A   1      48.904  26.697  27.902  1.00  0.00     0.059 A 
ATOM     83  F   UNL A   1      48.590  27.032  30.222  1.00  0.00    -0.206 F 
ATOM     84  C   UNL A   1      48.481  26.976  26.601  1.00  0.00     0.060 A 
BRANCH  84  85
ATOM     85  S   UNL A   1      49.598  26.847  25.177  1.00  0.00     0.124 S 
ATOM     86  O   UNL A   1      48.783  26.120  24.207  1.00  0.00    -0.237 OA
ATOM     87  O   UNL A   1      49.840  28.255  24.857  1.00  0.00    -0.237 OA
ATOM     88  O   UNL A   1      50.743  26.113  25.698  1.00  0.00    -0.744 OA
ENDBRANCH  84  85
ENDBRANCH  52  77
BRANCH  64  89
ATOM     89  C   UNL A   1      44.464  34.560  29.638  1.00  0.00     0.058 A 
ATOM     90  C   UNL A   1      44.774  35.710  30.387  1.00  0.00     0.135 A 
ATOM     91  C   UNL A   1      44.295  34.777  28.248  1.00  0.00     0.135 A 
ATOM     92  F   UNL A   1      45.097  35.631  31.685  1.00  0.00    -0.206 F 
ATOM     93  C   UNL A   1      44.807  36.990  29.824  1.00  0.00     0.059 A 
ATOM     94  C   UNL A   1      44.394  36.034  27.654  1.00  0.00     0.059 A 
ATOM     95  F   UNL A   1      44.035  33.761  27.410  1.00  0.00    -0.206 F 
ATOM     96  C   UNL A   1      44.607  37.143  28.456  1.00  0.00     0.060 A 
BRANCH  96  97
ATOM     97  S   UNL A   1      44.642  38.778  27.699  1.00  0.00     0.124 S 
ATOM     98  O   UNL A   1      45.306  39.565  28.734  1.00  0.00    -0.237 OA
ATOM     99  O   UNL A   1      45.417  38.568  26.479  1.00  0.00    -0.237 OA
ATOM    100  O   UNL A   1      43.228  39.069  27.491  1.00  0.00    -0.744 OA
ENDBRANCH  96  97
ENDBRANCH  64  89
ENDBRANCH  38  39
ENDBRANCH  31  33
ENDBRANCH  30  31
ENDBRANCH  29  30
ENDBRANCH  28  29
ENDBRANCH  27  28
ENDBRANCH  26  27
ENDBRANCH   1  26
TORSDOF 23
ENDMDL
MODEL 2
REMARK VINA RESULT:     -11.3      3.686      9.742
REMARK SMILES Cc1cccc(NC(=O)C[C@@H]2CCCCO2)c1C(=O)OCCOCCOCCOC(=O)c1ccc(-c2c3nc(c(-c4c(F)cc(S(=O)(=O)[O-])cc4F)c4ccc([nH]4)c(-c4c(F)cc(S(=O)(=O)[O-])cc4F)c4nc(c(-c5c(F)cc(S(=O)(=O)[O-])cc5F)c5ccc2[nH]5)C=C4)C=C3)cc1
REMARK SMILES IDX 24 1 23 2 22 3 21 4 20 5 18 6 19 7 17 8 1 9 2 10 3 11 4 12
REMARK SMILES IDX 6 13 5 14 7 15 8 16 9 18 10 19 11 20 12 21 16 22 13 23 15 24
REMARK SMILES IDX 14 25 25 26 26 27 27 28 28 29 29 30 30 31 31 32 32 33 33 34
REMARK SMILES IDX 97 35 34 36 96 37 35 38 36 39 37 40 90 41 38 42 95 43 89 44
REMARK SMILES IDX 91 45 39 46 94 47 88 48 87 49 40 51 74 52 53 53 73 54 54 55
REMARK SMILES IDX 57 56 72 57 92 58 55 59 56 60 71 62 93 63 58 64 41 65 42 66
REMARK SMILES IDX 51 67 43 68 44 69 50 70 52 71 45 72 46 73 47 74 48 75 49 76
REMARK SMILES IDX 75 77 76 78 85 79 77 80 78 81 84 82 86 83 79 84 80 85 81 86
REMARK SMILES IDX 82 87 83 88 59 89 60 90 69 91 61 92 62 93 68 94 70 95 63 96
REMARK SMILES IDX 64 97 65 98 66 99 67 100
REMARK H PARENT 7 17 91 50 57 61
REMARK Flexibility Score: inf
ROOT
ATOM      1  C   UNL A   1      34.370  32.974  29.015  1.00  0.00     0.188 C 
ENDROOT
BRANCH   1   2
ATOM      2  O   UNL A   1      34.013  31.754  28.320  1.00  0.00    -0.376 OA
BRANCH   2   3
ATOM      3  C   UNL A   1      34.857  30.953  27.465  1.00  0.00     0.202 C 
BRANCH   3   4
ATOM      4  C   UNL A   1      34.742  29.237  27.114  1.00  0.00     0.261 C 
BRANCH   4   5
ATOM      5  O   UNL A   1      33.500  28.035  27.291  1.00  0.00    -0.460 OA
BRANCH   5   6
ATOM      6  C   UNL A   1      32.058  27.918  27.086  1.00  0.00     0.340 C 
ATOM      7  O   UNL A   1      31.259  27.537  27.939  1.00  0.00    -0.246 OA
BRANCH   6   8
ATOM      8  C   UNL A   1      31.243  27.814  25.828  1.00  0.00     0.086 A 
ATOM      9  C   UNL A   1      31.504  30.290  25.261  1.00  0.00     0.045 C 
ATOM     10  C   UNL A   1      31.138  28.879  24.935  1.00  0.00    -0.034 A 
ATOM     11  C   UNL A   1      30.699  28.618  23.618  1.00  0.00     0.004 A 
ATOM     12  C   UNL A   1      30.406  27.330  23.165  1.00  0.00     0.002 A 
ATOM     13  C   UNL A   1      30.801  26.470  25.378  1.00  0.00     0.056 A 
ATOM     14  C   UNL A   1      30.472  26.260  24.038  1.00  0.00     0.027 A 
BRANCH  13  15
ATOM     15  N   UNL A   1      30.746  25.330  26.250  1.00  0.00    -0.325 N 
ATOM     16  C   UNL A   1      31.656  24.371  26.632  1.00  0.00     0.227 C 
ATOM     17  H   UNL A   1      29.863  25.208  26.667  1.00  0.00     0.169 HD
ATOM     18  O   UNL A   1      31.392  23.592  27.552  1.00  0.00    -0.275 OA
BRANCH  16  19
ATOM     19  C   UNL A   1      32.973  24.166  25.927  1.00  0.00     0.132 C 
BRANCH  19  20
ATOM     20  C   UNL A   1      32.851  23.642  24.489  1.00  0.00     0.127 C 
ATOM     21  C   UNL A   1      31.957  22.397  24.434  1.00  0.00     0.033 C 
ATOM     22  O   UNL A   1      34.074  23.322  23.832  1.00  0.00    -0.378 OA
ATOM     23  C   UNL A   1      32.611  21.230  25.170  1.00  0.00     0.005 C 
ATOM     24  C   UNL A   1      34.820  22.245  24.362  1.00  0.00     0.160 C 
ATOM     25  C   UNL A   1      34.025  20.982  24.660  1.00  0.00     0.029 C 
ENDBRANCH  19  20
ENDBRANCH  16  19
ENDBRANCH  13  15
ENDBRANCH   6   8
ENDBRANCH   5   6
ENDBRANCH   4   5
ENDBRANCH   3   4
ENDBRANCH   2   3
ENDBRANCH   1   2
BRANCH   1  26
ATOM     26  C   UNL A   1      35.291  33.090  30.248  1.00  0.00     0.188 C 
BRANCH  26  27
ATOM     27  O   UNL A   1      36.640  33.389  29.924  1.00  0.00    -0.376 OA
BRANCH  27  28
ATOM     28  C   UNL A   1      37.464  32.257  29.649  1.00  0.00     0.202 C 
BRANCH  28  29
ATOM     29  C   UNL A   1      37.172  30.965  30.460  1.00  0.00     0.261 C 
BRANCH  29  30
ATOM     30  O   UNL A   1      37.623  29.730  29.839  1.00  0.00    -0.460 OA
BRANCH  30  31
ATOM     31  C   UNL A   1      38.508  28.896  30.527  1.00  0.00     0.338 C 
ATOM     32  O   UNL A   1      38.126  28.036  31.266  1.00  0.00    -0.246 OA
BRANCH  31  33
ATOM     33  C   UNL A   1      39.900  28.996  29.965  1.00  0.00     0.060 A 
ATOM     34  C   UNL A   1      40.471  28.491  28.793  1.00  0.00     0.016 A 
ATOM     35  C   UNL A   1      40.739  29.718  30.727  1.00  0.00     0.016 A 
ATOM     36  C   UNL A   1      41.921  28.540  28.537  1.00  0.00     0.010 A 
ATOM     37  C   UNL A   1      42.102  29.589  30.515  1.00  0.00     0.010 A 
ATOM     38  C   UNL A   1      42.849  29.054  29.449  1.00  0.00    -0.014 A 
BRANCH  38  39
ATOM     39  C   UNL A   1      44.538  29.138  29.308  1.00  0.00     0.031 A 
ATOM     40  C   UNL A   1      45.614  30.222  28.460  1.00  0.00     0.074 A 
ATOM     41  C   UNL A   1      45.211  28.072  29.801  1.00  0.00     0.049 A 
ATOM     42  N   UNL A   1      46.864  29.936  28.129  1.00  0.00    -0.248 NA
ATOM     43  C   UNL A   1      45.387  31.606  27.882  1.00  0.00     0.031 C 
ATOM     44  C   UNL A   1      46.650  27.932  29.998  1.00  0.00     0.029 A 
ATOM     45  N   UNL A   1      44.709  26.790  30.052  1.00  0.00    -0.354 N 
ATOM     46  C   UNL A   1      47.471  31.070  27.567  1.00  0.00     0.074 A 
ATOM     47  C   UNL A   1      46.457  31.959  27.202  1.00  0.00     0.031 C 
ATOM     48  C   UNL A   1      46.958  26.627  30.015  1.00  0.00     0.029 A 
ATOM     49  C   UNL A   1      45.742  25.893  29.727  1.00  0.00     0.049 A 
ATOM     50  H   UNL A   1      43.813  26.562  30.389  1.00  0.00     0.167 HD
ATOM     51  C   UNL A   1      48.804  31.322  27.537  1.00  0.00     0.037 A 
ATOM     52  C   UNL A   1      45.582  24.961  28.747  1.00  0.00     0.037 A 
ATOM     53  C   UNL A   1      49.489  30.061  27.506  1.00  0.00     0.049 A 
ATOM     54  C   UNL A   1      46.578  25.099  27.605  1.00  0.00     0.074 A 
ATOM     55  C   UNL A   1      50.100  29.277  28.456  1.00  0.00     0.029 A 
ATOM     56  N   UNL A   1      49.218  29.243  26.415  1.00  0.00    -0.354 N 
ATOM     57  N   UNL A   1      47.501  26.021  27.509  1.00  0.00    -0.248 NA
ATOM     58  C   UNL A   1      46.589  24.195  26.456  1.00  0.00     0.031 C 
ATOM     59  C   UNL A   1      49.990  27.926  28.004  1.00  0.00     0.029 A 
ATOM     60  C   UNL A   1      49.392  27.918  26.752  1.00  0.00     0.049 A 
ATOM     61  H   UNL A   1      48.940  29.566  25.527  1.00  0.00     0.167 HD
ATOM     62  C   UNL A   1      48.109  25.940  26.277  1.00  0.00     0.074 A 
ATOM     63  C   UNL A   1      47.561  24.729  25.697  1.00  0.00     0.031 C 
ATOM     64  C   UNL A   1      48.973  26.890  25.802  1.00  0.00     0.037 A 
BRANCH  51  65
ATOM     65  C   UNL A   1      49.413  32.735  27.582  1.00  0.00     0.058 A 
ATOM     66  C   UNL A   1      49.093  33.634  28.619  1.00  0.00     0.135 A 
ATOM     67  C   UNL A   1      50.202  33.324  26.549  1.00  0.00     0.135 A 
ATOM     68  F   UNL A   1      48.303  33.248  29.632  1.00  0.00    -0.206 F 
ATOM     69  C   UNL A   1      49.523  34.979  28.636  1.00  0.00     0.059 A 
ATOM     70  C   UNL A   1      50.702  34.631  26.581  1.00  0.00     0.059 A 
ATOM     71  F   UNL A   1      50.466  32.697  25.394  1.00  0.00    -0.206 F 
ATOM     72  C   UNL A   1      50.330  35.469  27.613  1.00  0.00     0.060 A 
BRANCH  72  73
ATOM     73  S   UNL A   1      50.833  37.206  27.579  1.00  0.00     0.124 S 
ATOM     74  O   UNL A   1      49.707  37.830  26.891  1.00  0.00    -0.237 OA
ATOM     75  O   UNL A   1      50.973  37.526  28.995  1.00  0.00    -0.237 OA
ATOM     76  O   UNL A   1      52.085  37.183  26.825  1.00  0.00    -0.744 OA
ENDBRANCH  72  73
ENDBRANCH  51  65
BRANCH  52  77
ATOM     77  C   UNL A   1      44.176  24.455  28.658  1.00  0.00     0.058 A 
ATOM     78  C   UNL A   1      43.329  24.965  27.657  1.00  0.00     0.135 A 
ATOM     79  C   UNL A   1      43.800  23.242  29.237  1.00  0.00     0.135 A 
ATOM     80  F   UNL A   1      43.623  26.132  27.062  1.00  0.00    -0.206 F 
ATOM     81  C   UNL A   1      42.249  24.238  27.154  1.00  0.00     0.059 A 
ATOM     82  C   UNL A   1      42.699  22.500  28.773  1.00  0.00     0.059 A 
ATOM     83  F   UNL A   1      44.618  22.693  30.142  1.00  0.00    -0.206 F 
ATOM     84  C   UNL A   1      41.980  22.975  27.675  1.00  0.00     0.060 A 
BRANCH  84  85
ATOM     85  S   UNL A   1      40.804  21.932  26.770  1.00  0.00     0.124 S 
ATOM     86  O   UNL A   1      39.652  22.817  26.621  1.00  0.00    -0.237 OA
ATOM     87  O   UNL A   1      41.539  21.653  25.535  1.00  0.00    -0.237 OA
ATOM     88  O   UNL A   1      40.599  20.791  27.654  1.00  0.00    -0.744 OA
ENDBRANCH  84  85
ENDBRANCH  52  77
BRANCH  64  89
ATOM     89  C   UNL A   1      49.513  26.951  24.380  1.00  0.00     0.058 A 
ATOM     90  C   UNL A   1      48.750  27.285  23.246  1.00  0.00     0.135 A 
ATOM     91  C   UNL A   1      50.900  26.787  24.144  1.00  0.00     0.135 A 
ATOM     92  F   UNL A   1      47.453  27.605  23.347  1.00  0.00    -0.206 F 
ATOM     93  C   UNL A   1      49.298  27.346  21.960  1.00  0.00     0.059 A 
ATOM     94  C   UNL A   1      51.480  26.914  22.883  1.00  0.00     0.059 A 
ATOM     95  F   UNL A   1      51.750  26.506  25.144  1.00  0.00    -0.206 F 
ATOM     96  C   UNL A   1      50.664  27.150  21.787  1.00  0.00     0.060 A 
BRANCH  96  97
ATOM     97  S   UNL A   1      51.403  27.221  20.145  1.00  0.00     0.124 S 
ATOM     98  O   UNL A   1      52.426  26.185  20.241  1.00  0.00    -0.237 OA
ATOM     99  O   UNL A   1      50.283  26.915  19.259  1.00  0.00    -0.237 OA
ATOM    100  O   UNL A   1      51.894  28.592  20.069  1.00  0.00    -0.744 OA
ENDBRANCH  96  97
ENDBRANCH  64  89
ENDBRANCH  38  39
ENDBRANCH  31  33
ENDBRANCH  30  31
ENDBRANCH  29  30
ENDBRANCH  28  29
ENDBRANCH  27  28
ENDBRANCH  26  27
ENDBRANCH   1  26
TORSDOF 23
ENDMDL
MODEL 3
REMARK VINA RESULT:     -11.2      1.785      2.619
REMARK SMILES Cc1cccc(NC(=O)C[C@@H]2CCCCO2)c1C(=O)OCCOCCOCCOC(=O)c1ccc(-c2c3nc(c(-c4c(F)cc(S(=O)(=O)[O-])cc4F)c4ccc([nH]4)c(-c4c(F)cc(S(=O)(=O)[O-])cc4F)c4nc(c(-c5c(F)cc(S(=O)(=O)[O-])cc5F)c5ccc2[nH]5)C=C4)C=C3)cc1
REMARK SMILES IDX 24 1 23 2 22 3 21 4 20 5 18 6 19 7 17 8 1 9 2 10 3 11 4 12
REMARK SMILES IDX 6 13 5 14 7 15 8 16 9 18 10 19 11 20 12 21 16 22 13 23 15 24
REMARK SMILES IDX 14 25 25 26 26 27 27 28 28 29 29 30 30 31 31 32 32 33 33 34
REMARK SMILES IDX 97 35 34 36 96 37 35 38 36 39 37 40 90 41 38 42 95 43 89 44
REMARK SMILES IDX 91 45 39 46 94 47 88 48 87 49 40 51 74 52 53 53 73 54 54 55
REMARK SMILES IDX 57 56 72 57 92 58 55 59 56 60 71 62 93 63 58 64 41 65 42 66
REMARK SMILES IDX 51 67 43 68 44 69 50 70 52 71 45 72 46 73 47 74 48 75 49 76
REMARK SMILES IDX 75 77 76 78 85 79 77 80 78 81 84 82 86 83 79 84 80 85 81 86
REMARK SMILES IDX 82 87 83 88 59 89 60 90 69 91 61 92 62 93 68 94 70 95 63 96
REMARK SMILES IDX 64 97 65 98 66 99 67 100
REMARK H PARENT 7 17 91 50 57 61
REMARK Flexibility Score: inf
ROOT
ATOM      1  C   UNL A   1      40.996  20.353  27.258  1.00  0.00     0.188 C 
ENDROOT
BRANCH   1   2
ATOM      2  O   UNL A   1      40.357  21.527  26.700  1.00  0.00    -0.376 OA
BRANCH   2   3
ATOM      3  C   UNL A   1      39.053  21.606  26.085  1.00  0.00     0.202 C 
BRANCH   3   4
ATOM      4  C   UNL A   1      37.972  22.985  25.987  1.00  0.00     0.261 C 
BRANCH   4   5
ATOM      5  O   UNL A   1      36.262  23.213  26.194  1.00  0.00    -0.460 OA
BRANCH   5   6
ATOM      6  C   UNL A   1      35.082  22.404  26.488  1.00  0.00     0.340 C 
ATOM      7  O   UNL A   1      34.692  22.121  27.620  1.00  0.00    -0.246 OA
BRANCH   6   8
ATOM      8  C   UNL A   1      34.318  21.426  25.643  1.00  0.00     0.086 A 
ATOM      9  C   UNL A   1      36.429  20.372  24.667  1.00  0.00     0.045 C 
ATOM     10  C   UNL A   1      34.961  20.407  24.941  1.00  0.00    -0.034 A 
ATOM     11  C   UNL A   1      34.196  19.309  24.489  1.00  0.00     0.004 A 
ATOM     12  C   UNL A   1      32.832  19.184  24.753  1.00  0.00     0.002 A 
ATOM     13  C   UNL A   1      32.843  21.349  25.802  1.00  0.00     0.056 A 
ATOM     14  C   UNL A   1      32.162  20.192  25.420  1.00  0.00     0.027 A 
BRANCH  13  15
ATOM     15  N   UNL A   1      32.063  22.400  26.393  1.00  0.00    -0.325 N 
ATOM     16  C   UNL A   1      31.594  23.615  25.946  1.00  0.00     0.227 C 
ATOM     17  H   UNL A   1      31.806  22.210  27.324  1.00  0.00     0.169 HD
ATOM     18  O   UNL A   1      30.780  24.254  26.616  1.00  0.00    -0.275 OA
BRANCH  16  19
ATOM     19  C   UNL A   1      32.083  24.261  24.674  1.00  0.00     0.132 C 
BRANCH  19  20
ATOM     20  C   UNL A   1      31.613  25.711  24.476  1.00  0.00     0.127 C 
ATOM     21  C   UNL A   1      31.079  25.923  23.055  1.00  0.00     0.033 C 
ATOM     22  O   UNL A   1      32.583  26.724  24.727  1.00  0.00    -0.378 OA
ATOM     23  C   UNL A   1      32.201  25.783  22.030  1.00  0.00     0.005 C 
ATOM     24  C   UNL A   1      33.699  26.767  23.860  1.00  0.00     0.160 C 
ATOM     25  C   UNL A   1      33.377  26.688  22.375  1.00  0.00     0.029 C 
ENDBRANCH  19  20
ENDBRANCH  16  19
ENDBRANCH  13  15
ENDBRANCH   6   8
ENDBRANCH   5   6
ENDBRANCH   4   5
ENDBRANCH   3   4
ENDBRANCH   2   3
ENDBRANCH   1   2
BRANCH   1  26
ATOM     26  C   UNL A   1      42.232  19.625  26.688  1.00  0.00     0.188 C 
BRANCH  26  27
ATOM     27  O   UNL A   1      42.648  20.116  25.423  1.00  0.00    -0.376 OA
BRANCH  27  28
ATOM     28  C   UNL A   1      44.017  20.513  25.345  1.00  0.00     0.202 C 
BRANCH  28  29
ATOM     29  C   UNL A   1      44.447  21.717  26.226  1.00  0.00     0.261 C 
BRANCH  29  30
ATOM     30  O   UNL A   1      43.428  22.737  26.421  1.00  0.00    -0.460 OA
BRANCH  30  31
ATOM     31  C   UNL A   1      43.289  23.760  25.481  1.00  0.00     0.338 C 
ATOM     32  O   UNL A   1      43.185  23.538  24.309  1.00  0.00    -0.246 OA
BRANCH  31  33
ATOM     33  C   UNL A   1      42.954  25.069  26.143  1.00  0.00     0.060 A 
ATOM     34  C   UNL A   1      42.647  26.328  25.619  1.00  0.00     0.016 A 
ATOM     35  C   UNL A   1      42.929  25.003  27.485  1.00  0.00     0.016 A 
ATOM     36  C   UNL A   1      42.546  27.531  26.463  1.00  0.00     0.010 A 
ATOM     37  C   UNL A   1      42.988  26.185  28.206  1.00  0.00     0.010 A 
ATOM     38  C   UNL A   1      42.783  27.529  27.842  1.00  0.00    -0.014 A 
BRANCH  38  39
ATOM     39  C   UNL A   1      42.744  28.834  28.926  1.00  0.00     0.031 A 
ATOM     40  C   UNL A   1      41.540  30.044  29.296  1.00  0.00     0.074 A 
ATOM     41  C   UNL A   1      43.925  29.126  29.519  1.00  0.00     0.049 A 
ATOM     42  N   UNL A   1      41.795  31.209  29.871  1.00  0.00    -0.248 NA
ATOM     43  C   UNL A   1      40.049  30.090  29.015  1.00  0.00     0.031 C 
ATOM     44  C   UNL A   1      44.172  30.050  30.621  1.00  0.00     0.029 A 
ATOM     45  N   UNL A   1      45.207  28.762  29.090  1.00  0.00    -0.354 N 
ATOM     46  C   UNL A   1      40.588  31.879  30.126  1.00  0.00     0.074 A 
ATOM     47  C   UNL A   1      39.594  31.278  29.351  1.00  0.00     0.031 C 
ATOM     48  C   UNL A   1      45.456  30.433  30.583  1.00  0.00     0.029 A 
ATOM     49  C   UNL A   1      46.047  29.847  29.397  1.00  0.00     0.049 A 
ATOM     50  H   UNL A   1      45.468  27.915  28.661  1.00  0.00     0.167 HD
ATOM     51  C   UNL A   1      40.396  32.830  31.076  1.00  0.00     0.037 A 
ATOM     52  C   UNL A   1      46.713  30.519  28.418  1.00  0.00     0.037 A 
ATOM     53  C   UNL A   1      41.643  33.512  31.273  1.00  0.00     0.049 A 
ATOM     54  C   UNL A   1      46.354  31.996  28.339  1.00  0.00     0.074 A 
ATOM     55  C   UNL A   1      42.656  33.413  32.199  1.00  0.00     0.029 A 
ATOM     56  N   UNL A   1      42.168  34.164  30.163  1.00  0.00    -0.354 N 
ATOM     57  N   UNL A   1      45.478  32.606  29.094  1.00  0.00    -0.248 NA
ATOM     58  C   UNL A   1      46.961  32.902  27.366  1.00  0.00     0.031 C 
ATOM     59  C   UNL A   1      43.856  33.817  31.537  1.00  0.00     0.029 A 
ATOM     60  C   UNL A   1      43.542  34.236  30.252  1.00  0.00     0.049 A 
ATOM     61  H   UNL A   1      41.633  34.524  29.419  1.00  0.00     0.167 HD
ATOM     62  C   UNL A   1      45.293  33.892  28.640  1.00  0.00     0.074 A 
ATOM     63  C   UNL A   1      46.307  34.049  27.615  1.00  0.00     0.031 C 
ATOM     64  C   UNL A   1      44.297  34.714  29.096  1.00  0.00     0.037 A 
BRANCH  51  65
ATOM     65  C   UNL A   1      39.062  33.053  31.810  1.00  0.00     0.058 A 
ATOM     66  C   UNL A   1      38.371  34.278  31.710  1.00  0.00     0.135 A 
ATOM     67  C   UNL A   1      38.483  32.155  32.756  1.00  0.00     0.135 A 
ATOM     68  F   UNL A   1      38.829  35.252  30.910  1.00  0.00    -0.206 F 
ATOM     69  C   UNL A   1      37.215  34.576  32.464  1.00  0.00     0.059 A 
ATOM     70  C   UNL A   1      37.296  32.399  33.457  1.00  0.00     0.059 A 
ATOM     71  F   UNL A   1      39.081  31.015  33.130  1.00  0.00    -0.206 F 
ATOM     72  C   UNL A   1      36.682  33.629  33.334  1.00  0.00     0.060 A 
BRANCH  72  73
ATOM     73  S   UNL A   1      35.244  34.017  34.359  1.00  0.00     0.124 S 
ATOM     74  O   UNL A   1      34.990  35.410  34.003  1.00  0.00    -0.237 OA
ATOM     75  O   UNL A   1      34.253  33.050  33.899  1.00  0.00    -0.237 OA
ATOM     76  O   UNL A   1      35.729  33.803  35.721  1.00  0.00    -0.744 OA
ENDBRANCH  72  73
ENDBRANCH  51  65
BRANCH  52  77
ATOM     77  C   UNL A   1      47.121  29.629  27.285  1.00  0.00     0.058 A 
ATOM     78  C   UNL A   1      48.253  28.806  27.435  1.00  0.00     0.135 A 
ATOM     79  C   UNL A   1      46.223  29.280  26.274  1.00  0.00     0.135 A 
ATOM     80  F   UNL A   1      49.162  29.087  28.382  1.00  0.00    -0.206 F 
ATOM     81  C   UNL A   1      48.408  27.619  26.720  1.00  0.00     0.059 A 
ATOM     82  C   UNL A   1      46.370  28.105  25.515  1.00  0.00     0.059 A 
ATOM     83  F   UNL A   1      45.102  29.998  26.148  1.00  0.00    -0.206 F 
ATOM     84  C   UNL A   1      47.428  27.242  25.807  1.00  0.00     0.060 A 
BRANCH  84  85
ATOM     85  S   UNL A   1      47.492  25.547  25.164  1.00  0.00     0.124 S 
ATOM     86  O   UNL A   1      47.839  24.775  26.354  1.00  0.00    -0.237 OA
ATOM     87  O   UNL A   1      46.124  25.359  24.677  1.00  0.00    -0.237 OA
ATOM     88  O   UNL A   1      48.525  25.602  24.138  1.00  0.00    -0.744 OA
ENDBRANCH  84  85
ENDBRANCH  52  77
BRANCH  64  89
ATOM     89  C   UNL A   1      43.927  36.060  28.492  1.00  0.00     0.058 A 
ATOM     90  C   UNL A   1      43.126  36.234  27.348  1.00  0.00     0.135 A 
ATOM     91  C   UNL A   1      44.287  37.257  29.159  1.00  0.00     0.135 A 
ATOM     92  F   UNL A   1      42.596  35.186  26.701  1.00  0.00    -0.206 F 
ATOM     93  C   UNL A   1      42.797  37.496  26.842  1.00  0.00     0.059 A 
ATOM     94  C   UNL A   1      43.911  38.523  28.713  1.00  0.00     0.059 A 
ATOM     95  F   UNL A   1      45.017  37.235  30.286  1.00  0.00    -0.206 F 
ATOM     96  C   UNL A   1      43.202  38.636  27.528  1.00  0.00     0.060 A 
BRANCH  96  97
ATOM     97  S   UNL A   1      42.797  40.277  26.903  1.00  0.00     0.124 S 
ATOM     98  O   UNL A   1      41.338  40.243  26.917  1.00  0.00    -0.237 OA
ATOM     99  O   UNL A   1      43.411  41.171  27.881  1.00  0.00    -0.237 OA
ATOM    100  O   UNL A   1      43.418  40.284  25.583  1.00  0.00    -0.744 OA
ENDBRANCH  96  97
ENDBRANCH  64  89
ENDBRANCH  38  39
ENDBRANCH  31  33
ENDBRANCH  30  31
ENDBRANCH  29  30
ENDBRANCH  28  29
ENDBRANCH  27  28
ENDBRANCH  26  27
ENDBRANCH   1  26
TORSDOF 23
ENDMDL
