MODEL 1
REMARK VINA RESULT:      -7.1      0.000      0.000
REMARK SMILES Cc1cccc(N2C(=O)/C(=C3/C(=O)N([C@@H](C)C(=O)OCCOCCOCCOC(=O)c4ccc(-c5c6nc(c(-c7c(F)cc(S(=O)(=O)[O-])cc7F)c7ccc([nH]7)c(-c7c(F)cc(S(=O)(=O)[O-])cc7F)c7nc(c(-c8c(F)cc(S(=O)(=O)[O-])cc8F)c8ccc5[nH]8)C=C7)C=C6)cc4)c4ccccc43)SC2=S)c1C
REMARK SMILES IDX 24 1 23 2 22 3 21 4 20 5 19 6 17 7 18 8 15 9 16 10 14 11
REMARK SMILES IDX 7 12 8 13 104 14 9 15 10 16 103 17 105 18 11 19 12 20 102 21
REMARK SMILES IDX 13 22 97 23 101 24 98 25 100 26 99 27 6 28 1 29 2 30 3 31
REMARK SMILES IDX 106 32 4 33 107 34 5 35 25 36 26 37 27 38 28 39 29 40 30 41
REMARK SMILES IDX 31 42 32 43 96 44 33 45 95 46 34 47 35 48 36 49 89 50 37 51
REMARK SMILES IDX 94 52 88 53 90 54 38 55 93 56 87 57 86 58 39 60 73 61 52 62
REMARK SMILES IDX 72 63 53 64 56 65 71 66 91 67 54 68 55 69 70 71 92 72 57 73
REMARK SMILES IDX 40 74 41 75 50 76 42 77 43 78 49 79 51 80 44 81 45 82 46 83
REMARK SMILES IDX 47 84 48 85 74 86 75 87 84 88 76 89 77 90 83 91 85 92 78 93
REMARK SMILES IDX 79 94 80 95 81 96 82 97 58 98 59 99 68 100 60 101 61 102
REMARK SMILES IDX 67 103 69 104 62 105 63 106 64 107 65 108 66 109
REMARK H PARENT 90 59 56 70
REMARK Flexibility Score: inf
ROOT
ATOM      1  C   UNL A   1      48.375  26.157  25.582  1.00  0.00     0.188 C 
ENDROOT
BRANCH   1   2
ATOM      2  C   UNL A   1      47.266  26.037  24.531  1.00  0.00     0.188 C 
BRANCH   2   3
ATOM      3  O   UNL A   1      46.715  24.760  24.288  1.00  0.00    -0.376 OA
BRANCH   3   4
ATOM      4  C   UNL A   1      45.504  24.404  24.945  1.00  0.00     0.202 C 
BRANCH   4   5
ATOM      5  C   UNL A   1      44.398  25.442  25.198  1.00  0.00     0.261 C 
BRANCH   5   6
ATOM      6  O   UNL A   1      43.655  25.225  26.419  1.00  0.00    -0.462 OA
BRANCH   6   7
ATOM      7  C   UNL A   1      44.379  25.264  27.568  1.00  0.00     0.329 C 
ATOM      8  O   UNL A   1      44.571  24.270  28.266  1.00  0.00    -0.250 OA
BRANCH   7   9
ATOM      9  C   UNL A   1      45.022  26.638  27.916  1.00  0.00     0.197 C 
ATOM     10  C   UNL A   1      46.239  26.368  28.807  1.00  0.00     0.044 C 
BRANCH   9  11
ATOM     11  N   UNL A   1      44.295  27.824  28.403  1.00  0.00    -0.294 N 
ATOM     12  N   UNL A   1      39.580  30.483  30.801  1.00  0.00    -0.261 N 
ATOM     13  C   UNL A   1      40.880  30.717  30.381  1.00  0.00     0.271 C 
ATOM     14  C   UNL A   1      39.364  29.303  31.479  1.00  0.00     0.152 C 
ATOM     15  O   UNL A   1      41.348  31.827  30.176  1.00  0.00    -0.268 OA
ATOM     16  C   UNL A   1      41.651  29.431  30.321  1.00  0.00     0.094 C 
ATOM     17  S   UNL A   1      40.827  28.325  31.384  1.00  0.00    -0.053 SA
ATOM     18  S   UNL A   1      37.971  28.759  32.223  1.00  0.00    -0.051 S 
ATOM     19  C   UNL A   1      42.700  29.143  29.516  1.00  0.00     0.069 C 
ATOM     20  C   UNL A   1      43.337  27.760  29.426  1.00  0.00     0.261 C 
ATOM     21  C   UNL A   1      43.413  29.960  28.505  1.00  0.00     0.012 A 
ATOM     22  O   UNL A   1      43.062  26.777  30.090  1.00  0.00    -0.269 OA
ATOM     23  C   UNL A   1      44.351  29.122  27.872  1.00  0.00     0.053 A 
ATOM     24  C   UNL A   1      43.319  31.283  28.101  1.00  0.00     0.011 A 
ATOM     25  C   UNL A   1      45.190  29.584  26.870  1.00  0.00     0.027 A 
ATOM     26  C   UNL A   1      44.175  31.767  27.110  1.00  0.00     0.001 A 
ATOM     27  C   UNL A   1      45.108  30.926  26.503  1.00  0.00     0.002 A 
BRANCH  12  28
ATOM     28  C   UNL A   1      38.561  31.434  30.506  1.00  0.00     0.054 A 
ATOM     29  C   UNL A   1      35.784  32.043  27.916  1.00  0.00     0.044 C 
ATOM     30  C   UNL A   1      36.708  32.185  29.098  1.00  0.00    -0.046 A 
ATOM     31  C   UNL A   1      36.474  33.226  30.009  1.00  0.00     0.004 A 
ATOM     32  C   UNL A   1      37.779  31.290  29.328  1.00  0.00    -0.024 A 
ATOM     33  C   UNL A   1      37.268  33.379  31.144  1.00  0.00     0.002 A 
ATOM     34  C   UNL A   1      38.087  30.176  28.357  1.00  0.00     0.047 C 
ATOM     35  C   UNL A   1      38.302  32.479  31.401  1.00  0.00     0.027 A 
ENDBRANCH  12  28
ENDBRANCH   9  11
ENDBRANCH   7   9
ENDBRANCH   6   7
ENDBRANCH   5   6
ENDBRANCH   4   5
ENDBRANCH   3   4
ENDBRANCH   2   3
ENDBRANCH   1   2
BRANCH   1  36
ATOM     36  O   UNL A   1      49.740  26.116  25.237  1.00  0.00    -0.376 OA
BRANCH  36  37
ATOM     37  C   UNL A   1      50.282  27.057  24.328  1.00  0.00     0.202 C 
BRANCH  37  38
ATOM     38  C   UNL A   1      51.299  28.151  24.705  1.00  0.00     0.261 C 
BRANCH  38  39
ATOM     39  O   UNL A   1      50.831  29.242  25.498  1.00  0.00    -0.460 OA
BRANCH  39  40
ATOM     40  C   UNL A   1      51.370  29.338  26.746  1.00  0.00     0.338 C 
ATOM     41  O   UNL A   1      52.547  29.346  27.041  1.00  0.00    -0.246 OA
BRANCH  40  42
ATOM     42  C   UNL A   1      50.260  29.690  27.662  1.00  0.00     0.060 A 
ATOM     43  C   UNL A   1      48.964  29.261  27.382  1.00  0.00     0.016 A 
ATOM     44  C   UNL A   1      50.513  30.533  28.756  1.00  0.00     0.016 A 
ATOM     45  C   UNL A   1      47.915  29.678  28.201  1.00  0.00     0.010 A 
ATOM     46  C   UNL A   1      49.457  30.975  29.555  1.00  0.00     0.010 A 
ATOM     47  C   UNL A   1      48.153  30.537  29.291  1.00  0.00    -0.014 A 
BRANCH  47  48
ATOM     48  C   UNL A   1      47.058  30.829  30.245  1.00  0.00     0.031 A 
ATOM     49  C   UNL A   1      46.272  32.103  30.193  1.00  0.00     0.074 A 
ATOM     50  C   UNL A   1      46.776  29.893  31.170  1.00  0.00     0.049 A 
ATOM     51  N   UNL A   1      45.239  32.456  30.915  1.00  0.00    -0.248 NA
ATOM     52  C   UNL A   1      46.694  33.111  29.211  1.00  0.00     0.031 C 
ATOM     53  C   UNL A   1      47.494  28.624  31.320  1.00  0.00     0.029 A 
ATOM     54  N   UNL A   1      45.817  29.852  32.147  1.00  0.00    -0.354 N 
ATOM     55  C   UNL A   1      44.867  33.716  30.463  1.00  0.00     0.074 A 
ATOM     56  C   UNL A   1      45.817  34.084  29.432  1.00  0.00     0.031 C 
ATOM     57  C   UNL A   1      46.933  27.920  32.314  1.00  0.00     0.029 A 
ATOM     58  C   UNL A   1      45.840  28.697  32.890  1.00  0.00     0.049 A 
ATOM     59  H   UNL A   1      45.171  30.580  32.301  1.00  0.00     0.167 HD
ATOM     60  C   UNL A   1      43.823  34.481  30.866  1.00  0.00     0.037 A 
ATOM     61  C   UNL A   1      45.070  28.306  33.922  1.00  0.00     0.037 A 
ATOM     62  C   UNL A   1      42.900  34.110  31.913  1.00  0.00     0.049 A 
ATOM     63  C   UNL A   1      43.952  29.198  34.382  1.00  0.00     0.074 A 
ATOM     64  C   UNL A   1      41.793  34.807  32.371  1.00  0.00     0.029 A 
ATOM     65  N   UNL A   1      42.978  32.954  32.677  1.00  0.00    -0.354 N 
ATOM     66  N   UNL A   1      43.573  30.359  33.902  1.00  0.00    -0.248 NA
ATOM     67  C   UNL A   1      43.152  28.726  35.519  1.00  0.00     0.031 C 
ATOM     68  C   UNL A   1      41.241  34.104  33.446  1.00  0.00     0.029 A 
ATOM     69  C   UNL A   1      41.961  32.934  33.621  1.00  0.00     0.049 A 
ATOM     70  H   UNL A   1      43.657  32.249  32.566  1.00  0.00     0.167 HD
ATOM     71  C   UNL A   1      42.479  30.747  34.667  1.00  0.00     0.074 A 
ATOM     72  C   UNL A   1      42.243  29.685  35.624  1.00  0.00     0.031 C 
ATOM     73  C   UNL A   1      41.738  31.879  34.581  1.00  0.00     0.037 A 
BRANCH  60  74
ATOM     74  C   UNL A   1      43.605  35.804  30.177  1.00  0.00     0.058 A 
ATOM     75  C   UNL A   1      44.176  36.988  30.669  1.00  0.00     0.135 A 
ATOM     76  C   UNL A   1      42.899  35.875  28.964  1.00  0.00     0.135 A 
ATOM     77  F   UNL A   1      44.856  36.982  31.826  1.00  0.00    -0.206 F 
ATOM     78  C   UNL A   1      44.045  38.197  29.991  1.00  0.00     0.059 A 
ATOM     79  C   UNL A   1      42.777  37.068  28.256  1.00  0.00     0.059 A 
ATOM     80  F   UNL A   1      42.336  34.773  28.444  1.00  0.00    -0.206 F 
ATOM     81  C   UNL A   1      43.348  38.226  28.782  1.00  0.00     0.060 A 
BRANCH  81  82
ATOM     82  S   UNL A   1      43.211  39.799  27.907  1.00  0.00     0.124 S 
ATOM     83  O   UNL A   1      43.149  39.357  26.516  1.00  0.00    -0.237 OA
ATOM     84  O   UNL A   1      41.974  40.350  28.450  1.00  0.00    -0.237 OA
ATOM     85  O   UNL A   1      44.429  40.510  28.282  1.00  0.00    -0.744 OA
ENDBRANCH  81  82
ENDBRANCH  60  74
BRANCH  61  86
ATOM     86  C   UNL A   1      45.323  26.992  34.568  1.00  0.00     0.058 A 
ATOM     87  C   UNL A   1      46.156  26.888  35.692  1.00  0.00     0.135 A 
ATOM     88  C   UNL A   1      44.713  25.819  34.095  1.00  0.00     0.135 A 
ATOM     89  F   UNL A   1      46.764  27.981  36.180  1.00  0.00    -0.206 F 
ATOM     90  C   UNL A   1      46.384  25.667  36.317  1.00  0.00     0.059 A 
ATOM     91  C   UNL A   1      44.903  24.593  34.720  1.00  0.00     0.059 A 
ATOM     92  F   UNL A   1      43.895  25.870  33.031  1.00  0.00    -0.206 F 
ATOM     93  C   UNL A   1      45.748  24.526  35.827  1.00  0.00     0.060 A 
BRANCH  93  94
ATOM     94  S   UNL A   1      46.014  22.958  36.681  1.00  0.00     0.124 S 
ATOM     95  O   UNL A   1      47.432  22.725  36.433  1.00  0.00    -0.237 OA
ATOM     96  O   UNL A   1      45.653  23.294  38.054  1.00  0.00    -0.237 OA
ATOM     97  O   UNL A   1      45.097  22.045  36.004  1.00  0.00    -0.744 OA
ENDBRANCH  93  94
ENDBRANCH  61  86
BRANCH  73  98
ATOM     98  C   UNL A   1      40.588  32.029  35.545  1.00  0.00     0.058 A 
ATOM     99  C   UNL A   1      39.307  31.534  35.248  1.00  0.00     0.135 A 
ATOM    100  C   UNL A   1      40.776  32.644  36.794  1.00  0.00     0.135 A 
ATOM    101  F   UNL A   1      39.067  30.944  34.067  1.00  0.00    -0.206 F 
ATOM    102  C   UNL A   1      38.248  31.673  36.141  1.00  0.00     0.059 A 
ATOM    103  C   UNL A   1      39.739  32.763  37.715  1.00  0.00     0.059 A 
ATOM    104  F   UNL A   1      41.981  33.127  37.136  1.00  0.00    -0.206 F 
ATOM    105  C   UNL A   1      38.475  32.287  37.374  1.00  0.00     0.060 A 
BRANCH 105 106
ATOM    106  S   UNL A   1      37.093  32.443  38.526  1.00  0.00     0.124 S 
ATOM    107  O   UNL A   1      37.685  33.247  39.589  1.00  0.00    -0.237 OA
ATOM    108  O   UNL A   1      36.084  33.111  37.711  1.00  0.00    -0.237 OA
ATOM    109  O   UNL A   1      36.788  31.061  38.882  1.00  0.00    -0.744 OA
ENDBRANCH 105 106
ENDBRANCH  73  98
ENDBRANCH  47  48
ENDBRANCH  40  42
ENDBRANCH  39  40
ENDBRANCH  38  39
ENDBRANCH  37  38
ENDBRANCH  36  37
ENDBRANCH   1  36
TORSDOF 22
ENDMDL
MODEL 2
REMARK VINA RESULT:      -6.5      2.517      9.951
REMARK SMILES Cc1cccc(N2C(=O)/C(=C3/C(=O)N([C@@H](C)C(=O)OCCOCCOCCOC(=O)c4ccc(-c5c6nc(c(-c7c(F)cc(S(=O)(=O)[O-])cc7F)c7ccc([nH]7)c(-c7c(F)cc(S(=O)(=O)[O-])cc7F)c7nc(c(-c8c(F)cc(S(=O)(=O)[O-])cc8F)c8ccc5[nH]8)C=C7)C=C6)cc4)c4ccccc43)SC2=S)c1C
REMARK SMILES IDX 24 1 23 2 22 3 21 4 20 5 19 6 17 7 18 8 15 9 16 10 14 11
REMARK SMILES IDX 7 12 8 13 104 14 9 15 10 16 103 17 105 18 11 19 12 20 102 21
REMARK SMILES IDX 13 22 97 23 101 24 98 25 100 26 99 27 6 28 1 29 2 30 3 31
REMARK SMILES IDX 106 32 4 33 107 34 5 35 25 36 26 37 27 38 28 39 29 40 30 41
REMARK SMILES IDX 31 42 32 43 96 44 33 45 95 46 34 47 35 48 36 49 89 50 37 51
REMARK SMILES IDX 94 52 88 53 90 54 38 55 93 56 87 57 86 58 39 60 73 61 52 62
REMARK SMILES IDX 72 63 53 64 56 65 71 66 91 67 54 68 55 69 70 71 92 72 57 73
REMARK SMILES IDX 40 74 41 75 50 76 42 77 43 78 49 79 51 80 44 81 45 82 46 83
REMARK SMILES IDX 47 84 48 85 74 86 75 87 84 88 76 89 77 90 83 91 85 92 78 93
REMARK SMILES IDX 79 94 80 95 81 96 82 97 58 98 59 99 68 100 60 101 61 102
REMARK SMILES IDX 67 103 69 104 62 105 63 106 64 107 65 108 66 109
REMARK H PARENT 90 59 56 70
REMARK Flexibility Score: inf
ROOT
ATOM      1  C   UNL A   1      36.459  32.490  40.191  1.00  0.00     0.188 C 
ENDROOT
BRANCH   1   2
ATOM      2  C   UNL A   1      36.864  31.557  39.044  1.00  0.00     0.188 C 
BRANCH   2   3
ATOM      3  O   UNL A   1      37.575  32.109  37.958  1.00  0.00    -0.376 OA
BRANCH   3   4
ATOM      4  C   UNL A   1      37.099  33.318  37.376  1.00  0.00     0.202 C 
BRANCH   4   5
ATOM      5  C   UNL A   1      36.920  33.456  35.855  1.00  0.00     0.261 C 
BRANCH   5   6
ATOM      6  O   UNL A   1      35.544  33.608  35.436  1.00  0.00    -0.462 OA
BRANCH   6   7
ATOM      7  C   UNL A   1      35.345  33.759  34.101  1.00  0.00     0.329 C 
ATOM      8  O   UNL A   1      34.256  34.071  33.624  1.00  0.00    -0.250 OA
BRANCH   7   9
ATOM      9  C   UNL A   1      36.605  33.585  33.205  1.00  0.00     0.197 C 
ATOM     10  C   UNL A   1      36.925  34.949  32.585  1.00  0.00     0.044 C 
BRANCH   9  11
ATOM     11  N   UNL A   1      36.806  32.519  32.207  1.00  0.00    -0.294 N 
ATOM     12  N   UNL A   1      40.113  28.464  29.439  1.00  0.00    -0.261 N 
ATOM     13  C   UNL A   1      38.818  28.947  29.535  1.00  0.00     0.271 C 
ATOM     14  C   UNL A   1      40.806  28.341  30.624  1.00  0.00     0.152 C 
ATOM     15  O   UNL A   1      37.937  28.723  28.719  1.00  0.00    -0.268 OA
ATOM     16  C   UNL A   1      38.630  29.687  30.827  1.00  0.00     0.094 C 
ATOM     17  S   UNL A   1      39.860  29.091  31.908  1.00  0.00    -0.053 SA
ATOM     18  S   UNL A   1      42.320  27.690  30.893  1.00  0.00    -0.051 S 
ATOM     19  C   UNL A   1      37.764  30.697  31.073  1.00  0.00     0.069 C 
ATOM     20  C   UNL A   1      37.737  31.483  32.380  1.00  0.00     0.261 C 
ATOM     21  C   UNL A   1      36.755  31.355  30.209  1.00  0.00     0.012 A 
ATOM     22  O   UNL A   1      38.403  31.278  33.378  1.00  0.00    -0.269 OA
ATOM     23  C   UNL A   1      36.216  32.433  30.937  1.00  0.00     0.053 A 
ATOM     24  C   UNL A   1      36.296  31.121  28.922  1.00  0.00     0.011 A 
ATOM     25  C   UNL A   1      35.235  33.258  30.409  1.00  0.00     0.027 A 
ATOM     26  C   UNL A   1      35.289  31.929  28.388  1.00  0.00     0.001 A 
ATOM     27  C   UNL A   1      34.758  32.986  29.128  1.00  0.00     0.002 A 
BRANCH  12  28
ATOM     28  C   UNL A   1      40.654  28.143  28.160  1.00  0.00     0.054 A 
ATOM     29  C   UNL A   1      40.956  25.137  25.780  1.00  0.00     0.044 C 
ATOM     30  C   UNL A   1      41.056  26.516  26.379  1.00  0.00    -0.046 A 
ATOM     31  C   UNL A   1      41.591  27.548  25.594  1.00  0.00     0.004 A 
ATOM     32  C   UNL A   1      40.604  26.803  27.689  1.00  0.00    -0.024 A 
ATOM     33  C   UNL A   1      41.667  28.853  26.079  1.00  0.00     0.002 A 
ATOM     34  C   UNL A   1      40.052  25.716  28.578  1.00  0.00     0.047 C 
ATOM     35  C   UNL A   1      41.188  29.155  27.353  1.00  0.00     0.027 A 
ENDBRANCH  12  28
ENDBRANCH   9  11
ENDBRANCH   7   9
ENDBRANCH   6   7
ENDBRANCH   5   6
ENDBRANCH   4   5
ENDBRANCH   3   4
ENDBRANCH   2   3
ENDBRANCH   1   2
BRANCH   1  36
ATOM     36  O   UNL A   1      37.290  32.706  41.308  1.00  0.00    -0.376 OA
BRANCH  36  37
ATOM     37  C   UNL A   1      38.556  32.079  41.396  1.00  0.00     0.202 C 
BRANCH  37  38
ATOM     38  C   UNL A   1      39.897  32.768  41.083  1.00  0.00     0.261 C 
BRANCH  38  39
ATOM     39  O   UNL A   1      40.061  33.332  39.782  1.00  0.00    -0.460 OA
BRANCH  39  40
ATOM     40  C   UNL A   1      41.242  33.978  39.563  1.00  0.00     0.338 C 
ATOM     41  O   UNL A   1      41.862  34.663  40.350  1.00  0.00    -0.246 OA
BRANCH  40  42
ATOM     42  C   UNL A   1      41.765  33.482  38.270  1.00  0.00     0.060 A 
ATOM     43  C   UNL A   1      43.072  33.779  37.888  1.00  0.00     0.016 A 
ATOM     44  C   UNL A   1      40.905  32.793  37.399  1.00  0.00     0.016 A 
ATOM     45  C   UNL A   1      43.521  33.386  36.627  1.00  0.00     0.010 A 
ATOM     46  C   UNL A   1      41.348  32.428  36.126  1.00  0.00     0.010 A 
ATOM     47  C   UNL A   1      42.665  32.709  35.738  1.00  0.00    -0.014 A 
BRANCH  47  48
ATOM     48  C   UNL A   1      43.209  32.151  34.479  1.00  0.00     0.031 A 
ATOM     49  C   UNL A   1      43.231  32.935  33.202  1.00  0.00     0.074 A 
ATOM     50  C   UNL A   1      43.705  30.901  34.519  1.00  0.00     0.049 A 
ATOM     51  N   UNL A   1      43.746  32.601  32.047  1.00  0.00    -0.248 NA
ATOM     52  C   UNL A   1      42.595  34.260  33.219  1.00  0.00     0.031 C 
ATOM     53  C   UNL A   1      43.715  30.043  35.706  1.00  0.00     0.029 A 
ATOM     54  N   UNL A   1      44.300  30.137  33.550  1.00  0.00    -0.354 N 
ATOM     55  C   UNL A   1      43.522  33.679  31.200  1.00  0.00     0.074 A 
ATOM     56  C   UNL A   1      42.782  34.662  31.966  1.00  0.00     0.031 C 
ATOM     57  C   UNL A   1      44.309  28.881  35.401  1.00  0.00     0.029 A 
ATOM     58  C   UNL A   1      44.694  28.898  33.993  1.00  0.00     0.049 A 
ATOM     59  H   UNL A   1      44.433  30.447  32.624  1.00  0.00     0.167 HD
ATOM     60  C   UNL A   1      43.912  33.832  29.910  1.00  0.00     0.037 A 
ATOM     61  C   UNL A   1      45.296  27.887  33.341  1.00  0.00     0.037 A 
ATOM     62  C   UNL A   1      44.627  32.832  29.153  1.00  0.00     0.049 A 
ATOM     63  C   UNL A   1      45.669  28.066  31.897  1.00  0.00     0.074 A 
ATOM     64  C   UNL A   1      45.091  32.908  27.849  1.00  0.00     0.029 A 
ATOM     65  N   UNL A   1      44.971  31.569  29.618  1.00  0.00    -0.354 N 
ATOM     66  N   UNL A   1      45.508  29.115  31.127  1.00  0.00    -0.248 NA
ATOM     67  C   UNL A   1      46.313  26.924  31.233  1.00  0.00     0.031 C 
ATOM     68  C   UNL A   1      45.659  31.677  27.509  1.00  0.00     0.029 A 
ATOM     69  C   UNL A   1      45.611  30.850  28.619  1.00  0.00     0.049 A 
ATOM     70  H   UNL A   1      44.788  31.233  30.525  1.00  0.00     0.167 HD
ATOM     71  C   UNL A   1      46.047  28.769  29.894  1.00  0.00     0.074 A 
ATOM     72  C   UNL A   1      46.560  27.420  30.029  1.00  0.00     0.031 C 
ATOM     73  C   UNL A   1      46.111  29.502  28.754  1.00  0.00     0.037 A 
BRANCH  60  74
ATOM     74  C   UNL A   1      43.583  35.130  29.219  1.00  0.00     0.058 A 
ATOM     75  C   UNL A   1      42.283  35.409  28.767  1.00  0.00     0.135 A 
ATOM     76  C   UNL A   1      44.549  36.142  29.092  1.00  0.00     0.135 A 
ATOM     77  F   UNL A   1      41.320  34.478  28.857  1.00  0.00    -0.206 F 
ATOM     78  C   UNL A   1      41.956  36.639  28.202  1.00  0.00     0.059 A 
ATOM     79  C   UNL A   1      44.238  37.388  28.553  1.00  0.00     0.059 A 
ATOM     80  F   UNL A   1      45.806  35.933  29.512  1.00  0.00    -0.206 F 
ATOM     81  C   UNL A   1      42.939  37.624  28.104  1.00  0.00     0.060 A 
BRANCH  81  82
ATOM     82  S   UNL A   1      42.488  39.221  27.391  1.00  0.00     0.124 S 
ATOM     83  O   UNL A   1      43.771  39.683  26.870  1.00  0.00    -0.237 OA
ATOM     84  O   UNL A   1      41.498  38.843  26.388  1.00  0.00    -0.237 OA
ATOM     85  O   UNL A   1      41.969  39.972  28.529  1.00  0.00    -0.744 OA
ENDBRANCH  81  82
ENDBRANCH  60  74
BRANCH  61  86
ATOM     86  C   UNL A   1      45.601  26.626  34.066  1.00  0.00     0.058 A 
ATOM     87  C   UNL A   1      44.612  25.655  34.275  1.00  0.00     0.135 A 
ATOM     88  C   UNL A   1      46.896  26.354  34.536  1.00  0.00     0.135 A 
ATOM     89  F   UNL A   1      43.358  25.871  33.847  1.00  0.00    -0.206 F 
ATOM     90  C   UNL A   1      44.890  24.464  34.935  1.00  0.00     0.059 A 
ATOM     91  C   UNL A   1      47.206  25.158  35.173  1.00  0.00     0.059 A 
ATOM     92  F   UNL A   1      47.882  27.246  34.347  1.00  0.00    -0.206 F 
ATOM     93  C   UNL A   1      46.193  24.222  35.374  1.00  0.00     0.060 A 
BRANCH  93  94
ATOM     94  S   UNL A   1      46.550  22.648  36.183  1.00  0.00     0.124 S 
ATOM     95  O   UNL A   1      47.764  22.230  35.492  1.00  0.00    -0.237 OA
ATOM     96  O   UNL A   1      46.715  23.052  37.576  1.00  0.00    -0.237 OA
ATOM     97  O   UNL A   1      45.361  21.848  35.906  1.00  0.00    -0.744 OA
ENDBRANCH  93  94
ENDBRANCH  61  86
BRANCH  73  98
ATOM     98  C   UNL A   1      46.770  28.866  27.557  1.00  0.00     0.058 A 
ATOM     99  C   UNL A   1      48.152  28.979  27.330  1.00  0.00     0.135 A 
ATOM    100  C   UNL A   1      46.019  28.107  26.645  1.00  0.00     0.135 A 
ATOM    101  F   UNL A   1      48.918  29.698  28.164  1.00  0.00    -0.206 F 
ATOM    102  C   UNL A   1      48.758  28.389  26.224  1.00  0.00     0.059 A 
ATOM    103  C   UNL A   1      46.611  27.480  25.551  1.00  0.00     0.059 A 
ATOM    104  F   UNL A   1      44.697  27.956  26.817  1.00  0.00    -0.206 F 
ATOM    105  C   UNL A   1      47.980  27.639  25.341  1.00  0.00     0.060 A 
BRANCH 105 106
ATOM    106  S   UNL A   1      48.786  26.868  23.922  1.00  0.00     0.124 S 
ATOM    107  O   UNL A   1      50.061  26.452  24.497  1.00  0.00    -0.237 OA
ATOM    108  O   UNL A   1      47.860  25.791  23.587  1.00  0.00    -0.237 OA
ATOM    109  O   UNL A   1      48.862  27.948  22.943  1.00  0.00    -0.744 OA
ENDBRANCH 105 106
ENDBRANCH  73  98
ENDBRANCH  47  48
ENDBRANCH  40  42
ENDBRANCH  39  40
ENDBRANCH  38  39
ENDBRANCH  37  38
ENDBRANCH  36  37
ENDBRANCH   1  36
TORSDOF 22
ENDMDL
MODEL 3
REMARK VINA RESULT:      -6.3      1.493      7.908
REMARK SMILES Cc1cccc(N2C(=O)/C(=C3/C(=O)N([C@@H](C)C(=O)OCCOCCOCCOC(=O)c4ccc(-c5c6nc(c(-c7c(F)cc(S(=O)(=O)[O-])cc7F)c7ccc([nH]7)c(-c7c(F)cc(S(=O)(=O)[O-])cc7F)c7nc(c(-c8c(F)cc(S(=O)(=O)[O-])cc8F)c8ccc5[nH]8)C=C7)C=C6)cc4)c4ccccc43)SC2=S)c1C
REMARK SMILES IDX 24 1 23 2 22 3 21 4 20 5 19 6 17 7 18 8 15 9 16 10 14 11
REMARK SMILES IDX 7 12 8 13 104 14 9 15 10 16 103 17 105 18 11 19 12 20 102 21
REMARK SMILES IDX 13 22 97 23 101 24 98 25 100 26 99 27 6 28 1 29 2 30 3 31
REMARK SMILES IDX 106 32 4 33 107 34 5 35 25 36 26 37 27 38 28 39 29 40 30 41
REMARK SMILES IDX 31 42 32 43 96 44 33 45 95 46 34 47 35 48 36 49 89 50 37 51
REMARK SMILES IDX 94 52 88 53 90 54 38 55 93 56 87 57 86 58 39 60 73 61 52 62
REMARK SMILES IDX 72 63 53 64 56 65 71 66 91 67 54 68 55 69 70 71 92 72 57 73
REMARK SMILES IDX 40 74 41 75 50 76 42 77 43 78 49 79 51 80 44 81 45 82 46 83
REMARK SMILES IDX 47 84 48 85 74 86 75 87 84 88 76 89 77 90 83 91 85 92 78 93
REMARK SMILES IDX 79 94 80 95 81 96 82 97 58 98 59 99 68 100 60 101 61 102
REMARK SMILES IDX 67 103 69 104 62 105 63 106 64 107 65 108 66 109
REMARK H PARENT 90 59 56 70
REMARK Flexibility Score: inf
ROOT
ATOM      1  C   UNL A   1      48.363  26.604  25.971  1.00  0.00     0.188 C 
ENDROOT
BRANCH   1   2
ATOM      2  C   UNL A   1      47.408  26.624  24.773  1.00  0.00     0.188 C 
BRANCH   2   3
ATOM      3  O   UNL A   1      46.757  25.421  24.422  1.00  0.00    -0.376 OA
BRANCH   3   4
ATOM      4  C   UNL A   1      45.621  25.016  25.178  1.00  0.00     0.202 C 
BRANCH   4   5
ATOM      5  C   UNL A   1      44.340  25.865  25.212  1.00  0.00     0.261 C 
BRANCH   5   6
ATOM      6  O   UNL A   1      43.688  25.895  26.502  1.00  0.00    -0.462 OA
BRANCH   6   7
ATOM      7  C   UNL A   1      43.956  26.978  27.277  1.00  0.00     0.329 C 
ATOM      8  O   UNL A   1      44.989  27.084  27.934  1.00  0.00    -0.250 OA
BRANCH   7   9
ATOM      9  C   UNL A   1      42.904  28.123  27.227  1.00  0.00     0.197 C 
ATOM     10  C   UNL A   1      43.656  29.434  26.982  1.00  0.00     0.044 C 
BRANCH   9  11
ATOM     11  N   UNL A   1      41.825  28.337  28.209  1.00  0.00    -0.294 N 
ATOM     12  N   UNL A   1      37.000  31.138  30.189  1.00  0.00    -0.261 N 
ATOM     13  C   UNL A   1      37.830  30.060  30.450  1.00  0.00     0.271 C 
ATOM     14  C   UNL A   1      36.684  31.355  28.865  1.00  0.00     0.152 C 
ATOM     15  O   UNL A   1      37.867  29.460  31.514  1.00  0.00    -0.268 OA
ATOM     16  C   UNL A   1      38.593  29.674  29.216  1.00  0.00     0.094 C 
ATOM     17  S   UNL A   1      37.671  30.286  27.870  1.00  0.00    -0.053 SA
ATOM     18  S   UNL A   1      35.629  32.470  28.206  1.00  0.00    -0.051 S 
ATOM     19  C   UNL A   1      39.807  29.081  29.156  1.00  0.00     0.069 C 
ATOM     20  C   UNL A   1      40.567  28.849  27.855  1.00  0.00     0.261 C 
ATOM     21  C   UNL A   1      40.724  28.617  30.224  1.00  0.00     0.012 A 
ATOM     22  O   UNL A   1      40.181  29.081  26.723  1.00  0.00    -0.269 OA
ATOM     23  C   UNL A   1      41.911  28.185  29.601  1.00  0.00     0.053 A 
ATOM     24  C   UNL A   1      40.632  28.549  31.606  1.00  0.00     0.011 A 
ATOM     25  C   UNL A   1      42.981  27.684  30.326  1.00  0.00     0.027 A 
ATOM     26  C   UNL A   1      41.693  28.022  32.346  1.00  0.00     0.001 A 
ATOM     27  C   UNL A   1      42.857  27.587  31.711  1.00  0.00     0.002 A 
BRANCH  12  28
ATOM     28  C   UNL A   1      36.539  31.951  31.264  1.00  0.00     0.054 A 
ATOM     29  C   UNL A   1      37.869  34.619  33.695  1.00  0.00     0.044 C 
ATOM     30  C   UNL A   1      36.970  33.652  32.968  1.00  0.00    -0.046 A 
ATOM     31  C   UNL A   1      35.602  33.646  33.281  1.00  0.00     0.004 A 
ATOM     32  C   UNL A   1      37.457  32.778  31.967  1.00  0.00    -0.024 A 
ATOM     33  C   UNL A   1      34.716  32.806  32.609  1.00  0.00     0.002 A 
ATOM     34  C   UNL A   1      38.925  32.730  31.621  1.00  0.00     0.047 C 
ATOM     35  C   UNL A   1      35.179  31.969  31.594  1.00  0.00     0.027 A 
ENDBRANCH  12  28
ENDBRANCH   9  11
ENDBRANCH   7   9
ENDBRANCH   6   7
ENDBRANCH   5   6
ENDBRANCH   4   5
ENDBRANCH   3   4
ENDBRANCH   2   3
ENDBRANCH   1   2
BRANCH   1  36
ATOM     36  O   UNL A   1      49.758  26.489  25.813  1.00  0.00    -0.376 OA
BRANCH  36  37
ATOM     37  C   UNL A   1      50.399  27.016  24.666  1.00  0.00     0.202 C 
BRANCH  37  38
ATOM     38  C   UNL A   1      51.426  28.164  24.687  1.00  0.00     0.261 C 
BRANCH  38  39
ATOM     39  O   UNL A   1      50.996  29.423  25.207  1.00  0.00    -0.460 OA
BRANCH  39  40
ATOM     40  C   UNL A   1      51.549  29.789  26.397  1.00  0.00     0.338 C 
ATOM     41  O   UNL A   1      52.706  30.089  26.609  1.00  0.00    -0.246 OA
BRANCH  40  42
ATOM     42  C   UNL A   1      50.427  30.006  27.339  1.00  0.00     0.060 A 
ATOM     43  C   UNL A   1      49.121  29.726  26.941  1.00  0.00     0.016 A 
ATOM     44  C   UNL A   1      50.684  30.580  28.594  1.00  0.00     0.016 A 
ATOM     45  C   UNL A   1      48.066  30.022  27.804  1.00  0.00     0.010 A 
ATOM     46  C   UNL A   1      49.624  30.905  29.443  1.00  0.00     0.010 A 
ATOM     47  C   UNL A   1      48.309  30.613  29.059  1.00  0.00    -0.014 A 
BRANCH  47  48
ATOM     48  C   UNL A   1      47.197  30.761  30.025  1.00  0.00     0.031 A 
ATOM     49  C   UNL A   1      46.941  29.757  31.108  1.00  0.00     0.074 A 
ATOM     50  C   UNL A   1      46.415  31.850  29.909  1.00  0.00     0.049 A 
ATOM     51  N   UNL A   1      46.054  29.800  32.069  1.00  0.00    -0.248 NA
ATOM     52  C   UNL A   1      47.784  28.553  31.118  1.00  0.00     0.031 C 
ATOM     53  C   UNL A   1      46.565  32.880  28.878  1.00  0.00     0.029 A 
ATOM     54  N   UNL A   1      45.353  32.281  30.659  1.00  0.00    -0.354 N 
ATOM     55  C   UNL A   1      46.241  28.643  32.816  1.00  0.00     0.074 A 
ATOM     56  C   UNL A   1      47.301  27.897  32.167  1.00  0.00     0.031 C 
ATOM     57  C   UNL A   1      45.644  33.834  29.075  1.00  0.00     0.029 A 
ATOM     58  C   UNL A   1      44.821  33.470  30.225  1.00  0.00     0.049 A 
ATOM     59  H   UNL A   1      45.004  31.785  31.436  1.00  0.00     0.167 HD
ATOM     60  C   UNL A   1      45.595  28.255  33.943  1.00  0.00     0.037 A 
ATOM     61  C   UNL A   1      43.786  34.189  30.696  1.00  0.00     0.037 A 
ATOM     62  C   UNL A   1      44.523  28.999  34.563  1.00  0.00     0.049 A 
ATOM     63  C   UNL A   1      43.054  33.707  31.917  1.00  0.00     0.074 A 
ATOM     64  C   UNL A   1      43.827  28.699  35.723  1.00  0.00     0.029 A 
ATOM     65  N   UNL A   1      43.978  30.178  34.072  1.00  0.00    -0.354 N 
ATOM     66  N   UNL A   1      43.284  32.644  32.649  1.00  0.00    -0.248 NA
ATOM     67  C   UNL A   1      41.925  34.525  32.378  1.00  0.00     0.031 C 
ATOM     68  C   UNL A   1      42.828  29.661  35.901  1.00  0.00     0.029 A 
ATOM     69  C   UNL A   1      42.937  30.599  34.887  1.00  0.00     0.049 A 
ATOM     70  H   UNL A   1      44.285  30.647  33.262  1.00  0.00     0.167 HD
ATOM     71  C   UNL A   1      42.342  32.676  33.671  1.00  0.00     0.074 A 
ATOM     72  C   UNL A   1      41.555  33.876  33.473  1.00  0.00     0.031 C 
ATOM     73  C   UNL A   1      42.148  31.790  34.680  1.00  0.00     0.037 A 
BRANCH  60  74
ATOM     74  C   UNL A   1      46.022  26.967  34.597  1.00  0.00     0.058 A 
ATOM     75  C   UNL A   1      45.431  25.740  34.253  1.00  0.00     0.135 A 
ATOM     76  C   UNL A   1      47.094  26.941  35.504  1.00  0.00     0.135 A 
ATOM     77  F   UNL A   1      44.398  25.703  33.396  1.00  0.00    -0.206 F 
ATOM     78  C   UNL A   1      45.878  24.538  34.795  1.00  0.00     0.059 A 
ATOM     79  C   UNL A   1      47.575  25.748  36.039  1.00  0.00     0.059 A 
ATOM     80  F   UNL A   1      47.701  28.083  35.865  1.00  0.00    -0.206 F 
ATOM     81  C   UNL A   1      46.954  24.552  35.683  1.00  0.00     0.060 A 
BRANCH  81  82
ATOM     82  S   UNL A   1      47.534  22.979  36.354  1.00  0.00     0.124 S 
ATOM     83  O   UNL A   1      48.574  22.616  35.395  1.00  0.00    -0.237 OA
ATOM     84  O   UNL A   1      48.004  23.363  37.681  1.00  0.00    -0.237 OA
ATOM     85  O   UNL A   1      46.344  22.135  36.333  1.00  0.00    -0.744 OA
ENDBRANCH  81  82
ENDBRANCH  60  74
BRANCH  61  86
ATOM     86  C   UNL A   1      43.403  35.455  30.017  1.00  0.00     0.058 A 
ATOM     87  C   UNL A   1      44.032  36.666  30.339  1.00  0.00     0.135 A 
ATOM     88  C   UNL A   1      42.425  35.472  29.010  1.00  0.00     0.135 A 
ATOM     89  F   UNL A   1      44.972  36.701  31.297  1.00  0.00    -0.206 F 
ATOM     90  C   UNL A   1      43.697  37.853  29.696  1.00  0.00     0.059 A 
ATOM     91  C   UNL A   1      42.093  36.639  28.334  1.00  0.00     0.059 A 
ATOM     92  F   UNL A   1      41.805  34.335  28.656  1.00  0.00    -0.206 F 
ATOM     93  C   UNL A   1      42.730  37.827  28.690  1.00  0.00     0.060 A 
BRANCH  93  94
ATOM     94  S   UNL A   1      42.342  39.366  27.829  1.00  0.00     0.124 S 
ATOM     95  O   UNL A   1      41.589  40.090  28.846  1.00  0.00    -0.237 OA
ATOM     96  O   UNL A   1      43.671  39.887  27.526  1.00  0.00    -0.237 OA
ATOM     97  O   UNL A   1      41.572  38.921  26.672  1.00  0.00    -0.744 OA
ENDBRANCH  93  94
ENDBRANCH  61  86
BRANCH  73  98
ATOM     98  C   UNL A   1      41.044  32.089  35.662  1.00  0.00     0.058 A 
ATOM     99  C   UNL A   1      39.743  31.589  35.484  1.00  0.00     0.135 A 
ATOM    100  C   UNL A   1      41.296  32.856  36.812  1.00  0.00     0.135 A 
ATOM    101  F   UNL A   1      39.442  30.856  34.401  1.00  0.00    -0.206 F 
ATOM    102  C   UNL A   1      38.726  31.865  36.395  1.00  0.00     0.059 A 
ATOM    103  C   UNL A   1      40.302  33.116  37.751  1.00  0.00     0.059 A 
ATOM    104  F   UNL A   1      42.523  33.352  37.039  1.00  0.00    -0.206 F 
ATOM    105  C   UNL A   1      39.016  32.628  37.526  1.00  0.00     0.060 A 
BRANCH 105 106
ATOM    106  S   UNL A   1      37.689  32.962  38.704  1.00  0.00     0.124 S 
ATOM    107  O   UNL A   1      38.199  34.140  39.397  1.00  0.00    -0.237 OA
ATOM    108  O   UNL A   1      36.545  33.187  37.826  1.00  0.00    -0.237 OA
ATOM    109  O   UNL A   1      37.627  31.743  39.504  1.00  0.00    -0.744 OA
ENDBRANCH 105 106
ENDBRANCH  73  98
ENDBRANCH  47  48
ENDBRANCH  40  42
ENDBRANCH  39  40
ENDBRANCH  38  39
ENDBRANCH  37  38
ENDBRANCH  36  37
ENDBRANCH   1  36
TORSDOF 22
ENDMDL
