MODEL 1
REMARK VINA RESULT:     -10.2      0.000      0.000
REMARK SMILES O=C(CCC(=O)OCCOCCOCCOC(=O)c1ccc(-c2c3nc(c(-c4c(F)cc(S(=O)(=O)[O-])cc4F)c4ccc([nH]4)c(-c4c(F)cc(S(=O)(=O)[O-])cc4F)c4nc(c(-c5c(F)cc(S(=O)(=O)[O-])cc5F)c5ccc2[nH]5)C=C4)C=C3)cc1)Nc1ccc(C(=O)N2CCOCC2)cc1
REMARK SMILES IDX 11 1 10 2 9 3 8 4 7 5 5 6 6 7 4 8 3 9 2 10 1 11 85 12 86 14
REMARK SMILES IDX 87 15 99 16 88 17 98 18 89 19 90 20 91 21 92 22 93 23 97 24
REMARK SMILES IDX 94 25 96 26 95 27 12 28 13 29 14 30 15 31 16 32 17 33 18 34
REMARK SMILES IDX 19 35 20 36 84 37 21 38 83 39 22 40 23 41 24 42 77 43 25 44
REMARK SMILES IDX 82 45 76 46 78 47 26 48 81 49 75 50 74 51 27 53 61 54 40 55
REMARK SMILES IDX 60 56 41 57 44 58 59 59 79 60 42 61 43 62 58 64 80 65 45 66
REMARK SMILES IDX 28 67 29 68 38 69 30 70 31 71 37 72 39 73 32 74 33 75 34 76
REMARK SMILES IDX 35 77 36 78 62 79 63 80 72 81 64 82 65 83 71 84 73 85 66 86
REMARK SMILES IDX 67 87 68 88 69 89 70 90 46 91 47 92 56 93 48 94 49 95 55 96
REMARK SMILES IDX 57 97 50 98 51 99 52 100 53 101 54 102
REMARK H PARENT 85 13 78 52 44 63
REMARK Flexibility Score: inf
ROOT
ATOM      1  C   UNL A   1      31.654  29.276  24.931  1.00  0.00     0.188 C 
ENDROOT
BRANCH   1   2
ATOM      2  O   UNL A   1      30.709  28.590  24.116  1.00  0.00    -0.376 OA
BRANCH   2   3
ATOM      3  C   UNL A   1      31.083  28.361  22.758  1.00  0.00     0.202 C 
BRANCH   3   4
ATOM      4  C   UNL A   1      31.197  26.885  22.347  1.00  0.00     0.261 C 
BRANCH   4   5
ATOM      5  O   UNL A   1      32.096  26.126  23.197  1.00  0.00    -0.463 OA
BRANCH   5   6
ATOM      6  C   UNL A   1      33.292  25.784  22.642  1.00  0.00     0.306 C 
ATOM      7  O   UNL A   1      33.706  26.240  21.584  1.00  0.00    -0.252 OA
BRANCH   6   8
ATOM      8  C   UNL A   1      34.141  24.848  23.489  1.00  0.00     0.132 C 
BRANCH   8   9
ATOM      9  C   UNL A   1      34.442  23.413  23.074  1.00  0.00     0.112 C 
BRANCH   9  10
ATOM     10  C   UNL A   1      35.841  22.910  23.349  1.00  0.00     0.224 C 
ATOM     11  O   UNL A   1      36.737  23.050  22.523  1.00  0.00    -0.275 OA
ATOM     12  N   UNL A   1      35.969  22.311  24.583  1.00  0.00    -0.326 N 
ATOM     13  H   UNL A   1      35.163  22.269  25.146  1.00  0.00     0.169 HD
BRANCH  12  14
ATOM     14  C   UNL A   1      37.139  21.757  25.107  1.00  0.00     0.041 A 
ATOM     15  C   UNL A   1      37.374  20.397  24.890  1.00  0.00     0.027 A 
ATOM     16  C   UNL A   1      38.070  22.520  25.798  1.00  0.00     0.027 A 
ATOM     17  C   UNL A   1      38.583  19.820  25.284  1.00  0.00     0.016 A 
ATOM     18  C   UNL A   1      39.265  21.942  26.209  1.00  0.00     0.016 A 
ATOM     19  C   UNL A   1      39.543  20.595  25.942  1.00  0.00     0.040 A 
BRANCH  19  20
ATOM     20  C   UNL A   1      40.914  20.039  26.130  1.00  0.00     0.254 C 
ATOM     21  O   UNL A   1      41.172  18.919  25.695  1.00  0.00    -0.269 OA
ATOM     22  N   UNL A   1      41.891  20.895  26.593  1.00  0.00    -0.334 N 
ATOM     23  C   UNL A   1      41.844  21.632  27.857  1.00  0.00     0.148 C 
ATOM     24  C   UNL A   1      43.150  20.987  25.872  1.00  0.00     0.148 C 
ATOM     25  C   UNL A   1      42.360  23.071  27.686  1.00  0.00     0.181 C 
ATOM     26  C   UNL A   1      43.482  22.469  25.681  1.00  0.00     0.181 C 
ATOM     27  O   UNL A   1      43.601  23.121  26.960  1.00  0.00    -0.378 OA
ENDBRANCH  19  20
ENDBRANCH  12  14
ENDBRANCH   9  10
ENDBRANCH   8   9
ENDBRANCH   6   8
ENDBRANCH   5   6
ENDBRANCH   4   5
ENDBRANCH   3   4
ENDBRANCH   2   3
ENDBRANCH   1   2
BRANCH   1  28
ATOM     28  C   UNL A   1      31.768  28.752  26.363  1.00  0.00     0.188 C 
BRANCH  28  29
ATOM     29  O   UNL A   1      32.575  29.517  27.249  1.00  0.00    -0.376 OA
BRANCH  29  30
ATOM     30  C   UNL A   1      32.635  30.925  26.976  1.00  0.00     0.202 C 
BRANCH  30  31
ATOM     31  C   UNL A   1      33.741  31.745  27.692  1.00  0.00     0.261 C 
BRANCH  31  32
ATOM     32  O   UNL A   1      33.681  33.183  27.547  1.00  0.00    -0.460 OA
BRANCH  32  33
ATOM     33  C   UNL A   1      33.523  33.916  28.679  1.00  0.00     0.338 C 
ATOM     34  O   UNL A   1      32.543  34.566  28.972  1.00  0.00    -0.246 OA
BRANCH  33  35
ATOM     35  C   UNL A   1      34.609  33.558  29.644  1.00  0.00     0.060 A 
ATOM     36  C   UNL A   1      35.882  34.099  29.411  1.00  0.00     0.016 A 
ATOM     37  C   UNL A   1      34.393  32.786  30.789  1.00  0.00     0.016 A 
ATOM     38  C   UNL A   1      36.945  33.824  30.278  1.00  0.00     0.010 A 
ATOM     39  C   UNL A   1      35.465  32.499  31.653  1.00  0.00     0.010 A 
ATOM     40  C   UNL A   1      36.758  32.982  31.380  1.00  0.00    -0.014 A 
BRANCH  40  41
ATOM     41  C   UNL A   1      37.950  32.458  32.107  1.00  0.00     0.031 A 
ATOM     42  C   UNL A   1      38.921  31.579  31.355  1.00  0.00     0.074 A 
ATOM     43  C   UNL A   1      38.222  32.802  33.380  1.00  0.00     0.049 A 
ATOM     44  N   UNL A   1      40.056  31.061  31.748  1.00  0.00    -0.248 NA
ATOM     45  C   UNL A   1      38.557  31.241  29.970  1.00  0.00     0.031 C 
ATOM     46  C   UNL A   1      37.398  33.670  34.219  1.00  0.00     0.029 A 
ATOM     47  N   UNL A   1      39.283  32.465  34.189  1.00  0.00    -0.354 N 
ATOM     48  C   UNL A   1      40.539  30.333  30.665  1.00  0.00     0.074 A 
ATOM     49  C   UNL A   1      39.553  30.446  29.611  1.00  0.00     0.031 C 
ATOM     50  C   UNL A   1      37.989  33.808  35.419  1.00  0.00     0.029 A 
ATOM     51  C   UNL A   1      39.221  33.019  35.447  1.00  0.00     0.049 A 
ATOM     52  H   UNL A   1      40.019  31.882  33.895  1.00  0.00     0.167 HD
ATOM     53  C   UNL A   1      41.697  29.639  30.549  1.00  0.00     0.037 A 
ATOM     54  C   UNL A   1      40.059  32.902  36.499  1.00  0.00     0.037 A 
ATOM     55  C   UNL A   1      42.680  29.519  31.595  1.00  0.00     0.049 A 
ATOM     56  C   UNL A   1      41.313  32.071  36.368  1.00  0.00     0.074 A 
ATOM     57  C   UNL A   1      43.900  28.866  31.559  1.00  0.00     0.029 A 
ATOM     58  N   UNL A   1      42.552  30.049  32.872  1.00  0.00    -0.354 N 
ATOM     59  N   UNL A   1      41.774  31.424  35.324  1.00  0.00    -0.248 NA
ATOM     60  C   UNL A   1      42.166  31.967  37.562  1.00  0.00     0.031 C 
ATOM     61  C   UNL A   1      44.477  28.941  32.831  1.00  0.00     0.029 A 
ATOM     62  C   UNL A   1      43.653  29.704  33.641  1.00  0.00     0.049 A 
ATOM     63  H   UNL A   1      41.792  30.590  33.185  1.00  0.00     0.167 HD
ATOM     64  C   UNL A   1      42.987  30.865  35.725  1.00  0.00     0.074 A 
ATOM     65  C   UNL A   1      43.192  31.265  37.102  1.00  0.00     0.031 C 
ATOM     66  C   UNL A   1      43.852  30.096  35.016  1.00  0.00     0.037 A 
BRANCH  53  67
ATOM     67  C   UNL A   1      41.942  28.912  29.252  1.00  0.00     0.058 A 
ATOM     68  C   UNL A   1      41.573  27.569  29.064  1.00  0.00     0.135 A 
ATOM     69  C   UNL A   1      42.547  29.577  28.173  1.00  0.00     0.135 A 
ATOM     70  F   UNL A   1      41.006  26.877  30.065  1.00  0.00    -0.206 F 
ATOM     71  C   UNL A   1      41.834  26.902  27.871  1.00  0.00     0.059 A 
ATOM     72  C   UNL A   1      42.787  28.941  26.959  1.00  0.00     0.059 A 
ATOM     73  F   UNL A   1      42.920  30.862  28.294  1.00  0.00    -0.206 F 
ATOM     74  C   UNL A   1      42.444  27.597  26.825  1.00  0.00     0.060 A 
BRANCH  74  75
ATOM     75  S   UNL A   1      42.795  26.713  25.290  1.00  0.00     0.124 S 
ATOM     76  O   UNL A   1      44.060  26.061  25.613  1.00  0.00    -0.237 OA
ATOM     77  O   UNL A   1      41.640  25.829  25.170  1.00  0.00    -0.237 OA
ATOM     78  O   UNL A   1      42.873  27.777  24.295  1.00  0.00    -0.744 OA
ENDBRANCH  74  75
ENDBRANCH  53  67
BRANCH  54  79
ATOM     79  C   UNL A   1      39.757  33.605  37.780  1.00  0.00     0.058 A 
ATOM     80  C   UNL A   1      38.800  33.100  38.675  1.00  0.00     0.135 A 
ATOM     81  C   UNL A   1      40.406  34.799  38.127  1.00  0.00     0.135 A 
ATOM     82  F   UNL A   1      38.135  31.972  38.380  1.00  0.00    -0.206 F 
ATOM     83  C   UNL A   1      38.492  33.756  39.862  1.00  0.00     0.059 A 
ATOM     84  C   UNL A   1      40.135  35.459  39.322  1.00  0.00     0.059 A 
ATOM     85  F   UNL A   1      41.329  35.326  37.307  1.00  0.00    -0.206 F 
ATOM     86  C   UNL A   1      39.171  34.934  40.180  1.00  0.00     0.060 A 
BRANCH  86  87
ATOM     87  S   UNL A   1      38.812  35.740  41.757  1.00  0.00     0.124 S 
ATOM     88  O   UNL A   1      38.950  37.149  41.406  1.00  0.00    -0.237 OA
ATOM     89  O   UNL A   1      37.454  35.280  42.030  1.00  0.00    -0.237 OA
ATOM     90  O   UNL A   1      39.838  35.208  42.647  1.00  0.00    -0.744 OA
ENDBRANCH  86  87
ENDBRANCH  54  79
BRANCH  66  91
ATOM     91  C   UNL A   1      45.126  29.669  35.704  1.00  0.00     0.058 A 
ATOM     92  C   UNL A   1      46.298  30.440  35.649  1.00  0.00     0.135 A 
ATOM     93  C   UNL A   1      45.171  28.471  36.436  1.00  0.00     0.135 A 
ATOM     94  F   UNL A   1      46.316  31.596  34.967  1.00  0.00    -0.206 F 
ATOM     95  C   UNL A   1      47.482  30.011  36.244  1.00  0.00     0.059 A 
ATOM     96  C   UNL A   1      46.333  28.039  37.069  1.00  0.00     0.059 A 
ATOM     97  F   UNL A   1      44.077  27.700  36.542  1.00  0.00    -0.206 F 
ATOM     98  C   UNL A   1      47.492  28.804  36.946  1.00  0.00     0.060 A 
BRANCH  98  99
ATOM     99  S   UNL A   1      49.037  28.245  37.694  1.00  0.00     0.124 S 
ATOM    100  O   UNL A   1      48.567  27.185  38.580  1.00  0.00    -0.237 OA
ATOM    101  O   UNL A   1      49.805  27.807  36.533  1.00  0.00    -0.237 OA
ATOM    102  O   UNL A   1      49.546  29.440  38.359  1.00  0.00    -0.744 OA
ENDBRANCH  98  99
ENDBRANCH  66  91
ENDBRANCH  40  41
ENDBRANCH  33  35
ENDBRANCH  32  33
ENDBRANCH  31  32
ENDBRANCH  30  31
ENDBRANCH  29  30
ENDBRANCH  28  29
ENDBRANCH   1  28
TORSDOF 24
ENDMDL
MODEL 2
REMARK VINA RESULT:      -9.9      4.455     10.665
REMARK SMILES O=C(CCC(=O)OCCOCCOCCOC(=O)c1ccc(-c2c3nc(c(-c4c(F)cc(S(=O)(=O)[O-])cc4F)c4ccc([nH]4)c(-c4c(F)cc(S(=O)(=O)[O-])cc4F)c4nc(c(-c5c(F)cc(S(=O)(=O)[O-])cc5F)c5ccc2[nH]5)C=C4)C=C3)cc1)Nc1ccc(C(=O)N2CCOCC2)cc1
REMARK SMILES IDX 11 1 10 2 9 3 8 4 7 5 5 6 6 7 4 8 3 9 2 10 1 11 85 12 86 14
REMARK SMILES IDX 87 15 99 16 88 17 98 18 89 19 90 20 91 21 92 22 93 23 97 24
REMARK SMILES IDX 94 25 96 26 95 27 12 28 13 29 14 30 15 31 16 32 17 33 18 34
REMARK SMILES IDX 19 35 20 36 84 37 21 38 83 39 22 40 23 41 24 42 77 43 25 44
REMARK SMILES IDX 82 45 76 46 78 47 26 48 81 49 75 50 74 51 27 53 61 54 40 55
REMARK SMILES IDX 60 56 41 57 44 58 59 59 79 60 42 61 43 62 58 64 80 65 45 66
REMARK SMILES IDX 28 67 29 68 38 69 30 70 31 71 37 72 39 73 32 74 33 75 34 76
REMARK SMILES IDX 35 77 36 78 62 79 63 80 72 81 64 82 65 83 71 84 73 85 66 86
REMARK SMILES IDX 67 87 68 88 69 89 70 90 46 91 47 92 56 93 48 94 49 95 55 96
REMARK SMILES IDX 57 97 50 98 51 99 52 100 53 101 54 102
REMARK H PARENT 85 13 78 52 44 63
REMARK Flexibility Score: inf
ROOT
ATOM      1  C   UNL A   1      37.699  33.439  29.669  1.00  0.00     0.188 C 
ENDROOT
BRANCH   1   2
ATOM      2  O   UNL A   1      38.306  34.564  30.297  1.00  0.00    -0.376 OA
BRANCH   2   3
ATOM      3  C   UNL A   1      38.716  34.395  31.653  1.00  0.00     0.202 C 
BRANCH   3   4
ATOM      4  C   UNL A   1      37.899  33.378  32.466  1.00  0.00     0.261 C 
BRANCH   4   5
ATOM      5  O   UNL A   1      38.727  32.407  33.158  1.00  0.00    -0.463 OA
BRANCH   5   6
ATOM      6  C   UNL A   1      38.090  31.288  33.599  1.00  0.00     0.306 C 
ATOM      7  O   UNL A   1      37.131  30.782  33.029  1.00  0.00    -0.252 OA
BRANCH   6   8
ATOM      8  C   UNL A   1      38.719  30.638  34.822  1.00  0.00     0.132 C 
BRANCH   8   9
ATOM      9  C   UNL A   1      40.206  30.312  34.903  1.00  0.00     0.112 C 
BRANCH   9  10
ATOM     10  C   UNL A   1      40.618  28.928  34.454  1.00  0.00     0.224 C 
ATOM     11  O   UNL A   1      40.215  28.462  33.393  1.00  0.00    -0.275 OA
ATOM     12  N   UNL A   1      41.462  28.299  35.342  1.00  0.00    -0.326 N 
ATOM     13  H   UNL A   1      41.706  28.795  36.156  1.00  0.00     0.169 HD
BRANCH  12  14
ATOM     14  C   UNL A   1      42.004  27.021  35.192  1.00  0.00     0.041 A 
ATOM     15  C   UNL A   1      43.271  26.911  34.612  1.00  0.00     0.027 A 
ATOM     16  C   UNL A   1      41.340  25.883  35.627  1.00  0.00     0.027 A 
ATOM     17  C   UNL A   1      43.911  25.671  34.550  1.00  0.00     0.016 A 
ATOM     18  C   UNL A   1      41.968  24.645  35.546  1.00  0.00     0.016 A 
ATOM     19  C   UNL A   1      43.263  24.528  35.026  1.00  0.00     0.040 A 
BRANCH  19  20
ATOM     20  C   UNL A   1      44.046  23.269  35.184  1.00  0.00     0.254 C 
ATOM     21  O   UNL A   1      43.774  22.301  34.478  1.00  0.00    -0.269 OA
ATOM     22  N   UNL A   1      45.182  23.318  35.966  1.00  0.00    -0.334 N 
ATOM     23  C   UNL A   1      45.225  23.710  37.376  1.00  0.00     0.148 C 
ATOM     24  C   UNL A   1      46.432  22.805  35.429  1.00  0.00     0.148 C 
ATOM     25  C   UNL A   1      46.442  24.602  37.672  1.00  0.00     0.181 C 
ATOM     26  C   UNL A   1      47.526  23.841  35.700  1.00  0.00     0.181 C 
ATOM     27  O   UNL A   1      47.657  24.068  37.117  1.00  0.00    -0.378 OA
ENDBRANCH  19  20
ENDBRANCH  12  14
ENDBRANCH   9  10
ENDBRANCH   8   9
ENDBRANCH   6   8
ENDBRANCH   5   6
ENDBRANCH   4   5
ENDBRANCH   3   4
ENDBRANCH   2   3
ENDBRANCH   1   2
BRANCH   1  28
ATOM     28  C   UNL A   1      36.406  33.746  28.913  1.00  0.00     0.188 C 
BRANCH  28  29
ATOM     29  O   UNL A   1      35.213  33.748  29.686  1.00  0.00    -0.376 OA
BRANCH  29  30
ATOM     30  C   UNL A   1      34.003  33.474  28.964  1.00  0.00     0.202 C 
BRANCH  30  31
ATOM     31  C   UNL A   1      34.033  32.315  27.932  1.00  0.00     0.261 C 
BRANCH  31  32
ATOM     32  O   UNL A   1      33.942  30.972  28.461  1.00  0.00    -0.460 OA
BRANCH  32  33
ATOM     33  C   UNL A   1      34.511  29.977  27.734  1.00  0.00     0.338 C 
ATOM     34  O   UNL A   1      34.051  29.480  26.730  1.00  0.00    -0.246 OA
BRANCH  33  35
ATOM     35  C   UNL A   1      35.928  29.798  28.182  1.00  0.00     0.060 A 
ATOM     36  C   UNL A   1      36.936  29.990  27.226  1.00  0.00     0.016 A 
ATOM     37  C   UNL A   1      36.283  29.528  29.507  1.00  0.00     0.016 A 
ATOM     38  C   UNL A   1      38.285  29.857  27.573  1.00  0.00     0.010 A 
ATOM     39  C   UNL A   1      37.638  29.382  29.853  1.00  0.00     0.010 A 
ATOM     40  C   UNL A   1      38.646  29.503  28.879  1.00  0.00    -0.014 A 
BRANCH  40  41
ATOM     41  C   UNL A   1      40.047  29.069  29.153  1.00  0.00     0.031 A 
ATOM     42  C   UNL A   1      40.949  30.000  29.927  1.00  0.00     0.074 A 
ATOM     43  C   UNL A   1      40.503  27.854  28.797  1.00  0.00     0.049 A 
ATOM     44  N   UNL A   1      42.176  29.820  30.344  1.00  0.00    -0.248 NA
ATOM     45  C   UNL A   1      40.385  31.313  30.279  1.00  0.00     0.031 C 
ATOM     46  C   UNL A   1      39.737  26.837  28.079  1.00  0.00     0.029 A 
ATOM     47  N   UNL A   1      41.729  27.264  29.003  1.00  0.00    -0.354 N 
ATOM     48  C   UNL A   1      42.533  30.995  30.998  1.00  0.00     0.074 A 
ATOM     49  C   UNL A   1      41.405  31.894  30.891  1.00  0.00     0.031 C 
ATOM     50  C   UNL A   1      40.505  25.745  27.916  1.00  0.00     0.029 A 
ATOM     51  C   UNL A   1      41.827  25.990  28.494  1.00  0.00     0.049 A 
ATOM     52  H   UNL A   1      42.468  27.712  29.473  1.00  0.00     0.167 HD
ATOM     53  C   UNL A   1      43.689  31.299  31.638  1.00  0.00     0.037 A 
ATOM     54  C   UNL A   1      42.862  25.123  28.491  1.00  0.00     0.037 A 
ATOM     55  C   UNL A   1      44.817  30.410  31.745  1.00  0.00     0.049 A 
ATOM     56  C   UNL A   1      44.162  25.508  29.155  1.00  0.00     0.074 A 
ATOM     57  C   UNL A   1      46.017  30.618  32.403  1.00  0.00     0.029 A 
ATOM     58  N   UNL A   1      44.895  29.151  31.167  1.00  0.00    -0.354 N 
ATOM     59  N   UNL A   1      44.468  26.606  29.806  1.00  0.00    -0.248 NA
ATOM     60  C   UNL A   1      45.255  24.526  29.091  1.00  0.00     0.031 C 
ATOM     61  C   UNL A   1      46.845  29.516  32.165  1.00  0.00     0.029 A 
ATOM     62  C   UNL A   1      46.136  28.588  31.422  1.00  0.00     0.049 A 
ATOM     63  H   UNL A   1      44.175  28.721  30.651  1.00  0.00     0.167 HD
ATOM     64  C   UNL A   1      45.775  26.431  30.258  1.00  0.00     0.074 A 
ATOM     65  C   UNL A   1      46.193  25.116  29.818  1.00  0.00     0.031 C 
ATOM     66  C   UNL A   1      46.555  27.281  30.975  1.00  0.00     0.037 A 
BRANCH  53  67
ATOM     67  C   UNL A   1      43.806  32.678  32.235  1.00  0.00     0.058 A 
ATOM     68  C   UNL A   1      44.241  33.784  31.486  1.00  0.00     0.135 A 
ATOM     69  C   UNL A   1      43.465  32.896  33.580  1.00  0.00     0.135 A 
ATOM     70  F   UNL A   1      44.597  33.633  30.200  1.00  0.00    -0.206 F 
ATOM     71  C   UNL A   1      44.375  35.046  32.060  1.00  0.00     0.059 A 
ATOM     72  C   UNL A   1      43.558  34.155  34.166  1.00  0.00     0.059 A 
ATOM     73  F   UNL A   1      43.042  31.877  34.345  1.00  0.00    -0.206 F 
ATOM     74  C   UNL A   1      44.033  35.219  33.402  1.00  0.00     0.060 A 
BRANCH  74  75
ATOM     75  S   UNL A   1      44.231  36.856  34.138  1.00  0.00     0.124 S 
ATOM     76  O   UNL A   1      45.186  37.472  33.223  1.00  0.00    -0.237 OA
ATOM     77  O   UNL A   1      42.872  37.386  34.087  1.00  0.00    -0.237 OA
ATOM     78  O   UNL A   1      44.739  36.569  35.476  1.00  0.00    -0.744 OA
ENDBRANCH  74  75
ENDBRANCH  53  67
BRANCH  54  79
ATOM     79  C   UNL A   1      42.716  23.783  27.851  1.00  0.00     0.058 A 
ATOM     80  C   UNL A   1      42.493  22.632  28.624  1.00  0.00     0.135 A 
ATOM     81  C   UNL A   1      42.811  23.625  26.460  1.00  0.00     0.135 A 
ATOM     82  F   UNL A   1      42.416  22.726  29.960  1.00  0.00    -0.206 F 
ATOM     83  C   UNL A   1      42.377  21.374  28.042  1.00  0.00     0.059 A 
ATOM     84  C   UNL A   1      42.669  22.381  25.853  1.00  0.00     0.059 A 
ATOM     85  F   UNL A   1      43.024  24.693  25.675  1.00  0.00    -0.206 F 
ATOM     86  C   UNL A   1      42.459  21.260  26.653  1.00  0.00     0.060 A 
BRANCH  86  87
ATOM     87  S   UNL A   1      42.238  19.629  25.906  1.00  0.00     0.124 S 
ATOM     88  O   UNL A   1      42.530  18.748  27.030  1.00  0.00    -0.237 OA
ATOM     89  O   UNL A   1      40.844  19.679  25.477  1.00  0.00    -0.237 OA
ATOM     90  O   UNL A   1      43.219  19.620  24.825  1.00  0.00    -0.744 OA
ENDBRANCH  86  87
ENDBRANCH  54  79
BRANCH  66  91
ATOM     91  C   UNL A   1      47.929  26.797  31.369  1.00  0.00     0.058 A 
ATOM     92  C   UNL A   1      49.054  27.000  30.552  1.00  0.00     0.135 A 
ATOM     93  C   UNL A   1      48.124  26.124  32.586  1.00  0.00     0.135 A 
ATOM     94  F   UNL A   1      48.931  27.638  29.378  1.00  0.00    -0.206 F 
ATOM     95  C   UNL A   1      50.308  26.503  30.901  1.00  0.00     0.059 A 
ATOM     96  C   UNL A   1      49.375  25.651  32.973  1.00  0.00     0.059 A 
ATOM     97  F   UNL A   1      47.092  25.918  33.420  1.00  0.00    -0.206 F 
ATOM     98  C   UNL A   1      50.457  25.823  32.111  1.00  0.00     0.060 A 
BRANCH  98  99
ATOM     99  S   UNL A   1      52.081  25.162  32.543  1.00  0.00     0.124 S 
ATOM    100  O   UNL A   1      52.186  25.541  33.949  1.00  0.00    -0.237 OA
ATOM    101  O   UNL A   1      51.918  23.736  32.282  1.00  0.00    -0.237 OA
ATOM    102  O   UNL A   1      52.985  25.860  31.635  1.00  0.00    -0.744 OA
ENDBRANCH  98  99
ENDBRANCH  66  91
ENDBRANCH  40  41
ENDBRANCH  33  35
ENDBRANCH  32  33
ENDBRANCH  31  32
ENDBRANCH  30  31
ENDBRANCH  29  30
ENDBRANCH  28  29
ENDBRANCH   1  28
TORSDOF 24
ENDMDL
MODEL 3
REMARK VINA RESULT:      -9.6      4.474     10.840
REMARK SMILES O=C(CCC(=O)OCCOCCOCCOC(=O)c1ccc(-c2c3nc(c(-c4c(F)cc(S(=O)(=O)[O-])cc4F)c4ccc([nH]4)c(-c4c(F)cc(S(=O)(=O)[O-])cc4F)c4nc(c(-c5c(F)cc(S(=O)(=O)[O-])cc5F)c5ccc2[nH]5)C=C4)C=C3)cc1)Nc1ccc(C(=O)N2CCOCC2)cc1
REMARK SMILES IDX 11 1 10 2 9 3 8 4 7 5 5 6 6 7 4 8 3 9 2 10 1 11 85 12 86 14
REMARK SMILES IDX 87 15 99 16 88 17 98 18 89 19 90 20 91 21 92 22 93 23 97 24
REMARK SMILES IDX 94 25 96 26 95 27 12 28 13 29 14 30 15 31 16 32 17 33 18 34
REMARK SMILES IDX 19 35 20 36 84 37 21 38 83 39 22 40 23 41 24 42 77 43 25 44
REMARK SMILES IDX 82 45 76 46 78 47 26 48 81 49 75 50 74 51 27 53 61 54 40 55
REMARK SMILES IDX 60 56 41 57 44 58 59 59 79 60 42 61 43 62 58 64 80 65 45 66
REMARK SMILES IDX 28 67 29 68 38 69 30 70 31 71 37 72 39 73 32 74 33 75 34 76
REMARK SMILES IDX 35 77 36 78 62 79 63 80 72 81 64 82 65 83 71 84 73 85 66 86
REMARK SMILES IDX 67 87 68 88 69 89 70 90 46 91 47 92 56 93 48 94 49 95 55 96
REMARK SMILES IDX 57 97 50 98 51 99 52 100 53 101 54 102
REMARK H PARENT 85 13 78 52 44 63
REMARK Flexibility Score: inf
ROOT
ATOM      1  C   UNL A   1      44.424  20.185  25.228  1.00  0.00     0.188 C 
ENDROOT
BRANCH   1   2
ATOM      2  O   UNL A   1      43.355  21.097  24.999  1.00  0.00    -0.376 OA
BRANCH   2   3
ATOM      3  C   UNL A   1      42.479  21.345  26.098  1.00  0.00     0.202 C 
BRANCH   3   4
ATOM      4  C   UNL A   1      42.847  22.553  26.973  1.00  0.00     0.261 C 
BRANCH   4   5
ATOM      5  O   UNL A   1      41.745  23.479  27.156  1.00  0.00    -0.463 OA
BRANCH   5   6
ATOM      6  C   UNL A   1      42.069  24.801  27.141  1.00  0.00     0.306 C 
ATOM      7  O   UNL A   1      42.665  25.345  26.220  1.00  0.00    -0.252 OA
BRANCH   6   8
ATOM      8  C   UNL A   1      41.547  25.597  28.328  1.00  0.00     0.132 C 
BRANCH   8   9
ATOM      9  C   UNL A   1      42.043  27.001  28.655  1.00  0.00     0.112 C 
BRANCH   9  10
ATOM     10  C   UNL A   1      41.070  27.911  29.371  1.00  0.00     0.224 C 
ATOM     11  O   UNL A   1      39.881  27.621  29.458  1.00  0.00    -0.275 OA
ATOM     12  N   UNL A   1      41.664  29.042  29.887  1.00  0.00    -0.326 N 
ATOM     13  H   UNL A   1      42.632  29.144  29.743  1.00  0.00     0.169 HD
BRANCH  12  14
ATOM     14  C   UNL A   1      41.017  30.055  30.597  1.00  0.00     0.041 A 
ATOM     15  C   UNL A   1      40.544  31.158  29.879  1.00  0.00     0.027 A 
ATOM     16  C   UNL A   1      40.808  29.978  31.967  1.00  0.00     0.027 A 
ATOM     17  C   UNL A   1      39.783  32.139  30.518  1.00  0.00     0.016 A 
ATOM     18  C   UNL A   1      40.068  30.966  32.607  1.00  0.00     0.016 A 
ATOM     19  C   UNL A   1      39.534  32.044  31.890  1.00  0.00     0.040 A 
BRANCH  19  20
ATOM     20  C   UNL A   1      38.522  32.951  32.503  1.00  0.00     0.254 C 
ATOM     21  O   UNL A   1      38.901  33.901  33.184  1.00  0.00    -0.269 OA
ATOM     22  N   UNL A   1      37.210  32.809  32.100  1.00  0.00    -0.334 N 
ATOM     23  C   UNL A   1      36.415  31.584  32.215  1.00  0.00     0.148 C 
ATOM     24  C   UNL A   1      36.474  33.983  31.659  1.00  0.00     0.148 C 
ATOM     25  C   UNL A   1      35.564  31.349  30.955  1.00  0.00     0.181 C 
ATOM     26  C   UNL A   1      35.768  33.636  30.346  1.00  0.00     0.181 C 
ATOM     27  O   UNL A   1      34.861  32.534  30.545  1.00  0.00    -0.378 OA
ENDBRANCH  19  20
ENDBRANCH  12  14
ENDBRANCH   9  10
ENDBRANCH   8   9
ENDBRANCH   6   8
ENDBRANCH   5   6
ENDBRANCH   4   5
ENDBRANCH   3   4
ENDBRANCH   2   3
ENDBRANCH   1   2
BRANCH   1  28
ATOM     28  C   UNL A   1      45.811  20.717  24.865  1.00  0.00     0.188 C 
BRANCH  28  29
ATOM     29  O   UNL A   1      46.208  21.923  25.506  1.00  0.00    -0.376 OA
BRANCH  29  30
ATOM     30  C   UNL A   1      46.036  23.122  24.736  1.00  0.00     0.202 C 
BRANCH  30  31
ATOM     31  C   UNL A   1      46.937  24.334  25.091  1.00  0.00     0.261 C 
BRANCH  31  32
ATOM     32  O   UNL A   1      46.805  25.508  24.256  1.00  0.00    -0.460 OA
BRANCH  32  33
ATOM     33  C   UNL A   1      47.586  26.578  24.559  1.00  0.00     0.338 C 
ATOM     34  O   UNL A   1      48.577  26.925  23.956  1.00  0.00    -0.246 OA
BRANCH  33  35
ATOM     35  C   UNL A   1      46.869  27.434  25.556  1.00  0.00     0.060 A 
ATOM     36  C   UNL A   1      47.654  28.244  26.390  1.00  0.00     0.016 A 
ATOM     37  C   UNL A   1      45.476  27.515  25.635  1.00  0.00     0.016 A 
ATOM     38  C   UNL A   1      47.056  29.085  27.336  1.00  0.00     0.010 A 
ATOM     39  C   UNL A   1      44.877  28.350  26.595  1.00  0.00     0.010 A 
ATOM     40  C   UNL A   1      45.664  29.109  27.480  1.00  0.00    -0.014 A 
BRANCH  40  41
ATOM     41  C   UNL A   1      45.068  29.765  28.680  1.00  0.00     0.031 A 
ATOM     42  C   UNL A   1      45.027  28.991  29.976  1.00  0.00     0.074 A 
ATOM     43  C   UNL A   1      44.635  31.040  28.659  1.00  0.00     0.049 A 
ATOM     44  N   UNL A   1      44.623  29.368  31.162  1.00  0.00    -0.248 NA
ATOM     45  C   UNL A   1      45.512  27.603  29.923  1.00  0.00     0.031 C 
ATOM     46  C   UNL A   1      44.645  31.920  27.492  1.00  0.00     0.029 A 
ATOM     47  N   UNL A   1      44.109  31.821  29.662  1.00  0.00    -0.354 N 
ATOM     48  C   UNL A   1      44.796  28.266  31.992  1.00  0.00     0.074 A 
ATOM     49  C   UNL A   1      45.309  27.194  31.166  1.00  0.00     0.031 C 
ATOM     50  C   UNL A   1      44.161  33.123  27.848  1.00  0.00     0.029 A 
ATOM     51  C   UNL A   1      43.781  33.096  29.261  1.00  0.00     0.049 A 
ATOM     52  H   UNL A   1      43.980  31.498  30.582  1.00  0.00     0.167 HD
ATOM     53  C   UNL A   1      44.561  28.152  33.322  1.00  0.00     0.037 A 
ATOM     54  C   UNL A   1      43.236  34.120  29.952  1.00  0.00     0.037 A 
ATOM     55  C   UNL A   1      44.047  29.213  34.150  1.00  0.00     0.049 A 
ATOM     56  C   UNL A   1      42.923  33.950  31.419  1.00  0.00     0.074 A 
ATOM     57  C   UNL A   1      43.808  29.201  35.513  1.00  0.00     0.029 A 
ATOM     58  N   UNL A   1      43.676  30.470  33.693  1.00  0.00    -0.354 N 
ATOM     59  N   UNL A   1      43.133  32.915  32.197  1.00  0.00    -0.248 NA
ATOM     60  C   UNL A   1      42.307  35.098  32.101  1.00  0.00     0.031 C 
ATOM     61  C   UNL A   1      43.230  30.425  35.869  1.00  0.00     0.029 A 
ATOM     62  C   UNL A   1      43.176  31.227  34.741  1.00  0.00     0.049 A 
ATOM     63  H   UNL A   1      43.756  30.778  32.762  1.00  0.00     0.167 HD
ATOM     64  C   UNL A   1      42.707  33.300  33.468  1.00  0.00     0.074 A 
ATOM     65  C   UNL A   1      42.243  34.667  33.353  1.00  0.00     0.031 C 
ATOM     66  C   UNL A   1      42.705  32.586  34.624  1.00  0.00     0.037 A 
BRANCH  53  67
ATOM     67  C   UNL A   1      44.815  26.808  33.958  1.00  0.00     0.058 A 
ATOM     68  C   UNL A   1      46.103  26.382  34.318  1.00  0.00     0.135 A 
ATOM     69  C   UNL A   1      43.744  25.937  34.219  1.00  0.00     0.135 A 
ATOM     70  F   UNL A   1      47.168  27.165  34.077  1.00  0.00    -0.206 F 
ATOM     71  C   UNL A   1      46.326  25.126  34.875  1.00  0.00     0.059 A 
ATOM     72  C   UNL A   1      43.938  24.691  34.806  1.00  0.00     0.059 A 
ATOM     73  F   UNL A   1      42.489  26.292  33.897  1.00  0.00    -0.206 F 
ATOM     74  C   UNL A   1      45.236  24.287  35.112  1.00  0.00     0.060 A 
BRANCH  74  75
ATOM     75  S   UNL A   1      45.543  22.652  35.816  1.00  0.00     0.124 S 
ATOM     76  O   UNL A   1      44.523  21.852  35.145  1.00  0.00    -0.237 OA
ATOM     77  O   UNL A   1      46.920  22.393  35.412  1.00  0.00    -0.237 OA
ATOM     78  O   UNL A   1      45.340  22.855  37.247  1.00  0.00    -0.744 OA
ENDBRANCH  74  75
ENDBRANCH  53  67
BRANCH  54  79
ATOM     79  C   UNL A   1      42.962  35.419  29.273  1.00  0.00     0.058 A 
ATOM     80  C   UNL A   1      41.698  35.701  28.731  1.00  0.00     0.135 A 
ATOM     81  C   UNL A   1      43.960  36.398  29.140  1.00  0.00     0.135 A 
ATOM     82  F   UNL A   1      40.716  34.790  28.812  1.00  0.00    -0.206 F 
ATOM     83  C   UNL A   1      41.434  36.900  28.076  1.00  0.00     0.059 A 
ATOM     84  C   UNL A   1      43.712  37.616  28.514  1.00  0.00     0.059 A 
ATOM     85  F   UNL A   1      45.186  36.179  29.640  1.00  0.00    -0.206 F 
ATOM     86  C   UNL A   1      42.448  37.855  27.979  1.00  0.00     0.060 A 
BRANCH  86  87
ATOM     87  S   UNL A   1      42.073  39.435  27.186  1.00  0.00     0.124 S 
ATOM     88  O   UNL A   1      41.495  40.190  28.293  1.00  0.00    -0.237 OA
ATOM     89  O   UNL A   1      43.391  39.869  26.736  1.00  0.00    -0.237 OA
ATOM     90  O   UNL A   1      41.145  39.065  26.123  1.00  0.00    -0.744 OA
ENDBRANCH  86  87
ENDBRANCH  54  79
BRANCH  66  91
ATOM     91  C   UNL A   1      42.224  33.287  35.871  1.00  0.00     0.058 A 
ATOM     92  C   UNL A   1      40.886  33.222  36.295  1.00  0.00     0.135 A 
ATOM     93  C   UNL A   1      43.119  34.030  36.658  1.00  0.00     0.135 A 
ATOM     94  F   UNL A   1      39.986  32.525  35.585  1.00  0.00    -0.206 F 
ATOM     95  C   UNL A   1      40.443  33.915  37.418  1.00  0.00     0.059 A 
ATOM     96  C   UNL A   1      42.706  34.702  37.806  1.00  0.00     0.059 A 
ATOM     97  F   UNL A   1      44.415  34.114  36.317  1.00  0.00    -0.206 F 
ATOM     98  C   UNL A   1      41.359  34.659  38.164  1.00  0.00     0.060 A 
BRANCH  98  99
ATOM     99  S   UNL A   1      40.769  35.573  39.605  1.00  0.00     0.124 S 
ATOM    100  O   UNL A   1      41.361  36.889  39.379  1.00  0.00    -0.237 OA
ATOM    101  O   UNL A   1      39.320  35.496  39.452  1.00  0.00    -0.237 OA
ATOM    102  O   UNL A   1      41.316  34.824  40.731  1.00  0.00    -0.744 OA
ENDBRANCH  98  99
ENDBRANCH  66  91
ENDBRANCH  40  41
ENDBRANCH  33  35
ENDBRANCH  32  33
ENDBRANCH  31  32
ENDBRANCH  30  31
ENDBRANCH  29  30
ENDBRANCH  28  29
ENDBRANCH   1  28
TORSDOF 24
ENDMDL
