MODEL 1
REMARK VINA RESULT:     -10.2      0.000      0.000
REMARK SMILES CCNC(=O)N1[C@@H](C(=O)OCCOCCOCCOC(=O)c2ccc(-c3c4nc(c(-c5c(F)cc(S(=O)(=O)[O-])cc5F)c5ccc([nH]5)c(-c5c(F)cc(S(=O)(=O)[O-])cc5F)c5nc(c(-c6c(F)cc(S(=O)(=O)[O-])cc6F)c6ccc3[nH]6)C=C5)C=C4)cc2)CC[C@@H]2CCCC[C@H]21
REMARK SMILES IDX 15 1 14 2 13 3 12 4 11 5 10 6 8 7 9 8 7 9 6 10 95 11 88 12
REMARK SMILES IDX 90 13 94 14 89 15 91 16 93 17 92 18 4 19 3 20 5 22 2 23 1 24
REMARK SMILES IDX 16 25 17 26 18 27 19 28 20 29 21 30 22 31 23 32 87 33 24 34
REMARK SMILES IDX 86 35 25 36 26 37 27 38 80 39 28 40 85 41 79 42 81 43 29 44
REMARK SMILES IDX 84 45 78 46 77 47 30 49 64 50 43 51 63 52 44 53 47 54 62 55
REMARK SMILES IDX 82 56 45 57 46 58 61 60 83 61 48 62 31 63 32 64 41 65 33 66
REMARK SMILES IDX 34 67 40 68 42 69 35 70 36 71 37 72 38 73 39 74 65 75 66 76
REMARK SMILES IDX 75 77 67 78 68 79 74 80 76 81 69 82 70 83 71 84 72 85 73 86
REMARK SMILES IDX 49 87 50 88 59 89 51 90 52 91 58 92 60 93 53 94 54 95 55 96
REMARK SMILES IDX 56 97 57 98
REMARK H PARENT 3 21 81 48 47 59
REMARK Flexibility Score: inf
ROOT
ATOM      1  C   UNL A   1      38.409  21.214  25.734  1.00  0.00     0.188 C 
ENDROOT
BRANCH   1   2
ATOM      2  C   UNL A   1      37.647  20.516  24.606  1.00  0.00     0.188 C 
BRANCH   2   3
ATOM      3  O   UNL A   1      36.457  19.864  24.968  1.00  0.00    -0.376 OA
BRANCH   3   4
ATOM      4  C   UNL A   1      35.221  20.550  25.010  1.00  0.00     0.202 C 
BRANCH   4   5
ATOM      5  C   UNL A   1      34.757  21.578  26.060  1.00  0.00     0.261 C 
BRANCH   5   6
ATOM      6  O   UNL A   1      34.658  22.972  25.731  1.00  0.00    -0.462 OA
BRANCH   6   7
ATOM      7  C   UNL A   1      33.658  23.637  26.379  1.00  0.00     0.329 C 
ATOM      8  O   UNL A   1      33.180  23.269  27.448  1.00  0.00    -0.250 OA
BRANCH   7   9
ATOM      9  C   UNL A   1      33.150  24.892  25.657  1.00  0.00     0.197 C 
ATOM     10  N   UNL A   1      31.771  24.863  25.124  1.00  0.00    -0.308 N 
ATOM     11  C   UNL A   1      31.296  26.148  24.554  1.00  0.00     0.091 C 
ATOM     12  C   UNL A   1      34.149  25.510  24.669  1.00  0.00     0.038 C 
ATOM     13  C   UNL A   1      32.342  26.861  23.656  1.00  0.00     0.012 C 
ATOM     14  C   UNL A   1      29.959  26.085  23.790  1.00  0.00     0.025 C 
ATOM     15  C   UNL A   1      33.708  26.925  24.326  1.00  0.00     0.008 C 
ATOM     16  C   UNL A   1      31.871  28.277  23.299  1.00  0.00     0.006 C 
ATOM     17  C   UNL A   1      29.481  27.476  23.367  1.00  0.00     0.002 C 
ATOM     18  C   UNL A   1      30.538  28.232  22.564  1.00  0.00     0.000 C 
BRANCH  10  19
ATOM     19  C   UNL A   1      31.244  23.666  24.699  1.00  0.00     0.318 C 
ATOM     20  N   UNL A   1      30.377  23.028  25.543  1.00  0.00    -0.338 N 
ATOM     21  H   UNL A   1      29.988  22.198  25.183  1.00  0.00     0.165 HD
ATOM     22  O   UNL A   1      31.448  23.188  23.586  1.00  0.00    -0.249 OA
BRANCH  20  23
ATOM     23  C   UNL A   1      29.933  23.374  26.888  1.00  0.00     0.114 C 
ATOM     24  C   UNL A   1      28.915  22.430  27.489  1.00  0.00     0.027 C 
ENDBRANCH  20  23
ENDBRANCH  10  19
ENDBRANCH   7   9
ENDBRANCH   6   7
ENDBRANCH   5   6
ENDBRANCH   4   5
ENDBRANCH   3   4
ENDBRANCH   2   3
ENDBRANCH   1   2
BRANCH   1  25
ATOM     25  O   UNL A   1      39.723  20.827  26.074  1.00  0.00    -0.376 OA
BRANCH  25  26
ATOM     26  C   UNL A   1      40.414  21.625  27.022  1.00  0.00     0.202 C 
BRANCH  26  27
ATOM     27  C   UNL A   1      41.190  22.894  26.600  1.00  0.00     0.261 C 
BRANCH  27  28
ATOM     28  O   UNL A   1      40.440  24.114  26.442  1.00  0.00    -0.460 OA
BRANCH  28  29
ATOM     29  C   UNL A   1      41.162  25.237  26.185  1.00  0.00     0.338 C 
ATOM     30  O   UNL A   1      41.519  25.631  25.082  1.00  0.00    -0.246 OA
BRANCH  29  31
ATOM     31  C   UNL A   1      41.242  26.079  27.410  1.00  0.00     0.060 A 
ATOM     32  C   UNL A   1      40.225  25.968  28.376  1.00  0.00     0.016 A 
ATOM     33  C   UNL A   1      42.291  26.974  27.612  1.00  0.00     0.016 A 
ATOM     34  C   UNL A   1      40.241  26.759  29.529  1.00  0.00     0.010 A 
ATOM     35  C   UNL A   1      42.282  27.799  28.746  1.00  0.00     0.010 A 
ATOM     36  C   UNL A   1      41.242  27.721  29.693  1.00  0.00    -0.014 A 
BRANCH  36  37
ATOM     37  C   UNL A   1      41.085  28.794  30.714  1.00  0.00     0.031 A 
ATOM     38  C   UNL A   1      41.997  28.766  31.913  1.00  0.00     0.074 A 
ATOM     39  C   UNL A   1      40.167  29.771  30.600  1.00  0.00     0.049 A 
ATOM     40  N   UNL A   1      41.980  29.502  32.993  1.00  0.00    -0.248 NA
ATOM     41  C   UNL A   1      43.072  27.759  31.890  1.00  0.00     0.031 C 
ATOM     42  C   UNL A   1      39.263  29.959  29.466  1.00  0.00     0.029 A 
ATOM     43  N   UNL A   1      39.830  30.782  31.469  1.00  0.00    -0.354 N 
ATOM     44  C   UNL A   1      43.020  29.033  33.788  1.00  0.00     0.074 A 
ATOM     45  C   UNL A   1      43.636  27.935  33.074  1.00  0.00     0.031 C 
ATOM     46  C   UNL A   1      38.452  31.001  29.725  1.00  0.00     0.029 A 
ATOM     47  C   UNL A   1      38.752  31.530  31.055  1.00  0.00     0.049 A 
ATOM     48  H   UNL A   1      40.315  30.954  32.309  1.00  0.00     0.167 HD
ATOM     49  C   UNL A   1      43.427  29.474  35.002  1.00  0.00     0.037 A 
ATOM     50  C   UNL A   1      38.064  32.502  31.692  1.00  0.00     0.037 A 
ATOM     51  C   UNL A   1      42.814  30.567  35.711  1.00  0.00     0.049 A 
ATOM     52  C   UNL A   1      38.485  32.931  33.077  1.00  0.00     0.074 A 
ATOM     53  C   UNL A   1      43.170  31.103  36.936  1.00  0.00     0.029 A 
ATOM     54  N   UNL A   1      41.714  31.286  35.266  1.00  0.00    -0.354 N 
ATOM     55  N   UNL A   1      39.478  32.490  33.814  1.00  0.00    -0.248 NA
ATOM     56  C   UNL A   1      37.692  33.991  33.719  1.00  0.00     0.031 C 
ATOM     57  C   UNL A   1      42.246  32.101  37.262  1.00  0.00     0.029 A 
ATOM     58  C   UNL A   1      41.357  32.238  36.207  1.00  0.00     0.049 A 
ATOM     59  H   UNL A   1      41.254  31.140  34.408  1.00  0.00     0.167 HD
ATOM     60  C   UNL A   1      39.446  33.239  34.988  1.00  0.00     0.074 A 
ATOM     61  C   UNL A   1      38.344  34.167  34.861  1.00  0.00     0.031 C 
ATOM     62  C   UNL A   1      40.262  33.167  36.071  1.00  0.00     0.037 A 
BRANCH  49  63
ATOM     63  C   UNL A   1      44.564  28.744  35.664  1.00  0.00     0.058 A 
ATOM     64  C   UNL A   1      45.904  29.124  35.477  1.00  0.00     0.135 A 
ATOM     65  C   UNL A   1      44.307  27.662  36.522  1.00  0.00     0.135 A 
ATOM     66  F   UNL A   1      46.210  30.140  34.654  1.00  0.00    -0.206 F 
ATOM     67  C   UNL A   1      46.947  28.439  36.092  1.00  0.00     0.059 A 
ATOM     68  C   UNL A   1      45.333  26.983  37.173  1.00  0.00     0.059 A 
ATOM     69  F   UNL A   1      43.046  27.253  36.735  1.00  0.00    -0.206 F 
ATOM     70  C   UNL A   1      46.651  27.370  36.939  1.00  0.00     0.060 A 
BRANCH  70  71
ATOM     71  S   UNL A   1      48.015  26.492  37.729  1.00  0.00     0.124 S 
ATOM     72  O   UNL A   1      47.508  25.123  37.749  1.00  0.00    -0.237 OA
ATOM     73  O   UNL A   1      49.121  26.744  36.811  1.00  0.00    -0.237 OA
ATOM     74  O   UNL A   1      48.127  27.137  39.033  1.00  0.00    -0.744 OA
ENDBRANCH  70  71
ENDBRANCH  49  63
BRANCH  50  75
ATOM     75  C   UNL A   1      36.881  33.127  31.036  1.00  0.00     0.058 A 
ATOM     76  C   UNL A   1      35.574  32.809  31.435  1.00  0.00     0.135 A 
ATOM     77  C   UNL A   1      37.035  34.055  29.992  1.00  0.00     0.135 A 
ATOM     78  F   UNL A   1      35.371  31.912  32.411  1.00  0.00    -0.206 F 
ATOM     79  C   UNL A   1      34.464  33.382  30.821  1.00  0.00     0.059 A 
ATOM     80  C   UNL A   1      35.941  34.664  29.384  1.00  0.00     0.059 A 
ATOM     81  F   UNL A   1      38.263  34.397  29.572  1.00  0.00    -0.206 F 
ATOM     82  C   UNL A   1      34.658  34.316  29.802  1.00  0.00     0.060 A 
BRANCH  82  83
ATOM     83  S   UNL A   1      33.210  35.105  29.064  1.00  0.00     0.124 S 
ATOM     84  O   UNL A   1      32.365  35.326  30.232  1.00  0.00    -0.237 OA
ATOM     85  O   UNL A   1      33.790  36.300  28.460  1.00  0.00    -0.237 OA
ATOM     86  O   UNL A   1      32.728  34.105  28.116  1.00  0.00    -0.744 OA
ENDBRANCH  82  83
ENDBRANCH  50  75
BRANCH  62  87
ATOM     87  C   UNL A   1      40.033  34.145  37.194  1.00  0.00     0.058 A 
ATOM     88  C   UNL A   1      40.640  35.411  37.218  1.00  0.00     0.135 A 
ATOM     89  C   UNL A   1      39.137  33.833  38.232  1.00  0.00     0.135 A 
ATOM     90  F   UNL A   1      41.508  35.762  36.255  1.00  0.00    -0.206 F 
ATOM     91  C   UNL A   1      40.386  36.323  38.239  1.00  0.00     0.059 A 
ATOM     92  C   UNL A   1      38.843  34.741  39.246  1.00  0.00     0.059 A 
ATOM     93  F   UNL A   1      38.517  32.642  38.255  1.00  0.00    -0.206 F 
ATOM     94  C   UNL A   1      39.481  35.980  39.246  1.00  0.00     0.060 A 
BRANCH  94  95
ATOM     95  S   UNL A   1      39.132  37.186  40.544  1.00  0.00     0.124 S 
ATOM     96  O   UNL A   1      38.583  36.336  41.596  1.00  0.00    -0.237 OA
ATOM     97  O   UNL A   1      40.451  37.749  40.810  1.00  0.00    -0.237 OA
ATOM     98  O   UNL A   1      38.181  38.098  39.916  1.00  0.00    -0.744 OA
ENDBRANCH  94  95
ENDBRANCH  62  87
ENDBRANCH  36  37
ENDBRANCH  29  31
ENDBRANCH  28  29
ENDBRANCH  27  28
ENDBRANCH  26  27
ENDBRANCH  25  26
ENDBRANCH   1  25
TORSDOF 22
ENDMDL
MODEL 2
REMARK VINA RESULT:     -10.1      6.377     11.974
REMARK SMILES CCNC(=O)N1[C@@H](C(=O)OCCOCCOCCOC(=O)c2ccc(-c3c4nc(c(-c5c(F)cc(S(=O)(=O)[O-])cc5F)c5ccc([nH]5)c(-c5c(F)cc(S(=O)(=O)[O-])cc5F)c5nc(c(-c6c(F)cc(S(=O)(=O)[O-])cc6F)c6ccc3[nH]6)C=C5)C=C4)cc2)CC[C@@H]2CCCC[C@H]21
REMARK SMILES IDX 15 1 14 2 13 3 12 4 11 5 10 6 8 7 9 8 7 9 6 10 95 11 88 12
REMARK SMILES IDX 90 13 94 14 89 15 91 16 93 17 92 18 4 19 3 20 5 22 2 23 1 24
REMARK SMILES IDX 16 25 17 26 18 27 19 28 20 29 21 30 22 31 23 32 87 33 24 34
REMARK SMILES IDX 86 35 25 36 26 37 27 38 80 39 28 40 85 41 79 42 81 43 29 44
REMARK SMILES IDX 84 45 78 46 77 47 30 49 64 50 43 51 63 52 44 53 47 54 62 55
REMARK SMILES IDX 82 56 45 57 46 58 61 60 83 61 48 62 31 63 32 64 41 65 33 66
REMARK SMILES IDX 34 67 40 68 42 69 35 70 36 71 37 72 38 73 39 74 65 75 66 76
REMARK SMILES IDX 75 77 67 78 68 79 74 80 76 81 69 82 70 83 71 84 72 85 73 86
REMARK SMILES IDX 49 87 50 88 59 89 51 90 52 91 58 92 60 93 53 94 54 95 55 96
REMARK SMILES IDX 56 97 57 98
REMARK H PARENT 3 21 81 48 47 59
REMARK Flexibility Score: inf
ROOT
ATOM      1  C   UNL A   1      35.197  32.752  28.037  1.00  0.00     0.188 C 
ENDROOT
BRANCH   1   2
ATOM      2  C   UNL A   1      34.744  31.292  28.113  1.00  0.00     0.188 C 
BRANCH   2   3
ATOM      3  O   UNL A   1      34.005  30.812  27.021  1.00  0.00    -0.376 OA
BRANCH   3   4
ATOM      4  C   UNL A   1      33.079  29.752  27.163  1.00  0.00     0.202 C 
BRANCH   4   5
ATOM      5  C   UNL A   1      33.281  28.275  26.772  1.00  0.00     0.261 C 
BRANCH   5   6
ATOM      6  O   UNL A   1      33.939  27.921  25.546  1.00  0.00    -0.462 OA
BRANCH   6   7
ATOM      7  C   UNL A   1      33.164  27.218  24.671  1.00  0.00     0.329 C 
ATOM      8  O   UNL A   1      32.283  27.727  23.984  1.00  0.00    -0.250 OA
BRANCH   7   9
ATOM      9  C   UNL A   1      33.463  25.714  24.615  1.00  0.00     0.197 C 
ATOM     10  N   UNL A   1      32.360  24.785  24.944  1.00  0.00    -0.308 N 
ATOM     11  C   UNL A   1      32.677  23.348  24.747  1.00  0.00     0.091 C 
ATOM     12  C   UNL A   1      34.793  25.302  25.263  1.00  0.00     0.038 C 
ATOM     13  C   UNL A   1      34.076  22.935  25.274  1.00  0.00     0.012 C 
ATOM     14  C   UNL A   1      31.634  22.355  25.296  1.00  0.00     0.025 C 
ATOM     15  C   UNL A   1      35.160  23.897  24.809  1.00  0.00     0.008 C 
ATOM     16  C   UNL A   1      34.421  21.508  24.829  1.00  0.00     0.006 C 
ATOM     17  C   UNL A   1      31.973  20.911  24.919  1.00  0.00     0.002 C 
ATOM     18  C   UNL A   1      33.386  20.517  25.345  1.00  0.00     0.000 C 
BRANCH  10  19
ATOM     19  C   UNL A   1      31.404  25.178  25.851  1.00  0.00     0.318 C 
ATOM     20  N   UNL A   1      30.203  25.601  25.350  1.00  0.00    -0.338 N 
ATOM     21  H   UNL A   1      29.531  25.831  26.033  1.00  0.00     0.165 HD
ATOM     22  O   UNL A   1      31.544  25.095  27.068  1.00  0.00    -0.249 OA
BRANCH  20  23
ATOM     23  C   UNL A   1      29.754  25.768  23.974  1.00  0.00     0.114 C 
ATOM     24  C   UNL A   1      28.469  26.548  23.810  1.00  0.00     0.027 C 
ENDBRANCH  20  23
ENDBRANCH  10  19
ENDBRANCH   7   9
ENDBRANCH   6   7
ENDBRANCH   5   6
ENDBRANCH   4   5
ENDBRANCH   3   4
ENDBRANCH   2   3
ENDBRANCH   1   2
BRANCH   1  25
ATOM     25  O   UNL A   1      35.352  33.529  29.205  1.00  0.00    -0.376 OA
BRANCH  25  26
ATOM     26  C   UNL A   1      34.591  33.155  30.343  1.00  0.00     0.202 C 
BRANCH  26  27
ATOM     27  C   UNL A   1      35.242  32.454  31.557  1.00  0.00     0.261 C 
BRANCH  27  28
ATOM     28  O   UNL A   1      36.620  32.052  31.437  1.00  0.00    -0.460 OA
BRANCH  28  29
ATOM     29  C   UNL A   1      36.845  30.737  31.169  1.00  0.00     0.338 C 
ATOM     30  O   UNL A   1      35.998  29.855  31.115  1.00  0.00    -0.246 OA
BRANCH  29  31
ATOM     31  C   UNL A   1      38.241  30.551  30.687  1.00  0.00     0.060 A 
ATOM     32  C   UNL A   1      38.458  30.308  29.318  1.00  0.00     0.016 A 
ATOM     33  C   UNL A   1      39.326  30.601  31.560  1.00  0.00     0.016 A 
ATOM     34  C   UNL A   1      39.749  30.097  28.822  1.00  0.00     0.010 A 
ATOM     35  C   UNL A   1      40.614  30.344  31.070  1.00  0.00     0.010 A 
ATOM     36  C   UNL A   1      40.831  30.058  29.707  1.00  0.00    -0.014 A 
BRANCH  36  37
ATOM     37  C   UNL A   1      42.136  29.494  29.264  1.00  0.00     0.031 A 
ATOM     38  C   UNL A   1      43.313  30.431  29.173  1.00  0.00     0.074 A 
ATOM     39  C   UNL A   1      42.292  28.196  28.947  1.00  0.00     0.049 A 
ATOM     40  N   UNL A   1      44.513  30.219  28.699  1.00  0.00    -0.248 NA
ATOM     41  C   UNL A   1      43.100  31.797  29.681  1.00  0.00     0.031 C 
ATOM     42  C   UNL A   1      41.260  27.167  29.049  1.00  0.00     0.029 A 
ATOM     43  N   UNL A   1      43.386  27.527  28.450  1.00  0.00    -0.354 N 
ATOM     44  C   UNL A   1      45.189  31.429  28.826  1.00  0.00     0.074 A 
ATOM     45  C   UNL A   1      44.258  32.374  29.404  1.00  0.00     0.031 C 
ATOM     46  C   UNL A   1      41.760  26.003  28.597  1.00  0.00     0.029 A 
ATOM     47  C   UNL A   1      43.133  26.211  28.137  1.00  0.00     0.049 A 
ATOM     48  H   UNL A   1      44.267  27.950  28.329  1.00  0.00     0.167 HD
ATOM     49  C   UNL A   1      46.466  31.727  28.492  1.00  0.00     0.037 A 
ATOM     50  C   UNL A   1      43.907  25.293  27.518  1.00  0.00     0.037 A 
ATOM     51  C   UNL A   1      47.392  30.785  27.918  1.00  0.00     0.049 A 
ATOM     52  C   UNL A   1      45.305  25.665  27.084  1.00  0.00     0.074 A 
ATOM     53  C   UNL A   1      48.715  30.986  27.566  1.00  0.00     0.029 A 
ATOM     54  N   UNL A   1      47.091  29.469  27.599  1.00  0.00    -0.354 N 
ATOM     55  N   UNL A   1      45.938  26.806  27.221  1.00  0.00    -0.248 NA
ATOM     56  C   UNL A   1      46.095  24.622  26.411  1.00  0.00     0.031 C 
ATOM     57  C   UNL A   1      49.195  29.813  26.977  1.00  0.00     0.029 A 
ATOM     58  C   UNL A   1      48.193  28.855  27.027  1.00  0.00     0.049 A 
ATOM     59  H   UNL A   1      46.222  29.034  27.758  1.00  0.00     0.167 HD
ATOM     60  C   UNL A   1      47.207  26.609  26.682  1.00  0.00     0.074 A 
ATOM     61  C   UNL A   1      47.256  25.237  26.224  1.00  0.00     0.031 C 
ATOM     62  C   UNL A   1      48.239  27.484  26.580  1.00  0.00     0.037 A 
BRANCH  49  63
ATOM     63  C   UNL A   1      46.929  33.144  28.699  1.00  0.00     0.058 A 
ATOM     64  C   UNL A   1      47.538  33.563  29.893  1.00  0.00     0.135 A 
ATOM     65  C   UNL A   1      46.783  34.093  27.673  1.00  0.00     0.135 A 
ATOM     66  F   UNL A   1      47.687  32.704  30.915  1.00  0.00    -0.206 F 
ATOM     67  C   UNL A   1      47.959  34.877  30.073  1.00  0.00     0.059 A 
ATOM     68  C   UNL A   1      47.226  35.404  27.819  1.00  0.00     0.059 A 
ATOM     69  F   UNL A   1      46.205  33.748  26.511  1.00  0.00    -0.206 F 
ATOM     70  C   UNL A   1      47.798  35.790  29.029  1.00  0.00     0.060 A 
BRANCH  70  71
ATOM     71  S   UNL A   1      48.349  37.491  29.279  1.00  0.00     0.124 S 
ATOM     72  O   UNL A   1      48.208  38.043  27.935  1.00  0.00    -0.237 OA
ATOM     73  O   UNL A   1      47.397  37.984  30.269  1.00  0.00    -0.237 OA
ATOM     74  O   UNL A   1      49.720  37.340  29.753  1.00  0.00    -0.744 OA
ENDBRANCH  70  71
ENDBRANCH  49  63
BRANCH  50  75
ATOM     75  C   UNL A   1      43.369  23.931  27.244  1.00  0.00     0.058 A 
ATOM     76  C   UNL A   1      42.849  23.592  25.987  1.00  0.00     0.135 A 
ATOM     77  C   UNL A   1      43.363  22.940  28.240  1.00  0.00     0.135 A 
ATOM     78  F   UNL A   1      42.812  24.508  25.008  1.00  0.00    -0.206 F 
ATOM     79  C   UNL A   1      42.338  22.324  25.726  1.00  0.00     0.059 A 
ATOM     80  C   UNL A   1      42.884  21.656  27.994  1.00  0.00     0.059 A 
ATOM     81  F   UNL A   1      43.849  23.210  29.461  1.00  0.00    -0.206 F 
ATOM     82  C   UNL A   1      42.368  21.359  26.734  1.00  0.00     0.060 A 
BRANCH  82  83
ATOM     83  S   UNL A   1      41.766  19.697  26.361  1.00  0.00     0.124 S 
ATOM     84  O   UNL A   1      40.331  19.924  26.234  1.00  0.00    -0.237 OA
ATOM     85  O   UNL A   1      42.476  19.388  25.124  1.00  0.00    -0.237 OA
ATOM     86  O   UNL A   1      42.182  18.920  27.524  1.00  0.00    -0.744 OA
ENDBRANCH  82  83
ENDBRANCH  50  75
BRANCH  62  87
ATOM     87  C   UNL A   1      49.534  26.985  25.993  1.00  0.00     0.058 A 
ATOM     88  C   UNL A   1      49.806  27.056  24.617  1.00  0.00     0.135 A 
ATOM     89  C   UNL A   1      50.547  26.488  26.832  1.00  0.00     0.135 A 
ATOM     90  F   UNL A   1      48.874  27.518  23.767  1.00  0.00    -0.206 F 
ATOM     91  C   UNL A   1      51.024  26.632  24.092  1.00  0.00     0.059 A 
ATOM     92  C   UNL A   1      51.783  26.089  26.332  1.00  0.00     0.059 A 
ATOM     93  F   UNL A   1      50.348  26.409  28.157  1.00  0.00    -0.206 F 
ATOM     94  C   UNL A   1      52.008  26.155  24.959  1.00  0.00     0.060 A 
BRANCH  94  95
ATOM     95  S   UNL A   1      53.597  25.644  24.268  1.00  0.00     0.124 S 
ATOM     96  O   UNL A   1      54.529  26.467  25.033  1.00  0.00    -0.237 OA
ATOM     97  O   UNL A   1      53.622  24.216  24.567  1.00  0.00    -0.237 OA
ATOM     98  O   UNL A   1      53.479  25.980  22.853  1.00  0.00    -0.744 OA
ENDBRANCH  94  95
ENDBRANCH  62  87
ENDBRANCH  36  37
ENDBRANCH  29  31
ENDBRANCH  28  29
ENDBRANCH  27  28
ENDBRANCH  26  27
ENDBRANCH  25  26
ENDBRANCH   1  25
TORSDOF 22
ENDMDL
MODEL 3
REMARK VINA RESULT:     -10.0      6.029     10.868
REMARK SMILES CCNC(=O)N1[C@@H](C(=O)OCCOCCOCCOC(=O)c2ccc(-c3c4nc(c(-c5c(F)cc(S(=O)(=O)[O-])cc5F)c5ccc([nH]5)c(-c5c(F)cc(S(=O)(=O)[O-])cc5F)c5nc(c(-c6c(F)cc(S(=O)(=O)[O-])cc6F)c6ccc3[nH]6)C=C5)C=C4)cc2)CC[C@@H]2CCCC[C@H]21
REMARK SMILES IDX 15 1 14 2 13 3 12 4 11 5 10 6 8 7 9 8 7 9 6 10 95 11 88 12
REMARK SMILES IDX 90 13 94 14 89 15 91 16 93 17 92 18 4 19 3 20 5 22 2 23 1 24
REMARK SMILES IDX 16 25 17 26 18 27 19 28 20 29 21 30 22 31 23 32 87 33 24 34
REMARK SMILES IDX 86 35 25 36 26 37 27 38 80 39 28 40 85 41 79 42 81 43 29 44
REMARK SMILES IDX 84 45 78 46 77 47 30 49 64 50 43 51 63 52 44 53 47 54 62 55
REMARK SMILES IDX 82 56 45 57 46 58 61 60 83 61 48 62 31 63 32 64 41 65 33 66
REMARK SMILES IDX 34 67 40 68 42 69 35 70 36 71 37 72 38 73 39 74 65 75 66 76
REMARK SMILES IDX 75 77 67 78 68 79 74 80 76 81 69 82 70 83 71 84 72 85 73 86
REMARK SMILES IDX 49 87 50 88 59 89 51 90 52 91 58 92 60 93 53 94 54 95 55 96
REMARK SMILES IDX 56 97 57 98
REMARK H PARENT 3 21 81 48 47 59
REMARK Flexibility Score: inf
ROOT
ATOM      1  C   UNL A   1      37.025  22.132  24.888  1.00  0.00     0.188 C 
ENDROOT
BRANCH   1   2
ATOM      2  C   UNL A   1      36.931  22.815  23.522  1.00  0.00     0.188 C 
BRANCH   2   3
ATOM      3  O   UNL A   1      35.676  22.783  22.895  1.00  0.00    -0.376 OA
BRANCH   3   4
ATOM      4  C   UNL A   1      34.664  23.719  23.215  1.00  0.00     0.202 C 
BRANCH   4   5
ATOM      5  C   UNL A   1      33.333  23.948  22.472  1.00  0.00     0.261 C 
BRANCH   5   6
ATOM      6  O   UNL A   1      33.253  24.869  21.375  1.00  0.00    -0.462 OA
BRANCH   6   7
ATOM      7  C   UNL A   1      32.450  25.950  21.601  1.00  0.00     0.329 C 
ATOM      8  O   UNL A   1      31.523  26.272  20.864  1.00  0.00    -0.250 OA
BRANCH   7   9
ATOM      9  C   UNL A   1      32.803  26.759  22.856  1.00  0.00     0.197 C 
ATOM     10  N   UNL A   1      31.851  26.717  23.986  1.00  0.00    -0.308 N 
ATOM     11  C   UNL A   1      32.310  27.413  25.214  1.00  0.00     0.091 C 
ATOM     12  C   UNL A   1      33.325  28.176  22.577  1.00  0.00     0.038 C 
ATOM     13  C   UNL A   1      32.966  28.794  24.945  1.00  0.00     0.012 C 
ATOM     14  C   UNL A   1      31.251  27.582  26.320  1.00  0.00     0.025 C 
ATOM     15  C   UNL A   1      33.998  28.719  23.829  1.00  0.00     0.008 C 
ATOM     16  C   UNL A   1      33.618  29.339  26.222  1.00  0.00     0.006 C 
ATOM     17  C   UNL A   1      31.852  28.176  27.596  1.00  0.00     0.002 C 
ATOM     18  C   UNL A   1      32.587  29.489  27.333  1.00  0.00     0.000 C 
BRANCH  10  19
ATOM     19  C   UNL A   1      30.510  26.562  23.724  1.00  0.00     0.318 C 
ATOM     20  N   UNL A   1      29.812  27.675  23.345  1.00  0.00    -0.338 N 
ATOM     21  H   UNL A   1      28.866  27.512  23.124  1.00  0.00     0.165 HD
ATOM     22  O   UNL A   1      29.935  25.476  23.736  1.00  0.00    -0.249 OA
BRANCH  20  23
ATOM     23  C   UNL A   1      30.236  29.063  23.215  1.00  0.00     0.114 C 
ATOM     24  C   UNL A   1      30.023  29.673  21.848  1.00  0.00     0.027 C 
ENDBRANCH  20  23
ENDBRANCH  10  19
ENDBRANCH   7   9
ENDBRANCH   6   7
ENDBRANCH   5   6
ENDBRANCH   4   5
ENDBRANCH   3   4
ENDBRANCH   2   3
ENDBRANCH   1   2
BRANCH   1  25
ATOM     25  O   UNL A   1      37.690  20.896  25.040  1.00  0.00    -0.376 OA
BRANCH  25  26
ATOM     26  C   UNL A   1      38.967  20.914  25.656  1.00  0.00     0.202 C 
BRANCH  26  27
ATOM     27  C   UNL A   1      39.754  19.611  25.925  1.00  0.00     0.261 C 
BRANCH  27  28
ATOM     28  O   UNL A   1      41.076  19.499  25.362  1.00  0.00    -0.460 OA
BRANCH  28  29
ATOM     29  C   UNL A   1      42.112  19.527  26.243  1.00  0.00     0.338 C 
ATOM     30  O   UNL A   1      42.834  18.584  26.541  1.00  0.00    -0.246 OA
BRANCH  29  31
ATOM     31  C   UNL A   1      42.427  20.935  26.609  1.00  0.00     0.060 A 
ATOM     32  C   UNL A   1      42.580  21.885  25.583  1.00  0.00     0.016 A 
ATOM     33  C   UNL A   1      42.581  21.325  27.939  1.00  0.00     0.016 A 
ATOM     34  C   UNL A   1      42.905  23.213  25.876  1.00  0.00     0.010 A 
ATOM     35  C   UNL A   1      42.951  22.646  28.229  1.00  0.00     0.010 A 
ATOM     36  C   UNL A   1      43.149  23.588  27.200  1.00  0.00    -0.014 A 
BRANCH  36  37
ATOM     37  C   UNL A   1      43.828  24.880  27.497  1.00  0.00     0.031 A 
ATOM     38  C   UNL A   1      42.978  26.032  27.969  1.00  0.00     0.074 A 
ATOM     39  C   UNL A   1      45.156  25.047  27.356  1.00  0.00     0.049 A 
ATOM     40  N   UNL A   1      43.304  27.282  28.170  1.00  0.00    -0.248 NA
ATOM     41  C   UNL A   1      41.563  25.727  28.243  1.00  0.00     0.031 C 
ATOM     42  C   UNL A   1      46.106  24.006  26.970  1.00  0.00     0.029 A 
ATOM     43  N   UNL A   1      45.932  26.172  27.504  1.00  0.00    -0.354 N 
ATOM     44  C   UNL A   1      42.133  27.918  28.568  1.00  0.00     0.074 A 
ATOM     45  C   UNL A   1      41.085  26.920  28.560  1.00  0.00     0.031 C 
ATOM     46  C   UNL A   1      47.333  24.549  26.880  1.00  0.00     0.029 A 
ATOM     47  C   UNL A   1      47.251  25.982  27.163  1.00  0.00     0.049 A 
ATOM     48  H   UNL A   1      45.577  27.033  27.824  1.00  0.00     0.167 HD
ATOM     49  C   UNL A   1      41.944  29.215  28.907  1.00  0.00     0.037 A 
ATOM     50  C   UNL A   1      48.265  26.868  27.055  1.00  0.00     0.037 A 
ATOM     51  C   UNL A   1      42.988  30.208  28.916  1.00  0.00     0.049 A 
ATOM     52  C   UNL A   1      48.020  28.325  27.366  1.00  0.00     0.074 A 
ATOM     53  C   UNL A   1      42.900  31.543  29.267  1.00  0.00     0.029 A 
ATOM     54  N   UNL A   1      44.305  29.979  28.546  1.00  0.00    -0.354 N 
ATOM     55  N   UNL A   1      46.913  28.914  27.754  1.00  0.00    -0.248 NA
ATOM     56  C   UNL A   1      49.163  29.240  27.225  1.00  0.00     0.031 C 
ATOM     57  C   UNL A   1      44.147  32.136  29.049  1.00  0.00     0.029 A 
ATOM     58  C   UNL A   1      45.033  31.155  28.630  1.00  0.00     0.049 A 
ATOM     59  H   UNL A   1      44.670  29.109  28.265  1.00  0.00     0.167 HD
ATOM     60  C   UNL A   1      47.234  30.258  27.933  1.00  0.00     0.074 A 
ATOM     61  C   UNL A   1      48.640  30.394  27.620  1.00  0.00     0.031 C 
ATOM     62  C   UNL A   1      46.437  31.283  28.326  1.00  0.00     0.037 A 
BRANCH  49  63
ATOM     63  C   UNL A   1      40.546  29.649  29.258  1.00  0.00     0.058 A 
ATOM     64  C   UNL A   1      40.173  29.971  30.573  1.00  0.00     0.135 A 
ATOM     65  C   UNL A   1      39.571  29.769  28.255  1.00  0.00     0.135 A 
ATOM     66  F   UNL A   1      41.060  29.858  31.576  1.00  0.00    -0.206 F 
ATOM     67  C   UNL A   1      38.876  30.368  30.885  1.00  0.00     0.059 A 
ATOM     68  C   UNL A   1      38.276  30.195  28.539  1.00  0.00     0.059 A 
ATOM     69  F   UNL A   1      39.870  29.471  26.980  1.00  0.00    -0.206 F 
ATOM     70  C   UNL A   1      37.935  30.476  29.860  1.00  0.00     0.060 A 
BRANCH  70  71
ATOM     71  S   UNL A   1      36.258  30.992  30.281  1.00  0.00     0.124 S 
ATOM     72  O   UNL A   1      35.605  30.955  28.975  1.00  0.00    -0.237 OA
ATOM     73  O   UNL A   1      35.843  29.961  31.226  1.00  0.00    -0.237 OA
ATOM     74  O   UNL A   1      36.442  32.323  30.851  1.00  0.00    -0.744 OA
ENDBRANCH  70  71
ENDBRANCH  49  63
BRANCH  50  75
ATOM     75  C   UNL A   1      49.609  26.408  26.607  1.00  0.00     0.058 A 
ATOM     76  C   UNL A   1      50.561  25.937  27.524  1.00  0.00     0.135 A 
ATOM     77  C   UNL A   1      49.971  26.435  25.250  1.00  0.00     0.135 A 
ATOM     78  F   UNL A   1      50.274  25.912  28.834  1.00  0.00    -0.206 F 
ATOM     79  C   UNL A   1      51.822  25.514  27.115  1.00  0.00     0.059 A 
ATOM     80  C   UNL A   1      51.215  25.989  24.813  1.00  0.00     0.059 A 
ATOM     81  F   UNL A   1      49.099  26.876  24.330  1.00  0.00    -0.206 F 
ATOM     82  C   UNL A   1      52.137  25.535  25.755  1.00  0.00     0.060 A 
BRANCH  82  83
ATOM     83  S   UNL A   1      53.751  24.916  25.230  1.00  0.00     0.124 S 
ATOM     84  O   UNL A   1      53.983  25.690  24.015  1.00  0.00    -0.237 OA
ATOM     85  O   UNL A   1      54.592  25.254  26.373  1.00  0.00    -0.237 OA
ATOM     86  O   UNL A   1      53.517  23.489  25.034  1.00  0.00    -0.744 OA
ENDBRANCH  82  83
ENDBRANCH  50  75
BRANCH  62  87
ATOM     87  C   UNL A   1      47.064  32.643  28.489  1.00  0.00     0.058 A 
ATOM     88  C   UNL A   1      47.681  33.041  29.687  1.00  0.00     0.135 A 
ATOM     89  C   UNL A   1      47.108  33.538  27.406  1.00  0.00     0.135 A 
ATOM     90  F   UNL A   1      47.667  32.230  30.757  1.00  0.00    -0.206 F 
ATOM     91  C   UNL A   1      48.296  34.284  29.812  1.00  0.00     0.059 A 
ATOM     92  C   UNL A   1      47.745  34.772  27.498  1.00  0.00     0.059 A 
ATOM     93  F   UNL A   1      46.546  33.206  26.233  1.00  0.00    -0.206 F 
ATOM     94  C   UNL A   1      48.327  35.141  28.709  1.00  0.00     0.060 A 
BRANCH  94  95
ATOM     95  S   UNL A   1      49.162  36.734  28.873  1.00  0.00     0.124 S 
ATOM     96  O   UNL A   1      48.824  37.375  27.606  1.00  0.00    -0.237 OA
ATOM     97  O   UNL A   1      48.525  37.299  30.058  1.00  0.00    -0.237 OA
ATOM     98  O   UNL A   1      50.566  36.370  29.036  1.00  0.00    -0.744 OA
ENDBRANCH  94  95
ENDBRANCH  62  87
ENDBRANCH  36  37
ENDBRANCH  29  31
ENDBRANCH  28  29
ENDBRANCH  27  28
ENDBRANCH  26  27
ENDBRANCH  25  26
ENDBRANCH   1  25
TORSDOF 22
ENDMDL
