MODEL 1
REMARK VINA RESULT:     -10.0      0.000      0.000
REMARK SMILES C[C@@H](C(=O)OCCOCCOCCOC(=O)c1ccc(-c2c3nc(c(-c4c(F)cc(S(=O)(=O)[O-])cc4F)c4ccc([nH]4)c(-c4c(F)cc(S(=O)(=O)[O-])cc4F)c4nc(c(-c5c(F)cc(S(=O)(=O)[O-])cc5F)c5ccc2[nH]5)C=C4)C=C3)cc1)c1cccn(C(F)F)c1=O
REMARK SMILES IDX 10 1 9 2 8 3 7 4 6 5 5 6 3 7 4 8 2 9 1 10 83 11 84 12 91 13
REMARK SMILES IDX 85 14 87 15 92 16 86 17 88 18 89 19 90 20 11 21 12 22 13 23
REMARK SMILES IDX 14 24 15 25 16 26 17 27 18 28 82 29 19 30 81 31 20 32 21 33
REMARK SMILES IDX 22 34 75 35 23 36 80 37 74 38 76 39 24 40 79 41 73 42 72 43
REMARK SMILES IDX 25 45 59 46 38 47 58 48 39 49 42 50 57 51 77 52 40 53 41 54
REMARK SMILES IDX 56 56 78 57 43 58 26 59 27 60 36 61 28 62 29 63 35 64 37 65
REMARK SMILES IDX 30 66 31 67 32 68 33 69 34 70 60 71 61 72 70 73 62 74 63 75
REMARK SMILES IDX 69 76 71 77 64 78 65 79 66 80 67 81 68 82 44 83 45 84 54 85
REMARK SMILES IDX 46 86 47 87 53 88 55 89 48 90 49 91 50 92 51 93 52 94
REMARK H PARENT 76 44 42 55
REMARK Flexibility Score: inf
ROOT
ATOM      1  C   UNL A   1      36.646  20.562  24.965  1.00  0.00     0.188 C 
ENDROOT
BRANCH   1   2
ATOM      2  C   UNL A   1      35.408  21.374  25.377  1.00  0.00     0.188 C 
BRANCH   2   3
ATOM      3  O   UNL A   1      34.148  20.742  25.349  1.00  0.00    -0.376 OA
BRANCH   3   4
ATOM      4  C   UNL A   1      33.030  21.467  24.860  1.00  0.00     0.202 C 
BRANCH   4   5
ATOM      5  C   UNL A   1      31.963  22.087  25.782  1.00  0.00     0.261 C 
BRANCH   5   6
ATOM      6  O   UNL A   1      32.398  23.131  26.678  1.00  0.00    -0.463 OA
BRANCH   6   7
ATOM      7  C   UNL A   1      31.924  24.385  26.417  1.00  0.00     0.313 C 
ATOM      8  O   UNL A   1      30.880  24.822  26.892  1.00  0.00    -0.252 OA
BRANCH   7   9
ATOM      9  C   UNL A   1      32.795  25.215  25.457  1.00  0.00     0.132 C 
ATOM     10  C   UNL A   1      34.310  24.997  25.456  1.00  0.00     0.025 C 
BRANCH   9  11
ATOM     11  C   UNL A   1      32.459  26.693  25.594  1.00  0.00     0.032 A 
ATOM     12  C   UNL A   1      32.817  27.487  26.620  1.00  0.00     0.012 A 
ATOM     13  C   UNL A   1      31.645  27.308  24.486  1.00  0.00     0.259 A 
ATOM     14  C   UNL A   1      32.403  28.860  26.705  1.00  0.00     0.019 A 
ATOM     15  N   UNL A   1      31.247  28.621  24.668  1.00  0.00    -0.258 N 
ATOM     16  O   UNL A   1      31.382  26.648  23.483  1.00  0.00    -0.269 OA
ATOM     17  C   UNL A   1      31.626  29.381  25.755  1.00  0.00     0.095 A 
BRANCH  15  18
ATOM     18  C   UNL A   1      30.415  29.220  23.659  1.00  0.00     0.451 C 
ATOM     19  F   UNL A   1      29.871  30.370  24.135  1.00  0.00    -0.185 F 
ATOM     20  F   UNL A   1      31.179  29.571  22.591  1.00  0.00    -0.185 F 
ENDBRANCH  15  18
ENDBRANCH   9  11
ENDBRANCH   7   9
ENDBRANCH   6   7
ENDBRANCH   5   6
ENDBRANCH   4   5
ENDBRANCH   3   4
ENDBRANCH   2   3
ENDBRANCH   1   2
BRANCH   1  21
ATOM     21  O   UNL A   1      37.929  21.130  25.026  1.00  0.00    -0.376 OA
BRANCH  21  22
ATOM     22  C   UNL A   1      38.261  22.043  26.053  1.00  0.00     0.202 C 
BRANCH  22  23
ATOM     23  C   UNL A   1      39.695  22.428  26.462  1.00  0.00     0.261 C 
BRANCH  23  24
ATOM     24  O   UNL A   1      40.071  23.807  26.412  1.00  0.00    -0.460 OA
BRANCH  24  25
ATOM     25  C   UNL A   1      41.224  24.126  27.050  1.00  0.00     0.338 C 
ATOM     26  O   UNL A   1      42.329  23.644  26.850  1.00  0.00    -0.246 OA
BRANCH  25  27
ATOM     27  C   UNL A   1      40.983  25.322  27.888  1.00  0.00     0.060 A 
ATOM     28  C   UNL A   1      42.015  26.261  28.032  1.00  0.00     0.016 A 
ATOM     29  C   UNL A   1      39.760  25.519  28.531  1.00  0.00     0.016 A 
ATOM     30  C   UNL A   1      41.831  27.388  28.836  1.00  0.00     0.010 A 
ATOM     31  C   UNL A   1      39.585  26.638  29.355  1.00  0.00     0.010 A 
ATOM     32  C   UNL A   1      40.625  27.568  29.528  1.00  0.00    -0.014 A 
BRANCH  32  33
ATOM     33  C   UNL A   1      40.521  28.623  30.570  1.00  0.00     0.031 A 
ATOM     34  C   UNL A   1      41.459  28.560  31.745  1.00  0.00     0.074 A 
ATOM     35  C   UNL A   1      39.627  29.624  30.479  1.00  0.00     0.049 A 
ATOM     36  N   UNL A   1      41.522  29.334  32.797  1.00  0.00    -0.248 NA
ATOM     37  C   UNL A   1      42.447  27.469  31.734  1.00  0.00     0.031 C 
ATOM     38  C   UNL A   1      38.670  29.802  29.392  1.00  0.00     0.029 A 
ATOM     39  N   UNL A   1      39.380  30.681  31.321  1.00  0.00    -0.354 N 
ATOM     40  C   UNL A   1      42.546  28.818  33.581  1.00  0.00     0.074 A 
ATOM     41  C   UNL A   1      43.064  27.655  32.892  1.00  0.00     0.031 C 
ATOM     42  C   UNL A   1      37.956  30.920  29.617  1.00  0.00     0.029 A 
ATOM     43  C   UNL A   1      38.354  31.497  30.901  1.00  0.00     0.049 A 
ATOM     44  H   UNL A   1      39.888  30.841  32.148  1.00  0.00     0.167 HD
ATOM     45  C   UNL A   1      43.011  29.267  34.772  1.00  0.00     0.037 A 
ATOM     46  C   UNL A   1      37.779  32.562  31.499  1.00  0.00     0.037 A 
ATOM     47  C   UNL A   1      42.478  30.407  35.472  1.00  0.00     0.049 A 
ATOM     48  C   UNL A   1      38.269  33.004  32.857  1.00  0.00     0.074 A 
ATOM     49  C   UNL A   1      42.876  30.932  36.688  1.00  0.00     0.029 A 
ATOM     50  N   UNL A   1      41.422  31.190  35.028  1.00  0.00    -0.354 N 
ATOM     51  N   UNL A   1      39.246  32.515  33.585  1.00  0.00    -0.248 NA
ATOM     52  C   UNL A   1      37.569  34.136  33.485  1.00  0.00     0.031 C 
ATOM     53  C   UNL A   1      42.026  31.996  37.007  1.00  0.00     0.029 A 
ATOM     54  C   UNL A   1      41.141  32.178  35.957  1.00  0.00     0.049 A 
ATOM     55  H   UNL A   1      40.942  31.063  34.177  1.00  0.00     0.167 HD
ATOM     56  C   UNL A   1      39.290  33.290  34.741  1.00  0.00     0.074 A 
ATOM     57  C   UNL A   1      38.254  34.294  34.609  1.00  0.00     0.031 C 
ATOM     58  C   UNL A   1      40.113  33.181  35.815  1.00  0.00     0.037 A 
BRANCH  45  59
ATOM     59  C   UNL A   1      44.129  28.491  35.414  1.00  0.00     0.058 A 
ATOM     60  C   UNL A   1      43.880  27.410  36.273  1.00  0.00     0.135 A 
ATOM     61  C   UNL A   1      45.467  28.827  35.154  1.00  0.00     0.135 A 
ATOM     62  F   UNL A   1      42.619  27.059  36.573  1.00  0.00    -0.206 F 
ATOM     63  C   UNL A   1      44.919  26.707  36.876  1.00  0.00     0.059 A 
ATOM     64  C   UNL A   1      46.522  28.118  35.721  1.00  0.00     0.059 A 
ATOM     65  F   UNL A   1      45.762  29.856  34.344  1.00  0.00    -0.206 F 
ATOM     66  C   UNL A   1      46.237  27.069  36.593  1.00  0.00     0.060 A 
BRANCH  66  67
ATOM     67  S   UNL A   1      47.571  26.151  37.388  1.00  0.00     0.124 S 
ATOM     68  O   UNL A   1      47.300  24.791  36.931  1.00  0.00    -0.237 OA
ATOM     69  O   UNL A   1      48.760  26.783  36.826  1.00  0.00    -0.237 OA
ATOM     70  O   UNL A   1      47.350  26.390  38.811  1.00  0.00    -0.744 OA
ENDBRANCH  66  67
ENDBRANCH  45  59
BRANCH  46  71
ATOM     71  C   UNL A   1      36.638  33.266  30.844  1.00  0.00     0.058 A 
ATOM     72  C   UNL A   1      36.848  34.182  29.803  1.00  0.00     0.135 A 
ATOM     73  C   UNL A   1      35.315  33.049  31.262  1.00  0.00     0.135 A 
ATOM     74  F   UNL A   1      38.094  34.442  29.379  1.00  0.00    -0.206 F 
ATOM     75  C   UNL A   1      35.792  34.868  29.208  1.00  0.00     0.059 A 
ATOM     76  C   UNL A   1      34.241  33.697  30.662  1.00  0.00     0.059 A 
ATOM     77  F   UNL A   1      35.056  32.181  32.254  1.00  0.00    -0.206 F 
ATOM     78  C   UNL A   1      34.490  34.613  29.642  1.00  0.00     0.060 A 
BRANCH  78  79
ATOM     79  S   UNL A   1      33.120  35.471  28.833  1.00  0.00     0.124 S 
ATOM     80  O   UNL A   1      32.454  34.373  28.141  1.00  0.00    -0.237 OA
ATOM     81  O   UNL A   1      32.402  36.040  29.968  1.00  0.00    -0.237 OA
ATOM     82  O   UNL A   1      33.793  36.441  27.974  1.00  0.00    -0.744 OA
ENDBRANCH  78  79
ENDBRANCH  46  71
BRANCH  58  83
ATOM     83  C   UNL A   1      39.965  34.193  36.922  1.00  0.00     0.058 A 
ATOM     84  C   UNL A   1      40.603  35.441  36.882  1.00  0.00     0.135 A 
ATOM     85  C   UNL A   1      39.115  33.931  38.012  1.00  0.00     0.135 A 
ATOM     86  F   UNL A   1      41.430  35.746  35.869  1.00  0.00    -0.206 F 
ATOM     87  C   UNL A   1      40.425  36.384  37.891  1.00  0.00     0.059 A 
ATOM     88  C   UNL A   1      38.897  34.871  39.015  1.00  0.00     0.059 A 
ATOM     89  F   UNL A   1      38.469  32.757  38.098  1.00  0.00    -0.206 F 
ATOM     90  C   UNL A   1      39.565  36.091  38.953  1.00  0.00     0.060 A 
BRANCH  90  91
ATOM     91  S   UNL A   1      39.313  37.338  40.234  1.00  0.00     0.124 S 
ATOM     92  O   UNL A   1      38.514  38.332  39.526  1.00  0.00    -0.237 OA
ATOM     93  O   UNL A   1      38.614  36.583  41.270  1.00  0.00    -0.237 OA
ATOM     94  O   UNL A   1      40.669  37.752  40.577  1.00  0.00    -0.744 OA
ENDBRANCH  90  91
ENDBRANCH  58  83
ENDBRANCH  32  33
ENDBRANCH  25  27
ENDBRANCH  24  25
ENDBRANCH  23  24
ENDBRANCH  22  23
ENDBRANCH  21  22
ENDBRANCH   1  21
TORSDOF 22
ENDMDL
MODEL 2
REMARK VINA RESULT:      -9.6      1.668      2.832
REMARK SMILES C[C@@H](C(=O)OCCOCCOCCOC(=O)c1ccc(-c2c3nc(c(-c4c(F)cc(S(=O)(=O)[O-])cc4F)c4ccc([nH]4)c(-c4c(F)cc(S(=O)(=O)[O-])cc4F)c4nc(c(-c5c(F)cc(S(=O)(=O)[O-])cc5F)c5ccc2[nH]5)C=C4)C=C3)cc1)c1cccn(C(F)F)c1=O
REMARK SMILES IDX 10 1 9 2 8 3 7 4 6 5 5 6 3 7 4 8 2 9 1 10 83 11 84 12 91 13
REMARK SMILES IDX 85 14 87 15 92 16 86 17 88 18 89 19 90 20 11 21 12 22 13 23
REMARK SMILES IDX 14 24 15 25 16 26 17 27 18 28 82 29 19 30 81 31 20 32 21 33
REMARK SMILES IDX 22 34 75 35 23 36 80 37 74 38 76 39 24 40 79 41 73 42 72 43
REMARK SMILES IDX 25 45 59 46 38 47 58 48 39 49 42 50 57 51 77 52 40 53 41 54
REMARK SMILES IDX 56 56 78 57 43 58 26 59 27 60 36 61 28 62 29 63 35 64 37 65
REMARK SMILES IDX 30 66 31 67 32 68 33 69 34 70 60 71 61 72 70 73 62 74 63 75
REMARK SMILES IDX 69 76 71 77 64 78 65 79 66 80 67 81 68 82 44 83 45 84 54 85
REMARK SMILES IDX 46 86 47 87 53 88 55 89 48 90 49 91 50 92 51 93 52 94
REMARK H PARENT 76 44 42 55
REMARK Flexibility Score: inf
ROOT
ATOM      1  C   UNL A   1      42.088  20.019  26.416  1.00  0.00     0.188 C 
ENDROOT
BRANCH   1   2
ATOM      2  C   UNL A   1      40.600  20.241  26.104  1.00  0.00     0.188 C 
BRANCH   2   3
ATOM      3  O   UNL A   1      39.917  21.272  26.779  1.00  0.00    -0.376 OA
BRANCH   3   4
ATOM      4  C   UNL A   1      38.815  21.899  26.138  1.00  0.00     0.202 C 
BRANCH   4   5
ATOM      5  C   UNL A   1      37.529  21.143  25.752  1.00  0.00     0.261 C 
BRANCH   5   6
ATOM      6  O   UNL A   1      36.304  21.905  25.725  1.00  0.00    -0.463 OA
BRANCH   6   7
ATOM      7  C   UNL A   1      35.401  21.562  24.761  1.00  0.00     0.313 C 
ATOM      8  O   UNL A   1      34.739  20.529  24.797  1.00  0.00    -0.252 OA
BRANCH   7   9
ATOM      9  C   UNL A   1      35.285  22.566  23.600  1.00  0.00     0.132 C 
ATOM     10  C   UNL A   1      36.559  23.012  22.877  1.00  0.00     0.025 C 
BRANCH   9  11
ATOM     11  C   UNL A   1      34.456  23.767  24.031  1.00  0.00     0.032 A 
ATOM     12  C   UNL A   1      34.806  24.666  24.970  1.00  0.00     0.012 A 
ATOM     13  C   UNL A   1      33.126  23.951  23.350  1.00  0.00     0.259 A 
ATOM     14  C   UNL A   1      33.935  25.738  25.365  1.00  0.00     0.019 A 
ATOM     15  N   UNL A   1      32.327  24.979  23.823  1.00  0.00    -0.258 N 
ATOM     16  O   UNL A   1      32.810  23.215  22.418  1.00  0.00    -0.269 OA
ATOM     17  C   UNL A   1      32.731  25.856  24.807  1.00  0.00     0.095 A 
BRANCH  15  18
ATOM     18  C   UNL A   1      31.023  25.144  23.238  1.00  0.00     0.451 C 
ATOM     19  F   UNL A   1      31.142  25.674  21.994  1.00  0.00    -0.185 F 
ATOM     20  F   UNL A   1      30.438  23.927  23.083  1.00  0.00    -0.185 F 
ENDBRANCH  15  18
ENDBRANCH   9  11
ENDBRANCH   7   9
ENDBRANCH   6   7
ENDBRANCH   5   6
ENDBRANCH   4   5
ENDBRANCH   3   4
ENDBRANCH   2   3
ENDBRANCH   1   2
BRANCH   1  21
ATOM     21  O   UNL A   1      43.081  20.463  25.527  1.00  0.00    -0.376 OA
BRANCH  21  22
ATOM     22  C   UNL A   1      43.554  21.793  25.587  1.00  0.00     0.202 C 
BRANCH  22  23
ATOM     23  C   UNL A   1      42.698  23.048  25.324  1.00  0.00     0.261 C 
BRANCH  23  24
ATOM     24  O   UNL A   1      42.422  23.925  26.419  1.00  0.00    -0.460 OA
BRANCH  24  25
ATOM     25  C   UNL A   1      41.989  25.166  26.084  1.00  0.00     0.338 C 
ATOM     26  O   UNL A   1      41.549  25.519  25.000  1.00  0.00    -0.246 OA
BRANCH  25  27
ATOM     27  C   UNL A   1      41.922  25.989  27.311  1.00  0.00     0.060 A 
ATOM     28  C   UNL A   1      40.904  25.729  28.240  1.00  0.00     0.016 A 
ATOM     29  C   UNL A   1      42.844  27.011  27.547  1.00  0.00     0.016 A 
ATOM     30  C   UNL A   1      40.796  26.504  29.397  1.00  0.00     0.010 A 
ATOM     31  C   UNL A   1      42.720  27.801  28.697  1.00  0.00     0.010 A 
ATOM     32  C   UNL A   1      41.684  27.566  29.618  1.00  0.00    -0.014 A 
BRANCH  32  33
ATOM     33  C   UNL A   1      41.417  28.539  30.709  1.00  0.00     0.031 A 
ATOM     34  C   UNL A   1      42.280  28.487  31.940  1.00  0.00     0.074 A 
ATOM     35  C   UNL A   1      40.439  29.459  30.615  1.00  0.00     0.049 A 
ATOM     36  N   UNL A   1      42.205  29.195  33.037  1.00  0.00    -0.248 NA
ATOM     37  C   UNL A   1      43.366  27.493  31.934  1.00  0.00     0.031 C 
ATOM     38  C   UNL A   1      39.539  29.618  29.477  1.00  0.00     0.029 A 
ATOM     39  N   UNL A   1      40.041  30.433  31.497  1.00  0.00    -0.354 N 
ATOM     40  C   UNL A   1      43.222  28.726  33.858  1.00  0.00     0.074 A 
ATOM     41  C   UNL A   1      43.889  27.661  33.140  1.00  0.00     0.031 C 
ATOM     42  C   UNL A   1      38.710  30.649  29.717  1.00  0.00     0.029 A 
ATOM     43  C   UNL A   1      38.971  31.178  31.056  1.00  0.00     0.049 A 
ATOM     44  H   UNL A   1      40.479  30.586  32.365  1.00  0.00     0.167 HD
ATOM     45  C   UNL A   1      43.567  29.139  35.101  1.00  0.00     0.037 A 
ATOM     46  C   UNL A   1      38.262  32.146  31.674  1.00  0.00     0.037 A 
ATOM     47  C   UNL A   1      42.886  30.179  35.827  1.00  0.00     0.049 A 
ATOM     48  C   UNL A   1      38.622  32.545  33.085  1.00  0.00     0.074 A 
ATOM     49  C   UNL A   1      43.156  30.660  37.096  1.00  0.00     0.029 A 
ATOM     50  N   UNL A   1      41.790  30.890  35.358  1.00  0.00    -0.354 N 
ATOM     51  N   UNL A   1      39.593  32.100  33.848  1.00  0.00    -0.248 NA
ATOM     52  C   UNL A   1      37.780  33.566  33.727  1.00  0.00     0.031 C 
ATOM     53  C   UNL A   1      42.190  31.620  37.416  1.00  0.00     0.029 A 
ATOM     54  C   UNL A   1      41.359  31.787  36.321  1.00  0.00     0.049 A 
ATOM     55  H   UNL A   1      41.379  30.774  34.470  1.00  0.00     0.167 HD
ATOM     56  C   UNL A   1      39.491  32.802  35.047  1.00  0.00     0.074 A 
ATOM     57  C   UNL A   1      38.375  33.713  34.903  1.00  0.00     0.031 C 
ATOM     58  C   UNL A   1      40.252  32.699  36.167  1.00  0.00     0.037 A 
BRANCH  45  59
ATOM     59  C   UNL A   1      44.711  28.429  35.772  1.00  0.00     0.058 A 
ATOM     60  C   UNL A   1      46.035  28.874  35.645  1.00  0.00     0.135 A 
ATOM     61  C   UNL A   1      44.474  27.294  36.566  1.00  0.00     0.135 A 
ATOM     62  F   UNL A   1      46.320  29.941  34.881  1.00  0.00    -0.206 F 
ATOM     63  C   UNL A   1      47.090  28.203  36.257  1.00  0.00     0.059 A 
ATOM     64  C   UNL A   1      45.509  26.627  37.213  1.00  0.00     0.059 A 
ATOM     65  F   UNL A   1      43.227  26.822  36.718  1.00  0.00    -0.206 F 
ATOM     66  C   UNL A   1      46.815  27.080  37.039  1.00  0.00     0.060 A 
BRANCH  66  67
ATOM     67  S   UNL A   1      48.195  26.218  37.820  1.00  0.00     0.124 S 
ATOM     68  O   UNL A   1      48.545  27.143  38.894  1.00  0.00    -0.237 OA
ATOM     69  O   UNL A   1      47.580  24.963  38.240  1.00  0.00    -0.237 OA
ATOM     70  O   UNL A   1      49.178  26.103  36.747  1.00  0.00    -0.744 OA
ENDBRANCH  66  67
ENDBRANCH  45  59
BRANCH  46  71
ATOM     71  C   UNL A   1      37.102  32.784  30.984  1.00  0.00     0.058 A 
ATOM     72  C   UNL A   1      37.290  33.762  29.996  1.00  0.00     0.135 A 
ATOM     73  C   UNL A   1      35.782  32.440  31.315  1.00  0.00     0.135 A 
ATOM     74  F   UNL A   1      38.531  34.143  29.657  1.00  0.00    -0.206 F 
ATOM     75  C   UNL A   1      36.213  34.386  29.370  1.00  0.00     0.059 A 
ATOM     76  C   UNL A   1      34.690  33.024  30.681  1.00  0.00     0.059 A 
ATOM     77  F   UNL A   1      35.544  31.508  32.252  1.00  0.00    -0.206 F 
ATOM     78  C   UNL A   1      34.916  34.005  29.717  1.00  0.00     0.060 A 
BRANCH  78  79
ATOM     79  S   UNL A   1      33.524  34.784  28.867  1.00  0.00     0.124 S 
ATOM     80  O   UNL A   1      34.133  36.015  28.375  1.00  0.00    -0.237 OA
ATOM     81  O   UNL A   1      33.189  33.788  27.855  1.00  0.00    -0.237 OA
ATOM     82  O   UNL A   1      32.534  34.950  29.927  1.00  0.00    -0.744 OA
ENDBRANCH  78  79
ENDBRANCH  46  71
BRANCH  58  83
ATOM     83  C   UNL A   1      39.940  33.622  37.318  1.00  0.00     0.058 A 
ATOM     84  C   UNL A   1      40.575  34.863  37.472  1.00  0.00     0.135 A 
ATOM     85  C   UNL A   1      38.939  33.283  38.245  1.00  0.00     0.135 A 
ATOM     86  F   UNL A   1      41.542  35.238  36.619  1.00  0.00    -0.206 F 
ATOM     87  C   UNL A   1      40.248  35.725  38.516  1.00  0.00     0.059 A 
ATOM     88  C   UNL A   1      38.573  34.142  39.277  1.00  0.00     0.059 A 
ATOM     89  F   UNL A   1      38.289  32.113  38.140  1.00  0.00    -0.206 F 
ATOM     90  C   UNL A   1      39.241  35.357  39.412  1.00  0.00     0.060 A 
BRANCH  90  91
ATOM     91  S   UNL A   1      38.800  36.501  40.737  1.00  0.00     0.124 S 
ATOM     92  O   UNL A   1      40.087  36.704  41.393  1.00  0.00    -0.237 OA
ATOM     93  O   UNL A   1      38.276  37.646  39.999  1.00  0.00    -0.237 OA
ATOM     94  O   UNL A   1      37.812  35.759  41.513  1.00  0.00    -0.744 OA
ENDBRANCH  90  91
ENDBRANCH  58  83
ENDBRANCH  32  33
ENDBRANCH  25  27
ENDBRANCH  24  25
ENDBRANCH  23  24
ENDBRANCH  22  23
ENDBRANCH  21  22
ENDBRANCH   1  21
TORSDOF 22
ENDMDL
MODEL 3
REMARK VINA RESULT:      -9.5      7.055      9.275
REMARK SMILES C[C@@H](C(=O)OCCOCCOCCOC(=O)c1ccc(-c2c3nc(c(-c4c(F)cc(S(=O)(=O)[O-])cc4F)c4ccc([nH]4)c(-c4c(F)cc(S(=O)(=O)[O-])cc4F)c4nc(c(-c5c(F)cc(S(=O)(=O)[O-])cc5F)c5ccc2[nH]5)C=C4)C=C3)cc1)c1cccn(C(F)F)c1=O
REMARK SMILES IDX 10 1 9 2 8 3 7 4 6 5 5 6 3 7 4 8 2 9 1 10 83 11 84 12 91 13
REMARK SMILES IDX 85 14 87 15 92 16 86 17 88 18 89 19 90 20 11 21 12 22 13 23
REMARK SMILES IDX 14 24 15 25 16 26 17 27 18 28 82 29 19 30 81 31 20 32 21 33
REMARK SMILES IDX 22 34 75 35 23 36 80 37 74 38 76 39 24 40 79 41 73 42 72 43
REMARK SMILES IDX 25 45 59 46 38 47 58 48 39 49 42 50 57 51 77 52 40 53 41 54
REMARK SMILES IDX 56 56 78 57 43 58 26 59 27 60 36 61 28 62 29 63 35 64 37 65
REMARK SMILES IDX 30 66 31 67 32 68 33 69 34 70 60 71 61 72 70 73 62 74 63 75
REMARK SMILES IDX 69 76 71 77 64 78 65 79 66 80 67 81 68 82 44 83 45 84 54 85
REMARK SMILES IDX 46 86 47 87 53 88 55 89 48 90 49 91 50 92 51 93 52 94
REMARK H PARENT 76 44 42 55
REMARK Flexibility Score: inf
ROOT
ATOM      1  C   UNL A   1      40.995  20.750  27.255  1.00  0.00     0.188 C 
ENDROOT
BRANCH   1   2
ATOM      2  C   UNL A   1      41.116  22.229  26.858  1.00  0.00     0.188 C 
BRANCH   2   3
ATOM      3  O   UNL A   1      40.500  23.199  27.674  1.00  0.00    -0.376 OA
BRANCH   3   4
ATOM      4  C   UNL A   1      39.211  23.676  27.317  1.00  0.00     0.202 C 
BRANCH   4   5
ATOM      5  C   UNL A   1      38.626  23.532  25.899  1.00  0.00     0.261 C 
BRANCH   5   6
ATOM      6  O   UNL A   1      37.326  24.110  25.665  1.00  0.00    -0.463 OA
BRANCH   6   7
ATOM      7  C   UNL A   1      36.261  23.263  25.775  1.00  0.00     0.313 C 
ATOM      8  O   UNL A   1      35.505  23.255  26.742  1.00  0.00    -0.252 OA
BRANCH   7   9
ATOM      9  C   UNL A   1      36.084  22.294  24.592  1.00  0.00     0.132 C 
ATOM     10  C   UNL A   1      36.493  22.755  23.190  1.00  0.00     0.025 C 
BRANCH   9  11
ATOM     11  C   UNL A   1      34.672  21.727  24.588  1.00  0.00     0.032 A 
ATOM     12  C   UNL A   1      33.539  22.444  24.457  1.00  0.00     0.012 A 
ATOM     13  C   UNL A   1      34.540  20.237  24.758  1.00  0.00     0.259 A 
ATOM     14  C   UNL A   1      32.239  21.838  24.530  1.00  0.00     0.019 A 
ATOM     15  N   UNL A   1      33.252  19.739  24.866  1.00  0.00    -0.258 N 
ATOM     16  O   UNL A   1      35.547  19.533  24.779  1.00  0.00    -0.269 OA
ATOM     17  C   UNL A   1      32.127  20.527  24.747  1.00  0.00     0.095 A 
BRANCH  15  18
ATOM     18  C   UNL A   1      33.091  18.328  25.091  1.00  0.00     0.451 C 
ATOM     19  F   UNL A   1      32.464  18.121  26.278  1.00  0.00    -0.185 F 
ATOM     20  F   UNL A   1      32.281  17.805  24.133  1.00  0.00    -0.185 F 
ENDBRANCH  15  18
ENDBRANCH   9  11
ENDBRANCH   7   9
ENDBRANCH   6   7
ENDBRANCH   5   6
ENDBRANCH   4   5
ENDBRANCH   3   4
ENDBRANCH   2   3
ENDBRANCH   1   2
BRANCH   1  21
ATOM     21  O   UNL A   1      41.380  19.734  26.364  1.00  0.00    -0.376 OA
BRANCH  21  22
ATOM     22  C   UNL A   1      42.581  19.017  26.570  1.00  0.00     0.202 C 
BRANCH  22  23
ATOM     23  C   UNL A   1      43.500  18.495  25.449  1.00  0.00     0.261 C 
BRANCH  23  24
ATOM     24  O   UNL A   1      43.830  19.376  24.373  1.00  0.00    -0.460 OA
BRANCH  24  25
ATOM     25  C   UNL A   1      45.089  19.880  24.391  1.00  0.00     0.338 C 
ATOM     26  O   UNL A   1      46.087  19.374  23.900  1.00  0.00    -0.246 OA
BRANCH  25  27
ATOM     27  C   UNL A   1      45.034  21.265  24.911  1.00  0.00     0.060 A 
ATOM     28  C   UNL A   1      44.663  22.297  24.037  1.00  0.00     0.016 A 
ATOM     29  C   UNL A   1      45.350  21.550  26.240  1.00  0.00     0.016 A 
ATOM     30  C   UNL A   1      44.626  23.619  24.488  1.00  0.00     0.010 A 
ATOM     31  C   UNL A   1      45.335  22.878  26.685  1.00  0.00     0.010 A 
ATOM     32  C   UNL A   1      44.992  23.922  25.807  1.00  0.00    -0.014 A 
BRANCH  32  33
ATOM     33  C   UNL A   1      45.195  25.338  26.210  1.00  0.00     0.031 A 
ATOM     34  C   UNL A   1      46.575  25.924  26.093  1.00  0.00     0.074 A 
ATOM     35  C   UNL A   1      44.181  26.098  26.661  1.00  0.00     0.049 A 
ATOM     36  N   UNL A   1      47.003  27.112  26.429  1.00  0.00    -0.248 NA
ATOM     37  C   UNL A   1      47.612  25.043  25.531  1.00  0.00     0.031 C 
ATOM     38  C   UNL A   1      42.799  25.654  26.817  1.00  0.00     0.029 A 
ATOM     39  N   UNL A   1      44.160  27.408  27.074  1.00  0.00    -0.354 N 
ATOM     40  C   UNL A   1      48.361  27.120  26.134  1.00  0.00     0.074 A 
ATOM     41  C   UNL A   1      48.688  25.812  25.607  1.00  0.00     0.031 C 
ATOM     42  C   UNL A   1      42.057  26.683  27.264  1.00  0.00     0.029 A 
ATOM     43  C   UNL A   1      42.923  27.838  27.498  1.00  0.00     0.049 A 
ATOM     44  H   UNL A   1      44.957  27.987  27.068  1.00  0.00     0.167 HD
ATOM     45  C   UNL A   1      49.257  28.123  26.292  1.00  0.00     0.037 A 
ATOM     46  C   UNL A   1      42.543  29.012  28.044  1.00  0.00     0.037 A 
ATOM     47  C   UNL A   1      48.938  29.415  26.842  1.00  0.00     0.049 A 
ATOM     48  C   UNL A   1      43.572  30.093  28.273  1.00  0.00     0.074 A 
ATOM     49  C   UNL A   1      49.780  30.492  27.051  1.00  0.00     0.029 A 
ATOM     50  N   UNL A   1      47.681  29.803  27.285  1.00  0.00    -0.354 N 
ATOM     51  N   UNL A   1      44.852  30.093  27.980  1.00  0.00    -0.248 NA
ATOM     52  C   UNL A   1      43.110  31.330  28.922  1.00  0.00     0.031 C 
ATOM     53  C   UNL A   1      49.048  31.509  27.672  1.00  0.00     0.029 A 
ATOM     54  C   UNL A   1      47.732  31.093  27.788  1.00  0.00     0.049 A 
ATOM     55  H   UNL A   1      46.871  29.243  27.248  1.00  0.00     0.167 HD
ATOM     56  C   UNL A   1      45.340  31.332  28.388  1.00  0.00     0.074 A 
ATOM     57  C   UNL A   1      44.215  32.064  28.932  1.00  0.00     0.031 C 
ATOM     58  C   UNL A   1      46.605  31.819  28.320  1.00  0.00     0.037 A 
BRANCH  45  59
ATOM     59  C   UNL A   1      50.683  27.844  25.904  1.00  0.00     0.058 A 
ATOM     60  C   UNL A   1      51.118  27.928  24.572  1.00  0.00     0.135 A 
ATOM     61  C   UNL A   1      51.631  27.500  26.882  1.00  0.00     0.135 A 
ATOM     62  F   UNL A   1      50.249  28.232  23.595  1.00  0.00    -0.206 F 
ATOM     63  C   UNL A   1      52.435  27.653  24.219  1.00  0.00     0.059 A 
ATOM     64  C   UNL A   1      52.960  27.252  26.556  1.00  0.00     0.059 A 
ATOM     65  F   UNL A   1      51.269  27.400  28.170  1.00  0.00    -0.206 F 
ATOM     66  C   UNL A   1      53.349  27.315  25.219  1.00  0.00     0.060 A 
BRANCH  66  67
ATOM     67  S   UNL A   1      55.052  26.956  24.742  1.00  0.00     0.124 S 
ATOM     68  O   UNL A   1      55.175  27.722  23.506  1.00  0.00    -0.237 OA
ATOM     69  O   UNL A   1      55.807  27.466  25.881  1.00  0.00    -0.237 OA
ATOM     70  O   UNL A   1      55.063  25.505  24.584  1.00  0.00    -0.744 OA
ENDBRANCH  66  67
ENDBRANCH  45  59
BRANCH  46  71
ATOM     71  C   UNL A   1      41.125  29.222  28.461  1.00  0.00     0.058 A 
ATOM     72  C   UNL A   1      40.759  29.242  29.815  1.00  0.00     0.135 A 
ATOM     73  C   UNL A   1      40.106  29.387  27.509  1.00  0.00     0.135 A 
ATOM     74  F   UNL A   1      41.690  29.069  30.764  1.00  0.00    -0.206 F 
ATOM     75  C   UNL A   1      39.433  29.404  30.212  1.00  0.00     0.059 A 
ATOM     76  C   UNL A   1      38.780  29.583  27.881  1.00  0.00     0.059 A 
ATOM     77  F   UNL A   1      40.400  29.377  26.199  1.00  0.00    -0.206 F 
ATOM     78  C   UNL A   1      38.452  29.579  29.235  1.00  0.00     0.060 A 
BRANCH  78  79
ATOM     79  S   UNL A   1      36.741  29.838  29.759  1.00  0.00     0.124 S 
ATOM     80  O   UNL A   1      36.002  29.319  28.613  1.00  0.00    -0.237 OA
ATOM     81  O   UNL A   1      36.671  29.041  30.978  1.00  0.00    -0.237 OA
ATOM     82  O   UNL A   1      36.666  31.283  29.955  1.00  0.00    -0.744 OA
ENDBRANCH  78  79
ENDBRANCH  46  71
BRANCH  58  83
ATOM     83  C   UNL A   1      46.845  33.226  28.804  1.00  0.00     0.058 A 
ATOM     84  C   UNL A   1      46.706  34.340  27.962  1.00  0.00     0.135 A 
ATOM     85  C   UNL A   1      47.157  33.467  30.154  1.00  0.00     0.135 A 
ATOM     86  F   UNL A   1      46.414  34.171  26.662  1.00  0.00    -0.206 F 
ATOM     87  C   UNL A   1      46.890  35.637  28.432  1.00  0.00     0.059 A 
ATOM     88  C   UNL A   1      47.313  34.757  30.653  1.00  0.00     0.059 A 
ATOM     89  F   UNL A   1      47.291  32.441  31.010  1.00  0.00    -0.206 F 
ATOM     90  C   UNL A   1      47.189  35.836  29.782  1.00  0.00     0.060 A 
BRANCH  90  91
ATOM     91  S   UNL A   1      47.386  37.526  30.386  1.00  0.00     0.124 S 
ATOM     92  O   UNL A   1      48.838  37.650  30.449  1.00  0.00    -0.237 OA
ATOM     93  O   UNL A   1      46.728  38.308  29.344  1.00  0.00    -0.237 OA
ATOM     94  O   UNL A   1      46.701  37.510  31.674  1.00  0.00    -0.744 OA
ENDBRANCH  90  91
ENDBRANCH  58  83
ENDBRANCH  32  33
ENDBRANCH  25  27
ENDBRANCH  24  25
ENDBRANCH  23  24
ENDBRANCH  22  23
ENDBRANCH  21  22
ENDBRANCH   1  21
TORSDOF 22
ENDMDL
