MODEL 1
REMARK VINA RESULT:      -9.6      0.000      0.000
REMARK SMILES C[C@@H]([NH+]1CCC(n2cccc2C(=O)OCCOCCOCCOC(=O)c2ccc(-c3c4nc(c(-c5c(F)cc(S(=O)(=O)[O-])cc5F)c5ccc([nH]5)c(-c5c(F)cc(S(=O)(=O)[O-])cc5F)c5nc(c(-c6c(F)cc(S(=O)(=O)[O-])cc6F)c6ccc3[nH]6)C=C5)C=C4)cc2)CC1)C1(C)CC1
REMARK SMILES IDX 18 1 17 2 16 3 15 4 14 5 12 6 13 7 11 8 7 9 8 10 9 11 10 12
REMARK SMILES IDX 6 13 3 14 4 15 93 16 5 18 92 19 2 20 1 21 94 22 95 23 96 24
REMARK SMILES IDX 97 25 19 26 20 27 21 28 22 29 23 30 24 31 25 32 26 33 27 34
REMARK SMILES IDX 91 35 28 36 90 37 29 38 30 39 31 40 84 41 32 42 89 43 83 44
REMARK SMILES IDX 85 45 33 46 88 47 82 48 81 49 34 51 68 52 47 53 67 54 48 55
REMARK SMILES IDX 51 56 66 57 86 58 49 59 50 60 65 62 87 63 52 64 35 65 36 66
REMARK SMILES IDX 45 67 37 68 38 69 44 70 46 71 39 72 40 73 41 74 42 75 43 76
REMARK SMILES IDX 69 77 70 78 79 79 71 80 72 81 78 82 80 83 73 84 74 85 75 86
REMARK SMILES IDX 76 87 77 88 53 89 54 90 63 91 55 92 56 93 62 94 64 95 57 96
REMARK SMILES IDX 58 97 59 98 60 99 61 100
REMARK H PARENT 3 17 85 50 51 61
REMARK Flexibility Score: inf
ROOT
ATOM      1  C   UNL A   1      34.474  32.372  27.834  1.00  0.00     0.188 C 
ENDROOT
BRANCH   1   2
ATOM      2  O   UNL A   1      33.701  31.184  28.005  1.00  0.00    -0.376 OA
BRANCH   2   3
ATOM      3  C   UNL A   1      33.407  30.373  26.870  1.00  0.00     0.202 C 
BRANCH   3   4
ATOM      4  C   UNL A   1      31.995  30.433  26.261  1.00  0.00     0.261 C 
BRANCH   4   5
ATOM      5  O   UNL A   1      31.645  29.215  25.596  1.00  0.00    -0.459 OA
BRANCH   5   6
ATOM      6  C   UNL A   1      31.690  29.157  24.248  1.00  0.00     0.355 C 
ATOM      7  O   UNL A   1      32.718  29.107  23.584  1.00  0.00    -0.244 OA
BRANCH   6   8
ATOM      8  C   UNL A   1      30.346  28.988  23.726  1.00  0.00     0.127 A 
ATOM      9  N   UNL A   1      29.613  27.829  23.460  1.00  0.00    -0.339 N 
ATOM     10  C   UNL A   1      28.358  28.219  23.010  1.00  0.00     0.086 A 
ATOM     11  C   UNL A   1      28.320  29.583  22.871  1.00  0.00     0.020 A 
ATOM     12  C   UNL A   1      29.552  30.065  23.338  1.00  0.00     0.035 A 
BRANCH   9  13
ATOM     13  C   UNL A   1      29.937  26.402  23.702  1.00  0.00     0.098 C 
ATOM     14  N   UNL A   1      31.924  24.361  24.541  1.00  0.00    -0.332 N 
ATOM     15  C   UNL A   1      31.543  24.476  23.130  1.00  0.00     0.264 C 
ATOM     16  C   UNL A   1      30.724  24.602  25.355  1.00  0.00     0.264 C 
ATOM     17  H   UNL A   1      32.641  25.066  24.720  1.00  0.00     0.348 HD
ATOM     18  C   UNL A   1      31.102  25.908  22.813  1.00  0.00     0.087 C 
ATOM     19  C   UNL A   1      30.237  26.027  25.152  1.00  0.00     0.087 C 
BRANCH  14  20
ATOM     20  C   UNL A   1      32.598  23.099  24.917  1.00  0.00     0.186 C 
ATOM     21  C   UNL A   1      31.990  22.522  26.215  1.00  0.00     0.076 C 
BRANCH  20  22
ATOM     22  C   UNL A   1      34.114  23.246  25.123  1.00  0.00     0.019 C 
ATOM     23  C   UNL A   1      34.600  23.266  26.558  1.00  0.00     0.018 C 
ATOM     24  C   UNL A   1      35.016  22.537  24.124  1.00  0.00     0.013 C 
ATOM     25  C   UNL A   1      34.904  24.029  24.086  1.00  0.00     0.013 C 
ENDBRANCH  20  22
ENDBRANCH  14  20
ENDBRANCH   9  13
ENDBRANCH   6   8
ENDBRANCH   5   6
ENDBRANCH   4   5
ENDBRANCH   3   4
ENDBRANCH   2   3
ENDBRANCH   1   2
BRANCH   1  26
ATOM     26  C   UNL A   1      36.005  32.324  28.042  1.00  0.00     0.188 C 
BRANCH  26  27
ATOM     27  O   UNL A   1      36.414  32.607  29.365  1.00  0.00    -0.376 OA
BRANCH  27  28
ATOM     28  C   UNL A   1      36.116  33.849  29.980  1.00  0.00     0.202 C 
BRANCH  28  29
ATOM     29  C   UNL A   1      34.714  34.140  30.522  1.00  0.00     0.261 C 
BRANCH  29  30
ATOM     30  O   UNL A   1      34.183  33.168  31.400  1.00  0.00    -0.460 OA
BRANCH  30  31
ATOM     31  C   UNL A   1      33.824  33.690  32.585  1.00  0.00     0.338 C 
ATOM     32  O   UNL A   1      32.801  34.298  32.855  1.00  0.00    -0.246 OA
BRANCH  31  33
ATOM     33  C   UNL A   1      34.902  33.484  33.537  1.00  0.00     0.060 A 
ATOM     34  C   UNL A   1      35.378  34.629  34.177  1.00  0.00     0.016 A 
ATOM     35  C   UNL A   1      35.659  32.320  33.361  1.00  0.00     0.016 A 
ATOM     36  C   UNL A   1      36.722  34.695  34.435  1.00  0.00     0.010 A 
ATOM     37  C   UNL A   1      37.010  32.408  33.567  1.00  0.00     0.010 A 
ATOM     38  C   UNL A   1      37.529  33.616  34.048  1.00  0.00    -0.014 A 
BRANCH  38  39
ATOM     39  C   UNL A   1      38.957  33.727  34.315  1.00  0.00     0.031 A 
ATOM     40  C   UNL A   1      39.160  34.069  35.800  1.00  0.00     0.074 A 
ATOM     41  C   UNL A   1      39.765  33.570  33.219  1.00  0.00     0.049 A 
ATOM     42  N   UNL A   1      40.131  34.695  36.379  1.00  0.00    -0.248 NA
ATOM     43  C   UNL A   1      38.077  33.758  36.788  1.00  0.00     0.031 C 
ATOM     44  C   UNL A   1      39.301  33.224  31.847  1.00  0.00     0.029 A 
ATOM     45  N   UNL A   1      41.122  33.671  33.011  1.00  0.00    -0.354 N 
ATOM     46  C   UNL A   1      39.918  34.602  37.772  1.00  0.00     0.074 A 
ATOM     47  C   UNL A   1      38.575  34.161  37.956  1.00  0.00     0.031 C 
ATOM     48  C   UNL A   1      40.327  33.240  30.964  1.00  0.00     0.029 A 
ATOM     49  C   UNL A   1      41.560  33.551  31.659  1.00  0.00     0.049 A 
ATOM     50  H   UNL A   1      41.753  33.817  33.752  1.00  0.00     0.167 HD
ATOM     51  C   UNL A   1      40.926  34.734  38.679  1.00  0.00     0.037 A 
ATOM     52  C   UNL A   1      42.824  33.728  31.153  1.00  0.00     0.037 A 
ATOM     53  C   UNL A   1      42.143  35.011  37.992  1.00  0.00     0.049 A 
ATOM     54  C   UNL A   1      43.672  33.833  32.347  1.00  0.00     0.074 A 
ATOM     55  C   UNL A   1      42.561  36.130  37.320  1.00  0.00     0.029 A 
ATOM     56  N   UNL A   1      42.886  33.924  37.588  1.00  0.00    -0.354 N 
ATOM     57  N   UNL A   1      43.959  32.842  33.137  1.00  0.00    -0.248 NA
ATOM     58  C   UNL A   1      44.147  35.159  32.760  1.00  0.00     0.031 C 
ATOM     59  C   UNL A   1      43.197  35.595  36.185  1.00  0.00     0.029 A 
ATOM     60  C   UNL A   1      43.381  34.214  36.341  1.00  0.00     0.049 A 
ATOM     61  H   UNL A   1      43.033  33.096  38.098  1.00  0.00     0.167 HD
ATOM     62  C   UNL A   1      44.330  33.486  34.290  1.00  0.00     0.074 A 
ATOM     63  C   UNL A   1      44.740  34.820  33.901  1.00  0.00     0.031 C 
ATOM     64  C   UNL A   1      43.761  33.123  35.469  1.00  0.00     0.037 A 
BRANCH  51  65
ATOM     65  C   UNL A   1      41.025  34.397  40.136  1.00  0.00     0.058 A 
ATOM     66  C   UNL A   1      41.062  33.025  40.480  1.00  0.00     0.135 A 
ATOM     67  C   UNL A   1      40.720  35.293  41.170  1.00  0.00     0.135 A 
ATOM     68  F   UNL A   1      41.419  32.098  39.574  1.00  0.00    -0.206 F 
ATOM     69  C   UNL A   1      40.651  32.557  41.720  1.00  0.00     0.059 A 
ATOM     70  C   UNL A   1      40.351  34.846  42.442  1.00  0.00     0.059 A 
ATOM     71  F   UNL A   1      40.685  36.615  40.956  1.00  0.00    -0.206 F 
ATOM     72  C   UNL A   1      40.256  33.476  42.683  1.00  0.00     0.060 A 
BRANCH  72  73
ATOM     73  S   UNL A   1      39.571  32.844  44.226  1.00  0.00     0.124 S 
ATOM     74  O   UNL A   1      40.665  32.013  44.716  1.00  0.00    -0.237 OA
ATOM     75  O   UNL A   1      39.323  34.070  44.979  1.00  0.00    -0.237 OA
ATOM     76  O   UNL A   1      38.375  32.129  43.794  1.00  0.00    -0.744 OA
ENDBRANCH  72  73
ENDBRANCH  51  65
BRANCH  52  77
ATOM     77  C   UNL A   1      43.536  33.926  29.824  1.00  0.00     0.058 A 
ATOM     78  C   UNL A   1      44.612  33.180  29.327  1.00  0.00     0.135 A 
ATOM     79  C   UNL A   1      42.993  34.850  28.877  1.00  0.00     0.135 A 
ATOM     80  F   UNL A   1      45.321  32.376  30.130  1.00  0.00    -0.206 F 
ATOM     81  C   UNL A   1      44.994  33.220  27.967  1.00  0.00     0.059 A 
ATOM     82  C   UNL A   1      43.308  34.863  27.523  1.00  0.00     0.059 A 
ATOM     83  F   UNL A   1      42.083  35.769  29.227  1.00  0.00    -0.206 F 
ATOM     84  C   UNL A   1      44.290  34.014  27.061  1.00  0.00     0.060 A 
BRANCH  84  85
ATOM     85  S   UNL A   1      44.532  33.853  25.277  1.00  0.00     0.124 S 
ATOM     86  O   UNL A   1      44.598  32.406  25.105  1.00  0.00    -0.237 OA
ATOM     87  O   UNL A   1      43.344  34.506  24.736  1.00  0.00    -0.237 OA
ATOM     88  O   UNL A   1      45.783  34.572  25.043  1.00  0.00    -0.744 OA
ENDBRANCH  84  85
ENDBRANCH  52  77
BRANCH  64  89
ATOM     89  C   UNL A   1      43.260  31.683  35.527  1.00  0.00     0.058 A 
ATOM     90  C   UNL A   1      44.160  30.615  35.366  1.00  0.00     0.135 A 
ATOM     91  C   UNL A   1      41.908  31.312  35.645  1.00  0.00     0.135 A 
ATOM     92  F   UNL A   1      45.477  30.862  35.268  1.00  0.00    -0.206 F 
ATOM     93  C   UNL A   1      43.745  29.279  35.308  1.00  0.00     0.059 A 
ATOM     94  C   UNL A   1      41.461  29.987  35.591  1.00  0.00     0.059 A 
ATOM     95  F   UNL A   1      40.969  32.238  35.825  1.00  0.00    -0.206 F 
ATOM     96  C   UNL A   1      42.391  28.971  35.421  1.00  0.00     0.060 A 
BRANCH  96  97
ATOM     97  S   UNL A   1      41.872  27.239  35.376  1.00  0.00     0.124 S 
ATOM     98  O   UNL A   1      43.127  26.540  35.115  1.00  0.00    -0.237 OA
ATOM     99  O   UNL A   1      41.314  27.053  36.712  1.00  0.00    -0.237 OA
ATOM    100  O   UNL A   1      40.901  27.195  34.285  1.00  0.00    -0.744 OA
ENDBRANCH  96  97
ENDBRANCH  64  89
ENDBRANCH  38  39
ENDBRANCH  31  33
ENDBRANCH  30  31
ENDBRANCH  29  30
ENDBRANCH  28  29
ENDBRANCH  27  28
ENDBRANCH  26  27
ENDBRANCH   1  26
TORSDOF 23
ENDMDL
MODEL 2
REMARK VINA RESULT:      -9.2      9.259     15.454
REMARK SMILES C[C@@H]([NH+]1CCC(n2cccc2C(=O)OCCOCCOCCOC(=O)c2ccc(-c3c4nc(c(-c5c(F)cc(S(=O)(=O)[O-])cc5F)c5ccc([nH]5)c(-c5c(F)cc(S(=O)(=O)[O-])cc5F)c5nc(c(-c6c(F)cc(S(=O)(=O)[O-])cc6F)c6ccc3[nH]6)C=C5)C=C4)cc2)CC1)C1(C)CC1
REMARK SMILES IDX 18 1 17 2 16 3 15 4 14 5 12 6 13 7 11 8 7 9 8 10 9 11 10 12
REMARK SMILES IDX 6 13 3 14 4 15 93 16 5 18 92 19 2 20 1 21 94 22 95 23 96 24
REMARK SMILES IDX 97 25 19 26 20 27 21 28 22 29 23 30 24 31 25 32 26 33 27 34
REMARK SMILES IDX 91 35 28 36 90 37 29 38 30 39 31 40 84 41 32 42 89 43 83 44
REMARK SMILES IDX 85 45 33 46 88 47 82 48 81 49 34 51 68 52 47 53 67 54 48 55
REMARK SMILES IDX 51 56 66 57 86 58 49 59 50 60 65 62 87 63 52 64 35 65 36 66
REMARK SMILES IDX 45 67 37 68 38 69 44 70 46 71 39 72 40 73 41 74 42 75 43 76
REMARK SMILES IDX 69 77 70 78 79 79 71 80 72 81 78 82 80 83 73 84 74 85 75 86
REMARK SMILES IDX 76 87 77 88 53 89 54 90 63 91 55 92 56 93 62 94 64 95 57 96
REMARK SMILES IDX 58 97 59 98 60 99 61 100
REMARK H PARENT 3 17 85 50 51 61
REMARK Flexibility Score: inf
ROOT
ATOM      1  C   UNL A   1      46.997  20.980  37.278  1.00  0.00     0.188 C 
ENDROOT
BRANCH   1   2
ATOM      2  O   UNL A   1      45.873  20.182  37.650  1.00  0.00    -0.376 OA
BRANCH   2   3
ATOM      3  C   UNL A   1      45.580  19.001  36.906  1.00  0.00     0.202 C 
BRANCH   3   4
ATOM      4  C   UNL A   1      44.801  17.866  37.593  1.00  0.00     0.261 C 
BRANCH   4   5
ATOM      5  O   UNL A   1      44.944  17.902  39.017  1.00  0.00    -0.459 OA
BRANCH   5   6
ATOM      6  C   UNL A   1      45.501  16.851  39.656  1.00  0.00     0.355 C 
ATOM      7  O   UNL A   1      45.314  15.677  39.364  1.00  0.00    -0.244 OA
BRANCH   6   8
ATOM      8  C   UNL A   1      46.479  17.331  40.615  1.00  0.00     0.127 A 
ATOM      9  N   UNL A   1      46.499  17.253  42.010  1.00  0.00    -0.339 N 
ATOM     10  C   UNL A   1      47.684  17.833  42.447  1.00  0.00     0.086 A 
ATOM     11  C   UNL A   1      48.353  18.377  41.381  1.00  0.00     0.020 A 
ATOM     12  C   UNL A   1      47.613  18.047  40.235  1.00  0.00     0.035 A 
BRANCH   9  13
ATOM     13  C   UNL A   1      45.573  16.584  42.955  1.00  0.00     0.098 C 
ATOM     14  N   UNL A   1      43.719  14.334  43.522  1.00  0.00    -0.332 N 
ATOM     15  C   UNL A   1      43.188  15.681  43.291  1.00  0.00     0.264 C 
ATOM     16  C   UNL A   1      44.973  14.466  44.277  1.00  0.00     0.264 C 
ATOM     17  H   UNL A   1      43.879  13.911  42.607  1.00  0.00     0.348 HD
ATOM     18  C   UNL A   1      44.136  16.481  42.392  1.00  0.00     0.087 C 
ATOM     19  C   UNL A   1      46.007  15.202  43.441  1.00  0.00     0.087 C 
BRANCH  14  20
ATOM     20  C   UNL A   1      42.786  13.386  44.169  1.00  0.00     0.186 C 
ATOM     21  C   UNL A   1      43.414  12.792  45.450  1.00  0.00     0.076 C 
BRANCH  20  22
ATOM     22  C   UNL A   1      42.362  12.221  43.260  1.00  0.00     0.019 C 
ATOM     23  C   UNL A   1      43.109  10.916  43.443  1.00  0.00     0.018 C 
ATOM     24  C   UNL A   1      40.879  12.099  42.945  1.00  0.00     0.013 C 
ATOM     25  C   UNL A   1      41.824  12.553  41.877  1.00  0.00     0.013 C 
ENDBRANCH  20  22
ENDBRANCH  14  20
ENDBRANCH   9  13
ENDBRANCH   6   8
ENDBRANCH   5   6
ENDBRANCH   4   5
ENDBRANCH   3   4
ENDBRANCH   2   3
ENDBRANCH   1   2
BRANCH   1  26
ATOM     26  C   UNL A   1      47.823  21.692  38.373  1.00  0.00     0.188 C 
BRANCH  26  27
ATOM     27  O   UNL A   1      48.336  22.950  37.979  1.00  0.00    -0.376 OA
BRANCH  27  28
ATOM     28  C   UNL A   1      48.189  23.424  36.652  1.00  0.00     0.202 C 
BRANCH  28  29
ATOM     29  C   UNL A   1      47.024  24.342  36.272  1.00  0.00     0.261 C 
BRANCH  29  30
ATOM     30  O   UNL A   1      46.834  25.468  37.105  1.00  0.00    -0.460 OA
BRANCH  30  31
ATOM     31  C   UNL A   1      47.235  26.611  36.522  1.00  0.00     0.338 C 
ATOM     32  O   UNL A   1      48.352  27.103  36.534  1.00  0.00    -0.246 OA
BRANCH  31  33
ATOM     33  C   UNL A   1      46.090  27.251  35.899  1.00  0.00     0.060 A 
ATOM     34  C   UNL A   1      44.882  26.557  35.985  1.00  0.00     0.016 A 
ATOM     35  C   UNL A   1      46.380  28.186  34.900  1.00  0.00     0.016 A 
ATOM     36  C   UNL A   1      44.038  26.625  34.907  1.00  0.00     0.010 A 
ATOM     37  C   UNL A   1      45.564  28.208  33.800  1.00  0.00     0.010 A 
ATOM     38  C   UNL A   1      44.434  27.383  33.797  1.00  0.00    -0.014 A 
BRANCH  38  39
ATOM     39  C   UNL A   1      43.525  27.415  32.659  1.00  0.00     0.031 A 
ATOM     40  C   UNL A   1      42.337  28.331  32.997  1.00  0.00     0.074 A 
ATOM     41  C   UNL A   1      43.883  26.610  31.609  1.00  0.00     0.049 A 
ATOM     42  N   UNL A   1      41.125  28.312  32.548  1.00  0.00    -0.248 NA
ATOM     43  C   UNL A   1      42.481  29.368  34.068  1.00  0.00     0.031 C 
ATOM     44  C   UNL A   1      45.131  25.803  31.527  1.00  0.00     0.029 A 
ATOM     45  N   UNL A   1      43.291  26.287  30.408  1.00  0.00    -0.354 N 
ATOM     46  C   UNL A   1      40.475  29.461  33.050  1.00  0.00     0.074 A 
ATOM     47  C   UNL A   1      41.297  29.980  34.093  1.00  0.00     0.031 C 
ATOM     48  C   UNL A   1      45.148  25.037  30.411  1.00  0.00     0.029 A 
ATOM     49  C   UNL A   1      43.950  25.287  29.634  1.00  0.00     0.049 A 
ATOM     50  H   UNL A   1      42.463  26.721  30.103  1.00  0.00     0.167 HD
ATOM     51  C   UNL A   1      39.379  30.005  32.450  1.00  0.00     0.037 A 
ATOM     52  C   UNL A   1      43.527  24.693  28.471  1.00  0.00     0.037 A 
ATOM     53  C   UNL A   1      39.017  29.211  31.323  1.00  0.00     0.049 A 
ATOM     54  C   UNL A   1      42.357  25.487  28.073  1.00  0.00     0.074 A 
ATOM     55  C   UNL A   1      38.474  27.955  31.246  1.00  0.00     0.029 A 
ATOM     56  N   UNL A   1      39.615  29.531  30.124  1.00  0.00    -0.354 N 
ATOM     57  N   UNL A   1      42.412  26.701  27.614  1.00  0.00    -0.248 NA
ATOM     58  C   UNL A   1      41.018  24.933  28.305  1.00  0.00     0.031 C 
ATOM     59  C   UNL A   1      39.186  27.371  30.182  1.00  0.00     0.029 A 
ATOM     60  C   UNL A   1      39.916  28.350  29.494  1.00  0.00     0.049 A 
ATOM     61  H   UNL A   1      39.793  30.438  29.785  1.00  0.00     0.167 HD
ATOM     62  C   UNL A   1      41.140  27.157  27.845  1.00  0.00     0.074 A 
ATOM     63  C   UNL A   1      40.293  25.985  27.934  1.00  0.00     0.031 C 
ATOM     64  C   UNL A   1      40.961  28.339  28.493  1.00  0.00     0.037 A 
BRANCH  51  65
ATOM     65  C   UNL A   1      38.704  31.335  32.594  1.00  0.00     0.058 A 
ATOM     66  C   UNL A   1      37.721  31.452  33.606  1.00  0.00     0.135 A 
ATOM     67  C   UNL A   1      38.702  32.325  31.601  1.00  0.00     0.135 A 
ATOM     68  F   UNL A   1      37.693  30.594  34.640  1.00  0.00    -0.206 F 
ATOM     69  C   UNL A   1      36.696  32.385  33.542  1.00  0.00     0.059 A 
ATOM     70  C   UNL A   1      37.706  33.304  31.546  1.00  0.00     0.059 A 
ATOM     71  F   UNL A   1      39.606  32.320  30.614  1.00  0.00    -0.206 F 
ATOM     72  C   UNL A   1      36.673  33.282  32.482  1.00  0.00     0.060 A 
BRANCH  72  73
ATOM     73  S   UNL A   1      35.247  34.374  32.327  1.00  0.00     0.124 S 
ATOM     74  O   UNL A   1      35.747  35.600  32.938  1.00  0.00    -0.237 OA
ATOM     75  O   UNL A   1      35.051  34.423  30.881  1.00  0.00    -0.237 OA
ATOM     76  O   UNL A   1      34.205  33.673  33.070  1.00  0.00    -0.744 OA
ENDBRANCH  72  73
ENDBRANCH  51  65
BRANCH  52  77
ATOM     77  C   UNL A   1      43.833  23.491  27.591  1.00  0.00     0.058 A 
ATOM     78  C   UNL A   1      42.908  22.679  26.925  1.00  0.00     0.135 A 
ATOM     79  C   UNL A   1      45.193  23.211  27.248  1.00  0.00     0.135 A 
ATOM     80  F   UNL A   1      41.607  22.716  27.241  1.00  0.00    -0.206 F 
ATOM     81  C   UNL A   1      43.285  21.799  25.886  1.00  0.00     0.059 A 
ATOM     82  C   UNL A   1      45.585  22.400  26.188  1.00  0.00     0.059 A 
ATOM     83  F   UNL A   1      46.218  23.760  27.913  1.00  0.00    -0.206 F 
ATOM     84  C   UNL A   1      44.619  21.719  25.480  1.00  0.00     0.060 A 
BRANCH  84  85
ATOM     85  S   UNL A   1      45.094  20.862  23.961  1.00  0.00     0.124 S 
ATOM     86  O   UNL A   1      44.530  19.533  24.169  1.00  0.00    -0.237 OA
ATOM     87  O   UNL A   1      44.456  21.672  22.928  1.00  0.00    -0.237 OA
ATOM     88  O   UNL A   1      46.553  20.936  23.979  1.00  0.00    -0.744 OA
ENDBRANCH  84  85
ENDBRANCH  52  77
BRANCH  64  89
ATOM     89  C   UNL A   1      42.114  29.329  28.357  1.00  0.00     0.058 A 
ATOM     90  C   UNL A   1      42.500  29.793  27.086  1.00  0.00     0.135 A 
ATOM     91  C   UNL A   1      42.916  29.772  29.423  1.00  0.00     0.135 A 
ATOM     92  F   UNL A   1      41.784  29.445  26.004  1.00  0.00    -0.206 F 
ATOM     93  C   UNL A   1      43.612  30.621  26.890  1.00  0.00     0.059 A 
ATOM     94  C   UNL A   1      44.032  30.600  29.261  1.00  0.00     0.059 A 
ATOM     95  F   UNL A   1      42.630  29.417  30.675  1.00  0.00    -0.206 F 
ATOM     96  C   UNL A   1      44.376  31.021  27.984  1.00  0.00     0.060 A 
BRANCH  96  97
ATOM     97  S   UNL A   1      45.791  32.117  27.719  1.00  0.00     0.124 S 
ATOM     98  O   UNL A   1      45.396  33.323  28.441  1.00  0.00    -0.237 OA
ATOM     99  O   UNL A   1      46.882  31.354  28.316  1.00  0.00    -0.237 OA
ATOM    100  O   UNL A   1      45.853  32.258  26.266  1.00  0.00    -0.744 OA
ENDBRANCH  96  97
ENDBRANCH  64  89
ENDBRANCH  38  39
ENDBRANCH  31  33
ENDBRANCH  30  31
ENDBRANCH  29  30
ENDBRANCH  28  29
ENDBRANCH  27  28
ENDBRANCH  26  27
ENDBRANCH   1  26
TORSDOF 23
ENDMDL
MODEL 3
REMARK VINA RESULT:      -9.0      5.933     14.331
REMARK SMILES C[C@@H]([NH+]1CCC(n2cccc2C(=O)OCCOCCOCCOC(=O)c2ccc(-c3c4nc(c(-c5c(F)cc(S(=O)(=O)[O-])cc5F)c5ccc([nH]5)c(-c5c(F)cc(S(=O)(=O)[O-])cc5F)c5nc(c(-c6c(F)cc(S(=O)(=O)[O-])cc6F)c6ccc3[nH]6)C=C5)C=C4)cc2)CC1)C1(C)CC1
REMARK SMILES IDX 18 1 17 2 16 3 15 4 14 5 12 6 13 7 11 8 7 9 8 10 9 11 10 12
REMARK SMILES IDX 6 13 3 14 4 15 93 16 5 18 92 19 2 20 1 21 94 22 95 23 96 24
REMARK SMILES IDX 97 25 19 26 20 27 21 28 22 29 23 30 24 31 25 32 26 33 27 34
REMARK SMILES IDX 91 35 28 36 90 37 29 38 30 39 31 40 84 41 32 42 89 43 83 44
REMARK SMILES IDX 85 45 33 46 88 47 82 48 81 49 34 51 68 52 47 53 67 54 48 55
REMARK SMILES IDX 51 56 66 57 86 58 49 59 50 60 65 62 87 63 52 64 35 65 36 66
REMARK SMILES IDX 45 67 37 68 38 69 44 70 46 71 39 72 40 73 41 74 42 75 43 76
REMARK SMILES IDX 69 77 70 78 79 79 71 80 72 81 78 82 80 83 73 84 74 85 75 86
REMARK SMILES IDX 76 87 77 88 53 89 54 90 63 91 55 92 56 93 62 94 64 95 57 96
REMARK SMILES IDX 58 97 59 98 60 99 61 100
REMARK H PARENT 3 17 85 50 51 61
REMARK Flexibility Score: inf
ROOT
ATOM      1  C   UNL A   1      39.222  31.543  34.053  1.00  0.00     0.188 C 
ENDROOT
BRANCH   1   2
ATOM      2  O   UNL A   1      40.256  32.497  33.812  1.00  0.00    -0.376 OA
BRANCH   2   3
ATOM      3  C   UNL A   1      40.051  33.857  34.188  1.00  0.00     0.202 C 
BRANCH   3   4
ATOM      4  C   UNL A   1      40.666  34.363  35.505  1.00  0.00     0.261 C 
BRANCH   4   5
ATOM      5  O   UNL A   1      40.065  33.747  36.649  1.00  0.00    -0.459 OA
BRANCH   5   6
ATOM      6  C   UNL A   1      38.877  34.202  37.102  1.00  0.00     0.355 C 
ATOM      7  O   UNL A   1      37.785  33.821  36.703  1.00  0.00    -0.244 OA
BRANCH   6   8
ATOM      8  C   UNL A   1      39.097  35.072  38.243  1.00  0.00     0.127 A 
ATOM      9  N   UNL A   1      38.716  34.933  39.580  1.00  0.00    -0.339 N 
ATOM     10  C   UNL A   1      39.211  36.030  40.275  1.00  0.00     0.086 A 
ATOM     11  C   UNL A   1      39.787  36.911  39.397  1.00  0.00     0.020 A 
ATOM     12  C   UNL A   1      39.736  36.306  38.132  1.00  0.00     0.035 A 
BRANCH   9  13
ATOM     13  C   UNL A   1      38.039  33.816  40.282  1.00  0.00     0.098 C 
ATOM     14  N   UNL A   1      37.883  32.038  42.656  1.00  0.00    -0.332 N 
ATOM     15  C   UNL A   1      38.356  31.508  41.373  1.00  0.00     0.264 C 
ATOM     16  C   UNL A   1      36.804  32.997  42.378  1.00  0.00     0.264 C 
ATOM     17  H   UNL A   1      38.677  32.494  43.107  1.00  0.00     0.348 HD
ATOM     18  C   UNL A   1      38.991  32.624  40.538  1.00  0.00     0.087 C 
ATOM     19  C   UNL A   1      37.349  34.179  41.595  1.00  0.00     0.087 C 
BRANCH  14  20
ATOM     20  C   UNL A   1      37.473  31.023  43.650  1.00  0.00     0.186 C 
ATOM     21  C   UNL A   1      36.009  31.251  44.090  1.00  0.00     0.076 C 
BRANCH  20  22
ATOM     22  C   UNL A   1      38.353  31.003  44.910  1.00  0.00     0.019 C 
ATOM     23  C   UNL A   1      37.876  31.839  46.080  1.00  0.00     0.018 C 
ATOM     24  C   UNL A   1      39.016  29.680  45.265  1.00  0.00     0.013 C 
ATOM     25  C   UNL A   1      39.850  30.803  44.733  1.00  0.00     0.013 C 
ENDBRANCH  20  22
ENDBRANCH  14  20
ENDBRANCH   9  13
ENDBRANCH   6   8
ENDBRANCH   5   6
ENDBRANCH   4   5
ENDBRANCH   3   4
ENDBRANCH   2   3
ENDBRANCH   1   2
BRANCH   1  26
ATOM     26  C   UNL A   1      38.512  30.868  32.857  1.00  0.00     0.188 C 
BRANCH  26  27
ATOM     27  O   UNL A   1      37.361  31.557  32.410  1.00  0.00    -0.376 OA
BRANCH  27  28
ATOM     28  C   UNL A   1      37.445  32.575  31.428  1.00  0.00     0.202 C 
BRANCH  28  29
ATOM     29  C   UNL A   1      36.783  32.400  30.059  1.00  0.00     0.261 C 
BRANCH  29  30
ATOM     30  O   UNL A   1      37.584  31.796  29.063  1.00  0.00    -0.460 OA
BRANCH  30  31
ATOM     31  C   UNL A   1      36.910  30.878  28.350  1.00  0.00     0.338 C 
ATOM     32  O   UNL A   1      35.798  30.982  27.859  1.00  0.00    -0.246 OA
BRANCH  31  33
ATOM     33  C   UNL A   1      37.693  29.655  28.296  1.00  0.00     0.060 A 
ATOM     34  C   UNL A   1      37.591  28.815  29.405  1.00  0.00     0.016 A 
ATOM     35  C   UNL A   1      38.793  29.671  27.431  1.00  0.00     0.016 A 
ATOM     36  C   UNL A   1      38.722  28.147  29.796  1.00  0.00     0.010 A 
ATOM     37  C   UNL A   1      39.937  29.048  27.853  1.00  0.00     0.010 A 
ATOM     38  C   UNL A   1      39.899  28.342  29.061  1.00  0.00    -0.014 A 
BRANCH  38  39
ATOM     39  C   UNL A   1      41.088  27.634  29.516  1.00  0.00     0.031 A 
ATOM     40  C   UNL A   1      41.236  26.336  28.705  1.00  0.00     0.074 A 
ATOM     41  C   UNL A   1      41.749  28.226  30.561  1.00  0.00     0.049 A 
ATOM     42  N   UNL A   1      41.805  25.221  29.027  1.00  0.00    -0.248 NA
ATOM     43  C   UNL A   1      40.569  26.216  27.369  1.00  0.00     0.031 C 
ATOM     44  C   UNL A   1      41.392  29.532  31.180  1.00  0.00     0.029 A 
ATOM     45  N   UNL A   1      42.836  27.870  31.328  1.00  0.00    -0.354 N 
ATOM     46  C   UNL A   1      41.809  24.406  27.873  1.00  0.00     0.074 A 
ATOM     47  C   UNL A   1      40.906  24.999  26.944  1.00  0.00     0.031 C 
ATOM     48  C   UNL A   1      42.172  29.795  32.255  1.00  0.00     0.029 A 
ATOM     49  C   UNL A   1      43.136  28.727  32.427  1.00  0.00     0.049 A 
ATOM     50  H   UNL A   1      43.375  27.071  31.127  1.00  0.00     0.167 HD
ATOM     51  C   UNL A   1      42.694  23.384  27.701  1.00  0.00     0.037 A 
ATOM     52  C   UNL A   1      44.075  28.552  33.413  1.00  0.00     0.037 A 
ATOM     53  C   UNL A   1      43.523  23.280  28.855  1.00  0.00     0.049 A 
ATOM     54  C   UNL A   1      44.865  27.404  32.951  1.00  0.00     0.074 A 
ATOM     55  C   UNL A   1      43.242  22.861  30.129  1.00  0.00     0.029 A 
ATOM     56  N   UNL A   1      44.672  24.040  28.861  1.00  0.00    -0.354 N 
ATOM     57  N   UNL A   1      45.695  27.435  31.952  1.00  0.00    -0.248 NA
ATOM     58  C   UNL A   1      44.635  26.094  33.572  1.00  0.00     0.031 C 
ATOM     59  C   UNL A   1      43.945  23.785  30.925  1.00  0.00     0.029 A 
ATOM     60  C   UNL A   1      44.822  24.536  30.132  1.00  0.00     0.049 A 
ATOM     61  H   UNL A   1      45.271  24.197  28.096  1.00  0.00     0.167 HD
ATOM     62  C   UNL A   1      45.798  26.109  31.618  1.00  0.00     0.074 A 
ATOM     63  C   UNL A   1      45.429  25.358  32.801  1.00  0.00     0.031 C 
ATOM     64  C   UNL A   1      45.616  25.731  30.326  1.00  0.00     0.037 A 
BRANCH  51  65
ATOM     65  C   UNL A   1      43.096  22.588  26.496  1.00  0.00     0.058 A 
ATOM     66  C   UNL A   1      42.631  21.254  26.421  1.00  0.00     0.135 A 
ATOM     67  C   UNL A   1      44.163  22.928  25.652  1.00  0.00     0.135 A 
ATOM     68  F   UNL A   1      41.565  20.856  27.136  1.00  0.00    -0.206 F 
ATOM     69  C   UNL A   1      43.290  20.276  25.690  1.00  0.00     0.059 A 
ATOM     70  C   UNL A   1      44.811  21.968  24.869  1.00  0.00     0.059 A 
ATOM     71  F   UNL A   1      44.660  24.171  25.627  1.00  0.00    -0.206 F 
ATOM     72  C   UNL A   1      44.408  20.636  24.949  1.00  0.00     0.060 A 
BRANCH  72  73
ATOM     73  S   UNL A   1      45.347  19.326  24.141  1.00  0.00     0.124 S 
ATOM     74  O   UNL A   1      46.709  19.839  24.233  1.00  0.00    -0.237 OA
ATOM     75  O   UNL A   1      45.049  18.169  24.981  1.00  0.00    -0.237 OA
ATOM     76  O   UNL A   1      44.774  19.281  22.800  1.00  0.00    -0.744 OA
ENDBRANCH  72  73
ENDBRANCH  51  65
BRANCH  52  77
ATOM     77  C   UNL A   1      44.449  29.096  34.783  1.00  0.00     0.058 A 
ATOM     78  C   UNL A   1      43.575  29.568  35.769  1.00  0.00     0.135 A 
ATOM     79  C   UNL A   1      45.806  28.992  35.223  1.00  0.00     0.135 A 
ATOM     80  F   UNL A   1      42.300  29.858  35.476  1.00  0.00    -0.206 F 
ATOM     81  C   UNL A   1      43.976  29.747  37.112  1.00  0.00     0.059 A 
ATOM     82  C   UNL A   1      46.213  29.100  36.549  1.00  0.00     0.059 A 
ATOM     83  F   UNL A   1      46.809  28.731  34.373  1.00  0.00    -0.206 F 
ATOM     84  C   UNL A   1      45.281  29.444  37.503  1.00  0.00     0.060 A 
BRANCH  84  85
ATOM     85  S   UNL A   1      45.746  29.350  39.248  1.00  0.00     0.124 S 
ATOM     86  O   UNL A   1      45.548  27.935  39.542  1.00  0.00    -0.237 OA
ATOM     87  O   UNL A   1      47.131  29.810  39.231  1.00  0.00    -0.237 OA
ATOM     88  O   UNL A   1      44.807  30.265  39.893  1.00  0.00    -0.744 OA
ENDBRANCH  84  85
ENDBRANCH  52  77
BRANCH  64  89
ATOM     89  C   UNL A   1      45.929  26.805  29.289  1.00  0.00     0.058 A 
ATOM     90  C   UNL A   1      47.220  27.357  29.210  1.00  0.00     0.135 A 
ATOM     91  C   UNL A   1      44.979  27.382  28.426  1.00  0.00     0.135 A 
ATOM     92  F   UNL A   1      48.205  26.860  29.976  1.00  0.00    -0.206 F 
ATOM     93  C   UNL A   1      47.539  28.414  28.349  1.00  0.00     0.059 A 
ATOM     94  C   UNL A   1      45.266  28.439  27.555  1.00  0.00     0.059 A 
ATOM     95  F   UNL A   1      43.729  26.925  28.397  1.00  0.00    -0.206 F 
ATOM     96  C   UNL A   1      46.555  28.953  27.523  1.00  0.00     0.060 A 
BRANCH  96  97
ATOM     97  S   UNL A   1      46.989  30.298  26.394  1.00  0.00     0.124 S 
ATOM     98  O   UNL A   1      48.446  30.325  26.481  1.00  0.00    -0.237 OA
ATOM     99  O   UNL A   1      46.442  29.822  25.128  1.00  0.00    -0.237 OA
ATOM    100  O   UNL A   1      46.314  31.462  26.965  1.00  0.00    -0.744 OA
ENDBRANCH  96  97
ENDBRANCH  64  89
ENDBRANCH  38  39
ENDBRANCH  31  33
ENDBRANCH  30  31
ENDBRANCH  29  30
ENDBRANCH  28  29
ENDBRANCH  27  28
ENDBRANCH  26  27
ENDBRANCH   1  26
TORSDOF 23
ENDMDL
