MODEL 1
REMARK VINA RESULT:     -10.0      0.000      0.000
REMARK SMILES CC(C)[C@H](CNC(=O)[C@H]1CSc2ccccc21)C(=O)OCCOCCOCCOC(=O)c1ccc(-c2c3nc(c(-c4c(F)cc(S(=O)(=O)[O-])cc4F)c4ccc([nH]4)c(-c4c(F)cc(S(=O)(=O)[O-])cc4F)c4nc(c(-c5c(F)cc(S(=O)(=O)[O-])cc5F)c5ccc2[nH]5)C=C4)C=C3)cc1
REMARK SMILES IDX 24 1 23 2 22 3 21 4 20 5 18 6 19 7 4 8 2 9 1 10 3 11 5 12
REMARK SMILES IDX 6 13 7 14 8 16 9 17 10 18 17 19 11 20 12 21 16 22 13 23
REMARK SMILES IDX 15 24 14 25 25 26 26 27 27 28 28 29 29 30 30 31 31 32 32 33
REMARK SMILES IDX 33 34 97 35 34 36 96 37 35 38 36 39 37 40 90 41 38 42 95 43
REMARK SMILES IDX 89 44 91 45 39 46 94 47 88 48 87 49 40 51 74 52 53 53 73 54
REMARK SMILES IDX 54 55 57 56 72 57 92 58 55 59 56 60 71 62 93 63 58 64 41 65
REMARK SMILES IDX 42 66 51 67 43 68 44 69 50 70 52 71 45 72 46 73 47 74 48 75
REMARK SMILES IDX 49 76 75 77 76 78 85 79 77 80 78 81 84 82 86 83 79 84 80 85
REMARK SMILES IDX 81 86 82 87 83 88 59 89 60 90 69 91 61 92 62 93 68 94 70 95
REMARK SMILES IDX 63 96 64 97 65 98 66 99 67 100
REMARK H PARENT 6 15 91 50 57 61
REMARK Flexibility Score: inf
ROOT
ATOM      1  C   UNL A   1      39.152  22.208  25.978  1.00  0.00     0.188 C 
ENDROOT
BRANCH   1   2
ATOM      2  O   UNL A   1      38.040  21.363  25.709  1.00  0.00    -0.376 OA
BRANCH   2   3
ATOM      3  C   UNL A   1      36.768  21.964  25.482  1.00  0.00     0.202 C 
BRANCH   3   4
ATOM      4  C   UNL A   1      35.583  21.007  25.331  1.00  0.00     0.261 C 
BRANCH   4   5
ATOM      5  O   UNL A   1      34.428  21.333  26.155  1.00  0.00    -0.463 OA
BRANCH   5   6
ATOM      6  C   UNL A   1      33.217  21.139  25.583  1.00  0.00     0.311 C 
ATOM      7  O   UNL A   1      32.830  20.024  25.241  1.00  0.00    -0.252 OA
BRANCH   6   8
ATOM      8  C   UNL A   1      32.298  22.371  25.389  1.00  0.00     0.121 C 
BRANCH   8   9
ATOM      9  C   UNL A   1      32.241  22.601  23.830  1.00  0.00    -0.001 C 
ATOM     10  C   UNL A   1      30.978  23.344  23.395  1.00  0.00     0.008 C 
ATOM     11  C   UNL A   1      33.494  23.301  23.277  1.00  0.00     0.008 C 
ENDBRANCH   8   9
BRANCH   8  12
ATOM     12  C   UNL A   1      32.395  23.758  26.088  1.00  0.00     0.131 C 
BRANCH  12  13
ATOM     13  N   UNL A   1      31.247  24.390  26.691  1.00  0.00    -0.355 N 
ATOM     14  C   UNL A   1      30.538  25.461  26.213  1.00  0.00     0.228 C 
ATOM     15  H   UNL A   1      30.938  24.008  27.545  1.00  0.00     0.163 HD
ATOM     16  O   UNL A   1      29.339  25.489  26.512  1.00  0.00    -0.274 OA
BRANCH  14  17
ATOM     17  C   UNL A   1      31.134  26.509  25.267  1.00  0.00     0.120 C 
ATOM     18  C   UNL A   1      30.059  26.866  24.206  1.00  0.00     0.093 C 
ATOM     19  C   UNL A   1      31.561  27.842  25.856  1.00  0.00    -0.021 A 
ATOM     20  S   UNL A   1      30.393  28.543  23.595  1.00  0.00    -0.125 SA
ATOM     21  C   UNL A   1      31.252  28.961  25.079  1.00  0.00     0.011 A 
ATOM     22  C   UNL A   1      32.339  28.040  26.985  1.00  0.00     0.006 A 
ATOM     23  C   UNL A   1      31.652  30.243  25.446  1.00  0.00     0.015 A 
ATOM     24  C   UNL A   1      32.761  29.313  27.368  1.00  0.00     0.000 A 
ATOM     25  C   UNL A   1      32.407  30.418  26.605  1.00  0.00     0.001 A 
ENDBRANCH  14  17
ENDBRANCH  12  13
ENDBRANCH   8  12
ENDBRANCH   6   8
ENDBRANCH   5   6
ENDBRANCH   4   5
ENDBRANCH   3   4
ENDBRANCH   2   3
ENDBRANCH   1   2
BRANCH   1  26
ATOM     26  C   UNL A   1      40.429  21.540  26.479  1.00  0.00     0.188 C 
BRANCH  26  27
ATOM     27  O   UNL A   1      41.510  21.718  25.580  1.00  0.00    -0.376 OA
BRANCH  27  28
ATOM     28  C   UNL A   1      42.773  21.962  26.173  1.00  0.00     0.202 C 
BRANCH  28  29
ATOM     29  C   UNL A   1      43.263  23.368  25.834  1.00  0.00     0.261 C 
BRANCH  29  30
ATOM     30  O   UNL A   1      42.816  24.378  26.757  1.00  0.00    -0.460 OA
BRANCH  30  31
ATOM     31  C   UNL A   1      42.339  25.540  26.249  1.00  0.00     0.338 C 
ATOM     32  O   UNL A   1      41.941  25.737  25.115  1.00  0.00    -0.246 OA
BRANCH  31  33
ATOM     33  C   UNL A   1      42.116  26.448  27.404  1.00  0.00     0.060 A 
ATOM     34  C   UNL A   1      42.834  27.641  27.510  1.00  0.00     0.016 A 
ATOM     35  C   UNL A   1      41.276  26.035  28.451  1.00  0.00     0.016 A 
ATOM     36  C   UNL A   1      42.714  28.421  28.660  1.00  0.00     0.010 A 
ATOM     37  C   UNL A   1      41.162  26.814  29.606  1.00  0.00     0.010 A 
ATOM     38  C   UNL A   1      41.871  28.020  29.710  1.00  0.00    -0.014 A 
BRANCH  38  39
ATOM     39  C   UNL A   1      41.590  28.976  30.805  1.00  0.00     0.031 A 
ATOM     40  C   UNL A   1      40.459  29.958  30.750  1.00  0.00     0.074 A 
ATOM     41  C   UNL A   1      42.377  28.902  31.895  1.00  0.00     0.049 A 
ATOM     42  N   UNL A   1      40.037  30.768  31.686  1.00  0.00    -0.248 NA
ATOM     43  C   UNL A   1      39.708  30.047  29.490  1.00  0.00     0.031 C 
ATOM     44  C   UNL A   1      43.511  27.984  32.042  1.00  0.00     0.029 A 
ATOM     45  N   UNL A   1      42.340  29.582  33.082  1.00  0.00    -0.354 N 
ATOM     46  C   UNL A   1      38.952  31.447  31.146  1.00  0.00     0.074 A 
ATOM     47  C   UNL A   1      38.812  30.986  29.779  1.00  0.00     0.031 C 
ATOM     48  C   UNL A   1      44.041  28.137  33.263  1.00  0.00     0.029 A 
ATOM     49  C   UNL A   1      43.303  29.176  33.973  1.00  0.00     0.049 A 
ATOM     50  H   UNL A   1      41.687  30.292  33.278  1.00  0.00     0.167 HD
ATOM     51  C   UNL A   1      38.145  32.357  31.748  1.00  0.00     0.037 A 
ATOM     52  C   UNL A   1      43.559  29.586  35.230  1.00  0.00     0.037 A 
ATOM     53  C   UNL A   1      38.313  32.822  33.105  1.00  0.00     0.049 A 
ATOM     54  C   UNL A   1      42.675  30.624  35.854  1.00  0.00     0.074 A 
ATOM     55  C   UNL A   1      37.538  33.731  33.806  1.00  0.00     0.029 A 
ATOM     56  N   UNL A   1      39.327  32.423  33.967  1.00  0.00    -0.354 N 
ATOM     57  N   UNL A   1      41.626  31.224  35.345  1.00  0.00    -0.248 NA
ATOM     58  C   UNL A   1      42.998  31.031  37.226  1.00  0.00     0.031 C 
ATOM     59  C   UNL A   1      38.109  33.917  35.070  1.00  0.00     0.029 A 
ATOM     60  C   UNL A   1      39.209  33.082  35.182  1.00  0.00     0.049 A 
ATOM     61  H   UNL A   1      40.028  31.768  33.747  1.00  0.00     0.167 HD
ATOM     62  C   UNL A   1      41.147  32.061  36.345  1.00  0.00     0.074 A 
ATOM     63  C   UNL A   1      42.016  31.881  37.491  1.00  0.00     0.031 C 
ATOM     64  C   UNL A   1      40.081  32.900  36.316  1.00  0.00     0.037 A 
BRANCH  51  65
ATOM     65  C   UNL A   1      36.990  32.911  30.956  1.00  0.00     0.058 A 
ATOM     66  C   UNL A   1      35.667  32.529  31.226  1.00  0.00     0.135 A 
ATOM     67  C   UNL A   1      37.195  33.902  29.980  1.00  0.00     0.135 A 
ATOM     68  F   UNL A   1      35.412  31.581  32.143  1.00  0.00    -0.206 F 
ATOM     69  C   UNL A   1      34.590  33.099  30.554  1.00  0.00     0.059 A 
ATOM     70  C   UNL A   1      36.131  34.504  29.312  1.00  0.00     0.059 A 
ATOM     71  F   UNL A   1      38.439  34.311  29.683  1.00  0.00    -0.206 F 
ATOM     72  C   UNL A   1      34.832  34.089  29.601  1.00  0.00     0.060 A 
BRANCH  72  73
ATOM     73  S   UNL A   1      33.419  34.838  28.759  1.00  0.00     0.124 S 
ATOM     74  O   UNL A   1      33.106  33.825  27.755  1.00  0.00    -0.237 OA
ATOM     75  O   UNL A   1      32.451  34.977  29.841  1.00  0.00    -0.237 OA
ATOM     76  O   UNL A   1      33.956  36.090  28.237  1.00  0.00    -0.744 OA
ENDBRANCH  72  73
ENDBRANCH  51  65
BRANCH  52  77
ATOM     77  C   UNL A   1      44.679  28.968  35.982  1.00  0.00     0.058 A 
ATOM     78  C   UNL A   1      45.958  29.543  35.970  1.00  0.00     0.135 A 
ATOM     79  C   UNL A   1      44.481  27.821  36.766  1.00  0.00     0.135 A 
ATOM     80  F   UNL A   1      46.193  30.640  35.235  1.00  0.00    -0.206 F 
ATOM     81  C   UNL A   1      47.005  28.996  36.702  1.00  0.00     0.059 A 
ATOM     82  C   UNL A   1      45.507  27.272  37.528  1.00  0.00     0.059 A 
ATOM     83  F   UNL A   1      43.268  27.249  36.827  1.00  0.00    -0.206 F 
ATOM     84  C   UNL A   1      46.768  27.864  37.482  1.00  0.00     0.060 A 
BRANCH  84  85
ATOM     85  S   UNL A   1      48.123  27.198  38.472  1.00  0.00     0.124 S 
ATOM     86  O   UNL A   1      48.590  26.102  37.630  1.00  0.00    -0.237 OA
ATOM     87  O   UNL A   1      49.015  28.348  38.579  1.00  0.00    -0.237 OA
ATOM     88  O   UNL A   1      47.468  26.804  39.716  1.00  0.00    -0.744 OA
ENDBRANCH  84  85
ENDBRANCH  52  77
BRANCH  64  89
ATOM     89  C   UNL A   1      39.777  33.670  37.572  1.00  0.00     0.058 A 
ATOM     90  C   UNL A   1      38.877  33.188  38.535  1.00  0.00     0.135 A 
ATOM     91  C   UNL A   1      40.418  34.893  37.830  1.00  0.00     0.135 A 
ATOM     92  F   UNL A   1      38.230  32.028  38.335  1.00  0.00    -0.206 F 
ATOM     93  C   UNL A   1      38.603  33.902  39.698  1.00  0.00     0.059 A 
ATOM     94  C   UNL A   1      40.182  35.611  38.999  1.00  0.00     0.059 A 
ATOM     95  F   UNL A   1      41.293  35.398  36.946  1.00  0.00    -0.206 F 
ATOM     96  C   UNL A   1      39.261  35.113  39.920  1.00  0.00     0.060 A 
BRANCH  96  97
ATOM     97  S   UNL A   1      38.912  36.017  41.444  1.00  0.00     0.124 S 
ATOM     98  O   UNL A   1      40.017  35.594  42.298  1.00  0.00    -0.237 OA
ATOM     99  O   UNL A   1      38.952  37.406  40.998  1.00  0.00    -0.237 OA
ATOM    100  O   UNL A   1      37.594  35.528  41.836  1.00  0.00    -0.744 OA
ENDBRANCH  96  97
ENDBRANCH  64  89
ENDBRANCH  38  39
ENDBRANCH  31  33
ENDBRANCH  30  31
ENDBRANCH  29  30
ENDBRANCH  28  29
ENDBRANCH  27  28
ENDBRANCH  26  27
ENDBRANCH   1  26
TORSDOF 24
ENDMDL
MODEL 2
REMARK VINA RESULT:      -9.6      1.547      8.263
REMARK SMILES CC(C)[C@H](CNC(=O)[C@H]1CSc2ccccc21)C(=O)OCCOCCOCCOC(=O)c1ccc(-c2c3nc(c(-c4c(F)cc(S(=O)(=O)[O-])cc4F)c4ccc([nH]4)c(-c4c(F)cc(S(=O)(=O)[O-])cc4F)c4nc(c(-c5c(F)cc(S(=O)(=O)[O-])cc5F)c5ccc2[nH]5)C=C4)C=C3)cc1
REMARK SMILES IDX 24 1 23 2 22 3 21 4 20 5 18 6 19 7 4 8 2 9 1 10 3 11 5 12
REMARK SMILES IDX 6 13 7 14 8 16 9 17 10 18 17 19 11 20 12 21 16 22 13 23
REMARK SMILES IDX 15 24 14 25 25 26 26 27 27 28 28 29 29 30 30 31 31 32 32 33
REMARK SMILES IDX 33 34 97 35 34 36 96 37 35 38 36 39 37 40 90 41 38 42 95 43
REMARK SMILES IDX 89 44 91 45 39 46 94 47 88 48 87 49 40 51 74 52 53 53 73 54
REMARK SMILES IDX 54 55 57 56 72 57 92 58 55 59 56 60 71 62 93 63 58 64 41 65
REMARK SMILES IDX 42 66 51 67 43 68 44 69 50 70 52 71 45 72 46 73 47 74 48 75
REMARK SMILES IDX 49 76 75 77 76 78 85 79 77 80 78 81 84 82 86 83 79 84 80 85
REMARK SMILES IDX 81 86 82 87 83 88 59 89 60 90 69 91 61 92 62 93 68 94 70 95
REMARK SMILES IDX 63 96 64 97 65 98 66 99 67 100
REMARK H PARENT 6 15 91 50 57 61
REMARK Flexibility Score: inf
ROOT
ATOM      1  C   UNL A   1      36.555  20.115  25.030  1.00  0.00     0.188 C 
ENDROOT
BRANCH   1   2
ATOM      2  O   UNL A   1      35.208  20.552  24.894  1.00  0.00    -0.376 OA
BRANCH   2   3
ATOM      3  C   UNL A   1      34.663  21.399  25.901  1.00  0.00     0.202 C 
BRANCH   3   4
ATOM      4  C   UNL A   1      33.656  22.452  25.429  1.00  0.00     0.261 C 
BRANCH   4   5
ATOM      5  O   UNL A   1      33.082  22.200  24.115  1.00  0.00    -0.463 OA
BRANCH   5   6
ATOM      6  C   UNL A   1      33.473  23.035  23.127  1.00  0.00     0.311 C 
ATOM      7  O   UNL A   1      34.644  23.105  22.759  1.00  0.00    -0.252 OA
BRANCH   6   8
ATOM      8  C   UNL A   1      32.391  23.900  22.433  1.00  0.00     0.121 C 
BRANCH   8   9
ATOM      9  C   UNL A   1      33.188  25.050  21.704  1.00  0.00    -0.001 C 
ATOM     10  C   UNL A   1      32.427  25.619  20.506  1.00  0.00     0.008 C 
ATOM     11  C   UNL A   1      33.619  26.181  22.654  1.00  0.00     0.008 C 
ENDBRANCH   8   9
BRANCH   8  12
ATOM     12  C   UNL A   1      31.107  24.514  23.062  1.00  0.00     0.131 C 
BRANCH  12  13
ATOM     13  N   UNL A   1      30.975  24.716  24.484  1.00  0.00    -0.355 N 
ATOM     14  C   UNL A   1      30.809  25.905  25.146  1.00  0.00     0.228 C 
ATOM     15  H   UNL A   1      31.010  23.906  25.044  1.00  0.00     0.163 HD
ATOM     16  O   UNL A   1      30.169  25.848  26.201  1.00  0.00    -0.274 OA
BRANCH  14  17
ATOM     17  C   UNL A   1      31.270  27.253  24.580  1.00  0.00     0.120 C 
ATOM     18  C   UNL A   1      30.057  27.918  23.875  1.00  0.00     0.093 C 
ATOM     19  C   UNL A   1      31.778  28.300  25.555  1.00  0.00    -0.021 A 
ATOM     20  S   UNL A   1      30.307  29.716  23.884  1.00  0.00    -0.125 SA
ATOM     21  C   UNL A   1      31.367  29.608  25.290  1.00  0.00     0.011 A 
ATOM     22  C   UNL A   1      32.708  28.112  26.566  1.00  0.00     0.006 A 
ATOM     23  C   UNL A   1      31.818  30.687  26.046  1.00  0.00     0.015 A 
ATOM     24  C   UNL A   1      33.183  29.177  27.330  1.00  0.00     0.000 A 
ATOM     25  C   UNL A   1      32.728  30.466  27.079  1.00  0.00     0.001 A 
ENDBRANCH  14  17
ENDBRANCH  12  13
ENDBRANCH   8  12
ENDBRANCH   6   8
ENDBRANCH   5   6
ENDBRANCH   4   5
ENDBRANCH   3   4
ENDBRANCH   2   3
ENDBRANCH   1   2
BRANCH   1  26
ATOM     26  C   UNL A   1      37.625  21.192  25.173  1.00  0.00     0.188 C 
BRANCH  26  27
ATOM     27  O   UNL A   1      37.341  22.333  24.383  1.00  0.00    -0.376 OA
BRANCH  27  28
ATOM     28  C   UNL A   1      37.512  23.587  25.021  1.00  0.00     0.202 C 
BRANCH  28  29
ATOM     29  C   UNL A   1      38.617  23.508  26.072  1.00  0.00     0.261 C 
BRANCH  29  30
ATOM     30  O   UNL A   1      38.710  24.676  26.907  1.00  0.00    -0.460 OA
BRANCH  30  31
ATOM     31  C   UNL A   1      39.833  25.429  26.827  1.00  0.00     0.338 C 
ATOM     32  O   UNL A   1      40.558  25.566  25.858  1.00  0.00    -0.246 OA
BRANCH  31  33
ATOM     33  C   UNL A   1      39.857  26.286  28.041  1.00  0.00     0.060 A 
ATOM     34  C   UNL A   1      40.807  27.302  28.168  1.00  0.00     0.016 A 
ATOM     35  C   UNL A   1      39.002  25.983  29.113  1.00  0.00     0.016 A 
ATOM     36  C   UNL A   1      40.905  28.013  29.362  1.00  0.00     0.010 A 
ATOM     37  C   UNL A   1      39.107  26.692  30.314  1.00  0.00     0.010 A 
ATOM     38  C   UNL A   1      40.051  27.722  30.439  1.00  0.00    -0.014 A 
BRANCH  38  39
ATOM     39  C   UNL A   1      40.024  28.642  31.599  1.00  0.00     0.031 A 
ATOM     40  C   UNL A   1      40.994  28.535  32.736  1.00  0.00     0.074 A 
ATOM     41  C   UNL A   1      39.105  29.625  31.576  1.00  0.00     0.049 A 
ATOM     42  N   UNL A   1      41.151  29.344  33.752  1.00  0.00    -0.248 NA
ATOM     43  C   UNL A   1      41.901  27.380  32.740  1.00  0.00     0.031 C 
ATOM     44  C   UNL A   1      38.109  29.808  30.516  1.00  0.00     0.029 A 
ATOM     45  N   UNL A   1      38.867  30.657  32.442  1.00  0.00    -0.354 N 
ATOM     46  C   UNL A   1      42.192  28.817  34.507  1.00  0.00     0.074 A 
ATOM     47  C   UNL A   1      42.598  27.589  33.852  1.00  0.00     0.031 C 
ATOM     48  C   UNL A   1      37.388  30.907  30.779  1.00  0.00     0.029 A 
ATOM     49  C   UNL A   1      37.853  31.489  32.033  1.00  0.00     0.049 A 
ATOM     50  H   UNL A   1      39.372  30.791  33.276  1.00  0.00     0.167 HD
ATOM     51  C   UNL A   1      42.760  29.327  35.628  1.00  0.00     0.037 A 
ATOM     52  C   UNL A   1      37.357  32.606  32.598  1.00  0.00     0.037 A 
ATOM     53  C   UNL A   1      42.327  30.542  36.279  1.00  0.00     0.049 A 
ATOM     54  C   UNL A   1      37.979  33.122  33.862  1.00  0.00     0.074 A 
ATOM     55  C   UNL A   1      42.849  31.145  37.412  1.00  0.00     0.029 A 
ATOM     56  N   UNL A   1      41.267  31.337  35.863  1.00  0.00    -0.354 N 
ATOM     57  N   UNL A   1      38.991  32.636  34.538  1.00  0.00    -0.248 NA
ATOM     58  C   UNL A   1      37.400  34.344  34.433  1.00  0.00     0.031 C 
ATOM     59  C   UNL A   1      42.077  32.274  37.708  1.00  0.00     0.029 A 
ATOM     60  C   UNL A   1      41.107  32.411  36.728  1.00  0.00     0.049 A 
ATOM     61  H   UNL A   1      40.710  31.164  35.071  1.00  0.00     0.167 HD
ATOM     62  C   UNL A   1      39.190  33.509  35.601  1.00  0.00     0.074 A 
ATOM     63  C   UNL A   1      38.198  34.558  35.471  1.00  0.00     0.031 C 
ATOM     64  C   UNL A   1      40.113  33.448  36.592  1.00  0.00     0.037 A 
BRANCH  51  65
ATOM     65  C   UNL A   1      43.924  28.586  36.231  1.00  0.00     0.058 A 
ATOM     66  C   UNL A   1      43.733  27.434  37.010  1.00  0.00     0.135 A 
ATOM     67  C   UNL A   1      45.246  28.974  35.954  1.00  0.00     0.135 A 
ATOM     68  F   UNL A   1      42.492  27.020  37.312  1.00  0.00    -0.206 F 
ATOM     69  C   UNL A   1      44.808  26.698  37.501  1.00  0.00     0.059 A 
ATOM     70  C   UNL A   1      46.337  28.240  36.415  1.00  0.00     0.059 A 
ATOM     71  F   UNL A   1      45.489  30.065  35.210  1.00  0.00    -0.206 F 
ATOM     72  C   UNL A   1      46.107  27.107  37.195  1.00  0.00     0.060 A 
BRANCH  72  73
ATOM     73  S   UNL A   1      47.489  26.123  37.818  1.00  0.00     0.124 S 
ATOM     74  O   UNL A   1      47.463  24.977  36.915  1.00  0.00    -0.237 OA
ATOM     75  O   UNL A   1      48.616  27.034  37.653  1.00  0.00    -0.237 OA
ATOM     76  O   UNL A   1      47.112  25.840  39.199  1.00  0.00    -0.744 OA
ENDBRANCH  72  73
ENDBRANCH  51  65
BRANCH  52  77
ATOM     77  C   UNL A   1      36.242  33.324  31.933  1.00  0.00     0.058 A 
ATOM     78  C   UNL A   1      34.959  33.343  32.499  1.00  0.00     0.135 A 
ATOM     79  C   UNL A   1      36.448  34.045  30.747  1.00  0.00     0.135 A 
ATOM     80  F   UNL A   1      34.717  32.669  33.633  1.00  0.00    -0.206 F 
ATOM     81  C   UNL A   1      33.916  34.045  31.908  1.00  0.00     0.059 A 
ATOM     82  C   UNL A   1      35.426  34.776  30.151  1.00  0.00     0.059 A 
ATOM     83  F   UNL A   1      37.665  34.075  30.181  1.00  0.00    -0.206 F 
ATOM     84  C   UNL A   1      34.161  34.763  30.736  1.00  0.00     0.060 A 
BRANCH  84  85
ATOM     85  S   UNL A   1      32.811  35.715  30.009  1.00  0.00     0.124 S 
ATOM     86  O   UNL A   1      33.433  37.024  29.842  1.00  0.00    -0.237 OA
ATOM     87  O   UNL A   1      32.542  34.974  28.781  1.00  0.00    -0.237 OA
ATOM     88  O   UNL A   1      31.762  35.639  31.022  1.00  0.00    -0.744 OA
ENDBRANCH  84  85
ENDBRANCH  52  77
BRANCH  64  89
ATOM     89  C   UNL A   1      40.113  34.562  37.603  1.00  0.00     0.058 A 
ATOM     90  C   UNL A   1      40.800  35.765  37.378  1.00  0.00     0.135 A 
ATOM     91  C   UNL A   1      39.390  34.436  38.801  1.00  0.00     0.135 A 
ATOM     92  F   UNL A   1      41.514  35.935  36.253  1.00  0.00    -0.206 F 
ATOM     93  C   UNL A   1      40.792  36.794  38.314  1.00  0.00     0.059 A 
ATOM     94  C   UNL A   1      39.344  35.463  39.739  1.00  0.00     0.059 A 
ATOM     95  F   UNL A   1      38.710  33.310  39.065  1.00  0.00    -0.206 F 
ATOM     96  C   UNL A   1      40.061  36.634  39.492  1.00  0.00     0.060 A 
BRANCH  96  97
ATOM     97  S   UNL A   1      40.042  37.987  40.688  1.00  0.00     0.124 S 
ATOM     98  O   UNL A   1      39.205  38.970  40.007  1.00  0.00    -0.237 OA
ATOM     99  O   UNL A   1      39.451  37.357  41.863  1.00  0.00    -0.237 OA
ATOM    100  O   UNL A   1      41.451  38.346  40.818  1.00  0.00    -0.744 OA
ENDBRANCH  96  97
ENDBRANCH  64  89
ENDBRANCH  38  39
ENDBRANCH  31  33
ENDBRANCH  30  31
ENDBRANCH  29  30
ENDBRANCH  28  29
ENDBRANCH  27  28
ENDBRANCH  26  27
ENDBRANCH   1  26
TORSDOF 24
ENDMDL
MODEL 3
REMARK VINA RESULT:      -9.5      5.149      9.504
REMARK SMILES CC(C)[C@H](CNC(=O)[C@H]1CSc2ccccc21)C(=O)OCCOCCOCCOC(=O)c1ccc(-c2c3nc(c(-c4c(F)cc(S(=O)(=O)[O-])cc4F)c4ccc([nH]4)c(-c4c(F)cc(S(=O)(=O)[O-])cc4F)c4nc(c(-c5c(F)cc(S(=O)(=O)[O-])cc5F)c5ccc2[nH]5)C=C4)C=C3)cc1
REMARK SMILES IDX 24 1 23 2 22 3 21 4 20 5 18 6 19 7 4 8 2 9 1 10 3 11 5 12
REMARK SMILES IDX 6 13 7 14 8 16 9 17 10 18 17 19 11 20 12 21 16 22 13 23
REMARK SMILES IDX 15 24 14 25 25 26 26 27 27 28 28 29 29 30 30 31 31 32 32 33
REMARK SMILES IDX 33 34 97 35 34 36 96 37 35 38 36 39 37 40 90 41 38 42 95 43
REMARK SMILES IDX 89 44 91 45 39 46 94 47 88 48 87 49 40 51 74 52 53 53 73 54
REMARK SMILES IDX 54 55 57 56 72 57 92 58 55 59 56 60 71 62 93 63 58 64 41 65
REMARK SMILES IDX 42 66 51 67 43 68 44 69 50 70 52 71 45 72 46 73 47 74 48 75
REMARK SMILES IDX 49 76 75 77 76 78 85 79 77 80 78 81 84 82 86 83 79 84 80 85
REMARK SMILES IDX 81 86 82 87 83 88 59 89 60 90 69 91 61 92 62 93 68 94 70 95
REMARK SMILES IDX 63 96 64 97 65 98 66 99 67 100
REMARK H PARENT 6 15 91 50 57 61
REMARK Flexibility Score: inf
ROOT
ATOM      1  C   UNL A   1      34.400  19.117  24.622  1.00  0.00     0.188 C 
ENDROOT
BRANCH   1   2
ATOM      2  O   UNL A   1      33.211  19.727  24.135  1.00  0.00    -0.376 OA
BRANCH   2   3
ATOM      3  C   UNL A   1      32.193  20.074  25.070  1.00  0.00     0.202 C 
BRANCH   3   4
ATOM      4  C   UNL A   1      31.925  21.570  25.257  1.00  0.00     0.261 C 
BRANCH   4   5
ATOM      5  O   UNL A   1      31.542  22.276  24.043  1.00  0.00    -0.463 OA
BRANCH   5   6
ATOM      6  C   UNL A   1      32.357  23.286  23.662  1.00  0.00     0.311 C 
ATOM      7  O   UNL A   1      33.066  23.207  22.661  1.00  0.00    -0.252 OA
BRANCH   6   8
ATOM      8  C   UNL A   1      32.360  24.581  24.512  1.00  0.00     0.121 C 
BRANCH   8   9
ATOM      9  C   UNL A   1      30.838  24.928  24.738  1.00  0.00    -0.001 C 
ATOM     10  C   UNL A   1      30.628  25.911  25.891  1.00  0.00     0.008 C 
ATOM     11  C   UNL A   1      30.140  25.436  23.465  1.00  0.00     0.008 C 
ENDBRANCH   8   9
BRANCH   8  12
ATOM     12  C   UNL A   1      33.131  25.905  24.238  1.00  0.00     0.131 C 
BRANCH  12  13
ATOM     13  N   UNL A   1      33.419  26.357  22.899  1.00  0.00    -0.355 N 
ATOM     14  C   UNL A   1      33.542  27.651  22.464  1.00  0.00     0.228 C 
ATOM     15  H   UNL A   1      33.541  25.655  22.219  1.00  0.00     0.163 HD
ATOM     16  O   UNL A   1      34.313  27.829  21.515  1.00  0.00    -0.274 OA
BRANCH  14  17
ATOM     17  C   UNL A   1      32.874  28.840  23.165  1.00  0.00     0.120 C 
ATOM     18  C   UNL A   1      31.359  28.808  22.826  1.00  0.00     0.093 C 
ATOM     19  C   UNL A   1      32.935  28.900  24.681  1.00  0.00    -0.021 A 
ATOM     20  S   UNL A   1      30.458  29.647  24.161  1.00  0.00    -0.125 SA
ATOM     21  C   UNL A   1      31.759  29.321  25.307  1.00  0.00     0.011 A 
ATOM     22  C   UNL A   1      34.059  28.730  25.475  1.00  0.00     0.006 A 
ATOM     23  C   UNL A   1      31.687  29.506  26.685  1.00  0.00     0.015 A 
ATOM     24  C   UNL A   1      34.014  28.919  26.856  1.00  0.00     0.000 A 
ATOM     25  C   UNL A   1      32.823  29.295  27.464  1.00  0.00     0.001 A 
ENDBRANCH  14  17
ENDBRANCH  12  13
ENDBRANCH   8  12
ENDBRANCH   6   8
ENDBRANCH   5   6
ENDBRANCH   4   5
ENDBRANCH   3   4
ENDBRANCH   2   3
ENDBRANCH   1   2
BRANCH   1  26
ATOM     26  C   UNL A   1      35.552  20.041  25.003  1.00  0.00     0.188 C 
BRANCH  26  27
ATOM     27  O   UNL A   1      35.332  21.372  24.571  1.00  0.00    -0.376 OA
BRANCH  27  28
ATOM     28  C   UNL A   1      36.494  22.132  24.289  1.00  0.00     0.202 C 
BRANCH  28  29
ATOM     29  C   UNL A   1      37.709  21.539  24.998  1.00  0.00     0.261 C 
BRANCH  29  30
ATOM     30  O   UNL A   1      38.205  22.349  26.079  1.00  0.00    -0.460 OA
BRANCH  30  31
ATOM     31  C   UNL A   1      39.412  22.036  26.609  1.00  0.00     0.338 C 
ATOM     32  O   UNL A   1      39.988  20.965  26.541  1.00  0.00    -0.246 OA
BRANCH  31  33
ATOM     33  C   UNL A   1      40.035  23.317  27.033  1.00  0.00     0.060 A 
ATOM     34  C   UNL A   1      41.020  23.327  28.023  1.00  0.00     0.016 A 
ATOM     35  C   UNL A   1      39.534  24.526  26.524  1.00  0.00     0.016 A 
ATOM     36  C   UNL A   1      41.503  24.542  28.505  1.00  0.00     0.010 A 
ATOM     37  C   UNL A   1      40.014  25.744  27.014  1.00  0.00     0.010 A 
ATOM     38  C   UNL A   1      41.013  25.758  27.998  1.00  0.00    -0.014 A 
BRANCH  38  39
ATOM     39  C   UNL A   1      41.707  27.015  28.362  1.00  0.00     0.031 A 
ATOM     40  C   UNL A   1      43.149  27.263  28.042  1.00  0.00     0.074 A 
ATOM     41  C   UNL A   1      40.967  27.965  28.965  1.00  0.00     0.049 A 
ATOM     42  N   UNL A   1      43.842  28.361  28.202  1.00  0.00    -0.248 NA
ATOM     43  C   UNL A   1      43.913  26.144  27.474  1.00  0.00     0.031 C 
ATOM     44  C   UNL A   1      39.554  27.816  29.327  1.00  0.00     0.029 A 
ATOM     45  N   UNL A   1      41.283  29.236  29.360  1.00  0.00    -0.354 N 
ATOM     46  C   UNL A   1      45.119  28.082  27.731  1.00  0.00     0.074 A 
ATOM     47  C   UNL A   1      45.115  26.691  27.321  1.00  0.00     0.031 C 
ATOM     48  C   UNL A   1      39.117  28.964  29.862  1.00  0.00     0.029 A 
ATOM     49  C   UNL A   1      40.221  29.918  29.903  1.00  0.00     0.049 A 
ATOM     50  H   UNL A   1      42.182  29.625  29.265  1.00  0.00     0.167 HD
ATOM     51  C   UNL A   1      46.182  28.918  27.637  1.00  0.00     0.037 A 
ATOM     52  C   UNL A   1      40.138  31.177  30.373  1.00  0.00     0.037 A 
ATOM     53  C   UNL A   1      46.174  30.296  28.071  1.00  0.00     0.049 A 
ATOM     54  C   UNL A   1      41.343  32.066  30.294  1.00  0.00     0.074 A 
ATOM     55  C   UNL A   1      47.199  31.227  28.004  1.00  0.00     0.029 A 
ATOM     56  N   UNL A   1      45.094  30.943  28.657  1.00  0.00    -0.354 N 
ATOM     57  N   UNL A   1      42.531  31.800  29.805  1.00  0.00    -0.248 NA
ATOM     58  C   UNL A   1      41.196  33.429  30.818  1.00  0.00     0.031 C 
ATOM     59  C   UNL A   1      46.755  32.416  28.592  1.00  0.00     0.029 A 
ATOM     60  C   UNL A   1      45.435  32.250  28.976  1.00  0.00     0.049 A 
ATOM     61  H   UNL A   1      44.215  30.533  28.824  1.00  0.00     0.167 HD
ATOM     62  C   UNL A   1      43.265  32.973  29.937  1.00  0.00     0.074 A 
ATOM     63  C   UNL A   1      42.384  33.951  30.543  1.00  0.00     0.031 C 
ATOM     64  C   UNL A   1      44.552  33.216  29.584  1.00  0.00     0.037 A 
BRANCH  51  65
ATOM     65  C   UNL A   1      47.453  28.383  27.031  1.00  0.00     0.058 A 
ATOM     66  C   UNL A   1      47.601  28.251  25.641  1.00  0.00     0.135 A 
ATOM     67  C   UNL A   1      48.566  28.085  27.836  1.00  0.00     0.135 A 
ATOM     68  F   UNL A   1      46.569  28.515  24.824  1.00  0.00    -0.206 F 
ATOM     69  C   UNL A   1      48.801  27.834  25.071  1.00  0.00     0.059 A 
ATOM     70  C   UNL A   1      49.783  27.690  27.287  1.00  0.00     0.059 A 
ATOM     71  F   UNL A   1      48.483  28.198  29.171  1.00  0.00    -0.206 F 
ATOM     72  C   UNL A   1      49.888  27.560  25.902  1.00  0.00     0.060 A 
BRANCH  72  73
ATOM     73  S   UNL A   1      51.446  27.048  25.142  1.00  0.00     0.124 S 
ATOM     74  O   UNL A   1      52.422  27.720  25.993  1.00  0.00    -0.237 OA
ATOM     75  O   UNL A   1      51.389  25.596  25.267  1.00  0.00    -0.237 OA
ATOM     76  O   UNL A   1      51.346  27.561  23.779  1.00  0.00    -0.744 OA
ENDBRANCH  72  73
ENDBRANCH  51  65
BRANCH  52  77
ATOM     77  C   UNL A   1      38.846  31.668  30.912  1.00  0.00     0.058 A 
ATOM     78  C   UNL A   1      38.524  31.507  32.267  1.00  0.00     0.135 A 
ATOM     79  C   UNL A   1      37.932  32.353  30.096  1.00  0.00     0.135 A 
ATOM     80  F   UNL A   1      39.368  30.860  33.085  1.00  0.00    -0.206 F 
ATOM     81  C   UNL A   1      37.335  31.998  32.793  1.00  0.00     0.059 A 
ATOM     82  C   UNL A   1      36.749  32.876  30.606  1.00  0.00     0.059 A 
ATOM     83  F   UNL A   1      38.208  32.552  28.797  1.00  0.00    -0.206 F 
ATOM     84  C   UNL A   1      36.457  32.686  31.955  1.00  0.00     0.060 A 
BRANCH  84  85
ATOM     85  S   UNL A   1      34.943  33.367  32.664  1.00  0.00     0.124 S 
ATOM     86  O   UNL A   1      35.078  34.782  32.337  1.00  0.00    -0.237 OA
ATOM     87  O   UNL A   1      33.910  32.638  31.934  1.00  0.00    -0.237 OA
ATOM     88  O   UNL A   1      35.054  33.032  34.080  1.00  0.00    -0.744 OA
ENDBRANCH  84  85
ENDBRANCH  52  77
BRANCH  64  89
ATOM     89  C   UNL A   1      45.080  34.605  29.820  1.00  0.00     0.058 A 
ATOM     90  C   UNL A   1      45.720  34.958  31.017  1.00  0.00     0.135 A 
ATOM     91  C   UNL A   1      44.972  35.587  28.821  1.00  0.00     0.135 A 
ATOM     92  F   UNL A   1      45.844  34.061  32.008  1.00  0.00    -0.206 F 
ATOM     93  C   UNL A   1      46.212  36.243  31.228  1.00  0.00     0.059 A 
ATOM     94  C   UNL A   1      45.481  36.869  28.998  1.00  0.00     0.059 A 
ATOM     95  F   UNL A   1      44.374  35.301  27.653  1.00  0.00    -0.206 F 
ATOM     96  C   UNL A   1      46.088  37.192  30.211  1.00  0.00     0.060 A 
BRANCH  96  97
ATOM     97  S   UNL A   1      46.751  38.848  30.491  1.00  0.00     0.124 S 
ATOM     98  O   UNL A   1      47.376  39.136  29.204  1.00  0.00    -0.237 OA
ATOM     99  O   UNL A   1      45.549  39.617  30.797  1.00  0.00    -0.237 OA
ATOM    100  O   UNL A   1      47.672  38.662  31.608  1.00  0.00    -0.744 OA
ENDBRANCH  96  97
ENDBRANCH  64  89
ENDBRANCH  38  39
ENDBRANCH  31  33
ENDBRANCH  30  31
ENDBRANCH  29  30
ENDBRANCH  28  29
ENDBRANCH  27  28
ENDBRANCH  26  27
ENDBRANCH   1  26
TORSDOF 24
ENDMDL
