MODEL 1
REMARK VINA RESULT:     -10.6      0.000      0.000
REMARK SMILES O=C(OCCOCCOCCOC(=O)c1cc(-c2ccc(F)c(C(F)(F)F)c2)cnc1O)c1ccc(-c2c3nc(c(-c4c(F)cc(S(=O)(=O)[O-])cc4F)c4ccc([nH]4)c(-c4c(F)cc(S(=O)(=O)[O-])cc4F)c4nc(c(-c5c(F)cc(S(=O)(=O)[O-])cc5F)c5ccc2[nH]5)C=C4)C=C3)cc1
REMARK SMILES IDX 7 1 6 2 5 3 4 4 3 5 2 6 1 7 33 8 34 9 98 10 35 11 97 12
REMARK SMILES IDX 36 13 37 14 38 15 91 16 39 17 96 18 90 19 92 20 40 21 95 22
REMARK SMILES IDX 89 23 88 24 41 26 75 27 54 28 74 29 55 30 58 31 73 32 93 33
REMARK SMILES IDX 56 34 57 35 72 37 94 38 59 39 42 40 43 41 52 42 44 43 45 44
REMARK SMILES IDX 51 45 53 46 46 47 47 48 48 49 49 50 50 51 76 52 77 53 86 54
REMARK SMILES IDX 78 55 79 56 85 57 87 58 80 59 81 60 82 61 83 62 84 63 60 64
REMARK SMILES IDX 61 65 70 66 62 67 63 68 69 69 71 70 64 71 65 72 66 73 67 74
REMARK SMILES IDX 68 75 8 76 9 77 10 78 11 79 12 80 13 81 14 82 15 83 16 84
REMARK SMILES IDX 31 85 17 86 30 87 29 88 32 89 18 91 19 92 28 93 20 94 23 95
REMARK SMILES IDX 21 96 22 97 24 98 25 99 26 100 27 101
REMARK H PARENT 92 25 58 36 32 90
REMARK Flexibility Score: inf
ROOT
ATOM      1  C   UNL A   1      38.563  22.106  25.782  1.00  0.00     0.188 C 
ENDROOT
BRANCH   1   2
ATOM      2  O   UNL A   1      39.577  21.369  26.480  1.00  0.00    -0.376 OA
BRANCH   2   3
ATOM      3  C   UNL A   1      40.907  21.731  26.103  1.00  0.00     0.202 C 
BRANCH   3   4
ATOM      4  C   UNL A   1      41.707  22.387  27.230  1.00  0.00     0.261 C 
BRANCH   4   5
ATOM      5  O   UNL A   1      42.593  23.401  26.740  1.00  0.00    -0.460 OA
BRANCH   5   6
ATOM      6  C   UNL A   1      42.314  24.699  26.461  1.00  0.00     0.338 C 
ATOM      7  O   UNL A   1      42.172  25.002  25.275  1.00  0.00    -0.246 OA
BRANCH   6   8
ATOM      8  C   UNL A   1      42.145  25.792  27.481  1.00  0.00     0.060 A 
ATOM      9  C   UNL A   1      40.996  25.705  28.287  1.00  0.00     0.016 A 
ATOM     10  C   UNL A   1      42.977  26.899  27.681  1.00  0.00     0.016 A 
ATOM     11  C   UNL A   1      40.701  26.672  29.256  1.00  0.00     0.010 A 
ATOM     12  C   UNL A   1      42.714  27.843  28.681  1.00  0.00     0.010 A 
ATOM     13  C   UNL A   1      41.571  27.743  29.473  1.00  0.00    -0.014 A 
BRANCH  13  14
ATOM     14  C   UNL A   1      41.354  28.688  30.590  1.00  0.00     0.031 A 
ATOM     15  C   UNL A   1      42.163  28.628  31.850  1.00  0.00     0.074 A 
ATOM     16  C   UNL A   1      40.351  29.577  30.482  1.00  0.00     0.049 A 
ATOM     17  N   UNL A   1      42.160  29.451  32.869  1.00  0.00    -0.248 NA
ATOM     18  C   UNL A   1      43.085  27.495  31.993  1.00  0.00     0.031 C 
ATOM     19  C   UNL A   1      39.447  29.692  29.337  1.00  0.00     0.029 A 
ATOM     20  N   UNL A   1      39.913  30.535  31.356  1.00  0.00    -0.354 N 
ATOM     21  C   UNL A   1      43.140  28.981  33.732  1.00  0.00     0.074 A 
ATOM     22  C   UNL A   1      43.618  27.738  33.183  1.00  0.00     0.031 C 
ATOM     23  C   UNL A   1      38.557  30.664  29.581  1.00  0.00     0.029 A 
ATOM     24  C   UNL A   1      38.821  31.229  30.902  1.00  0.00     0.049 A 
ATOM     25  H   UNL A   1      40.340  30.709  32.226  1.00  0.00     0.167 HD
ATOM     26  C   UNL A   1      43.628  29.550  34.860  1.00  0.00     0.037 A 
ATOM     27  C   UNL A   1      38.108  32.208  31.485  1.00  0.00     0.037 A 
ATOM     28  C   UNL A   1      43.050  30.710  35.480  1.00  0.00     0.049 A 
ATOM     29  C   UNL A   1      38.535  32.725  32.825  1.00  0.00     0.074 A 
ATOM     30  C   UNL A   1      43.445  31.372  36.628  1.00  0.00     0.029 A 
ATOM     31  N   UNL A   1      41.905  31.345  35.024  1.00  0.00    -0.354 N 
ATOM     32  N   UNL A   1      39.561  32.361  33.557  1.00  0.00    -0.248 NA
ATOM     33  C   UNL A   1      37.715  33.788  33.416  1.00  0.00     0.031 C 
ATOM     34  C   UNL A   1      42.502  32.374  36.896  1.00  0.00     0.029 A 
ATOM     35  C   UNL A   1      41.543  32.358  35.894  1.00  0.00     0.049 A 
ATOM     36  H   UNL A   1      41.419  31.109  34.201  1.00  0.00     0.167 HD
ATOM     37  C   UNL A   1      39.525  33.165  34.688  1.00  0.00     0.074 A 
ATOM     38  C   UNL A   1      38.372  34.034  34.542  1.00  0.00     0.031 C 
ATOM     39  C   UNL A   1      40.375  33.190  35.745  1.00  0.00     0.037 A 
BRANCH  26  40
ATOM     40  C   UNL A   1      44.861  28.933  35.463  1.00  0.00     0.058 A 
ATOM     41  C   UNL A   1      46.140  29.338  35.041  1.00  0.00     0.135 A 
ATOM     42  C   UNL A   1      44.786  27.962  36.471  1.00  0.00     0.135 A 
ATOM     43  F   UNL A   1      46.272  30.265  34.078  1.00  0.00    -0.206 F 
ATOM     44  C   UNL A   1      47.300  28.791  35.587  1.00  0.00     0.059 A 
ATOM     45  C   UNL A   1      45.934  27.411  37.043  1.00  0.00     0.059 A 
ATOM     46  F   UNL A   1      43.591  27.538  36.911  1.00  0.00    -0.206 F 
ATOM     47  C   UNL A   1      47.187  27.824  36.586  1.00  0.00     0.060 A 
BRANCH  47  48
ATOM     48  S   UNL A   1      48.699  27.157  37.322  1.00  0.00     0.124 S 
ATOM     49  O   UNL A   1      48.966  28.107  38.397  1.00  0.00    -0.237 OA
ATOM     50  O   UNL A   1      48.281  25.824  37.749  1.00  0.00    -0.237 OA
ATOM     51  O   UNL A   1      49.654  27.181  36.217  1.00  0.00    -0.744 OA
ENDBRANCH  47  48
ENDBRANCH  26  40
BRANCH  27  52
ATOM     52  C   UNL A   1      36.950  32.771  30.751  1.00  0.00     0.058 A 
ATOM     53  C   UNL A   1      35.641  32.449  31.131  1.00  0.00     0.135 A 
ATOM     54  C   UNL A   1      37.129  33.742  29.753  1.00  0.00     0.135 A 
ATOM     55  F   UNL A   1      35.426  31.527  32.081  1.00  0.00    -0.206 F 
ATOM     56  C   UNL A   1      34.545  33.088  30.564  1.00  0.00     0.059 A 
ATOM     57  C   UNL A   1      36.050  34.406  29.183  1.00  0.00     0.059 A 
ATOM     58  F   UNL A   1      38.367  34.097  29.376  1.00  0.00    -0.206 F 
ATOM     59  C   UNL A   1      34.761  34.078  29.602  1.00  0.00     0.060 A 
BRANCH  59  60
ATOM     60  S   UNL A   1      33.337  34.993  28.971  1.00  0.00     0.124 S 
ATOM     61  O   UNL A   1      33.965  36.215  28.483  1.00  0.00    -0.237 OA
ATOM     62  O   UNL A   1      32.820  34.086  27.950  1.00  0.00    -0.237 OA
ATOM     63  O   UNL A   1      32.487  35.145  30.148  1.00  0.00    -0.744 OA
ENDBRANCH  59  60
ENDBRANCH  27  52
BRANCH  39  64
ATOM     64  C   UNL A   1      40.079  34.180  36.832  1.00  0.00     0.058 A 
ATOM     65  C   UNL A   1      40.504  35.513  36.734  1.00  0.00     0.135 A 
ATOM     66  C   UNL A   1      39.340  33.802  37.962  1.00  0.00     0.135 A 
ATOM     67  F   UNL A   1      41.220  35.920  35.675  1.00  0.00    -0.206 F 
ATOM     68  C   UNL A   1      40.224  36.436  37.737  1.00  0.00     0.059 A 
ATOM     69  C   UNL A   1      39.032  34.712  38.967  1.00  0.00     0.059 A 
ATOM     70  F   UNL A   1      38.905  32.538  38.095  1.00  0.00    -0.206 F 
ATOM     71  C   UNL A   1      39.490  36.024  38.850  1.00  0.00     0.060 A 
BRANCH  71  72
ATOM     72  S   UNL A   1      39.119  37.233  40.139  1.00  0.00     0.124 S 
ATOM     73  O   UNL A   1      38.345  36.429  41.079  1.00  0.00    -0.237 OA
ATOM     74  O   UNL A   1      40.449  37.632  40.590  1.00  0.00    -0.237 OA
ATOM     75  O   UNL A   1      38.370  38.265  39.429  1.00  0.00    -0.744 OA
ENDBRANCH  71  72
ENDBRANCH  39  64
ENDBRANCH  13  14
ENDBRANCH   6   8
ENDBRANCH   5   6
ENDBRANCH   4   5
ENDBRANCH   3   4
ENDBRANCH   2   3
ENDBRANCH   1   2
BRANCH   1  76
ATOM     76  C   UNL A   1      37.690  21.152  24.966  1.00  0.00     0.188 C 
BRANCH  76  77
ATOM     77  O   UNL A   1      36.333  21.069  25.410  1.00  0.00    -0.376 OA
BRANCH  77  78
ATOM     78  C   UNL A   1      35.777  22.237  26.005  1.00  0.00     0.202 C 
BRANCH  78  79
ATOM     79  C   UNL A   1      34.317  22.553  25.662  1.00  0.00     0.261 C 
BRANCH  79  80
ATOM     80  O   UNL A   1      33.972  22.463  24.267  1.00  0.00    -0.459 OA
BRANCH  80  81
ATOM     81  C   UNL A   1      34.174  23.603  23.558  1.00  0.00     0.343 C 
ATOM     82  O   UNL A   1      35.071  23.832  22.769  1.00  0.00    -0.246 OA
BRANCH  81  83
ATOM     83  C   UNL A   1      33.158  24.592  23.913  1.00  0.00     0.122 A 
ATOM     84  C   UNL A   1      33.504  25.746  24.634  1.00  0.00     0.031 A 
ATOM     85  C   UNL A   1      31.823  24.313  23.682  1.00  0.00     0.225 A 
ATOM     86  C   UNL A   1      32.490  26.582  25.123  1.00  0.00     0.001 A 
ATOM     87  N   UNL A   1      30.835  25.087  24.154  1.00  0.00    -0.221 NA
ATOM     88  C   UNL A   1      31.178  26.186  24.861  1.00  0.00     0.124 A 
BRANCH  85  89
ATOM     89  O   UNL A   1      31.372  23.273  22.927  1.00  0.00    -0.493 OA
ATOM     90  H   UNL A   1      31.783  23.076  22.109  1.00  0.00     0.295 HD
ENDBRANCH  85  89
BRANCH  86  91
ATOM     91  C   UNL A   1      32.743  27.773  25.941  1.00  0.00    -0.016 A 
ATOM     92  C   UNL A   1      31.734  28.742  26.078  1.00  0.00     0.012 A 
ATOM     93  C   UNL A   1      33.998  28.030  26.524  1.00  0.00     0.025 A 
ATOM     94  C   UNL A   1      31.970  29.936  26.759  1.00  0.00     0.040 A 
ATOM     95  C   UNL A   1      34.246  29.238  27.209  1.00  0.00     0.092 A 
ATOM     96  C   UNL A   1      33.221  30.174  27.310  1.00  0.00     0.135 A 
ATOM     97  F   UNL A   1      33.436  31.337  27.940  1.00  0.00    -0.206 F 
BRANCH  95  98
ATOM     98  C   UNL A   1      35.581  29.586  27.797  1.00  0.00     0.419 C 
ATOM     99  F   UNL A   1      36.535  28.651  27.538  1.00  0.00    -0.166 F 
ATOM    100  F   UNL A   1      36.075  30.770  27.335  1.00  0.00    -0.166 F 
ATOM    101  F   UNL A   1      35.554  29.715  29.153  1.00  0.00    -0.166 F 
ENDBRANCH  95  98
ENDBRANCH  86  91
ENDBRANCH  81  83
ENDBRANCH  80  81
ENDBRANCH  79  80
ENDBRANCH  78  79
ENDBRANCH  77  78
ENDBRANCH  76  77
ENDBRANCH   1  76
TORSDOF 23
ENDMDL
MODEL 2
REMARK VINA RESULT:     -10.3      4.478      5.617
REMARK SMILES O=C(OCCOCCOCCOC(=O)c1cc(-c2ccc(F)c(C(F)(F)F)c2)cnc1O)c1ccc(-c2c3nc(c(-c4c(F)cc(S(=O)(=O)[O-])cc4F)c4ccc([nH]4)c(-c4c(F)cc(S(=O)(=O)[O-])cc4F)c4nc(c(-c5c(F)cc(S(=O)(=O)[O-])cc5F)c5ccc2[nH]5)C=C4)C=C3)cc1
REMARK SMILES IDX 7 1 6 2 5 3 4 4 3 5 2 6 1 7 33 8 34 9 98 10 35 11 97 12
REMARK SMILES IDX 36 13 37 14 38 15 91 16 39 17 96 18 90 19 92 20 40 21 95 22
REMARK SMILES IDX 89 23 88 24 41 26 75 27 54 28 74 29 55 30 58 31 73 32 93 33
REMARK SMILES IDX 56 34 57 35 72 37 94 38 59 39 42 40 43 41 52 42 44 43 45 44
REMARK SMILES IDX 51 45 53 46 46 47 47 48 48 49 49 50 50 51 76 52 77 53 86 54
REMARK SMILES IDX 78 55 79 56 85 57 87 58 80 59 81 60 82 61 83 62 84 63 60 64
REMARK SMILES IDX 61 65 70 66 62 67 63 68 69 69 71 70 64 71 65 72 66 73 67 74
REMARK SMILES IDX 68 75 8 76 9 77 10 78 11 79 12 80 13 81 14 82 15 83 16 84
REMARK SMILES IDX 31 85 17 86 30 87 29 88 32 89 18 91 19 92 28 93 20 94 23 95
REMARK SMILES IDX 21 96 22 97 24 98 25 99 26 100 27 101
REMARK H PARENT 92 25 58 36 32 90
REMARK Flexibility Score: inf
ROOT
ATOM      1  C   UNL A   1      34.198  21.388  26.491  1.00  0.00     0.188 C 
ENDROOT
BRANCH   1   2
ATOM      2  O   UNL A   1      35.620  21.541  26.379  1.00  0.00    -0.376 OA
BRANCH   2   3
ATOM      3  C   UNL A   1      36.160  20.991  25.176  1.00  0.00     0.202 C 
BRANCH   3   4
ATOM      4  C   UNL A   1      37.640  21.315  24.964  1.00  0.00     0.261 C 
BRANCH   4   5
ATOM      5  O   UNL A   1      38.034  22.504  25.660  1.00  0.00    -0.460 OA
BRANCH   5   6
ATOM      6  C   UNL A   1      39.166  22.726  26.373  1.00  0.00     0.338 C 
ATOM      7  O   UNL A   1      39.813  21.737  26.722  1.00  0.00    -0.246 OA
BRANCH   6   8
ATOM      8  C   UNL A   1      39.704  24.077  26.756  1.00  0.00     0.060 A 
ATOM      9  C   UNL A   1      39.668  24.384  28.128  1.00  0.00     0.016 A 
ATOM     10  C   UNL A   1      40.193  25.067  25.897  1.00  0.00     0.016 A 
ATOM     11  C   UNL A   1      40.112  25.618  28.618  1.00  0.00     0.010 A 
ATOM     12  C   UNL A   1      40.683  26.285  26.386  1.00  0.00     0.010 A 
ATOM     13  C   UNL A   1      40.641  26.575  27.749  1.00  0.00    -0.014 A 
BRANCH  13  14
ATOM     14  C   UNL A   1      41.251  27.820  28.265  1.00  0.00     0.031 A 
ATOM     15  C   UNL A   1      42.736  28.017  28.313  1.00  0.00     0.074 A 
ATOM     16  C   UNL A   1      40.436  28.766  28.763  1.00  0.00     0.049 A 
ATOM     17  N   UNL A   1      43.413  29.090  28.638  1.00  0.00    -0.248 NA
ATOM     18  C   UNL A   1      43.569  26.860  27.965  1.00  0.00     0.031 C 
ATOM     19  C   UNL A   1      38.978  28.667  28.837  1.00  0.00     0.029 A 
ATOM     20  N   UNL A   1      40.720  29.983  29.321  1.00  0.00    -0.354 N 
ATOM     21  C   UNL A   1      44.748  28.761  28.450  1.00  0.00     0.074 A 
ATOM     22  C   UNL A   1      44.789  27.361  28.113  1.00  0.00     0.031 C 
ATOM     23  C   UNL A   1      38.495  29.777  29.413  1.00  0.00     0.029 A 
ATOM     24  C   UNL A   1      39.608  30.656  29.758  1.00  0.00     0.049 A 
ATOM     25  H   UNL A   1      41.634  30.341  29.400  1.00  0.00     0.167 HD
ATOM     26  C   UNL A   1      45.841  29.558  28.511  1.00  0.00     0.037 A 
ATOM     27  C   UNL A   1      39.498  31.847  30.373  1.00  0.00     0.037 A 
ATOM     28  C   UNL A   1      45.810  30.914  28.989  1.00  0.00     0.049 A 
ATOM     29  C   UNL A   1      40.731  32.664  30.611  1.00  0.00     0.074 A 
ATOM     30  C   UNL A   1      46.849  31.818  29.110  1.00  0.00     0.029 A 
ATOM     31  N   UNL A   1      44.675  31.537  29.484  1.00  0.00    -0.354 N 
ATOM     32  N   UNL A   1      41.972  32.392  30.286  1.00  0.00    -0.248 NA
ATOM     33  C   UNL A   1      40.550  33.951  31.292  1.00  0.00     0.031 C 
ATOM     34  C   UNL A   1      46.349  32.970  29.733  1.00  0.00     0.029 A 
ATOM     35  C   UNL A   1      44.993  32.795  29.963  1.00  0.00     0.049 A 
ATOM     36  H   UNL A   1      43.773  31.142  29.493  1.00  0.00     0.167 HD
ATOM     37  C   UNL A   1      42.722  33.484  30.703  1.00  0.00     0.074 A 
ATOM     38  C   UNL A   1      41.791  34.419  31.306  1.00  0.00     0.031 C 
ATOM     39  C   UNL A   1      44.057  33.697  30.587  1.00  0.00     0.037 A 
BRANCH  26  40
ATOM     40  C   UNL A   1      47.142  28.983  28.021  1.00  0.00     0.058 A 
ATOM     41  C   UNL A   1      48.043  28.389  28.922  1.00  0.00     0.135 A 
ATOM     42  C   UNL A   1      47.492  28.995  26.664  1.00  0.00     0.135 A 
ATOM     43  F   UNL A   1      47.760  28.349  30.234  1.00  0.00    -0.206 F 
ATOM     44  C   UNL A   1      49.252  27.841  28.496  1.00  0.00     0.059 A 
ATOM     45  C   UNL A   1      48.690  28.440  26.212  1.00  0.00     0.059 A 
ATOM     46  F   UNL A   1      46.669  29.551  25.760  1.00  0.00    -0.206 F 
ATOM     47  C   UNL A   1      49.569  27.875  27.138  1.00  0.00     0.060 A 
BRANCH  47  48
ATOM     48  S   UNL A   1      51.118  27.116  26.590  1.00  0.00     0.124 S 
ATOM     49  O   UNL A   1      51.976  27.285  27.758  1.00  0.00    -0.237 OA
ATOM     50  O   UNL A   1      50.710  25.743  26.301  1.00  0.00    -0.237 OA
ATOM     51  O   UNL A   1      51.490  27.909  25.421  1.00  0.00    -0.744 OA
ENDBRANCH  47  48
ENDBRANCH  26  40
BRANCH  27  52
ATOM     52  C   UNL A   1      38.146  32.325  30.748  1.00  0.00     0.058 A 
ATOM     53  C   UNL A   1      37.678  32.181  32.060  1.00  0.00     0.135 A 
ATOM     54  C   UNL A   1      37.359  33.051  29.841  1.00  0.00     0.135 A 
ATOM     55  F   UNL A   1      38.402  31.496  32.958  1.00  0.00    -0.206 F 
ATOM     56  C   UNL A   1      36.486  32.764  32.471  1.00  0.00     0.059 A 
ATOM     57  C   UNL A   1      36.170  33.655  30.232  1.00  0.00     0.059 A 
ATOM     58  F   UNL A   1      37.780  33.231  28.579  1.00  0.00    -0.206 F 
ATOM     59  C   UNL A   1      35.746  33.514  31.553  1.00  0.00     0.060 A 
BRANCH  59  60
ATOM     60  S   UNL A   1      34.269  34.375  32.133  1.00  0.00     0.124 S 
ATOM     61  O   UNL A   1      34.848  35.510  32.842  1.00  0.00    -0.237 OA
ATOM     62  O   UNL A   1      33.585  34.684  30.880  1.00  0.00    -0.237 OA
ATOM     63  O   UNL A   1      33.605  33.378  32.968  1.00  0.00    -0.744 OA
ENDBRANCH  59  60
ENDBRANCH  27  52
BRANCH  39  64
ATOM     64  C   UNL A   1      44.589  34.987  31.137  1.00  0.00     0.058 A 
ATOM     65  C   UNL A   1      44.592  36.158  30.366  1.00  0.00     0.135 A 
ATOM     66  C   UNL A   1      45.070  35.059  32.453  1.00  0.00     0.135 A 
ATOM     67  F   UNL A   1      44.149  36.136  29.099  1.00  0.00    -0.206 F 
ATOM     68  C   UNL A   1      45.078  37.357  30.875  1.00  0.00     0.059 A 
ATOM     69  C   UNL A   1      45.541  36.251  32.989  1.00  0.00     0.059 A 
ATOM     70  F   UNL A   1      45.078  33.965  33.231  1.00  0.00    -0.206 F 
ATOM     71  C   UNL A   1      45.553  37.393  32.187  1.00  0.00     0.060 A 
BRANCH  71  72
ATOM     72  S   UNL A   1      46.167  38.958  32.845  1.00  0.00     0.124 S 
ATOM     73  O   UNL A   1      45.132  39.290  33.819  1.00  0.00    -0.237 OA
ATOM     74  O   UNL A   1      47.462  38.580  33.402  1.00  0.00    -0.237 OA
ATOM     75  O   UNL A   1      46.225  39.820  31.669  1.00  0.00    -0.744 OA
ENDBRANCH  71  72
ENDBRANCH  39  64
ENDBRANCH  13  14
ENDBRANCH   6   8
ENDBRANCH   5   6
ENDBRANCH   4   5
ENDBRANCH   3   4
ENDBRANCH   2   3
ENDBRANCH   1   2
BRANCH   1  76
ATOM     76  C   UNL A   1      33.639  20.738  25.225  1.00  0.00     0.188 C 
BRANCH  76  77
ATOM     77  O   UNL A   1      32.951  21.640  24.354  1.00  0.00    -0.376 OA
BRANCH  77  78
ATOM     78  C   UNL A   1      32.390  22.807  24.947  1.00  0.00     0.202 C 
BRANCH  78  79
ATOM     79  C   UNL A   1      31.530  23.692  24.037  1.00  0.00     0.261 C 
BRANCH  79  80
ATOM     80  O   UNL A   1      32.035  23.892  22.704  1.00  0.00    -0.459 OA
BRANCH  80  81
ATOM     81  C   UNL A   1      33.083  24.751  22.618  1.00  0.00     0.343 C 
ATOM     82  O   UNL A   1      34.261  24.469  22.504  1.00  0.00    -0.246 OA
BRANCH  81  83
ATOM     83  C   UNL A   1      32.604  26.127  22.734  1.00  0.00     0.122 A 
ATOM     84  C   UNL A   1      32.969  26.922  23.833  1.00  0.00     0.031 A 
ATOM     85  C   UNL A   1      31.656  26.598  21.843  1.00  0.00     0.225 A 
ATOM     86  C   UNL A   1      32.351  28.166  24.019  1.00  0.00     0.001 A 
ATOM     87  N   UNL A   1      31.039  27.777  22.008  1.00  0.00    -0.221 NA
ATOM     88  C   UNL A   1      31.384  28.526  23.079  1.00  0.00     0.124 A 
BRANCH  85  89
ATOM     89  O   UNL A   1      31.286  25.957  20.701  1.00  0.00    -0.493 OA
ATOM     90  H   UNL A   1      31.877  25.360  20.286  1.00  0.00     0.295 HD
ENDBRANCH  85  89
BRANCH  86  91
ATOM     91  C   UNL A   1      32.613  29.041  25.167  1.00  0.00    -0.016 A 
ATOM     92  C   UNL A   1      31.662  30.012  25.524  1.00  0.00     0.012 A 
ATOM     93  C   UNL A   1      33.829  29.006  25.874  1.00  0.00     0.025 A 
ATOM     94  C   UNL A   1      31.919  30.931  26.541  1.00  0.00     0.040 A 
ATOM     95  C   UNL A   1      34.099  29.936  26.900  1.00  0.00     0.092 A 
ATOM     96  C   UNL A   1      33.133  30.889  27.212  1.00  0.00     0.135 A 
ATOM     97  F   UNL A   1      33.370  31.794  28.170  1.00  0.00    -0.206 F 
BRANCH  95  98
ATOM     98  C   UNL A   1      35.400  29.980  27.643  1.00  0.00     0.419 C 
ATOM     99  F   UNL A   1      35.244  29.881  28.991  1.00  0.00    -0.166 F 
ATOM    100  F   UNL A   1      36.253  28.979  27.285  1.00  0.00    -0.166 F 
ATOM    101  F   UNL A   1      36.097  31.132  27.440  1.00  0.00    -0.166 F 
ENDBRANCH  95  98
ENDBRANCH  86  91
ENDBRANCH  81  83
ENDBRANCH  80  81
ENDBRANCH  79  80
ENDBRANCH  78  79
ENDBRANCH  77  78
ENDBRANCH  76  77
ENDBRANCH   1  76
TORSDOF 23
ENDMDL
MODEL 3
REMARK VINA RESULT:     -10.1      5.936     12.045
REMARK SMILES O=C(OCCOCCOCCOC(=O)c1cc(-c2ccc(F)c(C(F)(F)F)c2)cnc1O)c1ccc(-c2c3nc(c(-c4c(F)cc(S(=O)(=O)[O-])cc4F)c4ccc([nH]4)c(-c4c(F)cc(S(=O)(=O)[O-])cc4F)c4nc(c(-c5c(F)cc(S(=O)(=O)[O-])cc5F)c5ccc2[nH]5)C=C4)C=C3)cc1
REMARK SMILES IDX 7 1 6 2 5 3 4 4 3 5 2 6 1 7 33 8 34 9 98 10 35 11 97 12
REMARK SMILES IDX 36 13 37 14 38 15 91 16 39 17 96 18 90 19 92 20 40 21 95 22
REMARK SMILES IDX 89 23 88 24 41 26 75 27 54 28 74 29 55 30 58 31 73 32 93 33
REMARK SMILES IDX 56 34 57 35 72 37 94 38 59 39 42 40 43 41 52 42 44 43 45 44
REMARK SMILES IDX 51 45 53 46 46 47 47 48 48 49 49 50 50 51 76 52 77 53 86 54
REMARK SMILES IDX 78 55 79 56 85 57 87 58 80 59 81 60 82 61 83 62 84 63 60 64
REMARK SMILES IDX 61 65 70 66 62 67 63 68 69 69 71 70 64 71 65 72 66 73 67 74
REMARK SMILES IDX 68 75 8 76 9 77 10 78 11 79 12 80 13 81 14 82 15 83 16 84
REMARK SMILES IDX 31 85 17 86 30 87 29 88 32 89 18 91 19 92 28 93 20 94 23 95
REMARK SMILES IDX 21 96 22 97 24 98 25 99 26 100 27 101
REMARK H PARENT 92 25 58 36 32 90
REMARK Flexibility Score: inf
ROOT
ATOM      1  C   UNL A   1      35.229  34.159  33.809  1.00  0.00     0.188 C 
ENDROOT
BRANCH   1   2
ATOM      2  O   UNL A   1      35.894  33.034  34.399  1.00  0.00    -0.376 OA
BRANCH   2   3
ATOM      3  C   UNL A   1      37.220  32.831  33.905  1.00  0.00     0.202 C 
BRANCH   3   4
ATOM      4  C   UNL A   1      37.290  32.666  32.386  1.00  0.00     0.261 C 
BRANCH   4   5
ATOM      5  O   UNL A   1      36.434  31.616  31.920  1.00  0.00    -0.460 OA
BRANCH   5   6
ATOM      6  C   UNL A   1      36.781  30.453  31.316  1.00  0.00     0.338 C 
ATOM      7  O   UNL A   1      35.920  29.573  31.252  1.00  0.00    -0.246 OA
BRANCH   6   8
ATOM      8  C   UNL A   1      38.121  30.156  30.701  1.00  0.00     0.060 A 
ATOM      9  C   UNL A   1      39.135  29.774  31.597  1.00  0.00     0.016 A 
ATOM     10  C   UNL A   1      38.474  30.260  29.351  1.00  0.00     0.016 A 
ATOM     11  C   UNL A   1      40.436  29.497  31.162  1.00  0.00     0.010 A 
ATOM     12  C   UNL A   1      39.761  29.937  28.903  1.00  0.00     0.010 A 
ATOM     13  C   UNL A   1      40.756  29.560  29.803  1.00  0.00    -0.014 A 
BRANCH  13  14
ATOM     14  C   UNL A   1      42.082  29.125  29.311  1.00  0.00     0.031 A 
ATOM     15  C   UNL A   1      43.239  30.072  29.203  1.00  0.00     0.074 A 
ATOM     16  C   UNL A   1      42.216  27.856  28.888  1.00  0.00     0.049 A 
ATOM     17  N   UNL A   1      44.484  29.815  28.891  1.00  0.00    -0.248 NA
ATOM     18  C   UNL A   1      42.963  31.489  29.467  1.00  0.00     0.031 C 
ATOM     19  C   UNL A   1      41.148  26.856  28.876  1.00  0.00     0.029 A 
ATOM     20  N   UNL A   1      43.298  27.201  28.367  1.00  0.00    -0.354 N 
ATOM     21  C   UNL A   1      45.156  31.024  29.006  1.00  0.00     0.074 A 
ATOM     22  C   UNL A   1      44.161  32.028  29.284  1.00  0.00     0.031 C 
ATOM     23  C   UNL A   1      41.629  25.712  28.367  1.00  0.00     0.029 A 
ATOM     24  C   UNL A   1      43.031  25.905  28.008  1.00  0.00     0.049 A 
ATOM     25  H   UNL A   1      44.183  27.619  28.261  1.00  0.00     0.167 HD
ATOM     26  C   UNL A   1      46.484  31.274  28.927  1.00  0.00     0.037 A 
ATOM     27  C   UNL A   1      43.824  24.976  27.447  1.00  0.00     0.037 A 
ATOM     28  C   UNL A   1      47.453  30.300  28.506  1.00  0.00     0.049 A 
ATOM     29  C   UNL A   1      45.263  25.304  27.185  1.00  0.00     0.074 A 
ATOM     30  C   UNL A   1      48.823  30.434  28.374  1.00  0.00     0.029 A 
ATOM     31  N   UNL A   1      47.133  29.017  28.088  1.00  0.00    -0.354 N 
ATOM     32  N   UNL A   1      45.912  26.415  27.443  1.00  0.00    -0.248 NA
ATOM     33  C   UNL A   1      46.079  24.255  26.565  1.00  0.00     0.031 C 
ATOM     34  C   UNL A   1      49.323  29.247  27.821  1.00  0.00     0.029 A 
ATOM     35  C   UNL A   1      48.269  28.363  27.646  1.00  0.00     0.049 A 
ATOM     36  H   UNL A   1      46.229  28.628  28.104  1.00  0.00     0.167 HD
ATOM     37  C   UNL A   1      47.221  26.193  27.037  1.00  0.00     0.074 A 
ATOM     38  C   UNL A   1      47.268  24.840  26.514  1.00  0.00     0.031 C 
ATOM     39  C   UNL A   1      48.288  27.028  27.101  1.00  0.00     0.037 A 
BRANCH  26  40
ATOM     40  C   UNL A   1      46.953  32.645  29.335  1.00  0.00     0.058 A 
ATOM     41  C   UNL A   1      47.030  33.683  28.389  1.00  0.00     0.135 A 
ATOM     42  C   UNL A   1      47.304  32.944  30.659  1.00  0.00     0.135 A 
ATOM     43  F   UNL A   1      46.706  33.453  27.106  1.00  0.00    -0.206 F 
ATOM     44  C   UNL A   1      47.453  34.963  28.739  1.00  0.00     0.059 A 
ATOM     45  C   UNL A   1      47.716  34.223  31.035  1.00  0.00     0.059 A 
ATOM     46  F   UNL A   1      47.250  31.991  31.603  1.00  0.00    -0.206 F 
ATOM     47  C   UNL A   1      47.797  35.224  30.066  1.00  0.00     0.060 A 
BRANCH  47  48
ATOM     48  S   UNL A   1      48.297  36.903  30.518  1.00  0.00     0.124 S 
ATOM     49  O   UNL A   1      48.392  36.818  31.971  1.00  0.00    -0.237 OA
ATOM     50  O   UNL A   1      49.565  37.056  29.811  1.00  0.00    -0.237 OA
ATOM     51  O   UNL A   1      47.204  37.730  30.012  1.00  0.00    -0.744 OA
ENDBRANCH  47  48
ENDBRANCH  26  40
BRANCH  27  52
ATOM     52  C   UNL A   1      43.251  23.642  27.152  1.00  0.00     0.058 A 
ATOM     53  C   UNL A   1      42.989  23.254  25.832  1.00  0.00     0.135 A 
ATOM     54  C   UNL A   1      43.083  22.687  28.167  1.00  0.00     0.135 A 
ATOM     55  F   UNL A   1      43.138  24.136  24.832  1.00  0.00    -0.206 F 
ATOM     56  C   UNL A   1      42.605  21.955  25.522  1.00  0.00     0.059 A 
ATOM     57  C   UNL A   1      42.714  21.378  27.881  1.00  0.00     0.059 A 
ATOM     58  F   UNL A   1      43.344  23.010  29.444  1.00  0.00    -0.206 F 
ATOM     59  C   UNL A   1      42.486  21.019  26.552  1.00  0.00     0.060 A 
BRANCH  59  60
ATOM     60  S   UNL A   1      42.117  19.305  26.123  1.00  0.00     0.124 S 
ATOM     61  O   UNL A   1      42.583  18.596  27.309  1.00  0.00    -0.237 OA
ATOM     62  O   UNL A   1      40.670  19.345  25.927  1.00  0.00    -0.237 OA
ATOM     63  O   UNL A   1      42.897  19.088  24.908  1.00  0.00    -0.744 OA
ENDBRANCH  59  60
ENDBRANCH  27  52
BRANCH  39  64
ATOM     64  C   UNL A   1      49.593  26.504  26.580  1.00  0.00     0.058 A 
ATOM     65  C   UNL A   1      50.024  26.795  25.278  1.00  0.00     0.135 A 
ATOM     66  C   UNL A   1      50.431  25.731  27.398  1.00  0.00     0.135 A 
ATOM     67  F   UNL A   1      49.253  27.524  24.456  1.00  0.00    -0.206 F 
ATOM     68  C   UNL A   1      51.237  26.316  24.794  1.00  0.00     0.059 A 
ATOM     69  C   UNL A   1      51.656  25.259  26.942  1.00  0.00     0.059 A 
ATOM     70  F   UNL A   1      50.063  25.434  28.654  1.00  0.00    -0.206 F 
ATOM     71  C   UNL A   1      52.044  25.547  25.633  1.00  0.00     0.060 A 
BRANCH  71  72
ATOM     72  S   UNL A   1      53.624  24.944  25.002  1.00  0.00     0.124 S 
ATOM     73  O   UNL A   1      53.660  25.551  23.676  1.00  0.00    -0.237 OA
ATOM     74  O   UNL A   1      54.576  25.480  25.971  1.00  0.00    -0.237 OA
ATOM     75  O   UNL A   1      53.467  23.493  25.026  1.00  0.00    -0.744 OA
ENDBRANCH  71  72
ENDBRANCH  39  64
ENDBRANCH  13  14
ENDBRANCH   6   8
ENDBRANCH   5   6
ENDBRANCH   4   5
ENDBRANCH   3   4
ENDBRANCH   2   3
ENDBRANCH   1   2
BRANCH   1  76
ATOM     76  C   UNL A   1      33.845  33.745  33.305  1.00  0.00     0.188 C 
BRANCH  76  77
ATOM     77  O   UNL A   1      33.576  34.116  31.950  1.00  0.00    -0.376 OA
BRANCH  77  78
ATOM     78  C   UNL A   1      34.631  34.747  31.232  1.00  0.00     0.202 C 
BRANCH  78  79
ATOM     79  C   UNL A   1      34.983  34.151  29.865  1.00  0.00     0.261 C 
BRANCH  79  80
ATOM     80  O   UNL A   1      34.256  32.963  29.498  1.00  0.00    -0.459 OA
BRANCH  80  81
ATOM     81  C   UNL A   1      34.522  32.499  28.251  1.00  0.00     0.343 C 
ATOM     82  O   UNL A   1      35.595  32.497  27.677  1.00  0.00    -0.246 OA
BRANCH  81  83
ATOM     83  C   UNL A   1      33.289  32.020  27.629  1.00  0.00     0.122 A 
ATOM     84  C   UNL A   1      33.143  30.669  27.276  1.00  0.00     0.031 A 
ATOM     85  C   UNL A   1      32.325  32.930  27.234  1.00  0.00     0.225 A 
ATOM     86  C   UNL A   1      32.036  30.271  26.515  1.00  0.00     0.001 A 
ATOM     87  N   UNL A   1      31.265  32.577  26.491  1.00  0.00    -0.221 NA
ATOM     88  C   UNL A   1      31.144  31.277  26.143  1.00  0.00     0.124 A 
BRANCH  85  89
ATOM     89  O   UNL A   1      32.316  34.245  27.586  1.00  0.00    -0.493 OA
ATOM     90  H   UNL A   1      32.801  34.533  28.335  1.00  0.00     0.295 HD
ENDBRANCH  85  89
BRANCH  86  91
ATOM     91  C   UNL A   1      31.825  28.898  26.041  1.00  0.00    -0.016 A 
ATOM     92  C   UNL A   1      31.898  27.834  26.956  1.00  0.00     0.012 A 
ATOM     93  C   UNL A   1      31.642  28.595  24.679  1.00  0.00     0.025 A 
ATOM     94  C   UNL A   1      31.809  26.510  26.528  1.00  0.00     0.040 A 
ATOM     95  C   UNL A   1      31.556  27.258  24.238  1.00  0.00     0.092 A 
ATOM     96  C   UNL A   1      31.646  26.236  25.179  1.00  0.00     0.135 A 
ATOM     97  F   UNL A   1      31.585  24.956  24.785  1.00  0.00    -0.206 F 
BRANCH  95  98
ATOM     98  C   UNL A   1      31.420  26.879  22.794  1.00  0.00     0.419 C 
ATOM     99  F   UNL A   1      32.615  26.610  22.201  1.00  0.00    -0.166 F 
ATOM    100  F   UNL A   1      30.644  25.776  22.603  1.00  0.00    -0.166 F 
ATOM    101  F   UNL A   1      30.847  27.854  22.035  1.00  0.00    -0.166 F 
ENDBRANCH  95  98
ENDBRANCH  86  91
ENDBRANCH  81  83
ENDBRANCH  80  81
ENDBRANCH  79  80
ENDBRANCH  78  79
ENDBRANCH  77  78
ENDBRANCH  76  77
ENDBRANCH   1  76
TORSDOF 23
ENDMDL
