MODEL 1
REMARK VINA RESULT:      -8.9      0.000      0.000
REMARK SMILES CS(=O)(=O)c1ccc(-c2cc(Cl)cc3c2O[C@H](C(F)(F)F)C(C(=O)OCCOCCOCCOC(=O)c2ccc(-c4c5nc(c(-c6c(F)cc(S(=O)(=O)[O-])cc6F)c6ccc([nH]6)c(-c6c(F)cc(S(=O)(=O)[O-])cc6F)c6nc(c(-c7c(F)cc(S(=O)(=O)[O-])cc7F)c7ccc4[nH]7)C=C6)C=C5)cc2)=C3)cc1
REMARK SMILES IDX 30 1 29 2 28 3 27 4 26 5 25 6 23 7 24 8 22 9 9 10 10 11
REMARK SMILES IDX 15 12 11 13 14 14 16 15 12 16 13 17 103 18 17 19 8 20 5 21
REMARK SMILES IDX 6 22 105 23 7 24 104 25 2 26 1 27 3 28 4 29 18 30 19 31
REMARK SMILES IDX 20 32 21 33 31 34 32 35 33 36 34 37 35 38 36 39 37 40 38 41
REMARK SMILES IDX 102 42 39 43 101 44 40 45 41 46 42 47 95 48 43 49 100 50
REMARK SMILES IDX 94 51 96 52 44 53 99 54 93 55 92 56 45 58 79 59 58 60 78 61
REMARK SMILES IDX 59 62 62 63 77 64 97 65 60 66 61 67 76 69 98 70 63 71 46 72
REMARK SMILES IDX 47 73 56 74 48 75 49 76 55 77 57 78 50 79 51 80 52 81 53 82
REMARK SMILES IDX 54 83 80 84 81 85 90 86 82 87 83 88 89 89 91 90 84 91 85 92
REMARK SMILES IDX 86 93 87 94 88 95 64 96 65 97 74 98 66 99 67 100 73 101
REMARK SMILES IDX 75 102 68 103 69 104 70 105 71 106 72 107
REMARK H PARENT 96 57 62 68
REMARK Flexibility Score: inf
ROOT
ATOM      1  C   UNL A   1      33.283  32.994  27.849  1.00  0.00     0.188 C 
ENDROOT
BRANCH   1   2
ATOM      2  C   UNL A   1      34.572  33.844  27.921  1.00  0.00     0.188 C 
BRANCH   2   3
ATOM      3  O   UNL A   1      34.679  34.646  29.083  1.00  0.00    -0.376 OA
BRANCH   3   4
ATOM      4  C   UNL A   1      34.333  34.019  30.315  1.00  0.00     0.202 C 
BRANCH   4   5
ATOM      5  C   UNL A   1      34.957  34.626  31.582  1.00  0.00     0.261 C 
BRANCH   5   6
ATOM      6  O   UNL A   1      36.024  33.801  32.121  1.00  0.00    -0.460 OA
BRANCH   6   7
ATOM      7  C   UNL A   1      36.932  34.447  32.884  1.00  0.00     0.338 C 
ATOM      8  O   UNL A   1      36.645  35.148  33.846  1.00  0.00    -0.246 OA
BRANCH   7   9
ATOM      9  C   UNL A   1      38.338  34.130  32.506  1.00  0.00     0.087 C 
ATOM     10  C   UNL A   1      40.402  30.735  33.691  1.00  0.00     0.026 A 
ATOM     11  C   UNL A   1      39.672  30.303  34.821  1.00  0.00     0.033 A 
ATOM     12  C   UNL A   1      40.017  31.990  33.194  1.00  0.00     0.135 A 
ATOM     13  C   UNL A   1      38.787  31.120  35.523  1.00  0.00     0.042 A 
ATOM     14  C   UNL A   1      39.338  32.888  34.048  1.00  0.00     0.019 A 
ATOM     15  O   UNL A   1      40.043  32.371  31.848  1.00  0.00    -0.475 OA
ATOM     16  Cl  UNL A   1      37.872  30.515  36.842  1.00  0.00    -0.084 Cl
ATOM     17  C   UNL A   1      38.687  32.452  35.192  1.00  0.00     0.032 A 
ATOM     18  C   UNL A   1      39.145  34.273  33.569  1.00  0.00     0.027 C 
ATOM     19  C   UNL A   1      38.760  33.092  31.468  1.00  0.00     0.316 C 
BRANCH  10  20
ATOM     20  C   UNL A   1      41.697  29.991  33.512  1.00  0.00    -0.015 A 
ATOM     21  C   UNL A   1      43.774  28.408  32.311  1.00  0.00     0.067 A 
ATOM     22  C   UNL A   1      43.846  29.796  32.277  1.00  0.00     0.021 A 
ATOM     23  C   UNL A   1      42.693  27.801  32.956  1.00  0.00     0.021 A 
ATOM     24  C   UNL A   1      42.818  30.563  32.872  1.00  0.00     0.010 A 
ATOM     25  C   UNL A   1      41.679  28.583  33.553  1.00  0.00     0.010 A 
BRANCH  21  26
ATOM     26  S   UNL A   1      45.110  27.406  31.665  1.00  0.00     0.175 S 
ATOM     27  C   UNL A   1      44.574  25.720  31.619  1.00  0.00     0.163 C 
ATOM     28  O   UNL A   1      46.206  27.490  32.614  1.00  0.00    -0.224 OA
ATOM     29  O   UNL A   1      45.299  27.854  30.296  1.00  0.00    -0.224 OA
ENDBRANCH  21  26
ENDBRANCH  10  20
BRANCH  19  30
ATOM     30  C   UNL A   1      38.845  33.798  30.108  1.00  0.00     0.430 C 
ATOM     31  F   UNL A   1      40.020  33.563  29.479  1.00  0.00    -0.167 F 
ATOM     32  F   UNL A   1      37.847  33.433  29.275  1.00  0.00    -0.167 F 
ATOM     33  F   UNL A   1      38.746  35.145  30.262  1.00  0.00    -0.167 F 
ENDBRANCH  19  30
ENDBRANCH   7   9
ENDBRANCH   6   7
ENDBRANCH   5   6
ENDBRANCH   4   5
ENDBRANCH   3   4
ENDBRANCH   2   3
ENDBRANCH   1   2
BRANCH   1  34
ATOM     34  O   UNL A   1      33.360  31.594  27.619  1.00  0.00    -0.376 OA
BRANCH  34  35
ATOM     35  C   UNL A   1      34.635  30.980  27.488  1.00  0.00     0.202 C 
BRANCH  35  36
ATOM     36  C   UNL A   1      35.245  30.228  28.681  1.00  0.00     0.261 C 
BRANCH  36  37
ATOM     37  O   UNL A   1      35.828  31.052  29.709  1.00  0.00    -0.460 OA
BRANCH  37  38
ATOM     38  C   UNL A   1      36.558  30.394  30.640  1.00  0.00     0.338 C 
ATOM     39  O   UNL A   1      36.200  30.086  31.771  1.00  0.00    -0.246 OA
BRANCH  38  40
ATOM     40  C   UNL A   1      37.828  29.912  30.062  1.00  0.00     0.060 A 
ATOM     41  C   UNL A   1      38.715  29.230  30.898  1.00  0.00     0.016 A 
ATOM     42  C   UNL A   1      38.200  30.207  28.748  1.00  0.00     0.016 A 
ATOM     43  C   UNL A   1      39.975  28.860  30.425  1.00  0.00     0.010 A 
ATOM     44  C   UNL A   1      39.471  29.833  28.279  1.00  0.00     0.010 A 
ATOM     45  C   UNL A   1      40.376  29.160  29.114  1.00  0.00    -0.014 A 
BRANCH  45  46
ATOM     46  C   UNL A   1      41.785  28.907  28.683  1.00  0.00     0.031 A 
ATOM     47  C   UNL A   1      42.129  27.583  28.069  1.00  0.00     0.074 A 
ATOM     48  C   UNL A   1      42.754  29.834  28.813  1.00  0.00     0.049 A 
ATOM     49  N   UNL A   1      43.277  27.167  27.601  1.00  0.00    -0.248 NA
ATOM     50  C   UNL A   1      41.046  26.593  28.001  1.00  0.00     0.031 C 
ATOM     51  C   UNL A   1      42.556  31.147  29.398  1.00  0.00     0.029 A 
ATOM     52  N   UNL A   1      44.076  29.848  28.423  1.00  0.00    -0.354 N 
ATOM     53  C   UNL A   1      43.076  25.836  27.257  1.00  0.00     0.074 A 
ATOM     54  C   UNL A   1      41.683  25.537  27.518  1.00  0.00     0.031 C 
ATOM     55  C   UNL A   1      43.652  31.898  29.190  1.00  0.00     0.029 A 
ATOM     56  C   UNL A   1      44.685  31.079  28.567  1.00  0.00     0.049 A 
ATOM     57  H   UNL A   1      44.543  29.055  28.074  1.00  0.00     0.167 HD
ATOM     58  C   UNL A   1      43.985  24.934  26.816  1.00  0.00     0.037 A 
ATOM     59  C   UNL A   1      45.928  31.498  28.241  1.00  0.00     0.037 A 
ATOM     60  C   UNL A   1      45.373  25.229  26.577  1.00  0.00     0.049 A 
ATOM     61  C   UNL A   1      46.925  30.471  27.757  1.00  0.00     0.074 A 
ATOM     62  C   UNL A   1      46.360  24.377  26.112  1.00  0.00     0.029 A 
ATOM     63  N   UNL A   1      45.981  26.456  26.804  1.00  0.00    -0.354 N 
ATOM     64  N   UNL A   1      46.720  29.216  27.436  1.00  0.00    -0.248 NA
ATOM     65  C   UNL A   1      48.319  30.911  27.603  1.00  0.00     0.031 C 
ATOM     66  C   UNL A   1      47.574  25.072  26.111  1.00  0.00     0.029 A 
ATOM     67  C   UNL A   1      47.332  26.380  26.501  1.00  0.00     0.049 A 
ATOM     68  H   UNL A   1      45.521  27.261  27.132  1.00  0.00     0.167 HD
ATOM     69  C   UNL A   1      47.954  28.724  27.017  1.00  0.00     0.074 A 
ATOM     70  C   UNL A   1      48.893  29.821  27.109  1.00  0.00     0.031 C 
ATOM     71  C   UNL A   1      48.268  27.477  26.585  1.00  0.00     0.037 A 
BRANCH  58  72
ATOM     72  C   UNL A   1      43.518  23.513  26.659  1.00  0.00     0.058 A 
ATOM     73  C   UNL A   1      43.125  22.725  27.751  1.00  0.00     0.135 A 
ATOM     74  C   UNL A   1      43.466  22.935  25.379  1.00  0.00     0.135 A 
ATOM     75  F   UNL A   1      43.181  23.220  28.998  1.00  0.00    -0.206 F 
ATOM     76  C   UNL A   1      42.727  21.402  27.584  1.00  0.00     0.059 A 
ATOM     77  C   UNL A   1      43.043  21.625  25.185  1.00  0.00     0.059 A 
ATOM     78  F   UNL A   1      43.840  23.643  24.302  1.00  0.00    -0.206 F 
ATOM     79  C   UNL A   1      42.691  20.861  26.297  1.00  0.00     0.060 A 
BRANCH  79  80
ATOM     80  S   UNL A   1      42.187  19.141  26.096  1.00  0.00     0.124 S 
ATOM     81  O   UNL A   1      42.600  18.566  27.372  1.00  0.00    -0.237 OA
ATOM     82  O   UNL A   1      40.747  19.261  25.891  1.00  0.00    -0.237 OA
ATOM     83  O   UNL A   1      42.948  18.696  24.932  1.00  0.00    -0.744 OA
ENDBRANCH  79  80
ENDBRANCH  58  72
BRANCH  59  84
ATOM     84  C   UNL A   1      46.315  32.944  28.302  1.00  0.00     0.058 A 
ATOM     85  C   UNL A   1      46.889  33.474  29.472  1.00  0.00     0.135 A 
ATOM     86  C   UNL A   1      46.119  33.830  27.234  1.00  0.00     0.135 A 
ATOM     87  F   UNL A   1      47.094  32.684  30.535  1.00  0.00    -0.206 F 
ATOM     88  C   UNL A   1      47.236  34.816  29.589  1.00  0.00     0.059 A 
ATOM     89  C   UNL A   1      46.496  35.170  27.310  1.00  0.00     0.059 A 
ATOM     90  F   UNL A   1      45.573  33.393  26.089  1.00  0.00    -0.206 F 
ATOM     91  C   UNL A   1      47.040  35.658  28.497  1.00  0.00     0.060 A 
BRANCH  91  92
ATOM     92  S   UNL A   1      47.531  37.391  28.641  1.00  0.00     0.124 S 
ATOM     93  O   UNL A   1      48.932  37.267  29.028  1.00  0.00    -0.237 OA
ATOM     94  O   UNL A   1      47.282  37.893  27.294  1.00  0.00    -0.237 OA
ATOM     95  O   UNL A   1      46.636  37.907  29.671  1.00  0.00    -0.744 OA
ENDBRANCH  91  92
ENDBRANCH  59  84
BRANCH  71  96
ATOM     96  C   UNL A   1      49.682  27.222  26.124  1.00  0.00     0.058 A 
ATOM     97  C   UNL A   1      50.068  27.352  24.781  1.00  0.00     0.135 A 
ATOM     98  C   UNL A   1      50.684  26.921  27.063  1.00  0.00     0.135 A 
ATOM     99  F   UNL A   1      49.153  27.631  23.839  1.00  0.00    -0.206 F 
ATOM    100  C   UNL A   1      51.391  27.179  24.383  1.00  0.00     0.059 A 
ATOM    101  C   UNL A   1      52.018  26.779  26.694  1.00  0.00     0.059 A 
ATOM    102  F   UNL A   1      50.373  26.791  28.363  1.00  0.00    -0.206 F 
ATOM    103  C   UNL A   1      52.360  26.901  25.348  1.00  0.00     0.060 A 
BRANCH 103 104
ATOM    104  S   UNL A   1      54.083  26.746  24.826  1.00  0.00     0.124 S 
ATOM    105  O   UNL A   1      54.792  27.008  26.074  1.00  0.00    -0.237 OA
ATOM    106  O   UNL A   1      54.138  25.370  24.342  1.00  0.00    -0.237 OA
ATOM    107  O   UNL A   1      54.220  27.772  23.797  1.00  0.00    -0.744 OA
ENDBRANCH 103 104
ENDBRANCH  71  96
ENDBRANCH  45  46
ENDBRANCH  38  40
ENDBRANCH  37  38
ENDBRANCH  36  37
ENDBRANCH  35  36
ENDBRANCH  34  35
ENDBRANCH   1  34
TORSDOF 23
ENDMDL
MODEL 2
REMARK VINA RESULT:      -8.5      0.732      7.717
REMARK SMILES CS(=O)(=O)c1ccc(-c2cc(Cl)cc3c2O[C@H](C(F)(F)F)C(C(=O)OCCOCCOCCOC(=O)c2ccc(-c4c5nc(c(-c6c(F)cc(S(=O)(=O)[O-])cc6F)c6ccc([nH]6)c(-c6c(F)cc(S(=O)(=O)[O-])cc6F)c6nc(c(-c7c(F)cc(S(=O)(=O)[O-])cc7F)c7ccc4[nH]7)C=C6)C=C5)cc2)=C3)cc1
REMARK SMILES IDX 30 1 29 2 28 3 27 4 26 5 25 6 23 7 24 8 22 9 9 10 10 11
REMARK SMILES IDX 15 12 11 13 14 14 16 15 12 16 13 17 103 18 17 19 8 20 5 21
REMARK SMILES IDX 6 22 105 23 7 24 104 25 2 26 1 27 3 28 4 29 18 30 19 31
REMARK SMILES IDX 20 32 21 33 31 34 32 35 33 36 34 37 35 38 36 39 37 40 38 41
REMARK SMILES IDX 102 42 39 43 101 44 40 45 41 46 42 47 95 48 43 49 100 50
REMARK SMILES IDX 94 51 96 52 44 53 99 54 93 55 92 56 45 58 79 59 58 60 78 61
REMARK SMILES IDX 59 62 62 63 77 64 97 65 60 66 61 67 76 69 98 70 63 71 46 72
REMARK SMILES IDX 47 73 56 74 48 75 49 76 55 77 57 78 50 79 51 80 52 81 53 82
REMARK SMILES IDX 54 83 80 84 81 85 90 86 82 87 83 88 89 89 91 90 84 91 85 92
REMARK SMILES IDX 86 93 87 94 88 95 64 96 65 97 74 98 66 99 67 100 73 101
REMARK SMILES IDX 75 102 68 103 69 104 70 105 71 106 72 107
REMARK H PARENT 96 57 62 68
REMARK Flexibility Score: inf
ROOT
ATOM      1  C   UNL A   1      33.515  31.846  27.674  1.00  0.00     0.188 C 
ENDROOT
BRANCH   1   2
ATOM      2  C   UNL A   1      34.687  32.832  27.882  1.00  0.00     0.188 C 
BRANCH   2   3
ATOM      3  O   UNL A   1      34.439  33.841  28.845  1.00  0.00    -0.376 OA
BRANCH   3   4
ATOM      4  C   UNL A   1      34.420  33.421  30.206  1.00  0.00     0.202 C 
BRANCH   4   5
ATOM      5  C   UNL A   1      35.116  34.351  31.211  1.00  0.00     0.261 C 
BRANCH   5   6
ATOM      6  O   UNL A   1      36.122  33.659  32.000  1.00  0.00    -0.460 OA
BRANCH   6   7
ATOM      7  C   UNL A   1      36.924  34.449  32.746  1.00  0.00     0.338 C 
ATOM      8  O   UNL A   1      36.523  35.193  33.632  1.00  0.00    -0.246 OA
BRANCH   7   9
ATOM      9  C   UNL A   1      38.371  34.242  32.458  1.00  0.00     0.087 C 
ATOM     10  C   UNL A   1      40.623  31.039  33.822  1.00  0.00     0.026 A 
ATOM     11  C   UNL A   1      39.863  30.563  34.912  1.00  0.00     0.033 A 
ATOM     12  C   UNL A   1      40.170  32.253  33.281  1.00  0.00     0.135 A 
ATOM     13  C   UNL A   1      38.874  31.314  35.547  1.00  0.00     0.042 A 
ATOM     14  C   UNL A   1      39.371  33.103  34.078  1.00  0.00     0.019 A 
ATOM     15  O   UNL A   1      40.248  32.619  31.933  1.00  0.00    -0.475 OA
ATOM     16  Cl  UNL A   1      37.931  30.653  36.819  1.00  0.00    -0.084 Cl
ATOM     17  C   UNL A   1      38.688  32.630  35.188  1.00  0.00     0.032 A 
ATOM     18  C   UNL A   1      39.098  34.462  33.565  1.00  0.00     0.027 C 
ATOM     19  C   UNL A   1      38.937  33.229  31.464  1.00  0.00     0.316 C 
BRANCH  10  20
ATOM     20  C   UNL A   1      41.981  30.400  33.733  1.00  0.00    -0.015 A 
ATOM     21  C   UNL A   1      44.334  29.163  32.635  1.00  0.00     0.067 A 
ATOM     22  C   UNL A   1      44.306  30.535  32.861  1.00  0.00     0.021 A 
ATOM     23  C   UNL A   1      43.213  28.399  32.972  1.00  0.00     0.021 A 
ATOM     24  C   UNL A   1      43.144  31.131  33.402  1.00  0.00     0.010 A 
ATOM     25  C   UNL A   1      42.063  29.010  33.520  1.00  0.00     0.010 A 
BRANCH  21  26
ATOM     26  S   UNL A   1      45.824  28.360  32.055  1.00  0.00     0.175 S 
ATOM     27  C   UNL A   1      46.527  27.445  33.397  1.00  0.00     0.163 C 
ATOM     28  O   UNL A   1      46.765  29.409  31.702  1.00  0.00    -0.224 OA
ATOM     29  O   UNL A   1      45.383  27.412  31.047  1.00  0.00    -0.224 OA
ENDBRANCH  21  26
ENDBRANCH  10  20
BRANCH  19  30
ATOM     30  C   UNL A   1      39.049  33.924  30.100  1.00  0.00     0.430 C 
ATOM     31  F   UNL A   1      40.249  33.714  29.513  1.00  0.00    -0.167 F 
ATOM     32  F   UNL A   1      38.088  33.523  29.239  1.00  0.00    -0.167 F 
ATOM     33  F   UNL A   1      38.909  35.269  30.237  1.00  0.00    -0.167 F 
ENDBRANCH  19  30
ENDBRANCH   7   9
ENDBRANCH   6   7
ENDBRANCH   5   6
ENDBRANCH   4   5
ENDBRANCH   3   4
ENDBRANCH   2   3
ENDBRANCH   1   2
BRANCH   1  34
ATOM     34  O   UNL A   1      33.769  30.500  27.300  1.00  0.00    -0.376 OA
BRANCH  34  35
ATOM     35  C   UNL A   1      35.097  29.998  27.369  1.00  0.00     0.202 C 
BRANCH  35  36
ATOM     36  C   UNL A   1      35.666  29.534  28.719  1.00  0.00     0.261 C 
BRANCH  36  37
ATOM     37  O   UNL A   1      35.867  30.567  29.702  1.00  0.00    -0.460 OA
BRANCH  37  38
ATOM     38  C   UNL A   1      36.603  30.211  30.782  1.00  0.00     0.338 C 
ATOM     39  O   UNL A   1      36.182  29.941  31.901  1.00  0.00    -0.246 OA
BRANCH  38  40
ATOM     40  C   UNL A   1      38.016  30.004  30.405  1.00  0.00     0.060 A 
ATOM     41  C   UNL A   1      38.428  30.430  29.141  1.00  0.00     0.016 A 
ATOM     42  C   UNL A   1      38.906  29.314  31.231  1.00  0.00     0.016 A 
ATOM     43  C   UNL A   1      39.722  30.150  28.699  1.00  0.00     0.010 A 
ATOM     44  C   UNL A   1      40.208  29.035  30.779  1.00  0.00     0.010 A 
ATOM     45  C   UNL A   1      40.629  29.445  29.505  1.00  0.00    -0.014 A 
BRANCH  45  46
ATOM     46  C   UNL A   1      41.947  29.010  28.949  1.00  0.00     0.031 A 
ATOM     47  C   UNL A   1      43.130  29.921  29.091  1.00  0.00     0.074 A 
ATOM     48  C   UNL A   1      42.113  27.820  28.339  1.00  0.00     0.049 A 
ATOM     49  N   UNL A   1      44.366  29.729  28.709  1.00  0.00    -0.248 NA
ATOM     50  C   UNL A   1      42.879  31.226  29.716  1.00  0.00     0.031 C 
ATOM     51  C   UNL A   1      41.051  26.854  28.130  1.00  0.00     0.029 A 
ATOM     52  N   UNL A   1      43.229  27.191  27.831  1.00  0.00    -0.354 N 
ATOM     53  C   UNL A   1      45.025  30.923  28.974  1.00  0.00     0.074 A 
ATOM     54  C   UNL A   1      44.063  31.807  29.600  1.00  0.00     0.031 C 
ATOM     55  C   UNL A   1      41.580  25.698  27.689  1.00  0.00     0.029 A 
ATOM     56  C   UNL A   1      43.009  25.879  27.461  1.00  0.00     0.049 A 
ATOM     57  H   UNL A   1      44.103  27.636  27.740  1.00  0.00     0.167 HD
ATOM     58  C   UNL A   1      46.299  31.266  28.672  1.00  0.00     0.037 A 
ATOM     59  C   UNL A   1      43.854  24.935  26.990  1.00  0.00     0.037 A 
ATOM     60  C   UNL A   1      47.247  30.392  28.032  1.00  0.00     0.049 A 
ATOM     61  C   UNL A   1      45.269  25.345  26.656  1.00  0.00     0.074 A 
ATOM     62  C   UNL A   1      48.566  30.654  27.706  1.00  0.00     0.029 A 
ATOM     63  N   UNL A   1      46.978  29.102  27.597  1.00  0.00    -0.354 N 
ATOM     64  N   UNL A   1      45.878  26.478  26.913  1.00  0.00    -0.248 NA
ATOM     65  C   UNL A   1      46.105  24.357  25.959  1.00  0.00     0.031 C 
ATOM     66  C   UNL A   1      49.078  29.544  27.025  1.00  0.00     0.029 A 
ATOM     67  C   UNL A   1      48.103  28.560  26.995  1.00  0.00     0.049 A 
ATOM     68  H   UNL A   1      46.116  28.639  27.702  1.00  0.00     0.167 HD
ATOM     69  C   UNL A   1      47.177  26.330  26.433  1.00  0.00     0.074 A 
ATOM     70  C   UNL A   1      47.269  24.992  25.888  1.00  0.00     0.031 C 
ATOM     71  C   UNL A   1      48.198  27.222  26.457  1.00  0.00     0.037 A 
BRANCH  58  72
ATOM     72  C   UNL A   1      46.709  32.687  28.946  1.00  0.00     0.058 A 
ATOM     73  C   UNL A   1      47.201  33.102  30.193  1.00  0.00     0.135 A 
ATOM     74  C   UNL A   1      46.602  33.650  27.929  1.00  0.00     0.135 A 
ATOM     75  F   UNL A   1      47.298  32.228  31.207  1.00  0.00    -0.206 F 
ATOM     76  C   UNL A   1      47.543  34.429  30.431  1.00  0.00     0.059 A 
ATOM     77  C   UNL A   1      46.966  34.976  28.135  1.00  0.00     0.059 A 
ATOM     78  F   UNL A   1      46.127  33.308  26.720  1.00  0.00    -0.206 F 
ATOM     79  C   UNL A   1      47.420  35.359  29.396  1.00  0.00     0.060 A 
BRANCH  79  80
ATOM     80  S   UNL A   1      47.854  37.079  29.723  1.00  0.00     0.124 S 
ATOM     81  O   UNL A   1      46.590  37.606  30.228  1.00  0.00    -0.237 OA
ATOM     82  O   UNL A   1      48.924  36.948  30.705  1.00  0.00    -0.237 OA
ATOM     83  O   UNL A   1      48.264  37.582  28.415  1.00  0.00    -0.744 OA
ENDBRANCH  79  80
ENDBRANCH  58  72
BRANCH  59  84
ATOM     84  C   UNL A   1      43.435  23.505  26.843  1.00  0.00     0.058 A 
ATOM     85  C   UNL A   1      43.242  22.952  25.564  1.00  0.00     0.135 A 
ATOM     86  C   UNL A   1      43.206  22.661  27.939  1.00  0.00     0.135 A 
ATOM     87  F   UNL A   1      43.433  23.705  24.473  1.00  0.00    -0.206 F 
ATOM     88  C   UNL A   1      42.823  21.638  25.375  1.00  0.00     0.059 A 
ATOM     89  C   UNL A   1      42.826  21.330  27.778  1.00  0.00     0.059 A 
ATOM     90  F   UNL A   1      43.368  23.124  29.188  1.00  0.00    -0.206 F 
ATOM     91  C   UNL A   1      42.622  20.831  26.492  1.00  0.00     0.060 A 
BRANCH  91  92
ATOM     92  S   UNL A   1      42.120  19.114  26.240  1.00  0.00     0.124 S 
ATOM     93  O   UNL A   1      40.706  19.266  25.915  1.00  0.00    -0.237 OA
ATOM     94  O   UNL A   1      42.988  18.699  25.142  1.00  0.00    -0.237 OA
ATOM     95  O   UNL A   1      42.408  18.489  27.527  1.00  0.00    -0.744 OA
ENDBRANCH  91  92
ENDBRANCH  59  84
BRANCH  71  96
ATOM     96  C   UNL A   1      49.538  26.781  25.922  1.00  0.00     0.058 A 
ATOM     97  C   UNL A   1      49.952  27.065  24.612  1.00  0.00     0.135 A 
ATOM     98  C   UNL A   1      50.454  26.132  26.769  1.00  0.00     0.135 A 
ATOM     99  F   UNL A   1      49.118  27.676  23.756  1.00  0.00    -0.206 F 
ATOM    100  C   UNL A   1      51.219  26.709  24.156  1.00  0.00     0.059 A 
ATOM    101  C   UNL A   1      51.737  25.799  26.346  1.00  0.00     0.059 A 
ATOM    102  F   UNL A   1      50.113  25.841  28.035  1.00  0.00    -0.206 F 
ATOM    103  C   UNL A   1      52.107  26.084  25.032  1.00  0.00     0.060 A 
BRANCH 103 104
ATOM    104  S   UNL A   1      53.770  25.689  24.446  1.00  0.00     0.124 S 
ATOM    105  O   UNL A   1      54.587  26.590  25.252  1.00  0.00    -0.237 OA
ATOM    106  O   UNL A   1      53.884  24.270  24.768  1.00  0.00    -0.237 OA
ATOM    107  O   UNL A   1      53.709  25.999  23.020  1.00  0.00    -0.744 OA
ENDBRANCH 103 104
ENDBRANCH  71  96
ENDBRANCH  45  46
ENDBRANCH  38  40
ENDBRANCH  37  38
ENDBRANCH  36  37
ENDBRANCH  35  36
ENDBRANCH  34  35
ENDBRANCH   1  34
TORSDOF 23
ENDMDL
MODEL 3
REMARK VINA RESULT:      -8.2      3.592      9.701
REMARK SMILES CS(=O)(=O)c1ccc(-c2cc(Cl)cc3c2O[C@H](C(F)(F)F)C(C(=O)OCCOCCOCCOC(=O)c2ccc(-c4c5nc(c(-c6c(F)cc(S(=O)(=O)[O-])cc6F)c6ccc([nH]6)c(-c6c(F)cc(S(=O)(=O)[O-])cc6F)c6nc(c(-c7c(F)cc(S(=O)(=O)[O-])cc7F)c7ccc4[nH]7)C=C6)C=C5)cc2)=C3)cc1
REMARK SMILES IDX 30 1 29 2 28 3 27 4 26 5 25 6 23 7 24 8 22 9 9 10 10 11
REMARK SMILES IDX 15 12 11 13 14 14 16 15 12 16 13 17 103 18 17 19 8 20 5 21
REMARK SMILES IDX 6 22 105 23 7 24 104 25 2 26 1 27 3 28 4 29 18 30 19 31
REMARK SMILES IDX 20 32 21 33 31 34 32 35 33 36 34 37 35 38 36 39 37 40 38 41
REMARK SMILES IDX 102 42 39 43 101 44 40 45 41 46 42 47 95 48 43 49 100 50
REMARK SMILES IDX 94 51 96 52 44 53 99 54 93 55 92 56 45 58 79 59 58 60 78 61
REMARK SMILES IDX 59 62 62 63 77 64 97 65 60 66 61 67 76 69 98 70 63 71 46 72
REMARK SMILES IDX 47 73 56 74 48 75 49 76 55 77 57 78 50 79 51 80 52 81 53 82
REMARK SMILES IDX 54 83 80 84 81 85 90 86 82 87 83 88 89 89 91 90 84 91 85 92
REMARK SMILES IDX 86 93 87 94 88 95 64 96 65 97 74 98 66 99 67 100 73 101
REMARK SMILES IDX 75 102 68 103 69 104 70 105 71 106 72 107
REMARK H PARENT 96 57 62 68
REMARK Flexibility Score: inf
ROOT
ATOM      1  C   UNL A   1      47.423  40.750  25.641  1.00  0.00     0.188 C 
ENDROOT
BRANCH   1   2
ATOM      2  C   UNL A   1      46.862  40.602  24.208  1.00  0.00     0.188 C 
BRANCH   2   3
ATOM      3  O   UNL A   1      45.803  41.490  23.900  1.00  0.00    -0.376 OA
BRANCH   3   4
ATOM      4  C   UNL A   1      45.474  42.448  24.902  1.00  0.00     0.202 C 
BRANCH   4   5
ATOM      5  C   UNL A   1      44.077  42.317  25.530  1.00  0.00     0.261 C 
BRANCH   5   6
ATOM      6  O   UNL A   1      43.934  41.099  26.310  1.00  0.00    -0.460 OA
BRANCH   6   7
ATOM      7  C   UNL A   1      42.671  40.779  26.665  1.00  0.00     0.338 C 
ATOM      8  O   UNL A   1      41.725  40.757  25.888  1.00  0.00    -0.246 OA
BRANCH   7   9
ATOM      9  C   UNL A   1      42.561  40.343  28.085  1.00  0.00     0.087 C 
ATOM     10  C   UNL A   1      43.541  36.565  29.486  1.00  0.00     0.026 A 
ATOM     11  C   UNL A   1      43.504  35.777  28.314  1.00  0.00     0.033 A 
ATOM     12  C   UNL A   1      43.063  37.875  29.322  1.00  0.00     0.135 A 
ATOM     13  C   UNL A   1      42.863  36.174  27.140  1.00  0.00     0.042 A 
ATOM     14  C   UNL A   1      42.197  38.160  28.243  1.00  0.00     0.019 A 
ATOM     15  O   UNL A   1      43.537  39.001  30.004  1.00  0.00    -0.475 OA
ATOM     16  Cl  UNL A   1      42.917  35.205  25.725  1.00  0.00    -0.084 Cl
ATOM     17  C   UNL A   1      42.123  37.334  27.132  1.00  0.00     0.032 A 
ATOM     18  C   UNL A   1      41.539  39.483  28.226  1.00  0.00     0.027 C 
ATOM     19  C   UNL A   1      43.734  40.166  29.048  1.00  0.00     0.316 C 
BRANCH  10  20
ATOM     20  C   UNL A   1      43.673  35.743  30.738  1.00  0.00    -0.015 A 
ATOM     21  C   UNL A   1      43.896  33.468  32.482  1.00  0.00     0.067 A 
ATOM     22  C   UNL A   1      45.039  34.134  32.052  1.00  0.00     0.021 A 
ATOM     23  C   UNL A   1      42.644  33.936  32.071  1.00  0.00     0.021 A 
ATOM     24  C   UNL A   1      44.915  35.252  31.196  1.00  0.00     0.010 A 
ATOM     25  C   UNL A   1      42.540  35.061  31.222  1.00  0.00     0.010 A 
BRANCH  21  26
ATOM     26  S   UNL A   1      44.008  32.118  33.652  1.00  0.00     0.175 S 
ATOM     27  C   UNL A   1      45.183  32.555  34.901  1.00  0.00     0.163 C 
ATOM     28  O   UNL A   1      44.540  30.973  32.934  1.00  0.00    -0.224 OA
ATOM     29  O   UNL A   1      42.698  32.039  34.274  1.00  0.00    -0.224 OA
ENDBRANCH  21  26
ENDBRANCH  10  20
BRANCH  19  30
ATOM     30  C   UNL A   1      43.957  41.504  29.765  1.00  0.00     0.430 C 
ATOM     31  F   UNL A   1      43.978  42.550  28.908  1.00  0.00    -0.167 F 
ATOM     32  F   UNL A   1      43.013  41.750  30.699  1.00  0.00    -0.167 F 
ATOM     33  F   UNL A   1      45.152  41.505  30.414  1.00  0.00    -0.167 F 
ENDBRANCH  19  30
ENDBRANCH   7   9
ENDBRANCH   6   7
ENDBRANCH   5   6
ENDBRANCH   4   5
ENDBRANCH   3   4
ENDBRANCH   2   3
ENDBRANCH   1   2
BRANCH   1  34
ATOM     34  O   UNL A   1      47.369  39.658  26.548  1.00  0.00    -0.376 OA
BRANCH  34  35
ATOM     35  C   UNL A   1      46.844  39.863  27.852  1.00  0.00     0.202 C 
BRANCH  35  36
ATOM     36  C   UNL A   1      47.113  38.827  28.954  1.00  0.00     0.261 C 
BRANCH  36  37
ATOM     37  O   UNL A   1      47.913  37.694  28.565  1.00  0.00    -0.460 OA
BRANCH  37  38
ATOM     38  C   UNL A   1      48.292  36.873  29.574  1.00  0.00     0.338 C 
ATOM     39  O   UNL A   1      48.703  37.208  30.678  1.00  0.00    -0.246 OA
BRANCH  38  40
ATOM     40  C   UNL A   1      47.980  35.467  29.247  1.00  0.00     0.060 A 
ATOM     41  C   UNL A   1      47.301  35.204  28.056  1.00  0.00     0.016 A 
ATOM     42  C   UNL A   1      48.252  34.425  30.137  1.00  0.00     0.016 A 
ATOM     43  C   UNL A   1      46.883  33.904  27.765  1.00  0.00     0.010 A 
ATOM     44  C   UNL A   1      47.827  33.119  29.838  1.00  0.00     0.010 A 
ATOM     45  C   UNL A   1      47.132  32.844  28.651  1.00  0.00    -0.014 A 
BRANCH  45  46
ATOM     46  C   UNL A   1      46.530  31.499  28.400  1.00  0.00     0.031 A 
ATOM     47  C   UNL A   1      47.418  30.382  27.940  1.00  0.00     0.074 A 
ATOM     48  C   UNL A   1      45.219  31.251  28.591  1.00  0.00     0.049 A 
ATOM     49  N   UNL A   1      47.110  29.135  27.694  1.00  0.00    -0.248 NA
ATOM     50  C   UNL A   1      48.826  30.722  27.699  1.00  0.00     0.031 C 
ATOM     51  C   UNL A   1      44.254  32.244  29.023  1.00  0.00     0.029 A 
ATOM     52  N   UNL A   1      44.476  30.094  28.500  1.00  0.00    -0.354 N 
ATOM     53  C   UNL A   1      48.269  28.559  27.189  1.00  0.00     0.074 A 
ATOM     54  C   UNL A   1      49.296  29.580  27.221  1.00  0.00     0.031 C 
ATOM     55  C   UNL A   1      43.090  31.637  29.316  1.00  0.00     0.029 A 
ATOM     56  C   UNL A   1      43.184  30.224  28.970  1.00  0.00     0.049 A 
ATOM     57  H   UNL A   1      44.833  29.252  28.133  1.00  0.00     0.167 HD
ATOM     58  C   UNL A   1      48.443  27.311  26.695  1.00  0.00     0.037 A 
ATOM     59  C   UNL A   1      42.193  29.315  29.103  1.00  0.00     0.037 A 
ATOM     60  C   UNL A   1      47.415  26.305  26.645  1.00  0.00     0.049 A 
ATOM     61  C   UNL A   1      42.410  27.931  28.539  1.00  0.00     0.074 A 
ATOM     62  C   UNL A   1      47.512  25.006  26.177  1.00  0.00     0.029 A 
ATOM     63  N   UNL A   1      46.100  26.484  27.053  1.00  0.00    -0.354 N 
ATOM     64  N   UNL A   1      43.512  27.402  28.065  1.00  0.00    -0.248 NA
ATOM     65  C   UNL A   1      41.250  27.028  28.514  1.00  0.00     0.031 C 
ATOM     66  C   UNL A   1      46.244  24.419  26.249  1.00  0.00     0.029 A 
ATOM     67  C   UNL A   1      45.373  25.325  26.835  1.00  0.00     0.049 A 
ATOM     68  H   UNL A   1      45.738  27.313  27.440  1.00  0.00     0.167 HD
ATOM     69  C   UNL A   1      43.186  26.095  27.711  1.00  0.00     0.074 A 
ATOM     70  C   UNL A   1      41.789  25.910  28.041  1.00  0.00     0.031 C 
ATOM     71  C   UNL A   1      43.981  25.137  27.172  1.00  0.00     0.037 A 
BRANCH  58  72
ATOM     72  C   UNL A   1      49.778  27.000  26.075  1.00  0.00     0.058 A 
ATOM     73  C   UNL A   1      50.032  27.176  24.707  1.00  0.00     0.135 A 
ATOM     74  C   UNL A   1      50.823  26.516  26.880  1.00  0.00     0.135 A 
ATOM     75  F   UNL A   1      49.061  27.610  23.889  1.00  0.00    -0.206 F 
ATOM     76  C   UNL A   1      51.266  26.851  24.152  1.00  0.00     0.059 A 
ATOM     77  C   UNL A   1      52.073  26.214  26.353  1.00  0.00     0.059 A 
ATOM     78  F   UNL A   1      50.630  26.321  28.195  1.00  0.00    -0.206 F 
ATOM     79  C   UNL A   1      52.279  26.369  24.983  1.00  0.00     0.060 A 
BRANCH  79  80
ATOM     80  S   UNL A   1      53.870  25.939  24.248  1.00  0.00     0.124 S 
ATOM     81  O   UNL A   1      54.077  24.592  24.772  1.00  0.00    -0.237 OA
ATOM     82  O   UNL A   1      53.586  26.028  22.820  1.00  0.00    -0.237 OA
ATOM     83  O   UNL A   1      54.774  26.960  24.769  1.00  0.00    -0.744 OA
ENDBRANCH  79  80
ENDBRANCH  58  72
BRANCH  59  84
ATOM     84  C   UNL A   1      40.924  29.634  29.832  1.00  0.00     0.058 A 
ATOM     85  C   UNL A   1      39.746  29.913  29.113  1.00  0.00     0.135 A 
ATOM     86  C   UNL A   1      40.840  29.686  31.230  1.00  0.00     0.135 A 
ATOM     87  F   UNL A   1      39.758  29.892  27.774  1.00  0.00    -0.206 F 
ATOM     88  C   UNL A   1      38.551  30.246  29.743  1.00  0.00     0.059 A 
ATOM     89  C   UNL A   1      39.645  29.976  31.887  1.00  0.00     0.059 A 
ATOM     90  F   UNL A   1      41.926  29.434  31.978  1.00  0.00    -0.206 F 
ATOM     91  C   UNL A   1      38.509  30.270  31.135  1.00  0.00     0.060 A 
BRANCH  91  92
ATOM     92  S   UNL A   1      36.943  30.660  31.947  1.00  0.00     0.124 S 
ATOM     93  O   UNL A   1      37.283  31.882  32.668  1.00  0.00    -0.237 OA
ATOM     94  O   UNL A   1      36.040  30.817  30.812  1.00  0.00    -0.237 OA
ATOM     95  O   UNL A   1      36.696  29.486  32.778  1.00  0.00    -0.744 OA
ENDBRANCH  91  92
ENDBRANCH  59  84
BRANCH  71  96
ATOM     96  C   UNL A   1      43.387  23.770  26.942  1.00  0.00     0.058 A 
ATOM     97  C   UNL A   1      43.137  23.268  25.655  1.00  0.00     0.135 A 
ATOM     98  C   UNL A   1      43.142  22.916  28.032  1.00  0.00     0.135 A 
ATOM     99  F   UNL A   1      43.345  24.040  24.576  1.00  0.00    -0.206 F 
ATOM    100  C   UNL A   1      42.651  21.978  25.458  1.00  0.00     0.059 A 
ATOM    101  C   UNL A   1      42.691  21.612  27.858  1.00  0.00     0.059 A 
ATOM    102  F   UNL A   1      43.370  23.342  29.285  1.00  0.00    -0.206 F 
ATOM    103  C   UNL A   1      42.440  21.154  26.565  1.00  0.00     0.060 A 
BRANCH 103 104
ATOM    104  S   UNL A   1      41.873  19.461  26.290  1.00  0.00     0.124 S 
ATOM    105  O   UNL A   1      40.425  19.636  26.269  1.00  0.00    -0.237 OA
ATOM    106  O   UNL A   1      42.491  19.130  25.010  1.00  0.00    -0.237 OA
ATOM    107  O   UNL A   1      42.403  18.735  27.441  1.00  0.00    -0.744 OA
ENDBRANCH 103 104
ENDBRANCH  71  96
ENDBRANCH  45  46
ENDBRANCH  38  40
ENDBRANCH  37  38
ENDBRANCH  36  37
ENDBRANCH  35  36
ENDBRANCH  34  35
ENDBRANCH   1  34
TORSDOF 23
ENDMDL
