MODEL 1
REMARK VINA RESULT:     -11.0      0.000      0.000
REMARK SMILES Cc1cccc(-c2cc(C(=O)OCCOCCOCCOC(=O)c3ccc(-c4c5nc(c(-c6c(F)cc(S(=O)(=O)[O-])cc6F)c6ccc([nH]6)c(-c6c(F)cc(S(=O)(=O)[O-])cc6F)c6nc(c(-c7c(F)cc(S(=O)(=O)[O-])cc7F)c7ccc4[nH]7)C=C6)C=C5)cc3)ccn2)c1
REMARK SMILES IDX 17 1 16 2 15 3 14 4 13 5 12 6 10 7 11 8 9 9 7 10 8 11 92 12
REMARK SMILES IDX 91 13 90 14 6 15 1 16 2 17 3 18 93 19 4 20 5 21 18 22 19 23
REMARK SMILES IDX 20 24 21 25 22 26 23 27 24 28 25 29 89 30 26 31 88 32 27 33
REMARK SMILES IDX 28 34 29 35 82 36 30 37 87 38 81 39 83 40 31 41 86 42 80 43
REMARK SMILES IDX 79 44 32 46 66 47 45 48 65 49 46 50 49 51 64 52 84 53 47 54
REMARK SMILES IDX 48 55 63 57 85 58 50 59 33 60 34 61 43 62 35 63 36 64 42 65
REMARK SMILES IDX 44 66 37 67 38 68 39 69 40 70 41 71 67 72 68 73 77 74 69 75
REMARK SMILES IDX 70 76 76 77 78 78 71 79 72 80 73 81 74 82 75 83 51 84 52 85
REMARK SMILES IDX 61 86 53 87 54 88 60 89 62 90 55 91 56 92 57 93 58 94 59 95
REMARK H PARENT 83 45 49 56
REMARK Flexibility Score: inf
ROOT
ATOM      1  C   UNL A   1      39.406  22.154  26.459  1.00  0.00     0.188 C 
ENDROOT
BRANCH   1   2
ATOM      2  C   UNL A   1      38.053  22.364  25.797  1.00  0.00     0.188 C 
BRANCH   2   3
ATOM      3  O   UNL A   1      37.512  21.414  24.871  1.00  0.00    -0.376 OA
BRANCH   3   4
ATOM      4  C   UNL A   1      36.102  21.375  24.623  1.00  0.00     0.202 C 
BRANCH   4   5
ATOM      5  C   UNL A   1      35.002  21.531  25.776  1.00  0.00     0.261 C 
BRANCH   5   6
ATOM      6  O   UNL A   1      33.627  20.987  25.621  1.00  0.00    -0.460 OA
BRANCH   6   7
ATOM      7  C   UNL A   1      32.443  21.515  25.125  1.00  0.00     0.338 C 
ATOM      8  O   UNL A   1      31.358  21.079  25.514  1.00  0.00    -0.246 OA
BRANCH   7   9
ATOM      9  C   UNL A   1      32.494  22.806  23.943  1.00  0.00     0.063 A 
ATOM     10  C   UNL A   1      32.366  25.158  23.635  1.00  0.00     0.071 A 
ATOM     11  C   UNL A   1      32.083  24.017  24.416  1.00  0.00     0.044 A 
ATOM     12  N   UNL A   1      32.803  25.220  22.352  1.00  0.00    -0.256 NA
ATOM     13  C   UNL A   1      33.252  24.089  21.875  1.00  0.00     0.112 A 
ATOM     14  C   UNL A   1      33.181  22.952  22.654  1.00  0.00     0.036 A 
BRANCH  10  15
ATOM     15  C   UNL A   1      32.696  26.372  24.321  1.00  0.00     0.000 A 
ATOM     16  C   UNL A   1      31.727  27.951  27.611  1.00  0.00     0.044 C 
ATOM     17  C   UNL A   1      32.406  27.731  26.296  1.00  0.00    -0.050 A 
ATOM     18  C   UNL A   1      33.208  28.699  25.683  1.00  0.00     0.003 A 
ATOM     19  C   UNL A   1      32.176  26.553  25.612  1.00  0.00     0.013 A 
ATOM     20  C   UNL A   1      33.811  28.466  24.437  1.00  0.00     0.001 A 
ATOM     21  C   UNL A   1      33.565  27.289  23.756  1.00  0.00     0.010 A 
ENDBRANCH  10  15
ENDBRANCH   7   9
ENDBRANCH   6   7
ENDBRANCH   5   6
ENDBRANCH   4   5
ENDBRANCH   3   4
ENDBRANCH   2   3
ENDBRANCH   1   2
BRANCH   1  22
ATOM     22  O   UNL A   1      39.889  20.861  26.120  1.00  0.00    -0.376 OA
BRANCH  22  23
ATOM     23  C   UNL A   1      40.701  20.218  27.084  1.00  0.00     0.202 C 
BRANCH  23  24
ATOM     24  C   UNL A   1      42.218  20.476  26.963  1.00  0.00     0.261 C 
BRANCH  24  25
ATOM     25  O   UNL A   1      42.658  21.808  27.361  1.00  0.00    -0.460 OA
BRANCH  25  26
ATOM     26  C   UNL A   1      42.891  22.793  26.419  1.00  0.00     0.338 C 
ATOM     27  O   UNL A   1      43.147  22.517  25.248  1.00  0.00    -0.246 OA
BRANCH  26  28
ATOM     28  C   UNL A   1      42.471  24.150  26.895  1.00  0.00     0.060 A 
ATOM     29  C   UNL A   1      42.089  25.295  26.187  1.00  0.00     0.016 A 
ATOM     30  C   UNL A   1      42.534  24.304  28.236  1.00  0.00     0.016 A 
ATOM     31  C   UNL A   1      41.992  26.611  26.820  1.00  0.00     0.010 A 
ATOM     32  C   UNL A   1      42.731  25.590  28.725  1.00  0.00     0.010 A 
ATOM     33  C   UNL A   1      42.384  26.842  28.146  1.00  0.00    -0.014 A 
BRANCH  33  34
ATOM     34  C   UNL A   1      42.437  28.344  28.931  1.00  0.00     0.031 A 
ATOM     35  C   UNL A   1      41.256  29.618  29.220  1.00  0.00     0.074 A 
ATOM     36  C   UNL A   1      43.639  28.621  29.469  1.00  0.00     0.049 A 
ATOM     37  N   UNL A   1      41.569  30.885  29.434  1.00  0.00    -0.248 NA
ATOM     38  C   UNL A   1      39.738  29.656  29.126  1.00  0.00     0.031 C 
ATOM     39  C   UNL A   1      43.967  29.638  30.453  1.00  0.00     0.029 A 
ATOM     40  N   UNL A   1      44.878  28.096  29.091  1.00  0.00    -0.354 N 
ATOM     41  C   UNL A   1      40.366  31.582  29.700  1.00  0.00     0.074 A 
ATOM     42  C   UNL A   1      39.356  30.915  29.016  1.00  0.00     0.031 C 
ATOM     43  C   UNL A   1      45.283  29.887  30.373  1.00  0.00     0.029 A 
ATOM     44  C   UNL A   1      45.789  29.147  29.229  1.00  0.00     0.049 A 
ATOM     45  H   UNL A   1      45.069  27.177  28.793  1.00  0.00     0.167 HD
ATOM     46  C   UNL A   1      40.198  32.438  30.748  1.00  0.00     0.037 A 
ATOM     47  C   UNL A   1      46.419  29.655  28.134  1.00  0.00     0.037 A 
ATOM     48  C   UNL A   1      41.493  32.989  31.017  1.00  0.00     0.049 A 
ATOM     49  C   UNL A   1      46.113  31.123  27.967  1.00  0.00     0.074 A 
ATOM     50  C   UNL A   1      42.475  32.734  31.945  1.00  0.00     0.029 A 
ATOM     51  N   UNL A   1      42.092  33.625  29.946  1.00  0.00    -0.354 N 
ATOM     52  N   UNL A   1      45.127  31.721  28.589  1.00  0.00    -0.248 NA
ATOM     53  C   UNL A   1      46.901  32.062  27.178  1.00  0.00     0.031 C 
ATOM     54  C   UNL A   1      43.718  33.011  31.292  1.00  0.00     0.029 A 
ATOM     55  C   UNL A   1      43.459  33.488  30.014  1.00  0.00     0.049 A 
ATOM     56  H   UNL A   1      41.608  34.107  29.237  1.00  0.00     0.167 HD
ATOM     57  C   UNL A   1      45.141  33.059  28.328  1.00  0.00     0.074 A 
ATOM     58  C   UNL A   1      46.266  33.225  27.427  1.00  0.00     0.031 C 
ATOM     59  C   UNL A   1      44.233  33.928  28.858  1.00  0.00     0.037 A 
BRANCH  46  60
ATOM     60  C   UNL A   1      38.914  32.660  31.590  1.00  0.00     0.058 A 
ATOM     61  C   UNL A   1      38.098  33.781  31.315  1.00  0.00     0.135 A 
ATOM     62  C   UNL A   1      38.486  31.934  32.742  1.00  0.00     0.135 A 
ATOM     63  F   UNL A   1      38.374  34.587  30.281  1.00  0.00    -0.206 F 
ATOM     64  C   UNL A   1      36.988  34.152  32.098  1.00  0.00     0.059 A 
ATOM     65  C   UNL A   1      37.357  32.263  33.514  1.00  0.00     0.059 A 
ATOM     66  F   UNL A   1      39.159  30.890  33.240  1.00  0.00    -0.206 F 
ATOM     67  C   UNL A   1      36.619  33.386  33.196  1.00  0.00     0.060 A 
BRANCH  67  68
ATOM     68  S   UNL A   1      35.204  33.887  34.204  1.00  0.00     0.124 S 
ATOM     69  O   UNL A   1      35.615  33.466  35.541  1.00  0.00    -0.237 OA
ATOM     70  O   UNL A   1      35.157  35.327  33.979  1.00  0.00    -0.237 OA
ATOM     71  O   UNL A   1      34.088  33.134  33.635  1.00  0.00    -0.744 OA
ENDBRANCH  67  68
ENDBRANCH  46  60
BRANCH  47  72
ATOM     72  C   UNL A   1      46.805  28.588  27.148  1.00  0.00     0.058 A 
ATOM     73  C   UNL A   1      45.944  28.447  26.032  1.00  0.00     0.135 A 
ATOM     74  C   UNL A   1      48.099  28.070  26.993  1.00  0.00     0.135 A 
ATOM     75  F   UNL A   1      44.678  28.890  26.110  1.00  0.00    -0.206 F 
ATOM     76  C   UNL A   1      46.388  28.013  24.784  1.00  0.00     0.059 A 
ATOM     77  C   UNL A   1      48.558  27.582  25.748  1.00  0.00     0.059 A 
ATOM     78  F   UNL A   1      48.992  28.173  27.990  1.00  0.00    -0.206 F 
ATOM     79  C   UNL A   1      47.718  27.645  24.634  1.00  0.00     0.060 A 
BRANCH  79  80
ATOM     80  S   UNL A   1      48.336  27.437  22.937  1.00  0.00     0.124 S 
ATOM     81  O   UNL A   1      49.669  28.023  23.018  1.00  0.00    -0.237 OA
ATOM     82  O   UNL A   1      48.297  25.982  22.789  1.00  0.00    -0.237 OA
ATOM     83  O   UNL A   1      47.373  28.183  22.137  1.00  0.00    -0.744 OA
ENDBRANCH  79  80
ENDBRANCH  47  72
BRANCH  59  84
ATOM     84  C   UNL A   1      43.915  35.286  28.275  1.00  0.00     0.058 A 
ATOM     85  C   UNL A   1      43.268  35.457  27.041  1.00  0.00     0.135 A 
ATOM     86  C   UNL A   1      44.023  36.446  29.083  1.00  0.00     0.135 A 
ATOM     87  F   UNL A   1      43.014  34.418  26.233  1.00  0.00    -0.206 F 
ATOM     88  C   UNL A   1      42.812  36.701  26.610  1.00  0.00     0.059 A 
ATOM     89  C   UNL A   1      43.492  37.674  28.712  1.00  0.00     0.059 A 
ATOM     90  F   UNL A   1      44.611  36.405  30.289  1.00  0.00    -0.206 F 
ATOM     91  C   UNL A   1      42.924  37.801  27.455  1.00  0.00     0.060 A 
BRANCH  91  92
ATOM     92  S   UNL A   1      42.335  39.412  26.918  1.00  0.00     0.124 S 
ATOM     93  O   UNL A   1      43.486  39.896  26.162  1.00  0.00    -0.237 OA
ATOM     94  O   UNL A   1      41.153  39.083  26.126  1.00  0.00    -0.237 OA
ATOM     95  O   UNL A   1      42.066  40.102  28.175  1.00  0.00    -0.744 OA
ENDBRANCH  91  92
ENDBRANCH  59  84
ENDBRANCH  33  34
ENDBRANCH  26  28
ENDBRANCH  25  26
ENDBRANCH  24  25
ENDBRANCH  23  24
ENDBRANCH  22  23
ENDBRANCH   1  22
TORSDOF 21
ENDMDL
MODEL 2
REMARK VINA RESULT:     -10.9      1.867      3.417
REMARK SMILES Cc1cccc(-c2cc(C(=O)OCCOCCOCCOC(=O)c3ccc(-c4c5nc(c(-c6c(F)cc(S(=O)(=O)[O-])cc6F)c6ccc([nH]6)c(-c6c(F)cc(S(=O)(=O)[O-])cc6F)c6nc(c(-c7c(F)cc(S(=O)(=O)[O-])cc7F)c7ccc4[nH]7)C=C6)C=C5)cc3)ccn2)c1
REMARK SMILES IDX 17 1 16 2 15 3 14 4 13 5 12 6 10 7 11 8 9 9 7 10 8 11 92 12
REMARK SMILES IDX 91 13 90 14 6 15 1 16 2 17 3 18 93 19 4 20 5 21 18 22 19 23
REMARK SMILES IDX 20 24 21 25 22 26 23 27 24 28 25 29 89 30 26 31 88 32 27 33
REMARK SMILES IDX 28 34 29 35 82 36 30 37 87 38 81 39 83 40 31 41 86 42 80 43
REMARK SMILES IDX 79 44 32 46 66 47 45 48 65 49 46 50 49 51 64 52 84 53 47 54
REMARK SMILES IDX 48 55 63 57 85 58 50 59 33 60 34 61 43 62 35 63 36 64 42 65
REMARK SMILES IDX 44 66 37 67 38 68 39 69 40 70 41 71 67 72 68 73 77 74 69 75
REMARK SMILES IDX 70 76 76 77 78 78 71 79 72 80 73 81 74 82 75 83 51 84 52 85
REMARK SMILES IDX 61 86 53 87 54 88 60 89 62 90 55 91 56 92 57 93 58 94 59 95
REMARK H PARENT 83 45 49 56
REMARK Flexibility Score: inf
ROOT
ATOM      1  C   UNL A   1      39.310  23.140  26.834  1.00  0.00     0.188 C 
ENDROOT
BRANCH   1   2
ATOM      2  C   UNL A   1      37.926  23.507  26.320  1.00  0.00     0.188 C 
BRANCH   2   3
ATOM      3  O   UNL A   1      37.372  22.895  25.149  1.00  0.00    -0.376 OA
BRANCH   3   4
ATOM      4  C   UNL A   1      36.607  23.677  24.224  1.00  0.00     0.202 C 
BRANCH   4   5
ATOM      5  C   UNL A   1      36.017  23.093  22.855  1.00  0.00     0.261 C 
BRANCH   5   6
ATOM      6  O   UNL A   1      34.624  23.377  22.421  1.00  0.00    -0.460 OA
BRANCH   6   7
ATOM      7  C   UNL A   1      33.414  22.721  22.606  1.00  0.00     0.338 C 
ATOM      8  O   UNL A   1      32.567  22.717  21.711  1.00  0.00    -0.246 OA
BRANCH   7   9
ATOM      9  C   UNL A   1      33.094  21.897  24.118  1.00  0.00     0.063 A 
ATOM     10  C   UNL A   1      32.851  19.772  25.152  1.00  0.00     0.071 A 
ATOM     11  C   UNL A   1      32.828  20.565  23.986  1.00  0.00     0.044 A 
ATOM     12  N   UNL A   1      32.883  20.172  26.449  1.00  0.00    -0.256 NA
ATOM     13  C   UNL A   1      33.184  21.431  26.622  1.00  0.00     0.112 A 
ATOM     14  C   UNL A   1      33.363  22.241  25.518  1.00  0.00     0.036 A 
BRANCH  10  15
ATOM     15  C   UNL A   1      33.356  18.436  25.041  1.00  0.00     0.000 A 
ATOM     16  C   UNL A   1      32.059  14.992  25.883  1.00  0.00     0.044 C 
ATOM     17  C   UNL A   1      32.951  16.078  25.371  1.00  0.00    -0.050 A 
ATOM     18  C   UNL A   1      34.261  15.847  24.938  1.00  0.00     0.003 A 
ATOM     19  C   UNL A   1      32.498  17.383  25.395  1.00  0.00     0.013 A 
ATOM     20  C   UNL A   1      35.076  16.895  24.485  1.00  0.00     0.001 A 
ATOM     21  C   UNL A   1      34.618  18.198  24.524  1.00  0.00     0.010 A 
ENDBRANCH  10  15
ENDBRANCH   7   9
ENDBRANCH   6   7
ENDBRANCH   5   6
ENDBRANCH   4   5
ENDBRANCH   3   4
ENDBRANCH   2   3
ENDBRANCH   1   2
BRANCH   1  22
ATOM     22  O   UNL A   1      39.810  22.048  26.074  1.00  0.00    -0.376 OA
BRANCH  22  23
ATOM     23  C   UNL A   1      40.273  20.929  26.805  1.00  0.00     0.202 C 
BRANCH  23  24
ATOM     24  C   UNL A   1      41.805  20.801  26.935  1.00  0.00     0.261 C 
BRANCH  24  25
ATOM     25  O   UNL A   1      42.458  21.865  27.690  1.00  0.00    -0.460 OA
BRANCH  25  26
ATOM     26  C   UNL A   1      43.204  22.838  27.052  1.00  0.00     0.338 C 
ATOM     27  O   UNL A   1      43.927  22.571  26.093  1.00  0.00    -0.246 OA
BRANCH  26  28
ATOM     28  C   UNL A   1      42.774  24.224  27.426  1.00  0.00     0.060 A 
ATOM     29  C   UNL A   1      42.494  25.344  26.634  1.00  0.00     0.016 A 
ATOM     30  C   UNL A   1      42.708  24.437  28.758  1.00  0.00     0.016 A 
ATOM     31  C   UNL A   1      42.370  26.689  27.197  1.00  0.00     0.010 A 
ATOM     32  C   UNL A   1      42.889  25.739  29.209  1.00  0.00     0.010 A 
ATOM     33  C   UNL A   1      42.634  26.971  28.545  1.00  0.00    -0.014 A 
BRANCH  33  34
ATOM     34  C   UNL A   1      42.648  28.505  29.267  1.00  0.00     0.031 A 
ATOM     35  C   UNL A   1      41.434  29.760  29.502  1.00  0.00     0.074 A 
ATOM     36  C   UNL A   1      43.842  28.835  29.793  1.00  0.00     0.049 A 
ATOM     37  N   UNL A   1      41.715  31.042  29.663  1.00  0.00    -0.248 NA
ATOM     38  C   UNL A   1      39.916  29.755  29.408  1.00  0.00     0.031 C 
ATOM     39  C   UNL A   1      44.142  29.900  30.733  1.00  0.00     0.029 A 
ATOM     40  N   UNL A   1      45.094  28.326  29.437  1.00  0.00    -0.354 N 
ATOM     41  C   UNL A   1      40.494  31.719  29.901  1.00  0.00     0.074 A 
ATOM     42  C   UNL A   1      39.502  30.998  29.245  1.00  0.00     0.031 C 
ATOM     43  C   UNL A   1      45.452  30.179  30.643  1.00  0.00     0.029 A 
ATOM     44  C   UNL A   1      45.978  29.405  29.531  1.00  0.00     0.049 A 
ATOM     45  H   UNL A   1      45.309  27.401  29.177  1.00  0.00     0.167 HD
ATOM     46  C   UNL A   1      40.304  32.613  30.913  1.00  0.00     0.037 A 
ATOM     47  C   UNL A   1      46.596  29.883  28.415  1.00  0.00     0.037 A 
ATOM     48  C   UNL A   1      41.583  33.207  31.158  1.00  0.00     0.049 A 
ATOM     49  C   UNL A   1      46.252  31.335  28.188  1.00  0.00     0.074 A 
ATOM     50  C   UNL A   1      42.571  33.017  32.095  1.00  0.00     0.029 A 
ATOM     51  N   UNL A   1      42.167  33.813  30.061  1.00  0.00    -0.354 N 
ATOM     52  N   UNL A   1      45.251  31.932  28.784  1.00  0.00    -0.248 NA
ATOM     53  C   UNL A   1      47.017  32.260  27.360  1.00  0.00     0.031 C 
ATOM     54  C   UNL A   1      43.808  33.297  31.432  1.00  0.00     0.029 A 
ATOM     55  C   UNL A   1      43.538  33.714  30.134  1.00  0.00     0.049 A 
ATOM     56  H   UNL A   1      41.672  34.253  29.333  1.00  0.00     0.167 HD
ATOM     57  C   UNL A   1      45.231  33.258  28.468  1.00  0.00     0.074 A 
ATOM     58  C   UNL A   1      46.352  33.415  27.560  1.00  0.00     0.031 C 
ATOM     59  C   UNL A   1      44.301  34.126  28.961  1.00  0.00     0.037 A 
BRANCH  46  60
ATOM     60  C   UNL A   1      39.013  32.837  31.745  1.00  0.00     0.058 A 
ATOM     61  C   UNL A   1      38.356  34.086  31.670  1.00  0.00     0.135 A 
ATOM     62  C   UNL A   1      38.440  31.968  32.721  1.00  0.00     0.135 A 
ATOM     63  F   UNL A   1      38.783  35.031  30.820  1.00  0.00    -0.206 F 
ATOM     64  C   UNL A   1      37.260  34.444  32.478  1.00  0.00     0.059 A 
ATOM     65  C   UNL A   1      37.319  32.289  33.509  1.00  0.00     0.059 A 
ATOM     66  F   UNL A   1      38.952  30.771  33.025  1.00  0.00    -0.206 F 
ATOM     67  C   UNL A   1      36.742  33.539  33.396  1.00  0.00     0.060 A 
BRANCH  67  68
ATOM     68  S   UNL A   1      35.348  34.020  34.441  1.00  0.00     0.124 S 
ATOM     69  O   UNL A   1      35.848  33.716  35.779  1.00  0.00    -0.237 OA
ATOM     70  O   UNL A   1      35.198  35.435  34.126  1.00  0.00    -0.237 OA
ATOM     71  O   UNL A   1      34.257  33.164  33.980  1.00  0.00    -0.744 OA
ENDBRANCH  67  68
ENDBRANCH  46  60
BRANCH  47  72
ATOM     72  C   UNL A   1      47.009  28.786  27.475  1.00  0.00     0.058 A 
ATOM     73  C   UNL A   1      46.113  28.524  26.409  1.00  0.00     0.135 A 
ATOM     74  C   UNL A   1      48.327  28.344  27.289  1.00  0.00     0.135 A 
ATOM     75  F   UNL A   1      44.824  28.887  26.522  1.00  0.00    -0.206 F 
ATOM     76  C   UNL A   1      46.531  28.045  25.169  1.00  0.00     0.059 A 
ATOM     77  C   UNL A   1      48.765  27.813  26.054  1.00  0.00     0.059 A 
ATOM     78  F   UNL A   1      49.253  28.564  28.236  1.00  0.00    -0.206 F 
ATOM     79  C   UNL A   1      47.875  27.755  24.978  1.00  0.00     0.060 A 
BRANCH  79  80
ATOM     80  S   UNL A   1      48.432  27.486  23.269  1.00  0.00     0.124 S 
ATOM     81  O   UNL A   1      47.441  28.229  22.498  1.00  0.00    -0.237 OA
ATOM     82  O   UNL A   1      49.771  28.073  23.303  1.00  0.00    -0.237 OA
ATOM     83  O   UNL A   1      48.377  26.037  23.124  1.00  0.00    -0.744 OA
ENDBRANCH  79  80
ENDBRANCH  47  72
BRANCH  59  84
ATOM     84  C   UNL A   1      43.949  35.449  28.322  1.00  0.00     0.058 A 
ATOM     85  C   UNL A   1      43.269  35.552  27.098  1.00  0.00     0.135 A 
ATOM     86  C   UNL A   1      44.060  36.648  29.071  1.00  0.00     0.135 A 
ATOM     87  F   UNL A   1      43.010  34.471  26.348  1.00  0.00    -0.206 F 
ATOM     88  C   UNL A   1      42.784  36.768  26.620  1.00  0.00     0.059 A 
ATOM     89  C   UNL A   1      43.502  37.850  28.655  1.00  0.00     0.059 A 
ATOM     90  F   UNL A   1      44.678  36.673  30.262  1.00  0.00    -0.206 F 
ATOM     91  C   UNL A   1      42.902  37.909  27.408  1.00  0.00     0.060 A 
BRANCH  91  92
ATOM     92  S   UNL A   1      42.276  39.484  26.809  1.00  0.00     0.124 S 
ATOM     93  O   UNL A   1      41.132  39.048  26.013  1.00  0.00    -0.237 OA
ATOM     94  O   UNL A   1      41.951  40.198  28.040  1.00  0.00    -0.237 OA
ATOM     95  O   UNL A   1      43.404  40.024  26.058  1.00  0.00    -0.744 OA
ENDBRANCH  91  92
ENDBRANCH  59  84
ENDBRANCH  33  34
ENDBRANCH  26  28
ENDBRANCH  25  26
ENDBRANCH  24  25
ENDBRANCH  23  24
ENDBRANCH  22  23
ENDBRANCH   1  22
TORSDOF 21
ENDMDL
MODEL 3
REMARK VINA RESULT:     -10.7      3.443     10.280
REMARK SMILES Cc1cccc(-c2cc(C(=O)OCCOCCOCCOC(=O)c3ccc(-c4c5nc(c(-c6c(F)cc(S(=O)(=O)[O-])cc6F)c6ccc([nH]6)c(-c6c(F)cc(S(=O)(=O)[O-])cc6F)c6nc(c(-c7c(F)cc(S(=O)(=O)[O-])cc7F)c7ccc4[nH]7)C=C6)C=C5)cc3)ccn2)c1
REMARK SMILES IDX 17 1 16 2 15 3 14 4 13 5 12 6 10 7 11 8 9 9 7 10 8 11 92 12
REMARK SMILES IDX 91 13 90 14 6 15 1 16 2 17 3 18 93 19 4 20 5 21 18 22 19 23
REMARK SMILES IDX 20 24 21 25 22 26 23 27 24 28 25 29 89 30 26 31 88 32 27 33
REMARK SMILES IDX 28 34 29 35 82 36 30 37 87 38 81 39 83 40 31 41 86 42 80 43
REMARK SMILES IDX 79 44 32 46 66 47 45 48 65 49 46 50 49 51 64 52 84 53 47 54
REMARK SMILES IDX 48 55 63 57 85 58 50 59 33 60 34 61 43 62 35 63 36 64 42 65
REMARK SMILES IDX 44 66 37 67 38 68 39 69 40 70 41 71 67 72 68 73 77 74 69 75
REMARK SMILES IDX 70 76 76 77 78 78 71 79 72 80 73 81 74 82 75 83 51 84 52 85
REMARK SMILES IDX 61 86 53 87 54 88 60 89 62 90 55 91 56 92 57 93 58 94 59 95
REMARK H PARENT 83 45 49 56
REMARK Flexibility Score: inf
ROOT
ATOM      1  C   UNL A   1      35.025  31.888  27.866  1.00  0.00     0.188 C 
ENDROOT
BRANCH   1   2
ATOM      2  C   UNL A   1      34.615  30.479  27.464  1.00  0.00     0.188 C 
BRANCH   2   3
ATOM      3  O   UNL A   1      33.254  30.038  27.550  1.00  0.00    -0.376 OA
BRANCH   3   4
ATOM      4  C   UNL A   1      32.373  30.208  26.433  1.00  0.00     0.202 C 
BRANCH   4   5
ATOM      5  C   UNL A   1      31.642  28.989  25.697  1.00  0.00     0.261 C 
BRANCH   5   6
ATOM      6  O   UNL A   1      31.616  27.624  26.286  1.00  0.00    -0.460 OA
BRANCH   6   7
ATOM      7  C   UNL A   1      31.403  26.359  25.754  1.00  0.00     0.338 C 
ATOM      8  O   UNL A   1      30.565  25.608  26.257  1.00  0.00    -0.246 OA
BRANCH   7   9
ATOM      9  C   UNL A   1      32.328  25.833  24.363  1.00  0.00     0.063 A 
ATOM     10  C   UNL A   1      34.178  24.526  23.649  1.00  0.00     0.071 A 
ATOM     11  C   UNL A   1      33.515  25.235  24.672  1.00  0.00     0.044 A 
ATOM     12  N   UNL A   1      33.925  24.525  22.316  1.00  0.00    -0.256 NA
ATOM     13  C   UNL A   1      32.775  25.045  21.981  1.00  0.00     0.112 A 
ATOM     14  C   UNL A   1      31.974  25.600  22.959  1.00  0.00     0.036 A 
BRANCH  10  15
ATOM     15  C   UNL A   1      34.880  23.330  24.013  1.00  0.00     0.000 A 
ATOM     16  C   UNL A   1      33.885  19.833  25.031  1.00  0.00     0.044 C 
ATOM     17  C   UNL A   1      34.734  21.008  24.661  1.00  0.00    -0.050 A 
ATOM     18  C   UNL A   1      36.126  21.012  24.792  1.00  0.00     0.003 A 
ATOM     19  C   UNL A   1      34.119  22.173  24.245  1.00  0.00     0.013 A 
ATOM     20  C   UNL A   1      36.888  22.142  24.456  1.00  0.00     0.001 A 
ATOM     21  C   UNL A   1      36.263  23.306  24.051  1.00  0.00     0.010 A 
ENDBRANCH  10  15
ENDBRANCH   7   9
ENDBRANCH   6   7
ENDBRANCH   5   6
ENDBRANCH   4   5
ENDBRANCH   3   4
ENDBRANCH   2   3
ENDBRANCH   1   2
BRANCH   1  22
ATOM     22  O   UNL A   1      34.422  32.206  29.113  1.00  0.00    -0.376 OA
BRANCH  22  23
ATOM     23  C   UNL A   1      35.292  32.634  30.143  1.00  0.00     0.202 C 
BRANCH  23  24
ATOM     24  C   UNL A   1      35.488  31.642  31.310  1.00  0.00     0.261 C 
BRANCH  24  25
ATOM     25  O   UNL A   1      36.382  30.523  31.034  1.00  0.00    -0.460 OA
BRANCH  25  26
ATOM     26  C   UNL A   1      37.088  29.907  32.050  1.00  0.00     0.338 C 
ATOM     27  O   UNL A   1      36.584  29.701  33.153  1.00  0.00    -0.246 OA
BRANCH  26  28
ATOM     28  C   UNL A   1      38.339  29.246  31.557  1.00  0.00     0.060 A 
ATOM     29  C   UNL A   1      39.633  29.215  32.089  1.00  0.00     0.016 A 
ATOM     30  C   UNL A   1      38.200  28.630  30.363  1.00  0.00     0.016 A 
ATOM     31  C   UNL A   1      40.788  28.759  31.314  1.00  0.00     0.010 A 
ATOM     32  C   UNL A   1      39.334  28.501  29.571  1.00  0.00     0.010 A 
ATOM     33  C   UNL A   1      40.703  28.432  29.953  1.00  0.00    -0.014 A 
BRANCH  33  34
ATOM     34  C   UNL A   1      41.996  28.023  28.936  1.00  0.00     0.031 A 
ATOM     35  C   UNL A   1      42.937  26.556  28.680  1.00  0.00     0.074 A 
ATOM     36  C   UNL A   1      42.380  29.031  28.132  1.00  0.00     0.049 A 
ATOM     37  N   UNL A   1      44.169  26.540  28.201  1.00  0.00    -0.248 NA
ATOM     38  C   UNL A   1      42.704  25.102  29.064  1.00  0.00     0.031 C 
ATOM     39  C   UNL A   1      43.218  28.962  26.948  1.00  0.00     0.029 A 
ATOM     40  N   UNL A   1      42.187  30.400  28.338  1.00  0.00    -0.354 N 
ATOM     41  C   UNL A   1      44.557  25.185  28.066  1.00  0.00     0.074 A 
ATOM     42  C   UNL A   1      43.864  24.472  29.038  1.00  0.00     0.031 C 
ATOM     43  C   UNL A   1      43.723  30.185  26.723  1.00  0.00     0.029 A 
ATOM     44  C   UNL A   1      43.341  31.019  27.850  1.00  0.00     0.049 A 
ATOM     45  H   UNL A   1      41.402  30.836  28.741  1.00  0.00     0.167 HD
ATOM     46  C   UNL A   1      45.134  24.666  26.944  1.00  0.00     0.037 A 
ATOM     47  C   UNL A   1      44.172  31.686  28.700  1.00  0.00     0.037 A 
ATOM     48  C   UNL A   1      45.853  25.745  26.337  1.00  0.00     0.049 A 
ATOM     49  C   UNL A   1      45.558  31.089  28.677  1.00  0.00     0.074 A 
ATOM     50  C   UNL A   1      45.606  26.599  25.288  1.00  0.00     0.029 A 
ATOM     51  N   UNL A   1      46.795  26.349  27.148  1.00  0.00    -0.354 N 
ATOM     52  N   UNL A   1      45.818  29.909  28.173  1.00  0.00    -0.248 NA
ATOM     53  C   UNL A   1      46.770  31.763  29.128  1.00  0.00     0.031 C 
ATOM     54  C   UNL A   1      46.240  27.837  25.627  1.00  0.00     0.029 A 
ATOM     55  C   UNL A   1      46.910  27.684  26.834  1.00  0.00     0.049 A 
ATOM     56  H   UNL A   1      47.311  25.889  27.849  1.00  0.00     0.167 HD
ATOM     57  C   UNL A   1      47.159  29.665  28.200  1.00  0.00     0.074 A 
ATOM     58  C   UNL A   1      47.715  30.853  28.820  1.00  0.00     0.031 C 
ATOM     59  C   UNL A   1      47.715  28.514  27.724  1.00  0.00     0.037 A 
BRANCH  46  60
ATOM     60  C   UNL A   1      44.932  23.248  26.349  1.00  0.00     0.058 A 
ATOM     61  C   UNL A   1      46.059  22.528  25.894  1.00  0.00     0.135 A 
ATOM     62  C   UNL A   1      43.701  22.587  26.061  1.00  0.00     0.135 A 
ATOM     63  F   UNL A   1      47.296  23.019  26.062  1.00  0.00    -0.206 F 
ATOM     64  C   UNL A   1      45.981  21.295  25.217  1.00  0.00     0.059 A 
ATOM     65  C   UNL A   1      43.601  21.336  25.424  1.00  0.00     0.059 A 
ATOM     66  F   UNL A   1      42.504  23.124  26.321  1.00  0.00    -0.206 F 
ATOM     67  C   UNL A   1      44.747  20.701  24.987  1.00  0.00     0.060 A 
BRANCH  67  68
ATOM     68  S   UNL A   1      44.659  19.128  24.099  1.00  0.00     0.124 S 
ATOM     69  O   UNL A   1      44.356  19.561  22.738  1.00  0.00    -0.237 OA
ATOM     70  O   UNL A   1      45.995  18.580  24.308  1.00  0.00    -0.237 OA
ATOM     71  O   UNL A   1      43.582  18.408  24.774  1.00  0.00    -0.744 OA
ENDBRANCH  67  68
ENDBRANCH  46  60
BRANCH  47  72
ATOM     72  C   UNL A   1      43.421  32.452  29.752  1.00  0.00     0.058 A 
ATOM     73  C   UNL A   1      42.853  33.679  29.326  1.00  0.00     0.135 A 
ATOM     74  C   UNL A   1      42.865  31.889  30.910  1.00  0.00     0.135 A 
ATOM     75  F   UNL A   1      43.350  34.299  28.243  1.00  0.00    -0.206 F 
ATOM     76  C   UNL A   1      41.690  34.208  29.883  1.00  0.00     0.059 A 
ATOM     77  C   UNL A   1      41.711  32.434  31.519  1.00  0.00     0.059 A 
ATOM     78  F   UNL A   1      43.323  30.718  31.379  1.00  0.00    -0.206 F 
ATOM     79  C   UNL A   1      41.085  33.540  30.938  1.00  0.00     0.060 A 
BRANCH  79  80
ATOM     80  S   UNL A   1      39.401  34.053  31.389  1.00  0.00     0.124 S 
ATOM     81  O   UNL A   1      39.585  34.574  32.739  1.00  0.00    -0.237 OA
ATOM     82  O   UNL A   1      39.116  35.055  30.363  1.00  0.00    -0.237 OA
ATOM     83  O   UNL A   1      38.639  32.814  31.297  1.00  0.00    -0.744 OA
ENDBRANCH  79  80
ENDBRANCH  47  72
BRANCH  59  84
ATOM     84  C   UNL A   1      49.077  27.998  28.125  1.00  0.00     0.058 A 
ATOM     85  C   UNL A   1      50.207  28.091  27.297  1.00  0.00     0.135 A 
ATOM     86  C   UNL A   1      49.327  27.634  29.474  1.00  0.00     0.135 A 
ATOM     87  F   UNL A   1      50.114  28.524  26.032  1.00  0.00    -0.206 F 
ATOM     88  C   UNL A   1      51.488  27.788  27.755  1.00  0.00     0.059 A 
ATOM     89  C   UNL A   1      50.605  27.420  29.972  1.00  0.00     0.059 A 
ATOM     90  F   UNL A   1      48.328  27.524  30.364  1.00  0.00    -0.206 F 
ATOM     91  C   UNL A   1      51.676  27.458  29.094  1.00  0.00     0.060 A 
BRANCH  91  92
ATOM     92  S   UNL A   1      53.323  27.072  29.702  1.00  0.00     0.124 S 
ATOM     93  O   UNL A   1      53.019  26.065  30.715  1.00  0.00    -0.237 OA
ATOM     94  O   UNL A   1      54.007  26.581  28.510  1.00  0.00    -0.237 OA
ATOM     95  O   UNL A   1      53.799  28.355  30.206  1.00  0.00    -0.744 OA
ENDBRANCH  91  92
ENDBRANCH  59  84
ENDBRANCH  33  34
ENDBRANCH  26  28
ENDBRANCH  25  26
ENDBRANCH  24  25
ENDBRANCH  23  24
ENDBRANCH  22  23
ENDBRANCH   1  22
TORSDOF 21
ENDMDL
