MODEL 1
REMARK VINA RESULT:     -10.2      0.000      0.000
REMARK SMILES Cc1nc(CN(C)C(=O)NCc2ccc(C(=O)OCCOCCOCCOC(=O)c3ccc(-c4c5nc(c(-c6c(F)cc(S(=O)(=O)[O-])cc6F)c6ccc([nH]6)c(-c6c(F)cc(S(=O)(=O)[O-])cc6F)c6nc(c(-c7c(F)cc(S(=O)(=O)[O-])cc7F)c7ccc4[nH]7)C=C6)C=C5)cc3)o2)n[nH]1
REMARK SMILES IDX 22 1 21 2 20 3 19 4 18 5 16 6 17 7 15 8 12 9 13 10 96 11
REMARK SMILES IDX 14 12 11 13 10 14 8 15 9 16 6 18 7 19 5 20 4 21 1 22 2 23
REMARK SMILES IDX 3 24 98 25 97 26 23 28 24 29 25 30 26 31 27 32 28 33 29 34
REMARK SMILES IDX 30 35 31 36 95 37 32 38 94 39 33 40 34 41 35 42 88 43 36 44
REMARK SMILES IDX 93 45 87 46 89 47 37 48 92 49 86 50 85 51 38 53 72 54 51 55
REMARK SMILES IDX 71 56 52 57 55 58 70 59 90 60 53 61 54 62 69 64 91 65 56 66
REMARK SMILES IDX 39 67 40 68 49 69 41 70 42 71 48 72 50 73 43 74 44 75 45 76
REMARK SMILES IDX 46 77 47 78 73 79 74 80 83 81 75 82 76 83 82 84 84 85 77 86
REMARK SMILES IDX 78 87 79 88 80 89 81 90 57 91 58 92 67 93 59 94 60 95 66 96
REMARK SMILES IDX 68 97 61 98 62 99 63 100 64 101 65 102
REMARK H PARENT 10 17 98 27 89 52 55 63
REMARK Flexibility Score: inf
ROOT
ATOM      1  C   UNL A   1      44.117  19.254  24.669  1.00  0.00     0.188 C 
ENDROOT
BRANCH   1   2
ATOM      2  O   UNL A   1      43.981  18.272  25.692  1.00  0.00    -0.376 OA
BRANCH   2   3
ATOM      3  C   UNL A   1      42.935  18.403  26.647  1.00  0.00     0.202 C 
BRANCH   3   4
ATOM      4  C   UNL A   1      41.702  19.185  26.194  1.00  0.00     0.261 C 
BRANCH   4   5
ATOM      5  O   UNL A   1      41.050  19.823  27.305  1.00  0.00    -0.457 OA
BRANCH   5   6
ATOM      6  C   UNL A   1      41.242  21.172  27.409  1.00  0.00     0.374 C 
ATOM      7  O   UNL A   1      42.250  21.701  27.855  1.00  0.00    -0.242 OA
BRANCH   6   8
ATOM      8  C   UNL A   1      40.127  21.862  26.804  1.00  0.00     0.211 A 
ATOM      9  C   UNL A   1      38.305  21.946  25.559  1.00  0.00     0.124 A 
ATOM     10  C   UNL A   1      38.420  23.179  26.170  1.00  0.00     0.048 A 
ATOM     11  O   UNL A   1      39.358  21.160  25.915  1.00  0.00    -0.452 OA
ATOM     12  C   UNL A   1      39.580  23.119  26.982  1.00  0.00     0.058 A 
BRANCH   9  13
ATOM     13  C   UNL A   1      37.294  21.301  24.679  1.00  0.00     0.193 C 
BRANCH  13  14
ATOM     14  N   UNL A   1      36.589  22.311  23.920  1.00  0.00    -0.331 N 
ATOM     15  C   UNL A   1      35.360  22.849  23.951  1.00  0.00     0.317 C 
ATOM     16  O   UNL A   1      35.047  23.482  22.937  1.00  0.00    -0.249 OA
ATOM     17  H   UNL A   1      37.148  22.698  23.208  1.00  0.00     0.165 HD
BRANCH  15  18
ATOM     18  N   UNL A   1      34.507  22.705  25.006  1.00  0.00    -0.320 N 
ATOM     19  C   UNL A   1      34.700  23.205  26.355  1.00  0.00     0.149 C 
BRANCH  18  20
ATOM     20  C   UNL A   1      33.159  22.213  24.692  1.00  0.00     0.200 C 
BRANCH  20  21
ATOM     21  C   UNL A   1      33.116  20.717  24.580  1.00  0.00     0.170 A 
ATOM     22  C   UNL A   1      34.635  17.494  24.393  1.00  0.00     0.089 C 
ATOM     23  C   UNL A   1      33.830  18.730  24.462  1.00  0.00     0.121 A 
ATOM     24  N   UNL A   1      34.247  19.946  24.736  1.00  0.00    -0.215 NA
ATOM     25  N   UNL A   1      32.489  18.768  24.208  1.00  0.00    -0.263 N 
ATOM     26  N   UNL A   1      31.999  20.011  24.337  1.00  0.00    -0.157 NA
ATOM     27  H   UNL A   1      31.950  17.982  23.961  1.00  0.00     0.192 HD
ENDBRANCH  20  21
ENDBRANCH  18  20
ENDBRANCH  15  18
ENDBRANCH  13  14
ENDBRANCH   9  13
ENDBRANCH   6   8
ENDBRANCH   5   6
ENDBRANCH   4   5
ENDBRANCH   3   4
ENDBRANCH   2   3
ENDBRANCH   1   2
BRANCH   1  28
ATOM     28  C   UNL A   1      44.689  20.634  25.041  1.00  0.00     0.188 C 
BRANCH  28  29
ATOM     29  O   UNL A   1      43.739  21.692  24.968  1.00  0.00    -0.376 OA
BRANCH  29  30
ATOM     30  C   UNL A   1      44.247  22.993  25.237  1.00  0.00     0.202 C 
BRANCH  30  31
ATOM     31  C   UNL A   1      43.196  24.087  25.027  1.00  0.00     0.261 C 
BRANCH  31  32
ATOM     32  O   UNL A   1      42.668  24.643  26.241  1.00  0.00    -0.460 OA
BRANCH  32  33
ATOM     33  C   UNL A   1      41.926  25.766  26.119  1.00  0.00     0.338 C 
ATOM     34  O   UNL A   1      41.297  26.132  25.142  1.00  0.00    -0.246 OA
BRANCH  33  35
ATOM     35  C   UNL A   1      41.879  26.424  27.437  1.00  0.00     0.060 A 
ATOM     36  C   UNL A   1      40.908  26.022  28.361  1.00  0.00     0.016 A 
ATOM     37  C   UNL A   1      42.782  27.445  27.747  1.00  0.00     0.016 A 
ATOM     38  C   UNL A   1      40.821  26.666  29.596  1.00  0.00     0.010 A 
ATOM     39  C   UNL A   1      42.683  28.097  28.976  1.00  0.00     0.010 A 
ATOM     40  C   UNL A   1      41.687  27.729  29.895  1.00  0.00    -0.014 A 
BRANCH  40  41
ATOM     41  C   UNL A   1      41.457  28.571  31.092  1.00  0.00     0.031 A 
ATOM     42  C   UNL A   1      40.361  29.600  31.045  1.00  0.00     0.074 A 
ATOM     43  C   UNL A   1      42.222  28.443  32.189  1.00  0.00     0.049 A 
ATOM     44  N   UNL A   1      40.022  30.489  31.940  1.00  0.00    -0.248 NA
ATOM     45  C   UNL A   1      39.543  29.630  29.822  1.00  0.00     0.031 C 
ATOM     46  C   UNL A   1      43.302  27.473  32.361  1.00  0.00     0.029 A 
ATOM     47  N   UNL A   1      42.215  29.152  33.364  1.00  0.00    -0.354 N 
ATOM     48  C   UNL A   1      38.951  31.185  31.391  1.00  0.00     0.074 A 
ATOM     49  C   UNL A   1      38.712  30.629  30.077  1.00  0.00     0.031 C 
ATOM     50  C   UNL A   1      43.867  27.660  33.567  1.00  0.00     0.029 A 
ATOM     51  C   UNL A   1      43.206  28.777  34.240  1.00  0.00     0.049 A 
ATOM     52  H   UNL A   1      41.563  29.862  33.561  1.00  0.00     0.167 HD
ATOM     53  C   UNL A   1      38.230  32.193  31.935  1.00  0.00     0.037 A 
ATOM     54  C   UNL A   1      43.549  29.293  35.436  1.00  0.00     0.037 A 
ATOM     55  C   UNL A   1      38.477  32.758  33.232  1.00  0.00     0.049 A 
ATOM     56  C   UNL A   1      42.771  30.458  35.994  1.00  0.00     0.074 A 
ATOM     57  C   UNL A   1      37.795  33.777  33.874  1.00  0.00     0.029 A 
ATOM     58  N   UNL A   1      39.497  32.360  34.085  1.00  0.00    -0.354 N 
ATOM     59  N   UNL A   1      41.742  31.086  35.479  1.00  0.00    -0.248 NA
ATOM     60  C   UNL A   1      43.203  30.982  37.299  1.00  0.00     0.031 C 
ATOM     61  C   UNL A   1      38.423  34.017  35.102  1.00  0.00     0.029 A 
ATOM     62  C   UNL A   1      39.474  33.124  35.239  1.00  0.00     0.049 A 
ATOM     63  H   UNL A   1      40.141  31.641  33.897  1.00  0.00     0.167 HD
ATOM     64  C   UNL A   1      41.391  32.065  36.403  1.00  0.00     0.074 A 
ATOM     65  C   UNL A   1      42.312  31.941  37.513  1.00  0.00     0.031 C 
ATOM     66  C   UNL A   1      40.393  32.982  36.339  1.00  0.00     0.037 A 
BRANCH  53  67
ATOM     67  C   UNL A   1      37.115  32.759  31.106  1.00  0.00     0.058 A 
ATOM     68  C   UNL A   1      35.772  32.460  31.383  1.00  0.00     0.135 A 
ATOM     69  C   UNL A   1      37.391  33.612  30.025  1.00  0.00     0.135 A 
ATOM     70  F   UNL A   1      35.459  31.632  32.393  1.00  0.00    -0.206 F 
ATOM     71  C   UNL A   1      34.740  32.968  30.602  1.00  0.00     0.059 A 
ATOM     72  C   UNL A   1      36.373  34.147  29.243  1.00  0.00     0.059 A 
ATOM     73  F   UNL A   1      38.660  33.922  29.716  1.00  0.00    -0.206 F 
ATOM     74  C   UNL A   1      35.052  33.806  29.530  1.00  0.00     0.060 A 
BRANCH  74  75
ATOM     75  S   UNL A   1      33.705  34.452  28.516  1.00  0.00     0.124 S 
ATOM     76  O   UNL A   1      32.673  34.690  29.521  1.00  0.00    -0.237 OA
ATOM     77  O   UNL A   1      34.300  35.646  27.924  1.00  0.00    -0.237 OA
ATOM     78  O   UNL A   1      33.432  33.363  27.583  1.00  0.00    -0.744 OA
ENDBRANCH  74  75
ENDBRANCH  53  67
BRANCH  54  79
ATOM     79  C   UNL A   1      44.698  28.726  36.188  1.00  0.00     0.058 A 
ATOM     80  C   UNL A   1      44.520  27.657  37.078  1.00  0.00     0.135 A 
ATOM     81  C   UNL A   1      45.992  29.248  36.039  1.00  0.00     0.135 A 
ATOM     82  F   UNL A   1      43.299  27.134  37.263  1.00  0.00    -0.206 F 
ATOM     83  C   UNL A   1      45.584  27.132  37.805  1.00  0.00     0.059 A 
ATOM     84  C   UNL A   1      47.075  28.727  36.740  1.00  0.00     0.059 A 
ATOM     85  F   UNL A   1      46.213  30.267  35.195  1.00  0.00    -0.206 F 
ATOM     86  C   UNL A   1      46.858  27.674  37.629  1.00  0.00     0.060 A 
BRANCH  86  87
ATOM     87  S   UNL A   1      48.242  26.961  38.546  1.00  0.00     0.124 S 
ATOM     88  O   UNL A   1      48.798  26.037  37.563  1.00  0.00    -0.237 OA
ATOM     89  O   UNL A   1      49.054  28.137  38.846  1.00  0.00    -0.237 OA
ATOM     90  O   UNL A   1      47.596  26.344  39.700  1.00  0.00    -0.744 OA
ENDBRANCH  86  87
ENDBRANCH  54  79
BRANCH  66  91
ATOM     91  C   UNL A   1      40.222  33.905  37.513  1.00  0.00     0.058 A 
ATOM     92  C   UNL A   1      40.870  35.147  37.570  1.00  0.00     0.135 A 
ATOM     93  C   UNL A   1      39.351  33.567  38.560  1.00  0.00     0.135 A 
ATOM     94  F   UNL A   1      41.717  35.514  36.595  1.00  0.00    -0.206 F 
ATOM     95  C   UNL A   1      40.672  36.020  38.636  1.00  0.00     0.059 A 
ATOM     96  C   UNL A   1      39.123  34.431  39.626  1.00  0.00     0.059 A 
ATOM     97  F   UNL A   1      38.699  32.393  38.546  1.00  0.00    -0.206 F 
ATOM     98  C   UNL A   1      39.796  35.653  39.660  1.00  0.00     0.060 A 
BRANCH  98  99
ATOM     99  S   UNL A   1      39.510  36.807  41.018  1.00  0.00     0.124 S 
ATOM    100  O   UNL A   1      39.025  37.984  40.306  1.00  0.00    -0.237 OA
ATOM    101  O   UNL A   1      38.521  36.105  41.830  1.00  0.00    -0.237 OA
ATOM    102  O   UNL A   1      40.829  36.941  41.630  1.00  0.00    -0.744 OA
ENDBRANCH  98  99
ENDBRANCH  66  91
ENDBRANCH  40  41
ENDBRANCH  33  35
ENDBRANCH  32  33
ENDBRANCH  31  32
ENDBRANCH  30  31
ENDBRANCH  29  30
ENDBRANCH  28  29
ENDBRANCH   1  28
TORSDOF 25
ENDMDL
MODEL 2
REMARK VINA RESULT:      -9.6      1.327      2.091
REMARK SMILES Cc1nc(CN(C)C(=O)NCc2ccc(C(=O)OCCOCCOCCOC(=O)c3ccc(-c4c5nc(c(-c6c(F)cc(S(=O)(=O)[O-])cc6F)c6ccc([nH]6)c(-c6c(F)cc(S(=O)(=O)[O-])cc6F)c6nc(c(-c7c(F)cc(S(=O)(=O)[O-])cc7F)c7ccc4[nH]7)C=C6)C=C5)cc3)o2)n[nH]1
REMARK SMILES IDX 22 1 21 2 20 3 19 4 18 5 16 6 17 7 15 8 12 9 13 10 96 11
REMARK SMILES IDX 14 12 11 13 10 14 8 15 9 16 6 18 7 19 5 20 4 21 1 22 2 23
REMARK SMILES IDX 3 24 98 25 97 26 23 28 24 29 25 30 26 31 27 32 28 33 29 34
REMARK SMILES IDX 30 35 31 36 95 37 32 38 94 39 33 40 34 41 35 42 88 43 36 44
REMARK SMILES IDX 93 45 87 46 89 47 37 48 92 49 86 50 85 51 38 53 72 54 51 55
REMARK SMILES IDX 71 56 52 57 55 58 70 59 90 60 53 61 54 62 69 64 91 65 56 66
REMARK SMILES IDX 39 67 40 68 49 69 41 70 42 71 48 72 50 73 43 74 44 75 45 76
REMARK SMILES IDX 46 77 47 78 73 79 74 80 83 81 75 82 76 83 82 84 84 85 77 86
REMARK SMILES IDX 78 87 79 88 80 89 81 90 57 91 58 92 67 93 59 94 60 95 66 96
REMARK SMILES IDX 68 97 61 98 62 99 63 100 64 101 65 102
REMARK H PARENT 10 17 98 27 89 52 55 63
REMARK Flexibility Score: inf
ROOT
ATOM      1  C   UNL A   1      43.337  22.741  25.499  1.00  0.00     0.188 C 
ENDROOT
BRANCH   1   2
ATOM      2  O   UNL A   1      43.128  21.850  26.591  1.00  0.00    -0.376 OA
BRANCH   2   3
ATOM      3  C   UNL A   1      42.479  22.327  27.763  1.00  0.00     0.202 C 
BRANCH   3   4
ATOM      4  C   UNL A   1      40.996  21.982  27.901  1.00  0.00     0.261 C 
BRANCH   4   5
ATOM      5  O   UNL A   1      40.337  21.985  26.624  1.00  0.00    -0.457 OA
BRANCH   5   6
ATOM      6  C   UNL A   1      39.275  22.836  26.508  1.00  0.00     0.374 C 
ATOM      7  O   UNL A   1      39.262  23.995  26.902  1.00  0.00    -0.242 OA
BRANCH   6   8
ATOM      8  C   UNL A   1      38.226  22.195  25.750  1.00  0.00     0.211 A 
ATOM      9  C   UNL A   1      36.449  22.217  24.439  1.00  0.00     0.124 A 
ATOM     10  C   UNL A   1      36.850  20.899  24.534  1.00  0.00     0.048 A 
ATOM     11  O   UNL A   1      37.261  22.998  25.204  1.00  0.00    -0.452 OA
ATOM     12  C   UNL A   1      38.001  20.888  25.360  1.00  0.00     0.058 A 
BRANCH   9  13
ATOM     13  C   UNL A   1      35.401  22.942  23.673  1.00  0.00     0.193 C 
BRANCH  13  14
ATOM     14  N   UNL A   1      34.496  23.605  24.586  1.00  0.00    -0.331 N 
ATOM     15  C   UNL A   1      33.560  23.209  25.463  1.00  0.00     0.317 C 
ATOM     16  O   UNL A   1      32.794  24.102  25.840  1.00  0.00    -0.249 OA
ATOM     17  H   UNL A   1      34.590  24.584  24.557  1.00  0.00     0.165 HD
BRANCH  15  18
ATOM     18  N   UNL A   1      33.443  21.923  25.902  1.00  0.00    -0.320 N 
ATOM     19  C   UNL A   1      33.957  21.378  27.145  1.00  0.00     0.149 C 
BRANCH  18  20
ATOM     20  C   UNL A   1      32.501  21.067  25.169  1.00  0.00     0.200 C 
BRANCH  20  21
ATOM     21  C   UNL A   1      32.985  19.649  25.073  1.00  0.00     0.170 A 
ATOM     22  C   UNL A   1      32.665  16.134  25.592  1.00  0.00     0.089 C 
ATOM     23  C   UNL A   1      32.973  17.545  25.289  1.00  0.00     0.121 A 
ATOM     24  N   UNL A   1      32.173  18.583  25.391  1.00  0.00    -0.215 NA
ATOM     25  N   UNL A   1      34.201  17.972  24.870  1.00  0.00    -0.263 N 
ATOM     26  N   UNL A   1      34.216  19.300  24.666  1.00  0.00    -0.157 NA
ATOM     27  H   UNL A   1      34.976  17.381  24.734  1.00  0.00     0.192 HD
ENDBRANCH  20  21
ENDBRANCH  18  20
ENDBRANCH  15  18
ENDBRANCH  13  14
ENDBRANCH   9  13
ENDBRANCH   6   8
ENDBRANCH   5   6
ENDBRANCH   4   5
ENDBRANCH   3   4
ENDBRANCH   2   3
ENDBRANCH   1   2
BRANCH   1  28
ATOM     28  C   UNL A   1      44.718  22.764  24.819  1.00  0.00     0.188 C 
BRANCH  28  29
ATOM     29  O   UNL A   1      45.078  24.034  24.286  1.00  0.00    -0.376 OA
BRANCH  29  30
ATOM     30  C   UNL A   1      45.879  24.849  25.132  1.00  0.00     0.202 C 
BRANCH  30  31
ATOM     31  C   UNL A   1      45.187  26.163  25.506  1.00  0.00     0.261 C 
BRANCH  31  32
ATOM     32  O   UNL A   1      43.752  26.103  25.491  1.00  0.00    -0.460 OA
BRANCH  32  33
ATOM     33  C   UNL A   1      43.098  27.283  25.431  1.00  0.00     0.338 C 
ATOM     34  O   UNL A   1      42.626  27.816  24.443  1.00  0.00    -0.246 OA
BRANCH  33  35
ATOM     35  C   UNL A   1      42.915  27.772  26.810  1.00  0.00     0.060 A 
ATOM     36  C   UNL A   1      42.171  27.000  27.709  1.00  0.00     0.016 A 
ATOM     37  C   UNL A   1      43.465  28.995  27.203  1.00  0.00     0.016 A 
ATOM     38  C   UNL A   1      41.951  27.469  29.005  1.00  0.00     0.010 A 
ATOM     39  C   UNL A   1      43.231  29.468  28.493  1.00  0.00     0.010 A 
ATOM     40  C   UNL A   1      42.452  28.721  29.391  1.00  0.00    -0.014 A 
BRANCH  40  41
ATOM     41  C   UNL A   1      42.032  29.334  30.673  1.00  0.00     0.031 A 
ATOM     42  C   UNL A   1      40.781  30.169  30.691  1.00  0.00     0.074 A 
ATOM     43  C   UNL A   1      42.760  29.176  31.791  1.00  0.00     0.049 A 
ATOM     44  N   UNL A   1      40.258  30.855  31.673  1.00  0.00    -0.248 NA
ATOM     45  C   UNL A   1      40.023  30.242  29.432  1.00  0.00     0.031 C 
ATOM     46  C   UNL A   1      43.979  28.378  31.903  1.00  0.00     0.029 A 
ATOM     47  N   UNL A   1      42.582  29.699  33.047  1.00  0.00    -0.354 N 
ATOM     48  C   UNL A   1      39.110  31.440  31.153  1.00  0.00     0.074 A 
ATOM     49  C   UNL A   1      39.025  31.048  29.763  1.00  0.00     0.031 C 
ATOM     50  C   UNL A   1      44.452  28.479  33.158  1.00  0.00     0.029 A 
ATOM     51  C   UNL A   1      43.583  29.366  33.929  1.00  0.00     0.049 A 
ATOM     52  H   UNL A   1      41.811  30.259  33.294  1.00  0.00     0.167 HD
ATOM     53  C   UNL A   1      38.206  32.231  31.779  1.00  0.00     0.037 A 
ATOM     54  C   UNL A   1      43.783  29.755  35.204  1.00  0.00     0.037 A 
ATOM     55  C   UNL A   1      38.299  32.637  33.153  1.00  0.00     0.049 A 
ATOM     56  C   UNL A   1      42.796  30.687  35.860  1.00  0.00     0.074 A 
ATOM     57  C   UNL A   1      37.427  33.430  33.880  1.00  0.00     0.029 A 
ATOM     58  N   UNL A   1      39.333  32.290  34.010  1.00  0.00    -0.354 N 
ATOM     59  N   UNL A   1      41.699  31.209  35.367  1.00  0.00    -0.248 NA
ATOM     60  C   UNL A   1      43.077  31.082  37.249  1.00  0.00     0.031 C 
ATOM     61  C   UNL A   1      37.952  33.590  35.167  1.00  0.00     0.029 A 
ATOM     62  C   UNL A   1      39.132  32.867  35.252  1.00  0.00     0.049 A 
ATOM     63  H   UNL A   1      40.097  31.718  33.771  1.00  0.00     0.167 HD
ATOM     64  C   UNL A   1      41.148  31.975  36.389  1.00  0.00     0.074 A 
ATOM     65  C   UNL A   1      42.028  31.844  37.531  1.00  0.00     0.031 C 
ATOM     66  C   UNL A   1      40.014  32.719  36.382  1.00  0.00     0.037 A 
BRANCH  53  67
ATOM     67  C   UNL A   1      37.048  32.722  30.960  1.00  0.00     0.058 A 
ATOM     68  C   UNL A   1      35.821  32.044  30.948  1.00  0.00     0.135 A 
ATOM     69  C   UNL A   1      37.166  33.887  30.185  1.00  0.00     0.135 A 
ATOM     70  F   UNL A   1      35.666  30.913  31.657  1.00  0.00    -0.206 F 
ATOM     71  C   UNL A   1      34.755  32.488  30.174  1.00  0.00     0.059 A 
ATOM     72  C   UNL A   1      36.106  34.360  29.418  1.00  0.00     0.059 A 
ATOM     73  F   UNL A   1      38.323  34.567  30.159  1.00  0.00    -0.206 F 
ATOM     74  C   UNL A   1      34.909  33.644  29.408  1.00  0.00     0.060 A 
BRANCH  74  75
ATOM     75  S   UNL A   1      33.522  34.206  28.398  1.00  0.00     0.124 S 
ATOM     76  O   UNL A   1      32.628  34.756  29.414  1.00  0.00    -0.237 OA
ATOM     77  O   UNL A   1      34.151  35.182  27.514  1.00  0.00    -0.237 OA
ATOM     78  O   UNL A   1      33.059  32.984  27.749  1.00  0.00    -0.744 OA
ENDBRANCH  74  75
ENDBRANCH  53  67
BRANCH  54  79
ATOM     79  C   UNL A   1      44.978  29.278  35.947  1.00  0.00     0.058 A 
ATOM     80  C   UNL A   1      46.173  30.012  35.938  1.00  0.00     0.135 A 
ATOM     81  C   UNL A   1      44.950  28.078  36.672  1.00  0.00     0.135 A 
ATOM     82  F   UNL A   1      46.251  31.159  35.247  1.00  0.00    -0.206 F 
ATOM     83  C   UNL A   1      47.306  29.564  36.611  1.00  0.00     0.059 A 
ATOM     84  C   UNL A   1      46.064  27.620  37.370  1.00  0.00     0.059 A 
ATOM     85  F   UNL A   1      43.827  27.344  36.716  1.00  0.00    -0.206 F 
ATOM     86  C   UNL A   1      47.241  28.366  37.324  1.00  0.00     0.060 A 
BRANCH  86  87
ATOM     87  S   UNL A   1      48.702  27.812  38.230  1.00  0.00     0.124 S 
ATOM     88  O   UNL A   1      49.226  26.783  37.340  1.00  0.00    -0.237 OA
ATOM     89  O   UNL A   1      49.492  29.037  38.323  1.00  0.00    -0.237 OA
ATOM     90  O   UNL A   1      48.150  27.336  39.495  1.00  0.00    -0.744 OA
ENDBRANCH  86  87
ENDBRANCH  54  79
BRANCH  66  91
ATOM     91  C   UNL A   1      39.639  33.424  37.655  1.00  0.00     0.058 A 
ATOM     92  C   UNL A   1      38.719  32.870  38.556  1.00  0.00     0.135 A 
ATOM     93  C   UNL A   1      40.254  34.636  38.003  1.00  0.00     0.135 A 
ATOM     94  F   UNL A   1      38.099  31.715  38.267  1.00  0.00    -0.206 F 
ATOM     95  C   UNL A   1      38.409  33.502  39.757  1.00  0.00     0.059 A 
ATOM     96  C   UNL A   1      39.975  35.277  39.206  1.00  0.00     0.059 A 
ATOM     97  F   UNL A   1      41.150  35.201  37.178  1.00  0.00    -0.206 F 
ATOM     98  C   UNL A   1      39.043  34.707  40.073  1.00  0.00     0.060 A 
BRANCH  98  99
ATOM     99  S   UNL A   1      38.669  35.500  41.651  1.00  0.00     0.124 S 
ATOM    100  O   UNL A   1      38.978  36.895  41.359  1.00  0.00    -0.237 OA
ATOM    101  O   UNL A   1      37.255  35.190  41.835  1.00  0.00    -0.237 OA
ATOM    102  O   UNL A   1      39.573  34.837  42.586  1.00  0.00    -0.744 OA
ENDBRANCH  98  99
ENDBRANCH  66  91
ENDBRANCH  40  41
ENDBRANCH  33  35
ENDBRANCH  32  33
ENDBRANCH  31  32
ENDBRANCH  30  31
ENDBRANCH  29  30
ENDBRANCH  28  29
ENDBRANCH   1  28
TORSDOF 25
ENDMDL
MODEL 3
REMARK VINA RESULT:      -9.3      6.669      9.738
REMARK SMILES Cc1nc(CN(C)C(=O)NCc2ccc(C(=O)OCCOCCOCCOC(=O)c3ccc(-c4c5nc(c(-c6c(F)cc(S(=O)(=O)[O-])cc6F)c6ccc([nH]6)c(-c6c(F)cc(S(=O)(=O)[O-])cc6F)c6nc(c(-c7c(F)cc(S(=O)(=O)[O-])cc7F)c7ccc4[nH]7)C=C6)C=C5)cc3)o2)n[nH]1
REMARK SMILES IDX 22 1 21 2 20 3 19 4 18 5 16 6 17 7 15 8 12 9 13 10 96 11
REMARK SMILES IDX 14 12 11 13 10 14 8 15 9 16 6 18 7 19 5 20 4 21 1 22 2 23
REMARK SMILES IDX 3 24 98 25 97 26 23 28 24 29 25 30 26 31 27 32 28 33 29 34
REMARK SMILES IDX 30 35 31 36 95 37 32 38 94 39 33 40 34 41 35 42 88 43 36 44
REMARK SMILES IDX 93 45 87 46 89 47 37 48 92 49 86 50 85 51 38 53 72 54 51 55
REMARK SMILES IDX 71 56 52 57 55 58 70 59 90 60 53 61 54 62 69 64 91 65 56 66
REMARK SMILES IDX 39 67 40 68 49 69 41 70 42 71 48 72 50 73 43 74 44 75 45 76
REMARK SMILES IDX 46 77 47 78 73 79 74 80 83 81 75 82 76 83 82 84 84 85 77 86
REMARK SMILES IDX 78 87 79 88 80 89 81 90 57 91 58 92 67 93 59 94 60 95 66 96
REMARK SMILES IDX 68 97 61 98 62 99 63 100 64 101 65 102
REMARK H PARENT 10 17 98 27 89 52 55 63
REMARK Flexibility Score: inf
ROOT
ATOM      1  C   UNL A   1      36.377  23.530  25.869  1.00  0.00     0.188 C 
ENDROOT
BRANCH   1   2
ATOM      2  O   UNL A   1      35.510  22.745  26.681  1.00  0.00    -0.376 OA
BRANCH   2   3
ATOM      3  C   UNL A   1      35.043  21.493  26.194  1.00  0.00     0.202 C 
BRANCH   3   4
ATOM      4  C   UNL A   1      35.053  21.314  24.675  1.00  0.00     0.261 C 
BRANCH   4   5
ATOM      5  O   UNL A   1      34.108  20.314  24.261  1.00  0.00    -0.457 OA
BRANCH   5   6
ATOM      6  C   UNL A   1      32.808  20.547  24.609  1.00  0.00     0.374 C 
ATOM      7  O   UNL A   1      32.147  19.837  25.355  1.00  0.00    -0.242 OA
BRANCH   6   8
ATOM      8  C   UNL A   1      32.384  21.813  24.059  1.00  0.00     0.211 A 
ATOM      9  C   UNL A   1      31.564  23.857  24.228  1.00  0.00     0.124 A 
ATOM     10  C   UNL A   1      31.988  23.711  22.922  1.00  0.00     0.048 A 
ATOM     11  O   UNL A   1      31.772  22.695  24.908  1.00  0.00    -0.452 OA
ATOM     12  C   UNL A   1      32.531  22.406  22.819  1.00  0.00     0.058 A 
BRANCH   9  13
ATOM     13  C   UNL A   1      31.005  24.978  25.031  1.00  0.00     0.193 C 
BRANCH  13  14
ATOM     14  N   UNL A   1      29.746  25.406  24.463  1.00  0.00    -0.331 N 
ATOM     15  C   UNL A   1      29.237  26.571  24.032  1.00  0.00     0.317 C 
ATOM     16  O   UNL A   1      28.010  26.577  23.889  1.00  0.00    -0.249 OA
ATOM     17  H   UNL A   1      29.108  24.663  24.370  1.00  0.00     0.165 HD
BRANCH  15  18
ATOM     18  N   UNL A   1      30.000  27.674  23.780  1.00  0.00    -0.320 N 
ATOM     19  C   UNL A   1      31.049  28.217  24.623  1.00  0.00     0.149 C 
BRANCH  18  20
ATOM     20  C   UNL A   1      29.924  28.221  22.419  1.00  0.00     0.200 C 
BRANCH  20  21
ATOM     21  C   UNL A   1      29.140  29.500  22.368  1.00  0.00     0.170 A 
ATOM     22  C   UNL A   1      28.780  33.030  22.740  1.00  0.00     0.089 C 
ATOM     23  C   UNL A   1      28.736  31.569  22.527  1.00  0.00     0.121 A 
ATOM     24  N   UNL A   1      29.745  30.727  22.521  1.00  0.00    -0.215 NA
ATOM     25  N   UNL A   1      27.578  30.875  22.326  1.00  0.00    -0.263 N 
ATOM     26  N   UNL A   1      27.815  29.563  22.161  1.00  0.00    -0.157 NA
ATOM     27  H   UNL A   1      26.684  31.284  22.305  1.00  0.00     0.192 HD
ENDBRANCH  20  21
ENDBRANCH  18  20
ENDBRANCH  15  18
ENDBRANCH  13  14
ENDBRANCH   9  13
ENDBRANCH   6   8
ENDBRANCH   5   6
ENDBRANCH   4   5
ENDBRANCH   3   4
ENDBRANCH   2   3
ENDBRANCH   1   2
BRANCH   1  28
ATOM     28  C   UNL A   1      37.897  23.331  26.004  1.00  0.00     0.188 C 
BRANCH  28  29
ATOM     29  O   UNL A   1      38.295  21.968  26.110  1.00  0.00    -0.376 OA
BRANCH  29  30
ATOM     30  C   UNL A   1      39.691  21.745  26.261  1.00  0.00     0.202 C 
BRANCH  30  31
ATOM     31  C   UNL A   1      40.059  20.261  26.187  1.00  0.00     0.261 C 
BRANCH  31  32
ATOM     32  O   UNL A   1      41.346  19.940  26.736  1.00  0.00    -0.460 OA
BRANCH  32  33
ATOM     33  C   UNL A   1      42.396  19.994  25.888  1.00  0.00     0.338 C 
ATOM     34  O   UNL A   1      42.667  19.208  24.998  1.00  0.00    -0.246 OA
BRANCH  33  35
ATOM     35  C   UNL A   1      43.104  21.265  26.123  1.00  0.00     0.060 A 
ATOM     36  C   UNL A   1      43.547  21.567  27.416  1.00  0.00     0.016 A 
ATOM     37  C   UNL A   1      43.315  22.160  25.070  1.00  0.00     0.016 A 
ATOM     38  C   UNL A   1      44.179  22.786  27.664  1.00  0.00     0.010 A 
ATOM     39  C   UNL A   1      43.934  23.384  25.323  1.00  0.00     0.010 A 
ATOM     40  C   UNL A   1      44.344  23.713  26.625  1.00  0.00    -0.014 A 
BRANCH  40  41
ATOM     41  C   UNL A   1      44.795  25.094  26.916  1.00  0.00     0.031 A 
ATOM     42  C   UNL A   1      43.771  26.105  27.351  1.00  0.00     0.074 A 
ATOM     43  C   UNL A   1      46.083  25.450  26.772  1.00  0.00     0.049 A 
ATOM     44  N   UNL A   1      43.918  27.381  27.594  1.00  0.00    -0.248 NA
ATOM     45  C   UNL A   1      42.396  25.610  27.531  1.00  0.00     0.031 C 
ATOM     46  C   UNL A   1      47.170  24.557  26.374  1.00  0.00     0.029 A 
ATOM     47  N   UNL A   1      46.690  26.670  26.930  1.00  0.00    -0.354 N 
ATOM     48  C   UNL A   1      42.658  27.842  27.956  1.00  0.00     0.074 A 
ATOM     49  C   UNL A   1      41.755  26.715  27.880  1.00  0.00     0.031 C 
ATOM     50  C   UNL A   1      48.311  25.266  26.300  1.00  0.00     0.029 A 
ATOM     51  C   UNL A   1      48.029  26.664  26.622  1.00  0.00     0.049 A 
ATOM     52  H   UNL A   1      46.211  27.475  27.234  1.00  0.00     0.167 HD
ATOM     53  C   UNL A   1      42.289  29.092  28.324  1.00  0.00     0.037 A 
ATOM     54  C   UNL A   1      48.917  27.677  26.584  1.00  0.00     0.037 A 
ATOM     55  C   UNL A   1      43.181  30.216  28.383  1.00  0.00     0.049 A 
ATOM     56  C   UNL A   1      48.469  29.072  26.937  1.00  0.00     0.074 A 
ATOM     57  C   UNL A   1      42.903  31.521  28.752  1.00  0.00     0.029 A 
ATOM     58  N   UNL A   1      44.528  30.173  28.053  1.00  0.00    -0.354 N 
ATOM     59  N   UNL A   1      47.282  29.490  27.307  1.00  0.00    -0.248 NA
ATOM     60  C   UNL A   1      49.483  30.135  26.866  1.00  0.00     0.031 C 
ATOM     61  C   UNL A   1      44.073  32.273  28.613  1.00  0.00     0.029 A 
ATOM     62  C   UNL A   1      45.089  31.430  28.192  1.00  0.00     0.049 A 
ATOM     63  H   UNL A   1      45.012  29.367  27.762  1.00  0.00     0.167 HD
ATOM     64  C   UNL A   1      47.411  30.856  27.533  1.00  0.00     0.074 A 
ATOM     65  C   UNL A   1      48.793  31.195  27.265  1.00  0.00     0.031 C 
ATOM     66  C   UNL A   1      46.470  31.749  27.929  1.00  0.00     0.037 A 
BRANCH  53  67
ATOM     67  C   UNL A   1      40.844  29.302  28.670  1.00  0.00     0.058 A 
ATOM     68  C   UNL A   1      39.860  29.398  27.675  1.00  0.00     0.135 A 
ATOM     69  C   UNL A   1      40.439  29.403  30.011  1.00  0.00     0.135 A 
ATOM     70  F   UNL A   1      40.202  29.329  26.378  1.00  0.00    -0.206 F 
ATOM     71  C   UNL A   1      38.524  29.612  27.994  1.00  0.00     0.059 A 
ATOM     72  C   UNL A   1      39.105  29.598  30.354  1.00  0.00     0.059 A 
ATOM     73  F   UNL A   1      41.344  29.324  30.998  1.00  0.00    -0.206 F 
ATOM     74  C   UNL A   1      38.157  29.717  29.337  1.00  0.00     0.060 A 
BRANCH  74  75
ATOM     75  S   UNL A   1      36.422  30.007  29.741  1.00  0.00     0.124 S 
ATOM     76  O   UNL A   1      35.752  29.385  28.602  1.00  0.00    -0.237 OA
ATOM     77  O   UNL A   1      36.275  29.314  31.017  1.00  0.00    -0.237 OA
ATOM     78  O   UNL A   1      36.328  31.462  29.807  1.00  0.00    -0.744 OA
ENDBRANCH  74  75
ENDBRANCH  53  67
BRANCH  54  79
ATOM     79  C   UNL A   1      50.324  27.418  26.182  1.00  0.00     0.058 A 
ATOM     80  C   UNL A   1      51.304  27.119  27.138  1.00  0.00     0.135 A 
ATOM     81  C   UNL A   1      50.715  27.473  24.836  1.00  0.00     0.135 A 
ATOM     82  F   UNL A   1      50.979  27.068  28.439  1.00  0.00    -0.206 F 
ATOM     83  C   UNL A   1      52.629  26.897  26.776  1.00  0.00     0.059 A 
ATOM     84  C   UNL A   1      52.030  27.235  24.447  1.00  0.00     0.059 A 
ATOM     85  F   UNL A   1      49.811  27.749  23.883  1.00  0.00    -0.206 F 
ATOM     86  C   UNL A   1      52.982  26.957  25.427  1.00  0.00     0.060 A 
BRANCH  86  87
ATOM     87  S   UNL A   1      54.696  26.627  24.960  1.00  0.00     0.124 S 
ATOM     88  O   UNL A   1      55.041  25.536  25.865  1.00  0.00    -0.237 OA
ATOM     89  O   UNL A   1      54.569  26.270  23.550  1.00  0.00    -0.237 OA
ATOM     90  O   UNL A   1      55.363  27.899  25.218  1.00  0.00    -0.744 OA
ENDBRANCH  86  87
ENDBRANCH  54  79
BRANCH  66  91
ATOM     91  C   UNL A   1      46.905  33.174  28.129  1.00  0.00     0.058 A 
ATOM     92  C   UNL A   1      47.478  33.603  29.334  1.00  0.00     0.135 A 
ATOM     93  C   UNL A   1      46.805  34.101  27.080  1.00  0.00     0.135 A 
ATOM     94  F   UNL A   1      47.592  32.756  30.369  1.00  0.00    -0.206 F 
ATOM     95  C   UNL A   1      47.924  34.911  29.501  1.00  0.00     0.059 A 
ATOM     96  C   UNL A   1      47.261  35.408  27.216  1.00  0.00     0.059 A 
ATOM     97  F   UNL A   1      46.273  33.734  25.902  1.00  0.00    -0.206 F 
ATOM     98  C   UNL A   1      47.811  35.807  28.434  1.00  0.00     0.060 A 
BRANCH  98  99
ATOM     99  S   UNL A   1      48.430  37.490  28.641  1.00  0.00     0.124 S 
ATOM    100  O   UNL A   1      49.863  37.302  28.446  1.00  0.00    -0.237 OA
ATOM    101  O   UNL A   1      47.736  38.216  27.582  1.00  0.00    -0.237 OA
ATOM    102  O   UNL A   1      48.019  37.836  29.999  1.00  0.00    -0.744 OA
ENDBRANCH  98  99
ENDBRANCH  66  91
ENDBRANCH  40  41
ENDBRANCH  33  35
ENDBRANCH  32  33
ENDBRANCH  31  32
ENDBRANCH  30  31
ENDBRANCH  29  30
ENDBRANCH  28  29
ENDBRANCH   1  28
TORSDOF 25
ENDMDL
