MODEL 1
REMARK VINA RESULT:     -10.1      0.000      0.000
REMARK SMILES Nc1nc(N2CCOC[C@H]2C(=O)OCCOCCOCCOC(=O)c2ccc(-c3c4nc(c(-c5c(F)cc(S(=O)(=O)[O-])cc5F)c5ccc([nH]5)c(-c5c(F)cc(S(=O)(=O)[O-])cc5F)c5nc(c(-c6c(F)cc(S(=O)(=O)[O-])cc6F)c6ccc3[nH]6)C=C5)C=C4)cc2)ccc1[N+](=O)[O-]
REMARK SMILES IDX 18 1 17 2 16 3 15 4 14 5 13 6 11 7 12 8 10 9 5 10 6 11 7 12
REMARK SMILES IDX 9 13 8 14 4 15 2 16 3 17 93 18 92 19 91 20 1 21 94 24 95 25
REMARK SMILES IDX 96 26 19 27 20 28 21 29 22 30 23 31 24 32 25 33 26 34 90 35
REMARK SMILES IDX 27 36 89 37 28 38 29 39 30 40 83 41 31 42 88 43 82 44 84 45
REMARK SMILES IDX 32 46 87 47 81 48 80 49 33 51 67 52 46 53 66 54 47 55 50 56
REMARK SMILES IDX 65 57 85 58 48 59 49 60 64 62 86 63 51 64 34 65 35 66 44 67
REMARK SMILES IDX 36 68 37 69 43 70 45 71 38 72 39 73 40 74 41 75 42 76 68 77
REMARK SMILES IDX 69 78 78 79 70 80 71 81 77 82 79 83 72 84 73 85 74 86 75 87
REMARK SMILES IDX 76 88 52 89 53 90 62 91 54 92 55 93 61 94 63 95 56 96 57 97
REMARK SMILES IDX 58 98 59 99 60 100
REMARK H PARENT 1 22 1 23 84 50 50 61
REMARK Flexibility Score: inf
ROOT
ATOM      1  C   UNL A   1      40.123  22.062  26.558  1.00  0.00     0.188 C 
ENDROOT
BRANCH   1   2
ATOM      2  C   UNL A   1      39.123  23.228  26.429  1.00  0.00     0.188 C 
BRANCH   2   3
ATOM      3  O   UNL A   1      37.745  22.897  26.287  1.00  0.00    -0.376 OA
BRANCH   3   4
ATOM      4  C   UNL A   1      36.890  23.879  25.714  1.00  0.00     0.202 C 
BRANCH   4   5
ATOM      5  C   UNL A   1      36.113  23.416  24.483  1.00  0.00     0.261 C 
BRANCH   5   6
ATOM      6  O   UNL A   1      34.747  23.870  24.556  1.00  0.00    -0.462 OA
BRANCH   6   7
ATOM      7  C   UNL A   1      33.980  23.780  23.437  1.00  0.00     0.331 C 
ATOM      8  O   UNL A   1      34.068  24.560  22.494  1.00  0.00    -0.250 OA
BRANCH   7   9
ATOM      9  C   UNL A   1      32.917  22.667  23.486  1.00  0.00     0.220 C 
ATOM     10  N   UNL A   1      32.800  21.894  24.758  1.00  0.00    -0.339 N 
ATOM     11  C   UNL A   1      32.211  22.615  25.896  1.00  0.00     0.147 C 
ATOM     12  C   UNL A   1      30.909  23.308  25.476  1.00  0.00     0.181 C 
ATOM     13  C   UNL A   1      31.569  23.357  23.193  1.00  0.00     0.197 C 
ATOM     14  O   UNL A   1      31.089  24.131  24.316  1.00  0.00    -0.377 OA
BRANCH  10  15
ATOM     15  C   UNL A   1      32.695  20.511  24.687  1.00  0.00     0.132 A 
ATOM     16  C   UNL A   1      32.482  18.574  23.370  1.00  0.00     0.204 A 
ATOM     17  N   UNL A   1      32.376  19.929  23.504  1.00  0.00    -0.207 NA
ATOM     18  C   UNL A   1      32.862  17.764  24.436  1.00  0.00     0.311 A 
ATOM     19  C   UNL A   1      33.078  18.334  25.683  1.00  0.00     0.093 A 
ATOM     20  C   UNL A   1      32.992  19.715  25.800  1.00  0.00     0.054 A 
BRANCH  16  21
ATOM     21  N   UNL A   1      32.107  18.047  22.149  1.00  0.00    -0.378 N 
ATOM     22  H   UNL A   1      32.045  17.072  22.031  1.00  0.00     0.158 HD
ATOM     23  H   UNL A   1      31.901  18.648  21.396  1.00  0.00     0.158 HD
ENDBRANCH  16  21
BRANCH  18  24
ATOM     24  N   UNL A   1      33.056  16.334  24.273  1.00  0.00     0.066 N 
ATOM     25  O   UNL A   1      33.792  15.964  23.346  1.00  0.00    -0.258 OA
ATOM     26  O   UNL A   1      32.420  15.571  25.017  1.00  0.00    -0.258 OA
ENDBRANCH  18  24
ENDBRANCH  10  15
ENDBRANCH   7   9
ENDBRANCH   6   7
ENDBRANCH   5   6
ENDBRANCH   4   5
ENDBRANCH   3   4
ENDBRANCH   2   3
ENDBRANCH   1   2
BRANCH   1  27
ATOM     27  O   UNL A   1      41.282  22.067  25.732  1.00  0.00    -0.376 OA
BRANCH  27  28
ATOM     28  C   UNL A   1      42.537  21.951  26.389  1.00  0.00     0.202 C 
BRANCH  28  29
ATOM     29  C   UNL A   1      43.593  22.970  25.960  1.00  0.00     0.261 C 
BRANCH  29  30
ATOM     30  O   UNL A   1      43.702  24.043  26.914  1.00  0.00    -0.460 OA
BRANCH  30  31
ATOM     31  C   UNL A   1      43.637  25.284  26.402  1.00  0.00     0.338 C 
ATOM     32  O   UNL A   1      44.061  25.662  25.306  1.00  0.00    -0.246 OA
BRANCH  31  33
ATOM     33  C   UNL A   1      42.910  26.184  27.303  1.00  0.00     0.060 A 
ATOM     34  C   UNL A   1      43.356  27.497  27.472  1.00  0.00     0.016 A 
ATOM     35  C   UNL A   1      41.923  25.664  28.139  1.00  0.00     0.016 A 
ATOM     36  C   UNL A   1      42.899  28.260  28.545  1.00  0.00     0.010 A 
ATOM     37  C   UNL A   1      41.430  26.449  29.186  1.00  0.00     0.010 A 
ATOM     38  C   UNL A   1      41.958  27.730  29.434  1.00  0.00    -0.014 A 
BRANCH  38  39
ATOM     39  C   UNL A   1      41.615  28.441  30.693  1.00  0.00     0.031 A 
ATOM     40  C   UNL A   1      40.435  29.381  30.706  1.00  0.00     0.074 A 
ATOM     41  C   UNL A   1      42.324  28.245  31.819  1.00  0.00     0.049 A 
ATOM     42  N   UNL A   1      40.093  30.272  31.599  1.00  0.00    -0.248 NA
ATOM     43  C   UNL A   1      39.523  29.305  29.552  1.00  0.00     0.031 C 
ATOM     44  C   UNL A   1      43.417  27.287  31.979  1.00  0.00     0.029 A 
ATOM     45  N   UNL A   1      42.228  28.850  33.047  1.00  0.00    -0.354 N 
ATOM     46  C   UNL A   1      38.960  30.901  31.092  1.00  0.00     0.074 A 
ATOM     47  C   UNL A   1      38.669  30.284  29.816  1.00  0.00     0.031 C 
ATOM     48  C   UNL A   1      43.888  27.363  33.234  1.00  0.00     0.029 A 
ATOM     49  C   UNL A   1      43.186  28.431  33.939  1.00  0.00     0.049 A 
ATOM     50  H   UNL A   1      41.540  29.519  33.268  1.00  0.00     0.167 HD
ATOM     51  C   UNL A   1      38.237  31.907  31.640  1.00  0.00     0.037 A 
ATOM     52  C   UNL A   1      43.499  28.893  35.166  1.00  0.00     0.037 A 
ATOM     53  C   UNL A   1      38.512  32.485  32.930  1.00  0.00     0.049 A 
ATOM     54  C   UNL A   1      42.738  30.064  35.724  1.00  0.00     0.074 A 
ATOM     55  C   UNL A   1      37.852  33.517  33.574  1.00  0.00     0.029 A 
ATOM     56  N   UNL A   1      39.526  32.066  33.779  1.00  0.00    -0.354 N 
ATOM     57  N   UNL A   1      41.730  30.719  35.197  1.00  0.00    -0.248 NA
ATOM     58  C   UNL A   1      43.175  30.578  37.029  1.00  0.00     0.031 C 
ATOM     59  C   UNL A   1      38.489  33.741  34.802  1.00  0.00     0.029 A 
ATOM     60  C   UNL A   1      39.520  32.825  34.937  1.00  0.00     0.049 A 
ATOM     61  H   UNL A   1      40.158  31.336  33.587  1.00  0.00     0.167 HD
ATOM     62  C   UNL A   1      41.402  31.712  36.114  1.00  0.00     0.074 A 
ATOM     63  C   UNL A   1      42.314  31.565  37.231  1.00  0.00     0.031 C 
ATOM     64  C   UNL A   1      40.435  32.659  36.038  1.00  0.00     0.037 A 
BRANCH  51  65
ATOM     65  C   UNL A   1      37.112  32.477  30.821  1.00  0.00     0.058 A 
ATOM     66  C   UNL A   1      37.315  33.503  29.884  1.00  0.00     0.135 A 
ATOM     67  C   UNL A   1      35.805  31.986  30.981  1.00  0.00     0.135 A 
ATOM     68  F   UNL A   1      38.539  34.022  29.705  1.00  0.00    -0.206 F 
ATOM     69  C   UNL A   1      36.256  34.045  29.159  1.00  0.00     0.059 A 
ATOM     70  C   UNL A   1      34.737  32.497  30.250  1.00  0.00     0.059 A 
ATOM     71  F   UNL A   1      35.555  31.006  31.864  1.00  0.00    -0.206 F 
ATOM     72  C   UNL A   1      34.969  33.539  29.355  1.00  0.00     0.060 A 
BRANCH  72  73
ATOM     73  S   UNL A   1      33.598  34.262  28.427  1.00  0.00     0.124 S 
ATOM     74  O   UNL A   1      34.286  35.274  27.633  1.00  0.00    -0.237 OA
ATOM     75  O   UNL A   1      33.081  33.117  27.684  1.00  0.00    -0.237 OA
ATOM     76  O   UNL A   1      32.716  34.775  29.471  1.00  0.00    -0.744 OA
ENDBRANCH  72  73
ENDBRANCH  51  65
BRANCH  52  77
ATOM     77  C   UNL A   1      44.617  28.275  35.925  1.00  0.00     0.058 A 
ATOM     78  C   UNL A   1      44.383  27.223  36.821  1.00  0.00     0.135 A 
ATOM     79  C   UNL A   1      45.942  28.705  35.752  1.00  0.00     0.135 A 
ATOM     80  F   UNL A   1      43.131  26.786  37.030  1.00  0.00    -0.206 F 
ATOM     81  C   UNL A   1      45.422  26.617  37.519  1.00  0.00     0.059 A 
ATOM     82  C   UNL A   1      47.001  28.100  36.419  1.00  0.00     0.059 A 
ATOM     83  F   UNL A   1      46.218  29.706  34.900  1.00  0.00    -0.206 F 
ATOM     84  C   UNL A   1      46.730  27.059  37.306  1.00  0.00     0.060 A 
BRANCH  84  85
ATOM     85  S   UNL A   1      48.081  26.222  38.163  1.00  0.00     0.124 S 
ATOM     86  O   UNL A   1      49.229  27.019  37.747  1.00  0.00    -0.237 OA
ATOM     87  O   UNL A   1      47.689  26.352  39.563  1.00  0.00    -0.237 OA
ATOM     88  O   UNL A   1      48.026  24.864  37.629  1.00  0.00    -0.744 OA
ENDBRANCH  84  85
ENDBRANCH  52  77
BRANCH  64  89
ATOM     89  C   UNL A   1      40.294  33.589  37.209  1.00  0.00     0.058 A 
ATOM     90  C   UNL A   1      39.370  33.343  38.235  1.00  0.00     0.135 A 
ATOM     91  C   UNL A   1      41.124  34.715  37.325  1.00  0.00     0.135 A 
ATOM     92  F   UNL A   1      38.549  32.283  38.166  1.00  0.00    -0.206 F 
ATOM     93  C   UNL A   1      39.260  34.194  39.330  1.00  0.00     0.059 A 
ATOM     94  C   UNL A   1      41.045  35.570  38.420  1.00  0.00     0.059 A 
ATOM     95  F   UNL A   1      42.029  34.989  36.372  1.00  0.00    -0.206 F 
ATOM     96  C   UNL A   1      40.102  35.305  39.413  1.00  0.00     0.060 A 
BRANCH  96  97
ATOM     97  S   UNL A   1      39.973  36.388  40.852  1.00  0.00     0.124 S 
ATOM     98  O   UNL A   1      40.267  35.464  41.942  1.00  0.00    -0.237 OA
ATOM     99  O   UNL A   1      40.995  37.395  40.582  1.00  0.00    -0.237 OA
ATOM    100  O   UNL A   1      38.597  36.871  40.791  1.00  0.00    -0.744 OA
ENDBRANCH  96  97
ENDBRANCH  64  89
ENDBRANCH  38  39
ENDBRANCH  31  33
ENDBRANCH  30  31
ENDBRANCH  29  30
ENDBRANCH  28  29
ENDBRANCH  27  28
ENDBRANCH   1  27
TORSDOF 23
ENDMDL
MODEL 2
REMARK VINA RESULT:     -10.0      6.241     10.992
REMARK SMILES Nc1nc(N2CCOC[C@H]2C(=O)OCCOCCOCCOC(=O)c2ccc(-c3c4nc(c(-c5c(F)cc(S(=O)(=O)[O-])cc5F)c5ccc([nH]5)c(-c5c(F)cc(S(=O)(=O)[O-])cc5F)c5nc(c(-c6c(F)cc(S(=O)(=O)[O-])cc6F)c6ccc3[nH]6)C=C5)C=C4)cc2)ccc1[N+](=O)[O-]
REMARK SMILES IDX 18 1 17 2 16 3 15 4 14 5 13 6 11 7 12 8 10 9 5 10 6 11 7 12
REMARK SMILES IDX 9 13 8 14 4 15 2 16 3 17 93 18 92 19 91 20 1 21 94 24 95 25
REMARK SMILES IDX 96 26 19 27 20 28 21 29 22 30 23 31 24 32 25 33 26 34 90 35
REMARK SMILES IDX 27 36 89 37 28 38 29 39 30 40 83 41 31 42 88 43 82 44 84 45
REMARK SMILES IDX 32 46 87 47 81 48 80 49 33 51 67 52 46 53 66 54 47 55 50 56
REMARK SMILES IDX 65 57 85 58 48 59 49 60 64 62 86 63 51 64 34 65 35 66 44 67
REMARK SMILES IDX 36 68 37 69 43 70 45 71 38 72 39 73 40 74 41 75 42 76 68 77
REMARK SMILES IDX 69 78 78 79 70 80 71 81 77 82 79 83 72 84 73 85 74 86 75 87
REMARK SMILES IDX 76 88 52 89 53 90 62 91 54 92 55 93 61 94 63 95 56 96 57 97
REMARK SMILES IDX 58 98 59 99 60 100
REMARK H PARENT 1 22 1 23 84 50 50 61
REMARK Flexibility Score: inf
ROOT
ATOM      1  C   UNL A   1      33.120  30.180  26.545  1.00  0.00     0.188 C 
ENDROOT
BRANCH   1   2
ATOM      2  C   UNL A   1      32.321  28.869  26.399  1.00  0.00     0.188 C 
BRANCH   2   3
ATOM      3  O   UNL A   1      32.970  27.773  25.762  1.00  0.00    -0.376 OA
BRANCH   3   4
ATOM      4  C   UNL A   1      32.618  27.497  24.412  1.00  0.00     0.202 C 
BRANCH   4   5
ATOM      5  C   UNL A   1      33.630  26.646  23.645  1.00  0.00     0.261 C 
BRANCH   5   6
ATOM      6  O   UNL A   1      33.126  25.306  23.475  1.00  0.00    -0.462 OA
BRANCH   6   7
ATOM      7  C   UNL A   1      33.859  24.277  23.978  1.00  0.00     0.331 C 
ATOM      8  O   UNL A   1      35.004  24.406  24.398  1.00  0.00    -0.250 OA
BRANCH   7   9
ATOM      9  C   UNL A   1      33.165  22.905  23.892  1.00  0.00     0.220 C 
ATOM     10  N   UNL A   1      33.203  22.046  25.112  1.00  0.00    -0.339 N 
ATOM     11  C   UNL A   1      32.362  22.487  26.234  1.00  0.00     0.147 C 
ATOM     12  C   UNL A   1      30.943  22.804  25.749  1.00  0.00     0.181 C 
ATOM     13  C   UNL A   1      31.695  23.196  23.529  1.00  0.00     0.197 C 
ATOM     14  O   UNL A   1      30.944  23.721  24.647  1.00  0.00    -0.377 OA
BRANCH  10  15
ATOM     15  C   UNL A   1      33.511  20.699  24.967  1.00  0.00     0.132 A 
ATOM     16  C   UNL A   1      32.846  18.545  24.296  1.00  0.00     0.204 A 
ATOM     17  N   UNL A   1      32.523  19.824  24.653  1.00  0.00    -0.207 NA
ATOM     18  C   UNL A   1      34.164  18.099  24.297  1.00  0.00     0.311 A 
ATOM     19  C   UNL A   1      35.172  18.950  24.729  1.00  0.00     0.093 A 
ATOM     20  C   UNL A   1      34.834  20.255  25.064  1.00  0.00     0.054 A 
BRANCH  16  21
ATOM     21  N   UNL A   1      31.788  17.699  24.024  1.00  0.00    -0.378 N 
ATOM     22  H   UNL A   1      31.094  17.543  24.704  1.00  0.00     0.158 HD
ATOM     23  H   UNL A   1      31.727  17.252  23.149  1.00  0.00     0.158 HD
ENDBRANCH  16  21
BRANCH  18  24
ATOM     24  N   UNL A   1      34.516  16.767  23.839  1.00  0.00     0.066 N 
ATOM     25  O   UNL A   1      34.072  16.410  22.737  1.00  0.00    -0.258 OA
ATOM     26  O   UNL A   1      35.172  16.042  24.603  1.00  0.00    -0.258 OA
ENDBRANCH  18  24
ENDBRANCH  10  15
ENDBRANCH   7   9
ENDBRANCH   6   7
ENDBRANCH   5   6
ENDBRANCH   4   5
ENDBRANCH   3   4
ENDBRANCH   2   3
ENDBRANCH   1   2
BRANCH   1  27
ATOM     27  O   UNL A   1      32.634  31.176  27.437  1.00  0.00    -0.376 OA
BRANCH  27  28
ATOM     28  C   UNL A   1      33.405  32.364  27.553  1.00  0.00     0.202 C 
BRANCH  28  29
ATOM     29  C   UNL A   1      34.391  32.389  28.720  1.00  0.00     0.261 C 
BRANCH  29  30
ATOM     30  O   UNL A   1      35.212  31.206  28.737  1.00  0.00    -0.460 OA
BRANCH  30  31
ATOM     31  C   UNL A   1      36.017  31.073  29.806  1.00  0.00     0.338 C 
ATOM     32  O   UNL A   1      35.844  31.544  30.933  1.00  0.00    -0.246 OA
BRANCH  31  33
ATOM     33  C   UNL A   1      37.158  30.206  29.494  1.00  0.00     0.060 A 
ATOM     34  C   UNL A   1      37.886  29.627  30.537  1.00  0.00     0.016 A 
ATOM     35  C   UNL A   1      37.634  30.144  28.185  1.00  0.00     0.016 A 
ATOM     36  C   UNL A   1      39.146  29.080  30.293  1.00  0.00     0.010 A 
ATOM     37  C   UNL A   1      38.875  29.552  27.936  1.00  0.00     0.010 A 
ATOM     38  C   UNL A   1      39.668  29.070  28.995  1.00  0.00    -0.014 A 
BRANCH  38  39
ATOM     39  C   UNL A   1      41.081  28.685  28.746  1.00  0.00     0.031 A 
ATOM     40  C   UNL A   1      42.158  29.734  28.861  1.00  0.00     0.074 A 
ATOM     41  C   UNL A   1      41.414  27.417  28.444  1.00  0.00     0.049 A 
ATOM     42  N   UNL A   1      43.404  29.691  28.469  1.00  0.00    -0.248 NA
ATOM     43  C   UNL A   1      41.772  31.003  29.501  1.00  0.00     0.031 C 
ATOM     44  C   UNL A   1      40.493  26.282  28.407  1.00  0.00     0.029 A 
ATOM     45  N   UNL A   1      42.628  26.873  28.104  1.00  0.00    -0.354 N 
ATOM     46  C   UNL A   1      43.938  30.943  28.763  1.00  0.00     0.074 A 
ATOM     47  C   UNL A   1      42.880  31.719  29.372  1.00  0.00     0.031 C 
ATOM     48  C   UNL A   1      41.174  25.175  28.070  1.00  0.00     0.029 A 
ATOM     49  C   UNL A   1      42.559  25.538  27.787  1.00  0.00     0.049 A 
ATOM     50  H   UNL A   1      43.466  27.389  28.089  1.00  0.00     0.167 HD
ATOM     51  C   UNL A   1      45.192  31.400  28.535  1.00  0.00     0.037 A 
ATOM     52  C   UNL A   1      43.493  24.712  27.275  1.00  0.00     0.037 A 
ATOM     53  C   UNL A   1      46.247  30.603  27.965  1.00  0.00     0.049 A 
ATOM     54  C   UNL A   1      44.856  25.259  26.952  1.00  0.00     0.074 A 
ATOM     55  C   UNL A   1      47.551  30.971  27.678  1.00  0.00     0.029 A 
ATOM     56  N   UNL A   1      46.120  29.268  27.609  1.00  0.00    -0.354 N 
ATOM     57  N   UNL A   1      45.325  26.470  27.141  1.00  0.00    -0.248 NA
ATOM     58  C   UNL A   1      45.808  24.336  26.320  1.00  0.00     0.031 C 
ATOM     59  C   UNL A   1      48.202  29.864  27.120  1.00  0.00     0.029 A 
ATOM     60  C   UNL A   1      47.316  28.799  27.094  1.00  0.00     0.049 A 
ATOM     61  H   UNL A   1      45.300  28.733  27.708  1.00  0.00     0.167 HD
ATOM     62  C   UNL A   1      46.632  26.450  26.666  1.00  0.00     0.074 A 
ATOM     63  C   UNL A   1      46.880  25.104  26.188  1.00  0.00     0.031 C 
ATOM     64  C   UNL A   1      47.542  27.453  26.627  1.00  0.00     0.037 A 
BRANCH  51  65
ATOM     65  C   UNL A   1      45.473  32.842  28.857  1.00  0.00     0.058 A 
ATOM     66  C   UNL A   1      45.946  33.250  30.114  1.00  0.00     0.135 A 
ATOM     67  C   UNL A   1      45.259  33.834  27.885  1.00  0.00     0.135 A 
ATOM     68  F   UNL A   1      46.149  32.346  31.084  1.00  0.00    -0.206 F 
ATOM     69  C   UNL A   1      46.167  34.593  30.407  1.00  0.00     0.059 A 
ATOM     70  C   UNL A   1      45.495  35.180  28.149  1.00  0.00     0.059 A 
ATOM     71  F   UNL A   1      44.805  33.500  26.667  1.00  0.00    -0.206 F 
ATOM     72  C   UNL A   1      45.931  35.552  29.419  1.00  0.00     0.060 A 
BRANCH  72  73
ATOM     73  S   UNL A   1      46.198  37.294  29.814  1.00  0.00     0.124 S 
ATOM     74  O   UNL A   1      44.983  37.614  30.556  1.00  0.00    -0.237 OA
ATOM     75  O   UNL A   1      47.428  37.256  30.599  1.00  0.00    -0.237 OA
ATOM     76  O   UNL A   1      46.316  37.924  28.502  1.00  0.00    -0.744 OA
ENDBRANCH  72  73
ENDBRANCH  51  65
BRANCH  52  77
ATOM     77  C   UNL A   1      43.150  23.294  26.991  1.00  0.00     0.058 A 
ATOM     78  C   UNL A   1      43.061  22.826  25.673  1.00  0.00     0.135 A 
ATOM     79  C   UNL A   1      42.928  22.376  28.029  1.00  0.00     0.135 A 
ATOM     80  F   UNL A   1      43.250  23.671  24.647  1.00  0.00    -0.206 F 
ATOM     81  C   UNL A   1      42.767  21.496  25.392  1.00  0.00     0.059 A 
ATOM     82  C   UNL A   1      42.657  21.036  27.774  1.00  0.00     0.059 A 
ATOM     83  F   UNL A   1      43.009  22.774  29.309  1.00  0.00    -0.206 F 
ATOM     84  C   UNL A   1      42.571  20.607  26.450  1.00  0.00     0.060 A 
BRANCH  84  85
ATOM     85  S   UNL A   1      42.258  18.868  26.079  1.00  0.00     0.124 S 
ATOM     86  O   UNL A   1      43.154  18.643  24.951  1.00  0.00    -0.237 OA
ATOM     87  O   UNL A   1      42.630  18.212  27.329  1.00  0.00    -0.237 OA
ATOM     88  O   UNL A   1      40.832  18.843  25.769  1.00  0.00    -0.744 OA
ENDBRANCH  84  85
ENDBRANCH  52  77
BRANCH  64  89
ATOM     89  C   UNL A   1      48.901  27.124  26.079  1.00  0.00     0.058 A 
ATOM     90  C   UNL A   1      49.196  27.263  24.715  1.00  0.00     0.135 A 
ATOM     91  C   UNL A   1      49.931  26.707  26.937  1.00  0.00     0.135 A 
ATOM     92  F   UNL A   1      48.243  27.651  23.853  1.00  0.00    -0.206 F 
ATOM     93  C   UNL A   1      50.463  26.980  24.215  1.00  0.00     0.059 A 
ATOM     94  C   UNL A   1      51.211  26.437  26.463  1.00  0.00     0.059 A 
ATOM     95  F   UNL A   1      49.700  26.567  28.252  1.00  0.00    -0.206 F 
ATOM     96  C   UNL A   1      51.464  26.567  25.098  1.00  0.00     0.060 A 
BRANCH  96  97
ATOM     97  S   UNL A   1      53.114  26.232  24.445  1.00  0.00     0.124 S 
ATOM     98  O   UNL A   1      53.906  27.265  25.104  1.00  0.00    -0.237 OA
ATOM     99  O   UNL A   1      53.358  24.864  24.894  1.00  0.00    -0.237 OA
ATOM    100  O   UNL A   1      52.947  26.390  23.004  1.00  0.00    -0.744 OA
ENDBRANCH  96  97
ENDBRANCH  64  89
ENDBRANCH  38  39
ENDBRANCH  31  33
ENDBRANCH  30  31
ENDBRANCH  29  30
ENDBRANCH  28  29
ENDBRANCH  27  28
ENDBRANCH   1  27
TORSDOF 23
ENDMDL
MODEL 3
REMARK VINA RESULT:      -9.8      1.967      3.787
REMARK SMILES Nc1nc(N2CCOC[C@H]2C(=O)OCCOCCOCCOC(=O)c2ccc(-c3c4nc(c(-c5c(F)cc(S(=O)(=O)[O-])cc5F)c5ccc([nH]5)c(-c5c(F)cc(S(=O)(=O)[O-])cc5F)c5nc(c(-c6c(F)cc(S(=O)(=O)[O-])cc6F)c6ccc3[nH]6)C=C5)C=C4)cc2)ccc1[N+](=O)[O-]
REMARK SMILES IDX 18 1 17 2 16 3 15 4 14 5 13 6 11 7 12 8 10 9 5 10 6 11 7 12
REMARK SMILES IDX 9 13 8 14 4 15 2 16 3 17 93 18 92 19 91 20 1 21 94 24 95 25
REMARK SMILES IDX 96 26 19 27 20 28 21 29 22 30 23 31 24 32 25 33 26 34 90 35
REMARK SMILES IDX 27 36 89 37 28 38 29 39 30 40 83 41 31 42 88 43 82 44 84 45
REMARK SMILES IDX 32 46 87 47 81 48 80 49 33 51 67 52 46 53 66 54 47 55 50 56
REMARK SMILES IDX 65 57 85 58 48 59 49 60 64 62 86 63 51 64 34 65 35 66 44 67
REMARK SMILES IDX 36 68 37 69 43 70 45 71 38 72 39 73 40 74 41 75 42 76 68 77
REMARK SMILES IDX 69 78 78 79 70 80 71 81 77 82 79 83 72 84 73 85 74 86 75 87
REMARK SMILES IDX 76 88 52 89 53 90 62 91 54 92 55 93 61 94 63 95 56 96 57 97
REMARK SMILES IDX 58 98 59 99 60 100
REMARK H PARENT 1 22 1 23 84 50 50 61
REMARK Flexibility Score: inf
ROOT
ATOM      1  C   UNL A   1      39.629  22.303  26.531  1.00  0.00     0.188 C 
ENDROOT
BRANCH   1   2
ATOM      2  C   UNL A   1      38.327  22.029  25.752  1.00  0.00     0.188 C 
BRANCH   2   3
ATOM      3  O   UNL A   1      37.310  23.025  25.806  1.00  0.00    -0.376 OA
BRANCH   3   4
ATOM      4  C   UNL A   1      36.790  23.500  24.570  1.00  0.00     0.202 C 
BRANCH   4   5
ATOM      5  C   UNL A   1      35.832  22.542  23.865  1.00  0.00     0.261 C 
BRANCH   5   6
ATOM      6  O   UNL A   1      34.629  22.380  24.643  1.00  0.00    -0.462 OA
BRANCH   6   7
ATOM      7  C   UNL A   1      33.443  22.718  24.070  1.00  0.00     0.331 C 
ATOM      8  O   UNL A   1      32.855  22.003  23.264  1.00  0.00    -0.250 OA
BRANCH   7   9
ATOM      9  C   UNL A   1      32.937  24.123  24.444  1.00  0.00     0.220 C 
ATOM     10  N   UNL A   1      31.465  24.358  24.364  1.00  0.00    -0.339 N 
ATOM     11  C   UNL A   1      30.653  23.705  25.401  1.00  0.00     0.147 C 
ATOM     12  C   UNL A   1      31.244  23.969  26.791  1.00  0.00     0.181 C 
ATOM     13  C   UNL A   1      33.407  24.370  25.891  1.00  0.00     0.197 C 
ATOM     14  O   UNL A   1      32.633  23.625  26.858  1.00  0.00    -0.377 OA
BRANCH  10  15
ATOM     15  C   UNL A   1      31.010  25.527  23.765  1.00  0.00     0.132 A 
ATOM     16  C   UNL A   1      29.271  27.078  23.444  1.00  0.00     0.204 A 
ATOM     17  N   UNL A   1      29.691  25.837  23.834  1.00  0.00    -0.207 NA
ATOM     18  C   UNL A   1      30.157  28.017  22.925  1.00  0.00     0.311 A 
ATOM     19  C   UNL A   1      31.489  27.670  22.739  1.00  0.00     0.093 A 
ATOM     20  C   UNL A   1      31.908  26.417  23.164  1.00  0.00     0.054 A 
BRANCH  16  21
ATOM     21  N   UNL A   1      27.912  27.312  23.508  1.00  0.00    -0.378 N 
ATOM     22  H   UNL A   1      27.354  26.809  24.144  1.00  0.00     0.158 HD
ATOM     23  H   UNL A   1      27.499  27.984  22.917  1.00  0.00     0.158 HD
ENDBRANCH  16  21
BRANCH  18  24
ATOM     24  N   UNL A   1      29.727  29.363  22.587  1.00  0.00     0.066 N 
ATOM     25  O   UNL A   1      29.875  29.727  21.411  1.00  0.00    -0.258 OA
ATOM     26  O   UNL A   1      29.310  30.089  23.503  1.00  0.00    -0.258 OA
ENDBRANCH  18  24
ENDBRANCH  10  15
ENDBRANCH   7   9
ENDBRANCH   6   7
ENDBRANCH   5   6
ENDBRANCH   4   5
ENDBRANCH   3   4
ENDBRANCH   2   3
ENDBRANCH   1   2
BRANCH   1  27
ATOM     27  O   UNL A   1      40.802  21.586  26.165  1.00  0.00    -0.376 OA
BRANCH  27  28
ATOM     28  C   UNL A   1      41.977  21.849  26.922  1.00  0.00     0.202 C 
BRANCH  28  29
ATOM     29  C   UNL A   1      42.924  22.884  26.316  1.00  0.00     0.261 C 
BRANCH  29  30
ATOM     30  O   UNL A   1      42.319  24.191  26.285  1.00  0.00    -0.460 OA
BRANCH  30  31
ATOM     31  C   UNL A   1      43.144  25.218  26.556  1.00  0.00     0.338 C 
ATOM     32  O   UNL A   1      44.281  25.399  26.111  1.00  0.00    -0.246 OA
BRANCH  31  33
ATOM     33  C   UNL A   1      42.490  26.194  27.434  1.00  0.00     0.060 A 
ATOM     34  C   UNL A   1      43.080  27.445  27.631  1.00  0.00     0.016 A 
ATOM     35  C   UNL A   1      41.416  25.791  28.226  1.00  0.00     0.016 A 
ATOM     36  C   UNL A   1      42.672  28.253  28.692  1.00  0.00     0.010 A 
ATOM     37  C   UNL A   1      40.976  26.624  29.258  1.00  0.00     0.010 A 
ATOM     38  C   UNL A   1      41.639  27.834  29.538  1.00  0.00    -0.014 A 
BRANCH  38  39
ATOM     39  C   UNL A   1      41.331  28.576  30.787  1.00  0.00     0.031 A 
ATOM     40  C   UNL A   1      40.180  29.551  30.796  1.00  0.00     0.074 A 
ATOM     41  C   UNL A   1      42.045  28.378  31.910  1.00  0.00     0.049 A 
ATOM     42  N   UNL A   1      39.874  30.467  31.677  1.00  0.00    -0.248 NA
ATOM     43  C   UNL A   1      39.254  29.482  29.653  1.00  0.00     0.031 C 
ATOM     44  C   UNL A   1      43.111  27.390  32.075  1.00  0.00     0.029 A 
ATOM     45  N   UNL A   1      41.980  29.006  33.128  1.00  0.00    -0.354 N 
ATOM     46  C   UNL A   1      38.754  31.121  31.171  1.00  0.00     0.074 A 
ATOM     47  C   UNL A   1      38.432  30.491  29.908  1.00  0.00     0.031 C 
ATOM     48  C   UNL A   1      43.597  27.474  33.324  1.00  0.00     0.029 A 
ATOM     49  C   UNL A   1      42.935  28.575  34.018  1.00  0.00     0.049 A 
ATOM     50  H   UNL A   1      41.315  29.699  33.344  1.00  0.00     0.167 HD
ATOM     51  C   UNL A   1      38.067  32.157  31.708  1.00  0.00     0.037 A 
ATOM     52  C   UNL A   1      43.273  29.047  35.233  1.00  0.00     0.037 A 
ATOM     53  C   UNL A   1      38.373  32.748  32.985  1.00  0.00     0.049 A 
ATOM     54  C   UNL A   1      42.553  30.250  35.778  1.00  0.00     0.074 A 
ATOM     55  C   UNL A   1      37.750  33.810  33.618  1.00  0.00     0.029 A 
ATOM     56  N   UNL A   1      39.383  32.314  33.831  1.00  0.00    -0.354 N 
ATOM     57  N   UNL A   1      41.560  30.926  35.250  1.00  0.00    -0.248 NA
ATOM     58  C   UNL A   1      43.019  30.772  37.070  1.00  0.00     0.031 C 
ATOM     59  C   UNL A   1      38.406  34.036  34.835  1.00  0.00     0.029 A 
ATOM     60  C   UNL A   1      39.410  33.092  34.976  1.00  0.00     0.049 A 
ATOM     61  H   UNL A   1      39.990  31.562  33.646  1.00  0.00     0.167 HD
ATOM     62  C   UNL A   1      41.271  31.944  36.153  1.00  0.00     0.074 A 
ATOM     63  C   UNL A   1      42.190  31.789  37.263  1.00  0.00     0.031 C 
ATOM     64  C   UNL A   1      40.332  32.917  36.070  1.00  0.00     0.037 A 
BRANCH  51  65
ATOM     65  C   UNL A   1      36.951  32.746  30.890  1.00  0.00     0.058 A 
ATOM     66  C   UNL A   1      37.190  33.636  29.831  1.00  0.00     0.135 A 
ATOM     67  C   UNL A   1      35.616  32.414  31.178  1.00  0.00     0.135 A 
ATOM     68  F   UNL A   1      38.444  34.001  29.526  1.00  0.00    -0.206 F 
ATOM     69  C   UNL A   1      36.143  34.201  29.106  1.00  0.00     0.059 A 
ATOM     70  C   UNL A   1      34.557  32.949  30.451  1.00  0.00     0.059 A 
ATOM     71  F   UNL A   1      35.332  31.569  32.181  1.00  0.00    -0.206 F 
ATOM     72  C   UNL A   1      34.829  33.856  29.429  1.00  0.00     0.060 A 
BRANCH  72  73
ATOM     73  S   UNL A   1      33.476  34.609  28.499  1.00  0.00     0.124 S 
ATOM     74  O   UNL A   1      33.074  33.509  27.629  1.00  0.00    -0.237 OA
ATOM     75  O   UNL A   1      32.528  34.963  29.551  1.00  0.00    -0.237 OA
ATOM     76  O   UNL A   1      34.113  35.739  27.830  1.00  0.00    -0.744 OA
ENDBRANCH  72  73
ENDBRANCH  51  65
BRANCH  52  77
ATOM     77  C   UNL A   1      44.381  28.409  35.991  1.00  0.00     0.058 A 
ATOM     78  C   UNL A   1      45.702  28.853  35.845  1.00  0.00     0.135 A 
ATOM     79  C   UNL A   1      44.138  27.362  36.894  1.00  0.00     0.135 A 
ATOM     80  F   UNL A   1      45.985  29.842  34.983  1.00  0.00    -0.206 F 
ATOM     81  C   UNL A   1      46.745  28.284  36.567  1.00  0.00     0.059 A 
ATOM     82  C   UNL A   1      45.160  26.792  37.646  1.00  0.00     0.059 A 
ATOM     83  F   UNL A   1      42.888  26.905  37.074  1.00  0.00    -0.206 F 
ATOM     84  C   UNL A   1      46.463  27.256  37.470  1.00  0.00     0.060 A 
BRANCH  84  85
ATOM     85  S   UNL A   1      47.811  26.569  38.455  1.00  0.00     0.124 S 
ATOM     86  O   UNL A   1      48.903  26.558  37.489  1.00  0.00    -0.237 OA
ATOM     87  O   UNL A   1      47.929  27.539  39.540  1.00  0.00    -0.237 OA
ATOM     88  O   UNL A   1      47.302  25.258  38.850  1.00  0.00    -0.744 OA
ENDBRANCH  84  85
ENDBRANCH  52  77
BRANCH  64  89
ATOM     89  C   UNL A   1      40.231  33.871  37.226  1.00  0.00     0.058 A 
ATOM     90  C   UNL A   1      40.961  35.068  37.257  1.00  0.00     0.135 A 
ATOM     91  C   UNL A   1      39.360  33.602  38.294  1.00  0.00     0.135 A 
ATOM     92  F   UNL A   1      41.813  35.366  36.264  1.00  0.00    -0.206 F 
ATOM     93  C   UNL A   1      40.846  35.960  38.319  1.00  0.00     0.059 A 
ATOM     94  C   UNL A   1      39.213  34.488  39.356  1.00  0.00     0.059 A 
ATOM     95  F   UNL A   1      38.634  32.473  38.306  1.00  0.00    -0.206 F 
ATOM     96  C   UNL A   1      39.969  35.660  39.364  1.00  0.00     0.060 A 
BRANCH  96  97
ATOM     97  S   UNL A   1      39.803  36.838  40.723  1.00  0.00     0.124 S 
ATOM     98  O   UNL A   1      38.527  36.435  41.305  1.00  0.00    -0.237 OA
ATOM     99  O   UNL A   1      40.985  36.556  41.531  1.00  0.00    -0.237 OA
ATOM    100  O   UNL A   1      39.806  38.133  40.051  1.00  0.00    -0.744 OA
ENDBRANCH  96  97
ENDBRANCH  64  89
ENDBRANCH  38  39
ENDBRANCH  31  33
ENDBRANCH  30  31
ENDBRANCH  29  30
ENDBRANCH  28  29
ENDBRANCH  27  28
ENDBRANCH   1  27
TORSDOF 23
ENDMDL
