MODEL 1
REMARK VINA RESULT:      -9.4      0.000      0.000
REMARK SMILES CC(C)(C)SCCNC(=O)[C@@H]1C[C@H]1C(=O)OCCOCCOCCOC(=O)c1ccc(-c2c3nc(c(-c4c(F)cc(S(=O)(=O)[O-])cc4F)c4ccc([nH]4)c(-c4c(F)cc(S(=O)(=O)[O-])cc4F)c4nc(c(-c5c(F)cc(S(=O)(=O)[O-])cc5F)c5ccc2[nH]5)C=C4)C=C3)cc1
REMARK SMILES IDX 20 1 19 2 18 3 17 4 16 5 14 6 15 7 13 8 11 9 12 10 9 11 8 12
REMARK SMILES IDX 10 14 7 15 6 16 5 17 2 18 1 19 3 20 4 21 21 22 22 23 23 24
REMARK SMILES IDX 24 25 25 26 26 27 27 28 28 29 29 30 93 31 30 32 92 33 31 34
REMARK SMILES IDX 32 35 33 36 86 37 34 38 91 39 85 40 87 41 35 42 90 43 84 44
REMARK SMILES IDX 83 45 36 47 70 48 49 49 69 50 50 51 53 52 68 53 88 54 51 55
REMARK SMILES IDX 52 56 67 58 89 59 54 60 37 61 38 62 47 63 39 64 40 65 46 66
REMARK SMILES IDX 48 67 41 68 42 69 43 70 44 71 45 72 71 73 72 74 81 75 73 76
REMARK SMILES IDX 74 77 80 78 82 79 75 80 76 81 77 82 78 83 79 84 55 85 56 86
REMARK SMILES IDX 65 87 57 88 58 89 64 90 66 91 59 92 60 93 61 94 62 95 63 96
REMARK H PARENT 8 13 87 46 53 57
REMARK Flexibility Score: inf
ROOT
ATOM      1  C   UNL A   1      33.699  27.368  24.547  1.00  0.00     0.188 C 
ENDROOT
BRANCH   1   2
ATOM      2  O   UNL A   1      33.581  26.507  23.420  1.00  0.00    -0.376 OA
BRANCH   2   3
ATOM      3  C   UNL A   1      33.016  27.024  22.220  1.00  0.00     0.202 C 
BRANCH   3   4
ATOM      4  C   UNL A   1      31.815  26.271  21.646  1.00  0.00     0.261 C 
BRANCH   4   5
ATOM      5  O   UNL A   1      31.190  25.417  22.624  1.00  0.00    -0.463 OA
BRANCH   5   6
ATOM      6  C   UNL A   1      30.405  26.063  23.523  1.00  0.00     0.309 C 
ATOM      7  O   UNL A   1      29.906  27.168  23.361  1.00  0.00    -0.252 OA
BRANCH   6   8
ATOM      8  C   UNL A   1      30.123  25.282  24.750  1.00  0.00     0.112 C 
ATOM      9  C   UNL A   1      31.112  24.740  25.775  1.00  0.00     0.093 C 
ATOM     10  C   UNL A   1      30.316  25.996  26.066  1.00  0.00     0.030 C 
BRANCH   9  11
ATOM     11  C   UNL A   1      30.730  23.499  26.512  1.00  0.00     0.224 C 
ATOM     12  N   UNL A   1      31.341  22.308  26.274  1.00  0.00    -0.355 N 
ATOM     13  H   UNL A   1      30.965  21.565  26.801  1.00  0.00     0.163 HD
ATOM     14  O   UNL A   1      29.816  23.528  27.333  1.00  0.00    -0.275 OA
BRANCH  12  15
ATOM     15  C   UNL A   1      32.427  21.902  25.411  1.00  0.00     0.126 C 
BRANCH  15  16
ATOM     16  C   UNL A   1      33.591  21.256  26.182  1.00  0.00     0.091 C 
BRANCH  16  17
ATOM     17  S   UNL A   1      34.848  22.463  26.776  1.00  0.00    -0.154 SA
BRANCH  17  18
ATOM     18  C   UNL A   1      35.950  22.831  25.317  1.00  0.00     0.008 C 
ATOM     19  C   UNL A   1      36.366  21.461  24.748  1.00  0.00     0.022 C 
ATOM     20  C   UNL A   1      37.220  23.550  25.804  1.00  0.00     0.022 C 
ATOM     21  C   UNL A   1      35.287  23.643  24.203  1.00  0.00     0.022 C 
ENDBRANCH  17  18
ENDBRANCH  16  17
ENDBRANCH  15  16
ENDBRANCH  12  15
ENDBRANCH   9  11
ENDBRANCH   6   8
ENDBRANCH   5   6
ENDBRANCH   4   5
ENDBRANCH   3   4
ENDBRANCH   2   3
ENDBRANCH   1   2
BRANCH   1  22
ATOM     22  C   UNL A   1      32.826  28.629  24.604  1.00  0.00     0.188 C 
BRANCH  22  23
ATOM     23  O   UNL A   1      33.221  29.585  25.574  1.00  0.00    -0.376 OA
BRANCH  23  24
ATOM     24  C   UNL A   1      34.440  29.309  26.249  1.00  0.00     0.202 C 
BRANCH  24  25
ATOM     25  C   UNL A   1      34.464  29.866  27.677  1.00  0.00     0.261 C 
BRANCH  25  26
ATOM     26  O   UNL A   1      35.534  29.367  28.501  1.00  0.00    -0.460 OA
BRANCH  26  27
ATOM     27  C   UNL A   1      36.218  30.286  29.223  1.00  0.00     0.338 C 
ATOM     28  O   UNL A   1      35.760  31.052  30.052  1.00  0.00    -0.246 OA
BRANCH  27  29
ATOM     29  C   UNL A   1      37.658  30.060  28.997  1.00  0.00     0.060 A 
ATOM     30  C   UNL A   1      38.109  29.796  27.699  1.00  0.00     0.016 A 
ATOM     31  C   UNL A   1      38.554  30.090  30.065  1.00  0.00     0.016 A 
ATOM     32  C   UNL A   1      39.454  29.525  27.464  1.00  0.00     0.010 A 
ATOM     33  C   UNL A   1      39.902  29.811  29.831  1.00  0.00     0.010 A 
ATOM     34  C   UNL A   1      40.354  29.501  28.536  1.00  0.00    -0.014 A 
BRANCH  34  35
ATOM     35  C   UNL A   1      41.735  29.008  28.329  1.00  0.00     0.031 A 
ATOM     36  C   UNL A   1      42.867  29.997  28.382  1.00  0.00     0.074 A 
ATOM     37  C   UNL A   1      41.982  27.704  28.115  1.00  0.00     0.049 A 
ATOM     38  N   UNL A   1      44.131  29.825  28.104  1.00  0.00    -0.248 NA
ATOM     39  C   UNL A   1      42.520  31.365  28.803  1.00  0.00     0.031 C 
ATOM     40  C   UNL A   1      40.975  26.643  28.107  1.00  0.00     0.029 A 
ATOM     41  N   UNL A   1      43.160  27.051  27.852  1.00  0.00    -0.354 N 
ATOM     42  C   UNL A   1      44.730  31.067  28.290  1.00  0.00     0.074 A 
ATOM     43  C   UNL A   1      43.686  31.984  28.689  1.00  0.00     0.031 C 
ATOM     44  C   UNL A   1      41.578  25.472  27.838  1.00  0.00     0.029 A 
ATOM     45  C   UNL A   1      43.002  25.708  27.609  1.00  0.00     0.049 A 
ATOM     46  H   UNL A   1      44.034  27.502  27.840  1.00  0.00     0.167 HD
ATOM     47  C   UNL A   1      46.032  31.405  28.142  1.00  0.00     0.037 A 
ATOM     48  C   UNL A   1      43.899  24.783  27.211  1.00  0.00     0.037 A 
ATOM     49  C   UNL A   1      47.065  30.480  27.760  1.00  0.00     0.049 A 
ATOM     50  C   UNL A   1      45.332  25.196  26.993  1.00  0.00     0.074 A 
ATOM     51  C   UNL A   1      48.415  30.722  27.580  1.00  0.00     0.029 A 
ATOM     52  N   UNL A   1      46.863  29.132  27.501  1.00  0.00    -0.354 N 
ATOM     53  N   UNL A   1      45.882  26.378  27.144  1.00  0.00    -0.248 NA
ATOM     54  C   UNL A   1      46.264  24.151  26.546  1.00  0.00     0.031 C 
ATOM     55  C   UNL A   1      49.023  29.528  27.177  1.00  0.00     0.029 A 
ATOM     56  C   UNL A   1      48.060  28.532  27.149  1.00  0.00     0.049 A 
ATOM     57  H   UNL A   1      45.995  28.669  27.560  1.00  0.00     0.167 HD
ATOM     58  C   UNL A   1      47.228  26.214  26.830  1.00  0.00     0.074 A 
ATOM     59  C   UNL A   1      47.410  24.818  26.492  1.00  0.00     0.031 C 
ATOM     60  C   UNL A   1      48.222  27.136  26.822  1.00  0.00     0.037 A 
BRANCH  47  61
ATOM     61  C   UNL A   1      46.401  32.846  28.360  1.00  0.00     0.058 A 
ATOM     62  C   UNL A   1      46.860  33.315  29.601  1.00  0.00     0.135 A 
ATOM     63  C   UNL A   1      46.309  33.767  27.304  1.00  0.00     0.135 A 
ATOM     64  F   UNL A   1      46.946  32.481  30.648  1.00  0.00    -0.206 F 
ATOM     65  C   UNL A   1      47.188  34.653  29.795  1.00  0.00     0.059 A 
ATOM     66  C   UNL A   1      46.657  35.105  27.469  1.00  0.00     0.059 A 
ATOM     67  F   UNL A   1      45.871  33.373  26.098  1.00  0.00    -0.206 F 
ATOM     68  C   UNL A   1      47.081  35.541  28.723  1.00  0.00     0.060 A 
BRANCH  68  69
ATOM     69  S   UNL A   1      47.509  37.275  28.990  1.00  0.00     0.124 S 
ATOM     70  O   UNL A   1      47.343  37.396  30.436  1.00  0.00    -0.237 OA
ATOM     71  O   UNL A   1      48.882  37.338  28.503  1.00  0.00    -0.237 OA
ATOM     72  O   UNL A   1      46.527  37.995  28.184  1.00  0.00    -0.744 OA
ENDBRANCH  68  69
ENDBRANCH  47  61
BRANCH  48  73
ATOM     73  C   UNL A   1      43.460  23.384  26.960  1.00  0.00     0.058 A 
ATOM     74  C   UNL A   1      43.326  22.888  25.656  1.00  0.00     0.135 A 
ATOM     75  C   UNL A   1      43.171  22.513  28.023  1.00  0.00     0.135 A 
ATOM     76  F   UNL A   1      43.576  23.685  24.605  1.00  0.00    -0.206 F 
ATOM     77  C   UNL A   1      42.911  21.582  25.411  1.00  0.00     0.059 A 
ATOM     78  C   UNL A   1      42.780  21.197  27.805  1.00  0.00     0.059 A 
ATOM     79  F   UNL A   1      43.291  22.937  29.291  1.00  0.00    -0.206 F 
ATOM     80  C   UNL A   1      42.644  20.742  26.495  1.00  0.00     0.060 A 
BRANCH  80  81
ATOM     81  S   UNL A   1      42.157  19.033  26.171  1.00  0.00     0.124 S 
ATOM     82  O   UNL A   1      42.413  18.405  27.463  1.00  0.00    -0.237 OA
ATOM     83  O   UNL A   1      40.753  19.179  25.799  1.00  0.00    -0.237 OA
ATOM     84  O   UNL A   1      43.047  18.631  25.086  1.00  0.00    -0.744 OA
ENDBRANCH  80  81
ENDBRANCH  48  73
BRANCH  60  85
ATOM     85  C   UNL A   1      49.606  26.661  26.472  1.00  0.00     0.058 A 
ATOM     86  C   UNL A   1      50.444  26.066  27.427  1.00  0.00     0.135 A 
ATOM     87  C   UNL A   1      50.074  26.751  25.151  1.00  0.00     0.135 A 
ATOM     88  F   UNL A   1      50.045  25.959  28.705  1.00  0.00    -0.206 F 
ATOM     89  C   UNL A   1      51.709  25.594  27.088  1.00  0.00     0.059 A 
ATOM     90  C   UNL A   1      51.325  26.264  24.786  1.00  0.00     0.059 A 
ATOM     91  F   UNL A   1      49.307  27.302  24.198  1.00  0.00    -0.206 F 
ATOM     92  C   UNL A   1      52.139  25.697  25.764  1.00  0.00     0.060 A 
BRANCH  92  93
ATOM     93  S   UNL A   1      53.768  25.048  25.329  1.00  0.00     0.124 S 
ATOM     94  O   UNL A   1      53.524  23.609  25.340  1.00  0.00    -0.237 OA
ATOM     95  O   UNL A   1      54.001  25.642  24.016  1.00  0.00    -0.237 OA
ATOM     96  O   UNL A   1      54.629  25.549  26.397  1.00  0.00    -0.744 OA
ENDBRANCH  92  93
ENDBRANCH  60  85
ENDBRANCH  34  35
ENDBRANCH  27  29
ENDBRANCH  26  27
ENDBRANCH  25  26
ENDBRANCH  24  25
ENDBRANCH  23  24
ENDBRANCH  22  23
ENDBRANCH   1  22
TORSDOF 25
ENDMDL
MODEL 2
REMARK VINA RESULT:      -7.9      1.303      8.360
REMARK SMILES CC(C)(C)SCCNC(=O)[C@@H]1C[C@H]1C(=O)OCCOCCOCCOC(=O)c1ccc(-c2c3nc(c(-c4c(F)cc(S(=O)(=O)[O-])cc4F)c4ccc([nH]4)c(-c4c(F)cc(S(=O)(=O)[O-])cc4F)c4nc(c(-c5c(F)cc(S(=O)(=O)[O-])cc5F)c5ccc2[nH]5)C=C4)C=C3)cc1
REMARK SMILES IDX 20 1 19 2 18 3 17 4 16 5 14 6 15 7 13 8 11 9 12 10 9 11 8 12
REMARK SMILES IDX 10 14 7 15 6 16 5 17 2 18 1 19 3 20 4 21 21 22 22 23 23 24
REMARK SMILES IDX 24 25 25 26 26 27 27 28 28 29 29 30 93 31 30 32 92 33 31 34
REMARK SMILES IDX 32 35 33 36 86 37 34 38 91 39 85 40 87 41 35 42 90 43 84 44
REMARK SMILES IDX 83 45 36 47 70 48 49 49 69 50 50 51 53 52 68 53 88 54 51 55
REMARK SMILES IDX 52 56 67 58 89 59 54 60 37 61 38 62 47 63 39 64 40 65 46 66
REMARK SMILES IDX 48 67 41 68 42 69 43 70 44 71 45 72 71 73 72 74 81 75 73 76
REMARK SMILES IDX 74 77 80 78 82 79 75 80 76 81 77 82 78 83 79 84 55 85 56 86
REMARK SMILES IDX 65 87 57 88 58 89 64 90 66 91 59 92 60 93 61 94 62 95 63 96
REMARK H PARENT 8 13 87 46 53 57
REMARK Flexibility Score: inf
ROOT
ATOM      1  C   UNL A   1      33.556  28.609  25.087  1.00  0.00     0.188 C 
ENDROOT
BRANCH   1   2
ATOM      2  O   UNL A   1      32.879  27.815  24.120  1.00  0.00    -0.376 OA
BRANCH   2   3
ATOM      3  C   UNL A   1      31.488  28.031  23.910  1.00  0.00     0.202 C 
BRANCH   3   4
ATOM      4  C   UNL A   1      30.582  26.801  23.986  1.00  0.00     0.261 C 
BRANCH   4   5
ATOM      5  O   UNL A   1      31.318  25.601  24.295  1.00  0.00    -0.463 OA
BRANCH   5   6
ATOM      6  C   UNL A   1      30.958  24.997  25.455  1.00  0.00     0.309 C 
ATOM      7  O   UNL A   1      30.150  25.436  26.261  1.00  0.00    -0.252 OA
BRANCH   6   8
ATOM      8  C   UNL A   1      31.587  23.672  25.668  1.00  0.00     0.112 C 
ATOM      9  C   UNL A   1      32.870  23.345  26.422  1.00  0.00     0.093 C 
ATOM     10  C   UNL A   1      31.520  23.107  27.066  1.00  0.00     0.030 C 
BRANCH   9  11
ATOM     11  C   UNL A   1      33.642  22.144  25.982  1.00  0.00     0.224 C 
ATOM     12  N   UNL A   1      34.676  22.240  25.106  1.00  0.00    -0.355 N 
ATOM     13  H   UNL A   1      35.071  21.369  24.871  1.00  0.00     0.163 HD
ATOM     14  O   UNL A   1      33.324  21.028  26.385  1.00  0.00    -0.275 OA
BRANCH  12  15
ATOM     15  C   UNL A   1      35.320  23.353  24.444  1.00  0.00     0.126 C 
BRANCH  15  16
ATOM     16  C   UNL A   1      36.404  24.015  25.311  1.00  0.00     0.091 C 
BRANCH  16  17
ATOM     17  S   UNL A   1      37.484  22.814  26.195  1.00  0.00    -0.154 SA
BRANCH  17  18
ATOM     18  C   UNL A   1      38.948  23.788  26.818  1.00  0.00     0.008 C 
ATOM     19  C   UNL A   1      39.415  24.651  25.630  1.00  0.00     0.022 C 
ATOM     20  C   UNL A   1      40.088  22.822  27.182  1.00  0.00     0.022 C 
ATOM     21  C   UNL A   1      38.647  24.708  28.003  1.00  0.00     0.022 C 
ENDBRANCH  17  18
ENDBRANCH  16  17
ENDBRANCH  15  16
ENDBRANCH  12  15
ENDBRANCH   9  11
ENDBRANCH   6   8
ENDBRANCH   5   6
ENDBRANCH   4   5
ENDBRANCH   3   4
ENDBRANCH   2   3
ENDBRANCH   1   2
BRANCH   1  22
ATOM     22  C   UNL A   1      32.726  29.508  26.012  1.00  0.00     0.188 C 
BRANCH  22  23
ATOM     23  O   UNL A   1      33.337  29.812  27.255  1.00  0.00    -0.376 OA
BRANCH  23  24
ATOM     24  C   UNL A   1      34.743  29.615  27.313  1.00  0.00     0.202 C 
BRANCH  24  25
ATOM     25  C   UNL A   1      35.348  30.068  28.648  1.00  0.00     0.261 C 
BRANCH  25  26
ATOM     26  O   UNL A   1      36.392  29.217  29.155  1.00  0.00    -0.460 OA
BRANCH  26  27
ATOM     27  C   UNL A   1      37.151  29.725  30.155  1.00  0.00     0.338 C 
ATOM     28  O   UNL A   1      36.784  30.000  31.283  1.00  0.00    -0.246 OA
BRANCH  27  29
ATOM     29  C   UNL A   1      38.560  29.690  29.718  1.00  0.00     0.060 A 
ATOM     30  C   UNL A   1      38.851  29.798  28.353  1.00  0.00     0.016 A 
ATOM     31  C   UNL A   1      39.585  29.534  30.650  1.00  0.00     0.016 A 
ATOM     32  C   UNL A   1      40.166  29.714  27.907  1.00  0.00     0.010 A 
ATOM     33  C   UNL A   1      40.904  29.442  30.202  1.00  0.00     0.010 A 
ATOM     34  C   UNL A   1      41.199  29.504  28.828  1.00  0.00    -0.014 A 
BRANCH  34  35
ATOM     35  C   UNL A   1      42.567  29.202  28.347  1.00  0.00     0.031 A 
ATOM     36  C   UNL A   1      42.879  27.801  27.899  1.00  0.00     0.074 A 
ATOM     37  C   UNL A   1      43.510  30.159  28.294  1.00  0.00     0.049 A 
ATOM     38  N   UNL A   1      44.027  27.273  27.567  1.00  0.00    -0.248 NA
ATOM     39  C   UNL A   1      41.740  26.872  27.819  1.00  0.00     0.031 C 
ATOM     40  C   UNL A   1      43.309  31.566  28.639  1.00  0.00     0.029 A 
ATOM     41  N   UNL A   1      44.833  30.087  27.937  1.00  0.00    -0.354 N 
ATOM     42  C   UNL A   1      43.755  25.944  27.263  1.00  0.00     0.074 A 
ATOM     43  C   UNL A   1      42.337  25.744  27.465  1.00  0.00     0.031 C 
ATOM     44  C   UNL A   1      44.472  32.222  28.491  1.00  0.00     0.029 A 
ATOM     45  C   UNL A   1      45.509  31.274  28.086  1.00  0.00     0.049 A 
ATOM     46  H   UNL A   1      45.258  29.263  27.606  1.00  0.00     0.167 HD
ATOM     47  C   UNL A   1      44.613  24.982  26.851  1.00  0.00     0.037 A 
ATOM     48  C   UNL A   1      46.820  31.554  27.946  1.00  0.00     0.037 A 
ATOM     49  C   UNL A   1      46.020  25.197  26.637  1.00  0.00     0.049 A 
ATOM     50  C   UNL A   1      47.768  30.453  27.546  1.00  0.00     0.074 A 
ATOM     51  C   UNL A   1      46.976  24.288  26.221  1.00  0.00     0.029 A 
ATOM     52  N   UNL A   1      46.671  26.408  26.818  1.00  0.00    -0.354 N 
ATOM     53  N   UNL A   1      47.507  29.193  27.289  1.00  0.00    -0.248 NA
ATOM     54  C   UNL A   1      49.188  30.810  27.423  1.00  0.00     0.031 C 
ATOM     55  C   UNL A   1      48.214  24.941  26.188  1.00  0.00     0.029 A 
ATOM     56  C   UNL A   1      48.020  26.268  26.538  1.00  0.00     0.049 A 
ATOM     57  H   UNL A   1      46.238  27.245  27.104  1.00  0.00     0.167 HD
ATOM     58  C   UNL A   1      48.726  28.612  26.953  1.00  0.00     0.074 A 
ATOM     59  C   UNL A   1      49.722  29.660  27.029  1.00  0.00     0.031 C 
ATOM     60  C   UNL A   1      48.996  27.327  26.613  1.00  0.00     0.037 A 
BRANCH  47  61
ATOM     61  C   UNL A   1      44.056  23.601  26.641  1.00  0.00     0.058 A 
ATOM     62  C   UNL A   1      43.805  22.731  27.714  1.00  0.00     0.135 A 
ATOM     63  C   UNL A   1      43.756  23.149  25.346  1.00  0.00     0.135 A 
ATOM     64  F   UNL A   1      44.094  23.106  28.970  1.00  0.00    -0.206 F 
ATOM     65  C   UNL A   1      43.301  21.451  27.508  1.00  0.00     0.059 A 
ATOM     66  C   UNL A   1      43.226  21.882  25.119  1.00  0.00     0.059 A 
ATOM     67  F   UNL A   1      43.982  23.939  24.284  1.00  0.00    -0.206 F 
ATOM     68  C   UNL A   1      43.016  21.035  26.205  1.00  0.00     0.060 A 
BRANCH  68  69
ATOM     69  S   UNL A   1      42.364  19.370  25.953  1.00  0.00     0.124 S 
ATOM     70  O   UNL A   1      41.031  19.656  25.430  1.00  0.00    -0.237 OA
ATOM     71  O   UNL A   1      43.311  18.804  24.998  1.00  0.00    -0.237 OA
ATOM     72  O   UNL A   1      42.400  18.785  27.290  1.00  0.00    -0.744 OA
ENDBRANCH  68  69
ENDBRANCH  47  61
BRANCH  48  73
ATOM     73  C   UNL A   1      47.319  32.928  28.221  1.00  0.00     0.058 A 
ATOM     74  C   UNL A   1      47.757  33.300  29.500  1.00  0.00     0.135 A 
ATOM     75  C   UNL A   1      47.370  33.897  27.206  1.00  0.00     0.135 A 
ATOM     76  F   UNL A   1      47.715  32.415  30.508  1.00  0.00    -0.206 F 
ATOM     77  C   UNL A   1      48.221  34.585  29.767  1.00  0.00     0.059 A 
ATOM     78  C   UNL A   1      47.853  35.180  27.442  1.00  0.00     0.059 A 
ATOM     79  F   UNL A   1      46.968  33.590  25.963  1.00  0.00    -0.206 F 
ATOM     80  C   UNL A   1      48.268  35.518  28.729  1.00  0.00     0.060 A 
BRANCH  80  81
ATOM     81  S   UNL A   1      48.920  37.167  29.070  1.00  0.00     0.124 S 
ATOM     82  O   UNL A   1      47.908  38.017  28.451  1.00  0.00    -0.237 OA
ATOM     83  O   UNL A   1      48.961  37.186  30.530  1.00  0.00    -0.237 OA
ATOM     84  O   UNL A   1      50.223  37.155  28.414  1.00  0.00    -0.744 OA
ENDBRANCH  80  81
ENDBRANCH  48  73
BRANCH  60  85
ATOM     85  C   UNL A   1      50.418  26.988  26.261  1.00  0.00     0.058 A 
ATOM     86  C   UNL A   1      51.298  26.433  27.204  1.00  0.00     0.135 A 
ATOM     87  C   UNL A   1      50.888  27.166  24.950  1.00  0.00     0.135 A 
ATOM     88  F   UNL A   1      50.900  26.246  28.472  1.00  0.00    -0.206 F 
ATOM     89  C   UNL A   1      52.602  26.087  26.862  1.00  0.00     0.059 A 
ATOM     90  C   UNL A   1      52.179  26.804  24.581  1.00  0.00     0.059 A 
ATOM     91  F   UNL A   1      50.082  27.683  24.008  1.00  0.00    -0.206 F 
ATOM     92  C   UNL A   1      53.032  26.274  25.548  1.00  0.00     0.060 A 
BRANCH  92  93
ATOM     93  S   UNL A   1      54.715  25.787  25.107  1.00  0.00     0.124 S 
ATOM     94  O   UNL A   1      55.498  26.493  26.116  1.00  0.00    -0.237 OA
ATOM     95  O   UNL A   1      54.667  24.335  25.244  1.00  0.00    -0.237 OA
ATOM     96  O   UNL A   1      54.863  26.276  23.740  1.00  0.00    -0.744 OA
ENDBRANCH  92  93
ENDBRANCH  60  85
ENDBRANCH  34  35
ENDBRANCH  27  29
ENDBRANCH  26  27
ENDBRANCH  25  26
ENDBRANCH  24  25
ENDBRANCH  23  24
ENDBRANCH  22  23
ENDBRANCH   1  22
TORSDOF 25
ENDMDL
MODEL 3
REMARK VINA RESULT:      -7.7      5.905     10.011
REMARK SMILES CC(C)(C)SCCNC(=O)[C@@H]1C[C@H]1C(=O)OCCOCCOCCOC(=O)c1ccc(-c2c3nc(c(-c4c(F)cc(S(=O)(=O)[O-])cc4F)c4ccc([nH]4)c(-c4c(F)cc(S(=O)(=O)[O-])cc4F)c4nc(c(-c5c(F)cc(S(=O)(=O)[O-])cc5F)c5ccc2[nH]5)C=C4)C=C3)cc1
REMARK SMILES IDX 20 1 19 2 18 3 17 4 16 5 14 6 15 7 13 8 11 9 12 10 9 11 8 12
REMARK SMILES IDX 10 14 7 15 6 16 5 17 2 18 1 19 3 20 4 21 21 22 22 23 23 24
REMARK SMILES IDX 24 25 25 26 26 27 27 28 28 29 29 30 93 31 30 32 92 33 31 34
REMARK SMILES IDX 32 35 33 36 86 37 34 38 91 39 85 40 87 41 35 42 90 43 84 44
REMARK SMILES IDX 83 45 36 47 70 48 49 49 69 50 50 51 53 52 68 53 88 54 51 55
REMARK SMILES IDX 52 56 67 58 89 59 54 60 37 61 38 62 47 63 39 64 40 65 46 66
REMARK SMILES IDX 48 67 41 68 42 69 43 70 44 71 45 72 71 73 72 74 81 75 73 76
REMARK SMILES IDX 74 77 80 78 82 79 75 80 76 81 77 82 78 83 79 84 55 85 56 86
REMARK SMILES IDX 65 87 57 88 58 89 64 90 66 91 59 92 60 93 61 94 62 95 63 96
REMARK H PARENT 8 13 87 46 53 57
REMARK Flexibility Score: inf
ROOT
ATOM      1  C   UNL A   1      33.357  28.849  24.884  1.00  0.00     0.188 C 
ENDROOT
BRANCH   1   2
ATOM      2  O   UNL A   1      33.301  27.863  23.859  1.00  0.00    -0.376 OA
BRANCH   2   3
ATOM      3  C   UNL A   1      32.746  28.218  22.597  1.00  0.00     0.202 C 
BRANCH   3   4
ATOM      4  C   UNL A   1      31.580  27.365  22.095  1.00  0.00     0.261 C 
BRANCH   4   5
ATOM      5  O   UNL A   1      31.338  26.223  22.939  1.00  0.00    -0.463 OA
BRANCH   5   6
ATOM      6  C   UNL A   1      30.330  26.381  23.833  1.00  0.00     0.309 C 
ATOM      7  O   UNL A   1      29.520  27.297  23.832  1.00  0.00    -0.252 OA
BRANCH   6   8
ATOM      8  C   UNL A   1      30.222  25.284  24.823  1.00  0.00     0.112 C 
ATOM      9  C   UNL A   1      31.180  24.936  25.957  1.00  0.00     0.093 C 
ATOM     10  C   UNL A   1      29.893  25.682  26.241  1.00  0.00     0.030 C 
BRANCH   9  11
ATOM     11  C   UNL A   1      31.253  23.506  26.383  1.00  0.00     0.224 C 
ATOM     12  N   UNL A   1      31.684  22.530  25.541  1.00  0.00    -0.355 N 
ATOM     13  H   UNL A   1      31.644  21.629  25.937  1.00  0.00     0.163 HD
ATOM     14  O   UNL A   1      30.884  23.181  27.509  1.00  0.00    -0.275 OA
BRANCH  12  15
ATOM     15  C   UNL A   1      32.187  22.535  24.186  1.00  0.00     0.126 C 
BRANCH  15  16
ATOM     16  C   UNL A   1      33.671  22.930  24.104  1.00  0.00     0.091 C 
BRANCH  16  17
ATOM     17  S   UNL A   1      34.792  21.808  25.038  1.00  0.00    -0.154 SA
BRANCH  17  18
ATOM     18  C   UNL A   1      36.529  22.379  24.669  1.00  0.00     0.008 C 
ATOM     19  C   UNL A   1      36.775  23.595  25.583  1.00  0.00     0.022 C 
ATOM     20  C   UNL A   1      36.611  22.858  23.209  1.00  0.00     0.022 C 
ATOM     21  C   UNL A   1      37.617  21.337  24.937  1.00  0.00     0.022 C 
ENDBRANCH  17  18
ENDBRANCH  16  17
ENDBRANCH  15  16
ENDBRANCH  12  15
ENDBRANCH   9  11
ENDBRANCH   6   8
ENDBRANCH   5   6
ENDBRANCH   4   5
ENDBRANCH   3   4
ENDBRANCH   2   3
ENDBRANCH   1   2
BRANCH   1  22
ATOM     22  C   UNL A   1      32.082  29.635  25.217  1.00  0.00     0.188 C 
BRANCH  22  23
ATOM     23  O   UNL A   1      32.120  30.338  26.448  1.00  0.00    -0.376 OA
BRANCH  23  24
ATOM     24  C   UNL A   1      33.414  30.557  26.992  1.00  0.00     0.202 C 
BRANCH  24  25
ATOM     25  C   UNL A   1      33.466  31.777  27.920  1.00  0.00     0.261 C 
BRANCH  25  26
ATOM     26  O   UNL A   1      34.527  31.749  28.893  1.00  0.00    -0.460 OA
BRANCH  26  27
ATOM     27  C   UNL A   1      34.686  32.866  29.642  1.00  0.00     0.338 C 
ATOM     28  O   UNL A   1      33.819  33.470  30.246  1.00  0.00    -0.246 OA
BRANCH  27  29
ATOM     29  C   UNL A   1      36.134  33.113  29.785  1.00  0.00     0.060 A 
ATOM     30  C   UNL A   1      37.021  32.479  28.908  1.00  0.00     0.016 A 
ATOM     31  C   UNL A   1      36.611  33.952  30.791  1.00  0.00     0.016 A 
ATOM     32  C   UNL A   1      38.395  32.651  29.053  1.00  0.00     0.010 A 
ATOM     33  C   UNL A   1      37.990  34.119  30.942  1.00  0.00     0.010 A 
ATOM     34  C   UNL A   1      38.888  33.448  30.092  1.00  0.00    -0.014 A 
BRANCH  34  35
ATOM     35  C   UNL A   1      40.340  33.466  30.384  1.00  0.00     0.031 A 
ATOM     36  C   UNL A   1      40.905  32.406  31.288  1.00  0.00     0.074 A 
ATOM     37  C   UNL A   1      41.145  34.397  29.841  1.00  0.00     0.049 A 
ATOM     38  N   UNL A   1      42.107  32.296  31.788  1.00  0.00    -0.248 NA
ATOM     39  C   UNL A   1      39.985  31.326  31.683  1.00  0.00     0.031 C 
ATOM     40  C   UNL A   1      40.725  35.434  28.900  1.00  0.00     0.029 A 
ATOM     41  N   UNL A   1      42.487  34.624  30.016  1.00  0.00    -0.354 N 
ATOM     42  C   UNL A   1      42.083  31.152  32.577  1.00  0.00     0.074 A 
ATOM     43  C   UNL A   1      40.744  30.612  32.501  1.00  0.00     0.031 C 
ATOM     44  C   UNL A   1      41.787  36.197  28.590  1.00  0.00     0.029 A 
ATOM     45  C   UNL A   1      42.949  35.732  29.346  1.00  0.00     0.049 A 
ATOM     46  H   UNL A   1      43.064  34.049  30.568  1.00  0.00     0.167 HD
ATOM     47  C   UNL A   1      43.090  30.603  33.296  1.00  0.00     0.037 A 
ATOM     48  C   UNL A   1      44.160  36.323  29.370  1.00  0.00     0.037 A 
ATOM     49  C   UNL A   1      44.424  31.140  33.350  1.00  0.00     0.049 A 
ATOM     50  C   UNL A   1      45.250  35.730  30.226  1.00  0.00     0.074 A 
ATOM     51  C   UNL A   1      45.517  30.661  34.050  1.00  0.00     0.029 A 
ATOM     52  N   UNL A   1      44.848  32.275  32.675  1.00  0.00    -0.354 N 
ATOM     53  N   UNL A   1      45.210  34.664  30.991  1.00  0.00    -0.248 NA
ATOM     54  C   UNL A   1      46.546  36.422  30.226  1.00  0.00     0.031 C 
ATOM     55  C   UNL A   1      46.593  31.529  33.828  1.00  0.00     0.029 A 
ATOM     56  C   UNL A   1      46.182  32.522  32.953  1.00  0.00     0.049 A 
ATOM     57  H   UNL A   1      44.283  32.825  32.084  1.00  0.00     0.167 HD
ATOM     58  C   UNL A   1      46.480  34.547  31.547  1.00  0.00     0.074 A 
ATOM     59  C   UNL A   1      47.267  35.643  31.022  1.00  0.00     0.031 C 
ATOM     60  C   UNL A   1      46.952  33.617  32.414  1.00  0.00     0.037 A 
BRANCH  47  61
ATOM     61  C   UNL A   1      42.773  29.379  34.109  1.00  0.00     0.058 A 
ATOM     62  C   UNL A   1      42.279  29.467  35.420  1.00  0.00     0.135 A 
ATOM     63  C   UNL A   1      42.954  28.100  33.561  1.00  0.00     0.135 A 
ATOM     64  F   UNL A   1      42.108  30.666  35.999  1.00  0.00    -0.206 F 
ATOM     65  C   UNL A   1      42.000  28.328  36.168  1.00  0.00     0.059 A 
ATOM     66  C   UNL A   1      42.657  26.946  34.282  1.00  0.00     0.059 A 
ATOM     67  F   UNL A   1      43.430  27.959  32.314  1.00  0.00    -0.206 F 
ATOM     68  C   UNL A   1      42.195  27.072  35.591  1.00  0.00     0.060 A 
BRANCH  68  69
ATOM     69  S   UNL A   1      41.830  25.602  36.575  1.00  0.00     0.124 S 
ATOM     70  O   UNL A   1      40.428  25.370  36.243  1.00  0.00    -0.237 OA
ATOM     71  O   UNL A   1      42.776  24.626  36.044  1.00  0.00    -0.237 OA
ATOM     72  O   UNL A   1      42.087  26.038  37.945  1.00  0.00    -0.744 OA
ENDBRANCH  68  69
ENDBRANCH  47  61
BRANCH  48  73
ATOM     73  C   UNL A   1      44.396  37.564  28.585  1.00  0.00     0.058 A 
ATOM     74  C   UNL A   1      44.090  38.826  29.112  1.00  0.00     0.135 A 
ATOM     75  C   UNL A   1      44.937  37.511  27.290  1.00  0.00     0.135 A 
ATOM     76  F   UNL A   1      43.557  38.930  30.340  1.00  0.00    -0.206 F 
ATOM     77  C   UNL A   1      44.303  39.993  28.383  1.00  0.00     0.059 A 
ATOM     78  C   UNL A   1      45.183  38.663  26.552  1.00  0.00     0.059 A 
ATOM     79  F   UNL A   1      45.254  36.327  26.742  1.00  0.00    -0.206 F 
ATOM     80  C   UNL A   1      44.854  39.900  27.103  1.00  0.00     0.060 A 
BRANCH  80  81
ATOM     81  S   UNL A   1      45.176  41.421  26.183  1.00  0.00     0.124 S 
ATOM     82  O   UNL A   1      44.511  41.143  24.914  1.00  0.00    -0.237 OA
ATOM     83  O   UNL A   1      44.545  42.431  27.027  1.00  0.00    -0.237 OA
ATOM     84  O   UNL A   1      46.634  41.479  26.132  1.00  0.00    -0.744 OA
ENDBRANCH  80  81
ENDBRANCH  48  73
BRANCH  60  85
ATOM     85  C   UNL A   1      48.395  33.719  32.823  1.00  0.00     0.058 A 
ATOM     86  C   UNL A   1      48.788  34.425  33.971  1.00  0.00     0.135 A 
ATOM     87  C   UNL A   1      49.390  33.053  32.089  1.00  0.00     0.135 A 
ATOM     88  F   UNL A   1      47.876  35.082  34.705  1.00  0.00    -0.206 F 
ATOM     89  C   UNL A   1      50.121  34.484  34.365  1.00  0.00     0.059 A 
ATOM     90  C   UNL A   1      50.725  33.079  32.478  1.00  0.00     0.059 A 
ATOM     91  F   UNL A   1      49.066  32.355  30.989  1.00  0.00    -0.206 F 
ATOM     92  C   UNL A   1      51.082  33.807  33.613  1.00  0.00     0.060 A 
BRANCH  92  93
ATOM     93  S   UNL A   1      52.805  33.861  34.154  1.00  0.00     0.124 S 
ATOM     94  O   UNL A   1      53.006  32.496  34.630  1.00  0.00    -0.237 OA
ATOM     95  O   UNL A   1      53.509  34.215  32.925  1.00  0.00    -0.237 OA
ATOM     96  O   UNL A   1      52.804  34.893  35.187  1.00  0.00    -0.744 OA
ENDBRANCH  92  93
ENDBRANCH  60  85
ENDBRANCH  34  35
ENDBRANCH  27  29
ENDBRANCH  26  27
ENDBRANCH  25  26
ENDBRANCH  24  25
ENDBRANCH  23  24
ENDBRANCH  22  23
ENDBRANCH   1  22
TORSDOF 25
ENDMDL
