MODEL 1
REMARK VINA RESULT:     -10.8      0.000      0.000
REMARK SMILES Cc1[nH]c2ccccc2c1/C=C1/SC(=S)N(c2cccc(C(=O)OCCOCCOCCOC(=O)c3ccc(-c4c5nc(c(-c6c(F)cc(S(=O)(=O)[O-])cc6F)c6ccc([nH]6)c(-c6c(F)cc(S(=O)(=O)[O-])cc6F)c6nc(c(-c7c(F)cc(S(=O)(=O)[O-])cc7F)c7ccc4[nH]7)C=C6)C=C5)cc3)c2)C1=O
REMARK SMILES IDX 29 1 28 2 27 3 26 4 25 5 24 6 22 7 23 8 21 9 17 10 18 11
REMARK SMILES IDX 102 12 19 13 20 14 16 15 11 16 12 17 13 18 103 19 14 20
REMARK SMILES IDX 104 21 15 22 10 23 1 24 2 25 3 26 4 27 9 29 5 30 8 31 6 32
REMARK SMILES IDX 7 33 30 34 31 35 32 36 33 37 34 38 35 39 36 40 37 41 101 42
REMARK SMILES IDX 38 43 100 44 39 45 40 46 41 47 94 48 42 49 99 50 93 51 95 52
REMARK SMILES IDX 43 53 98 54 92 55 91 56 44 58 78 59 57 60 77 61 58 62 61 63
REMARK SMILES IDX 76 64 96 65 59 66 60 67 75 69 97 70 62 71 45 72 46 73 55 74
REMARK SMILES IDX 47 75 48 76 54 77 56 78 49 79 50 80 51 81 52 82 53 83 79 84
REMARK SMILES IDX 80 85 89 86 81 87 82 88 88 89 90 90 83 91 84 92 85 93 86 94
REMARK SMILES IDX 87 95 63 96 64 97 73 98 65 99 66 100 72 101 74 102 67 103
REMARK SMILES IDX 68 104 69 105 70 106 71 107
REMARK H PARENT 3 28 95 57 61 68
REMARK Flexibility Score: inf
ROOT
ATOM      1  C   UNL A   1      33.626  28.705  27.234  1.00  0.00     0.188 C 
ENDROOT
BRANCH   1   2
ATOM      2  C   UNL A   1      32.462  28.250  26.330  1.00  0.00     0.188 C 
BRANCH   2   3
ATOM      3  O   UNL A   1      31.416  29.178  26.166  1.00  0.00    -0.376 OA
BRANCH   3   4
ATOM      4  C   UNL A   1      31.420  30.092  25.084  1.00  0.00     0.202 C 
BRANCH   4   5
ATOM      5  C   UNL A   1      30.229  30.426  24.163  1.00  0.00     0.261 C 
BRANCH   5   6
ATOM      6  O   UNL A   1      30.211  29.869  22.848  1.00  0.00    -0.460 OA
BRANCH   6   7
ATOM      7  C   UNL A   1      29.196  29.007  22.586  1.00  0.00     0.338 C 
ATOM      8  O   UNL A   1      28.258  29.185  21.825  1.00  0.00    -0.246 OA
BRANCH   7   9
ATOM      9  C   UNL A   1      29.502  27.707  23.217  1.00  0.00     0.062 A 
ATOM     10  C   UNL A   1      31.035  25.873  23.673  1.00  0.00     0.051 A 
ATOM     11  C   UNL A   1      29.968  25.189  24.286  1.00  0.00     0.027 A 
ATOM     12  C   UNL A   1      30.772  27.127  23.103  1.00  0.00     0.042 A 
ATOM     13  C   UNL A   1      28.697  25.764  24.387  1.00  0.00     0.003 A 
ATOM     14  C   UNL A   1      28.468  27.035  23.873  1.00  0.00     0.016 A 
BRANCH  10  15
ATOM     15  N   UNL A   1      32.347  25.288  23.628  1.00  0.00    -0.261 N 
ATOM     16  C   UNL A   1      34.590  22.524  24.522  1.00  0.00     0.032 C 
ATOM     17  C   UNL A   1      34.011  23.658  24.097  1.00  0.00     0.081 C 
ATOM     18  S   UNL A   1      34.851  24.817  23.146  1.00  0.00    -0.054 SA
ATOM     19  C   UNL A   1      32.600  24.101  24.322  1.00  0.00     0.270 C 
ATOM     20  C   UNL A   1      33.433  25.851  22.970  1.00  0.00     0.152 C 
ATOM     21  O   UNL A   1      31.802  23.477  25.008  1.00  0.00    -0.268 OA
ATOM     22  S   UNL A   1      33.591  27.325  22.186  1.00  0.00    -0.051 S 
BRANCH  16  23
ATOM     23  C   UNL A   1      33.960  21.466  25.236  1.00  0.00     0.004 A 
ATOM     24  C   UNL A   1      34.198  22.354  27.696  1.00  0.00     0.065 C 
ATOM     25  C   UNL A   1      33.805  21.420  26.609  1.00  0.00     0.020 A 
ATOM     26  N   UNL A   1      33.215  20.212  26.901  1.00  0.00    -0.358 N 
ATOM     27  C   UNL A   1      32.945  19.510  25.749  1.00  0.00     0.046 A 
ATOM     28  H   UNL A   1      33.013  19.894  27.810  1.00  0.00     0.166 HD
ATOM     29  C   UNL A   1      33.387  20.287  24.678  1.00  0.00     0.007 A 
ATOM     30  C   UNL A   1      32.368  18.246  25.583  1.00  0.00     0.027 A 
ATOM     31  C   UNL A   1      33.230  19.778  23.371  1.00  0.00     0.011 A 
ATOM     32  C   UNL A   1      32.231  17.763  24.279  1.00  0.00     0.002 A 
ATOM     33  C   UNL A   1      32.651  18.517  23.187  1.00  0.00     0.001 A 
ENDBRANCH  16  23
ENDBRANCH  10  15
ENDBRANCH   7   9
ENDBRANCH   6   7
ENDBRANCH   5   6
ENDBRANCH   4   5
ENDBRANCH   3   4
ENDBRANCH   2   3
ENDBRANCH   1   2
BRANCH   1  34
ATOM     34  O   UNL A   1      34.409  29.831  26.878  1.00  0.00    -0.376 OA
BRANCH  34  35
ATOM     35  C   UNL A   1      34.377  30.994  27.692  1.00  0.00     0.202 C 
BRANCH  35  36
ATOM     36  C   UNL A   1      33.215  32.007  27.677  1.00  0.00     0.261 C 
BRANCH  36  37
ATOM     37  O   UNL A   1      33.553  33.385  27.487  1.00  0.00    -0.460 OA
BRANCH  37  38
ATOM     38  C   UNL A   1      33.466  34.166  28.593  1.00  0.00     0.338 C 
ATOM     39  O   UNL A   1      32.524  34.861  28.936  1.00  0.00    -0.246 OA
BRANCH  38  40
ATOM     40  C   UNL A   1      34.647  33.922  29.441  1.00  0.00     0.060 A 
ATOM     41  C   UNL A   1      35.921  34.232  28.941  1.00  0.00     0.016 A 
ATOM     42  C   UNL A   1      34.498  33.357  30.706  1.00  0.00     0.016 A 
ATOM     43  C   UNL A   1      37.056  33.970  29.708  1.00  0.00     0.010 A 
ATOM     44  C   UNL A   1      35.637  33.070  31.461  1.00  0.00     0.010 A 
ATOM     45  C   UNL A   1      36.920  33.352  30.957  1.00  0.00    -0.014 A 
BRANCH  45  46
ATOM     46  C   UNL A   1      38.109  32.831  31.671  1.00  0.00     0.031 A 
ATOM     47  C   UNL A   1      38.790  31.609  31.124  1.00  0.00     0.074 A 
ATOM     48  C   UNL A   1      38.548  33.400  32.808  1.00  0.00     0.049 A 
ATOM     49  N   UNL A   1      39.742  30.883  31.647  1.00  0.00    -0.248 NA
ATOM     50  C   UNL A   1      38.317  31.135  29.813  1.00  0.00     0.031 C 
ATOM     51  C   UNL A   1      37.991  34.606  33.416  1.00  0.00     0.029 A 
ATOM     52  N   UNL A   1      39.542  33.011  33.671  1.00  0.00    -0.354 N 
ATOM     53  C   UNL A   1      39.965  29.850  30.744  1.00  0.00     0.074 A 
ATOM     54  C   UNL A   1      39.033  30.034  29.651  1.00  0.00     0.031 C 
ATOM     55  C   UNL A   1      38.626  34.836  34.578  1.00  0.00     0.029 A 
ATOM     56  C   UNL A   1      39.600  33.771  34.815  1.00  0.00     0.049 A 
ATOM     57  H   UNL A   1      40.153  32.261  33.488  1.00  0.00     0.167 HD
ATOM     58  C   UNL A   1      40.861  28.838  30.823  1.00  0.00     0.037 A 
ATOM     59  C   UNL A   1      40.320  33.599  35.941  1.00  0.00     0.037 A 
ATOM     60  C   UNL A   1      41.773  28.661  31.921  1.00  0.00     0.049 A 
ATOM     61  C   UNL A   1      41.274  32.436  36.042  1.00  0.00     0.074 A 
ATOM     62  C   UNL A   1      42.745  27.691  32.083  1.00  0.00     0.029 A 
ATOM     63  N   UNL A   1      41.810  29.458  33.057  1.00  0.00    -0.354 N 
ATOM     64  N   UNL A   1      41.508  31.485  35.168  1.00  0.00    -0.248 NA
ATOM     65  C   UNL A   1      42.063  32.321  37.277  1.00  0.00     0.031 C 
ATOM     66  C   UNL A   1      43.324  27.860  33.345  1.00  0.00     0.029 A 
ATOM     67  C   UNL A   1      42.765  28.981  33.940  1.00  0.00     0.049 A 
ATOM     68  H   UNL A   1      41.241  30.246  33.213  1.00  0.00     0.167 HD
ATOM     69  C   UNL A   1      42.489  30.676  35.734  1.00  0.00     0.074 A 
ATOM     70  C   UNL A   1      42.806  31.248  37.026  1.00  0.00     0.031 C 
ATOM     71  C   UNL A   1      43.080  29.566  35.223  1.00  0.00     0.037 A 
BRANCH  58  72
ATOM     72  C   UNL A   1      40.851  27.818  29.716  1.00  0.00     0.058 A 
ATOM     73  C   UNL A   1      41.824  27.803  28.703  1.00  0.00     0.135 A 
ATOM     74  C   UNL A   1      39.839  26.844  29.662  1.00  0.00     0.135 A 
ATOM     75  F   UNL A   1      42.807  28.718  28.695  1.00  0.00    -0.206 F 
ATOM     76  C   UNL A   1      41.764  26.896  27.650  1.00  0.00     0.059 A 
ATOM     77  C   UNL A   1      39.780  25.905  28.638  1.00  0.00     0.059 A 
ATOM     78  F   UNL A   1      38.884  26.809  30.606  1.00  0.00    -0.206 F 
ATOM     79  C   UNL A   1      40.732  25.956  27.622  1.00  0.00     0.060 A 
BRANCH  79  80
ATOM     80  S   UNL A   1      40.643  24.814  26.228  1.00  0.00     0.124 S 
ATOM     81  O   UNL A   1      41.177  25.635  25.145  1.00  0.00    -0.237 OA
ATOM     82  O   UNL A   1      41.496  23.715  26.669  1.00  0.00    -0.237 OA
ATOM     83  O   UNL A   1      39.221  24.500  26.134  1.00  0.00    -0.744 OA
ENDBRANCH  79  80
ENDBRANCH  58  72
BRANCH  59  84
ATOM     84  C   UNL A   1      40.136  34.546  37.073  1.00  0.00     0.058 A 
ATOM     85  C   UNL A   1      40.838  35.758  37.132  1.00  0.00     0.135 A 
ATOM     86  C   UNL A   1      39.206  34.280  38.092  1.00  0.00     0.135 A 
ATOM     87  F   UNL A   1      41.749  36.052  36.193  1.00  0.00    -0.206 F 
ATOM     88  C   UNL A   1      40.618  36.677  38.154  1.00  0.00     0.059 A 
ATOM     89  C   UNL A   1      38.950  35.193  39.109  1.00  0.00     0.059 A 
ATOM     90  F   UNL A   1      38.503  33.136  38.078  1.00  0.00    -0.206 F 
ATOM     91  C   UNL A   1      39.661  36.392  39.131  1.00  0.00     0.060 A 
BRANCH  91  92
ATOM     92  S   UNL A   1      39.316  37.636  40.394  1.00  0.00     0.124 S 
ATOM     93  O   UNL A   1      40.591  38.339  40.473  1.00  0.00    -0.237 OA
ATOM     94  O   UNL A   1      38.214  38.380  39.793  1.00  0.00    -0.237 OA
ATOM     95  O   UNL A   1      38.961  36.838  41.564  1.00  0.00    -0.744 OA
ENDBRANCH  91  92
ENDBRANCH  59  84
BRANCH  71  96
ATOM     96  C   UNL A   1      44.168  28.906  36.027  1.00  0.00     0.058 A 
ATOM     97  C   UNL A   1      45.488  29.384  36.027  1.00  0.00     0.135 A 
ATOM     98  C   UNL A   1      43.857  27.847  36.897  1.00  0.00     0.135 A 
ATOM     99  F   UNL A   1      45.844  30.387  35.210  1.00  0.00    -0.206 F 
ATOM    100  C   UNL A   1      46.458  28.837  36.863  1.00  0.00     0.059 A 
ATOM    101  C   UNL A   1      44.803  27.305  37.760  1.00  0.00     0.059 A 
ATOM    102  F   UNL A   1      42.607  27.355  36.942  1.00  0.00    -0.206 F 
ATOM    103  C   UNL A   1      46.102  27.805  37.735  1.00  0.00     0.060 A 
BRANCH 103 104
ATOM    104  S   UNL A   1      47.351  27.162  38.871  1.00  0.00     0.124 S 
ATOM    105  O   UNL A   1      48.555  27.219  38.049  1.00  0.00    -0.237 OA
ATOM    106  O   UNL A   1      47.289  28.116  39.974  1.00  0.00    -0.237 OA
ATOM    107  O   UNL A   1      46.868  25.820  39.184  1.00  0.00    -0.744 OA
ENDBRANCH 103 104
ENDBRANCH  71  96
ENDBRANCH  45  46
ENDBRANCH  38  40
ENDBRANCH  37  38
ENDBRANCH  36  37
ENDBRANCH  35  36
ENDBRANCH  34  35
ENDBRANCH   1  34
TORSDOF 22
ENDMDL
MODEL 2
REMARK VINA RESULT:     -10.8      6.120     11.689
REMARK SMILES Cc1[nH]c2ccccc2c1/C=C1/SC(=S)N(c2cccc(C(=O)OCCOCCOCCOC(=O)c3ccc(-c4c5nc(c(-c6c(F)cc(S(=O)(=O)[O-])cc6F)c6ccc([nH]6)c(-c6c(F)cc(S(=O)(=O)[O-])cc6F)c6nc(c(-c7c(F)cc(S(=O)(=O)[O-])cc7F)c7ccc4[nH]7)C=C6)C=C5)cc3)c2)C1=O
REMARK SMILES IDX 29 1 28 2 27 3 26 4 25 5 24 6 22 7 23 8 21 9 17 10 18 11
REMARK SMILES IDX 102 12 19 13 20 14 16 15 11 16 12 17 13 18 103 19 14 20
REMARK SMILES IDX 104 21 15 22 10 23 1 24 2 25 3 26 4 27 9 29 5 30 8 31 6 32
REMARK SMILES IDX 7 33 30 34 31 35 32 36 33 37 34 38 35 39 36 40 37 41 101 42
REMARK SMILES IDX 38 43 100 44 39 45 40 46 41 47 94 48 42 49 99 50 93 51 95 52
REMARK SMILES IDX 43 53 98 54 92 55 91 56 44 58 78 59 57 60 77 61 58 62 61 63
REMARK SMILES IDX 76 64 96 65 59 66 60 67 75 69 97 70 62 71 45 72 46 73 55 74
REMARK SMILES IDX 47 75 48 76 54 77 56 78 49 79 50 80 51 81 52 82 53 83 79 84
REMARK SMILES IDX 80 85 89 86 81 87 82 88 88 89 90 90 83 91 84 92 85 93 86 94
REMARK SMILES IDX 87 95 63 96 64 97 73 98 65 99 66 100 72 101 74 102 67 103
REMARK SMILES IDX 68 104 69 105 70 106 71 107
REMARK H PARENT 3 28 95 57 61 68
REMARK Flexibility Score: inf
ROOT
ATOM      1  C   UNL A   1      36.888  22.282  24.587  1.00  0.00     0.188 C 
ENDROOT
BRANCH   1   2
ATOM      2  C   UNL A   1      35.801  23.243  25.108  1.00  0.00     0.188 C 
BRANCH   2   3
ATOM      3  O   UNL A   1      35.686  23.336  26.508  1.00  0.00    -0.376 OA
BRANCH   3   4
ATOM      4  C   UNL A   1      34.510  22.907  27.170  1.00  0.00     0.202 C 
BRANCH   4   5
ATOM      5  C   UNL A   1      33.966  21.465  27.230  1.00  0.00     0.261 C 
BRANCH   5   6
ATOM      6  O   UNL A   1      33.920  20.706  26.021  1.00  0.00    -0.460 OA
BRANCH   6   7
ATOM      7  C   UNL A   1      32.680  20.453  25.531  1.00  0.00     0.338 C 
ATOM      8  O   UNL A   1      32.157  19.360  25.383  1.00  0.00    -0.246 OA
BRANCH   7   9
ATOM      9  C   UNL A   1      31.956  21.733  25.384  1.00  0.00     0.062 A 
ATOM     10  C   UNL A   1      31.665  23.901  24.318  1.00  0.00     0.051 A 
ATOM     11  C   UNL A   1      30.664  24.185  25.265  1.00  0.00     0.027 A 
ATOM     12  C   UNL A   1      32.336  22.673  24.418  1.00  0.00     0.042 A 
ATOM     13  C   UNL A   1      30.296  23.251  26.238  1.00  0.00     0.003 A 
ATOM     14  C   UNL A   1      30.925  22.013  26.284  1.00  0.00     0.016 A 
BRANCH  10  15
ATOM     15  N   UNL A   1      31.991  24.853  23.292  1.00  0.00    -0.261 N 
ATOM     16  C   UNL A   1      31.868  28.304  22.051  1.00  0.00     0.032 C 
ATOM     17  C   UNL A   1      32.025  26.986  22.246  1.00  0.00     0.081 C 
ATOM     18  S   UNL A   1      32.902  25.994  21.149  1.00  0.00    -0.054 SA
ATOM     19  C   UNL A   1      31.531  26.169  23.396  1.00  0.00     0.270 C 
ATOM     20  C   UNL A   1      32.709  24.549  22.142  1.00  0.00     0.152 C 
ATOM     21  O   UNL A   1      30.838  26.626  24.295  1.00  0.00    -0.268 OA
ATOM     22  S   UNL A   1      33.274  23.082  21.562  1.00  0.00    -0.051 S 
BRANCH  16  23
ATOM     23  C   UNL A   1      31.238  29.224  22.937  1.00  0.00     0.004 A 
ATOM     24  C   UNL A   1      32.972  29.235  24.909  1.00  0.00     0.065 C 
ATOM     25  C   UNL A   1      31.740  29.607  24.167  1.00  0.00     0.020 A 
ATOM     26  N   UNL A   1      30.808  30.445  24.732  1.00  0.00    -0.358 N 
ATOM     27  C   UNL A   1      29.749  30.646  23.876  1.00  0.00     0.046 A 
ATOM     28  H   UNL A   1      30.887  30.847  25.627  1.00  0.00     0.166 HD
ATOM     29  C   UNL A   1      30.003  29.901  22.724  1.00  0.00     0.007 A 
ATOM     30  C   UNL A   1      28.587  31.406  24.048  1.00  0.00     0.027 A 
ATOM     31  C   UNL A   1      29.051  29.931  21.682  1.00  0.00     0.011 A 
ATOM     32  C   UNL A   1      27.657  31.413  23.004  1.00  0.00     0.002 A 
ATOM     33  C   UNL A   1      27.885  30.690  21.836  1.00  0.00     0.001 A 
ENDBRANCH  16  23
ENDBRANCH  10  15
ENDBRANCH   7   9
ENDBRANCH   6   7
ENDBRANCH   5   6
ENDBRANCH   4   5
ENDBRANCH   3   4
ENDBRANCH   2   3
ENDBRANCH   1   2
BRANCH   1  34
ATOM     34  O   UNL A   1      37.478  21.331  25.456  1.00  0.00    -0.376 OA
BRANCH  34  35
ATOM     35  C   UNL A   1      37.963  20.105  24.929  1.00  0.00     0.202 C 
BRANCH  35  36
ATOM     36  C   UNL A   1      39.230  19.400  25.454  1.00  0.00     0.261 C 
BRANCH  36  37
ATOM     37  O   UNL A   1      40.123  20.177  26.260  1.00  0.00    -0.460 OA
BRANCH  37  38
ATOM     38  C   UNL A   1      41.435  19.846  26.166  1.00  0.00     0.338 C 
ATOM     39  O   UNL A   1      41.905  18.800  25.749  1.00  0.00    -0.246 OA
BRANCH  38  40
ATOM     40  C   UNL A   1      42.249  21.029  26.496  1.00  0.00     0.060 A 
ATOM     41  C   UNL A   1      42.419  21.386  27.843  1.00  0.00     0.016 A 
ATOM     42  C   UNL A   1      42.809  21.801  25.480  1.00  0.00     0.016 A 
ATOM     43  C   UNL A   1      43.148  22.526  28.177  1.00  0.00     0.010 A 
ATOM     44  C   UNL A   1      43.516  22.958  25.815  1.00  0.00     0.010 A 
ATOM     45  C   UNL A   1      43.668  23.338  27.162  1.00  0.00    -0.014 A 
BRANCH  45  46
ATOM     46  C   UNL A   1      44.217  24.678  27.478  1.00  0.00     0.031 A 
ATOM     47  C   UNL A   1      43.258  25.771  27.853  1.00  0.00     0.074 A 
ATOM     48  C   UNL A   1      45.535  24.933  27.387  1.00  0.00     0.049 A 
ATOM     49  N   UNL A   1      43.476  27.048  28.022  1.00  0.00    -0.248 NA
ATOM     50  C   UNL A   1      41.856  25.364  28.047  1.00  0.00     0.031 C 
ATOM     51  C   UNL A   1      46.565  23.948  27.067  1.00  0.00     0.029 A 
ATOM     52  N   UNL A   1      46.223  26.114  27.522  1.00  0.00    -0.354 N 
ATOM     53  C   UNL A   1      42.237  27.604  28.315  1.00  0.00     0.074 A 
ATOM     54  C   UNL A   1      41.270  26.528  28.281  1.00  0.00     0.031 C 
ATOM     55  C   UNL A   1      47.751  24.574  26.988  1.00  0.00     0.029 A 
ATOM     56  C   UNL A   1      47.557  26.006  27.209  1.00  0.00     0.049 A 
ATOM     57  H   UNL A   1      45.801  26.955  27.813  1.00  0.00     0.167 HD
ATOM     58  C   UNL A   1      41.934  28.897  28.583  1.00  0.00     0.037 A 
ATOM     59  C   UNL A   1      48.500  26.960  27.070  1.00  0.00     0.037 A 
ATOM     60  C   UNL A   1      42.905  29.959  28.603  1.00  0.00     0.049 A 
ATOM     61  C   UNL A   1      48.139  28.402  27.316  1.00  0.00     0.074 A 
ATOM     62  C   UNL A   1      42.709  31.296  28.897  1.00  0.00     0.029 A 
ATOM     63  N   UNL A   1      44.249  29.809  28.292  1.00  0.00    -0.354 N 
ATOM     64  N   UNL A   1      46.974  28.917  27.631  1.00  0.00    -0.248 NA
ATOM     65  C   UNL A   1      49.217  29.394  27.190  1.00  0.00     0.031 C 
ATOM     66  C   UNL A   1      43.920  31.967  28.700  1.00  0.00     0.029 A 
ATOM     67  C   UNL A   1      44.889  31.036  28.354  1.00  0.00     0.049 A 
ATOM     68  H   UNL A   1      44.684  28.957  28.061  1.00  0.00     0.167 HD
ATOM     69  C   UNL A   1      47.183  30.286  27.768  1.00  0.00     0.074 A 
ATOM     70  C   UNL A   1      48.587  30.522  27.502  1.00  0.00     0.031 C 
ATOM     71  C   UNL A   1      46.293  31.258  28.095  1.00  0.00     0.037 A 
BRANCH  58  72
ATOM     72  C   UNL A   1      40.485  29.233  28.818  1.00  0.00     0.058 A 
ATOM     73  C   UNL A   1      39.577  29.410  27.761  1.00  0.00     0.135 A 
ATOM     74  C   UNL A   1      40.001  29.392  30.128  1.00  0.00     0.135 A 
ATOM     75  F   UNL A   1      39.987  29.284  26.488  1.00  0.00    -0.206 F 
ATOM     76  C   UNL A   1      38.258  29.785  27.992  1.00  0.00     0.059 A 
ATOM     77  C   UNL A   1      38.676  29.731  30.382  1.00  0.00     0.059 A 
ATOM     78  F   UNL A   1      40.823  29.231  31.177  1.00  0.00    -0.206 F 
ATOM     79  C   UNL A   1      37.819  29.951  29.306  1.00  0.00     0.060 A 
BRANCH  79  80
ATOM     80  S   UNL A   1      36.117  30.479  29.588  1.00  0.00     0.124 S 
ATOM     81  O   UNL A   1      35.905  30.052  30.968  1.00  0.00    -0.237 OA
ATOM     82  O   UNL A   1      36.198  31.921  29.378  1.00  0.00    -0.237 OA
ATOM     83  O   UNL A   1      35.359  29.743  28.581  1.00  0.00    -0.744 OA
ENDBRANCH  79  80
ENDBRANCH  58  72
BRANCH  59  84
ATOM     84  C   UNL A   1      49.872  26.568  26.649  1.00  0.00     0.058 A 
ATOM     85  C   UNL A   1      50.821  26.122  27.578  1.00  0.00     0.135 A 
ATOM     86  C   UNL A   1      50.240  26.579  25.293  1.00  0.00     0.135 A 
ATOM     87  F   UNL A   1      50.525  26.108  28.887  1.00  0.00    -0.206 F 
ATOM     88  C   UNL A   1      52.083  25.691  27.180  1.00  0.00     0.059 A 
ATOM     89  C   UNL A   1      51.485  26.129  24.867  1.00  0.00     0.059 A 
ATOM     90  F   UNL A   1      49.365  26.992  24.362  1.00  0.00    -0.206 F 
ATOM     91  C   UNL A   1      52.401  25.685  25.820  1.00  0.00     0.060 A 
BRANCH  91  92
ATOM     92  S   UNL A   1      54.005  25.030  25.309  1.00  0.00     0.124 S 
ATOM     93  O   UNL A   1      54.681  24.869  26.591  1.00  0.00    -0.237 OA
ATOM     94  O   UNL A   1      53.626  23.796  24.628  1.00  0.00    -0.237 OA
ATOM     95  O   UNL A   1      54.536  26.079  24.443  1.00  0.00    -0.744 OA
ENDBRANCH  91  92
ENDBRANCH  59  84
BRANCH  71  96
ATOM     96  C   UNL A   1      46.800  32.669  28.236  1.00  0.00     0.058 A 
ATOM     97  C   UNL A   1      46.681  33.609  27.201  1.00  0.00     0.135 A 
ATOM     98  C   UNL A   1      47.308  33.114  29.469  1.00  0.00     0.135 A 
ATOM     99  F   UNL A   1      46.211  33.238  26.001  1.00  0.00    -0.206 F 
ATOM    100  C   UNL A   1      47.047  34.940  27.385  1.00  0.00     0.059 A 
ATOM    101  C   UNL A   1      47.652  34.444  29.683  1.00  0.00     0.059 A 
ATOM    102  F   UNL A   1      47.434  32.257  30.496  1.00  0.00    -0.206 F 
ATOM    103  C   UNL A   1      47.520  35.351  28.634  1.00  0.00     0.060 A 
BRANCH 103 104
ATOM    104  S   UNL A   1      47.912  37.097  28.881  1.00  0.00     0.124 S 
ATOM    105  O   UNL A   1      48.702  37.392  27.690  1.00  0.00    -0.237 OA
ATOM    106  O   UNL A   1      46.588  37.709  28.931  1.00  0.00    -0.237 OA
ATOM    107  O   UNL A   1      48.649  37.106  30.141  1.00  0.00    -0.744 OA
ENDBRANCH 103 104
ENDBRANCH  71  96
ENDBRANCH  45  46
ENDBRANCH  38  40
ENDBRANCH  37  38
ENDBRANCH  36  37
ENDBRANCH  35  36
ENDBRANCH  34  35
ENDBRANCH   1  34
TORSDOF 22
ENDMDL
MODEL 3
REMARK VINA RESULT:     -10.8      5.706     11.358
REMARK SMILES Cc1[nH]c2ccccc2c1/C=C1/SC(=S)N(c2cccc(C(=O)OCCOCCOCCOC(=O)c3ccc(-c4c5nc(c(-c6c(F)cc(S(=O)(=O)[O-])cc6F)c6ccc([nH]6)c(-c6c(F)cc(S(=O)(=O)[O-])cc6F)c6nc(c(-c7c(F)cc(S(=O)(=O)[O-])cc7F)c7ccc4[nH]7)C=C6)C=C5)cc3)c2)C1=O
REMARK SMILES IDX 29 1 28 2 27 3 26 4 25 5 24 6 22 7 23 8 21 9 17 10 18 11
REMARK SMILES IDX 102 12 19 13 20 14 16 15 11 16 12 17 13 18 103 19 14 20
REMARK SMILES IDX 104 21 15 22 10 23 1 24 2 25 3 26 4 27 9 29 5 30 8 31 6 32
REMARK SMILES IDX 7 33 30 34 31 35 32 36 33 37 34 38 35 39 36 40 37 41 101 42
REMARK SMILES IDX 38 43 100 44 39 45 40 46 41 47 94 48 42 49 99 50 93 51 95 52
REMARK SMILES IDX 43 53 98 54 92 55 91 56 44 58 78 59 57 60 77 61 58 62 61 63
REMARK SMILES IDX 76 64 96 65 59 66 60 67 75 69 97 70 62 71 45 72 46 73 55 74
REMARK SMILES IDX 47 75 48 76 54 77 56 78 49 79 50 80 51 81 52 82 53 83 79 84
REMARK SMILES IDX 80 85 89 86 81 87 82 88 88 89 90 90 83 91 84 92 85 93 86 94
REMARK SMILES IDX 87 95 63 96 64 97 73 98 65 99 66 100 72 101 74 102 67 103
REMARK SMILES IDX 68 104 69 105 70 106 71 107
REMARK H PARENT 3 28 95 57 61 68
REMARK Flexibility Score: inf
ROOT
ATOM      1  C   UNL A   1      37.219  20.375  24.946  1.00  0.00     0.188 C 
ENDROOT
BRANCH   1   2
ATOM      2  C   UNL A   1      36.287  21.574  24.678  1.00  0.00     0.188 C 
BRANCH   2   3
ATOM      3  O   UNL A   1      36.920  22.825  24.554  1.00  0.00    -0.376 OA
BRANCH   3   4
ATOM      4  C   UNL A   1      37.179  23.623  25.695  1.00  0.00     0.202 C 
BRANCH   4   5
ATOM      5  C   UNL A   1      38.489  23.660  26.509  1.00  0.00     0.261 C 
BRANCH   5   6
ATOM      6  O   UNL A   1      39.004  24.930  26.908  1.00  0.00    -0.460 OA
BRANCH   6   7
ATOM      7  C   UNL A   1      40.274  25.203  26.514  1.00  0.00     0.338 C 
ATOM      8  O   UNL A   1      41.043  24.450  25.937  1.00  0.00    -0.246 OA
BRANCH   7   9
ATOM      9  C   UNL A   1      40.532  26.645  26.707  1.00  0.00     0.062 A 
ATOM     10  C   UNL A   1      40.132  28.738  27.882  1.00  0.00     0.051 A 
ATOM     11  C   UNL A   1      40.931  29.382  26.920  1.00  0.00     0.027 A 
ATOM     12  C   UNL A   1      39.907  27.361  27.737  1.00  0.00     0.042 A 
ATOM     13  C   UNL A   1      41.543  28.668  25.885  1.00  0.00     0.003 A 
ATOM     14  C   UNL A   1      41.364  27.293  25.791  1.00  0.00     0.016 A 
BRANCH  10  15
ATOM     15  N   UNL A   1      39.556  29.481  28.970  1.00  0.00    -0.261 N 
ATOM     16  C   UNL A   1      39.873  30.841  32.363  1.00  0.00     0.032 C 
ATOM     17  C   UNL A   1      39.486  30.438  31.143  1.00  0.00     0.081 C 
ATOM     18  S   UNL A   1      37.978  30.899  30.460  1.00  0.00    -0.054 SA
ATOM     19  C   UNL A   1      40.251  29.589  30.178  1.00  0.00     0.270 C 
ATOM     20  C   UNL A   1      38.303  30.079  28.933  1.00  0.00     0.152 C 
ATOM     21  O   UNL A   1      41.338  29.091  30.437  1.00  0.00    -0.268 OA
ATOM     22  S   UNL A   1      37.104  30.032  27.762  1.00  0.00    -0.051 S 
BRANCH  16  23
ATOM     23  C   UNL A   1      41.132  30.589  32.980  1.00  0.00     0.004 A 
ATOM     24  C   UNL A   1      42.338  32.878  32.536  1.00  0.00     0.065 C 
ATOM     25  C   UNL A   1      42.179  31.490  33.040  1.00  0.00     0.020 A 
ATOM     26  N   UNL A   1      43.226  30.841  33.652  1.00  0.00    -0.358 N 
ATOM     27  C   UNL A   1      42.858  29.570  34.029  1.00  0.00     0.046 A 
ATOM     28  H   UNL A   1      44.116  31.233  33.800  1.00  0.00     0.166 HD
ATOM     29  C   UNL A   1      41.532  29.388  33.635  1.00  0.00     0.007 A 
ATOM     30  C   UNL A   1      43.606  28.571  34.663  1.00  0.00     0.027 A 
ATOM     31  C   UNL A   1      40.916  28.147  33.902  1.00  0.00     0.011 A 
ATOM     32  C   UNL A   1      42.974  27.348  34.909  1.00  0.00     0.002 A 
ATOM     33  C   UNL A   1      41.649  27.138  34.540  1.00  0.00     0.001 A 
ENDBRANCH  16  23
ENDBRANCH  10  15
ENDBRANCH   7   9
ENDBRANCH   6   7
ENDBRANCH   5   6
ENDBRANCH   4   5
ENDBRANCH   3   4
ENDBRANCH   2   3
ENDBRANCH   1   2
BRANCH   1  34
ATOM     34  O   UNL A   1      38.543  20.588  25.405  1.00  0.00    -0.376 OA
BRANCH  34  35
ATOM     35  C   UNL A   1      39.375  19.473  25.689  1.00  0.00     0.202 C 
BRANCH  35  36
ATOM     36  C   UNL A   1      40.840  19.605  26.149  1.00  0.00     0.261 C 
BRANCH  36  37
ATOM     37  O   UNL A   1      41.395  20.924  26.190  1.00  0.00    -0.460 OA
BRANCH  37  38
ATOM     38  C   UNL A   1      42.740  20.988  26.354  1.00  0.00     0.338 C 
ATOM     39  O   UNL A   1      43.587  20.321  25.783  1.00  0.00    -0.246 OA
BRANCH  38  40
ATOM     40  C   UNL A   1      43.059  22.131  27.228  1.00  0.00     0.060 A 
ATOM     41  C   UNL A   1      44.276  22.807  27.051  1.00  0.00     0.016 A 
ATOM     42  C   UNL A   1      42.178  22.508  28.240  1.00  0.00     0.016 A 
ATOM     43  C   UNL A   1      44.619  23.863  27.894  1.00  0.00     0.010 A 
ATOM     44  C   UNL A   1      42.535  23.547  29.101  1.00  0.00     0.010 A 
ATOM     45  C   UNL A   1      43.766  24.213  28.947  1.00  0.00    -0.014 A 
BRANCH  45  46
ATOM     46  C   UNL A   1      44.220  25.147  30.005  1.00  0.00     0.031 A 
ATOM     47  C   UNL A   1      44.380  26.598  29.652  1.00  0.00     0.074 A 
ATOM     48  C   UNL A   1      44.530  24.710  31.238  1.00  0.00     0.049 A 
ATOM     49  N   UNL A   1      44.902  27.572  30.350  1.00  0.00    -0.248 NA
ATOM     50  C   UNL A   1      43.898  26.999  28.320  1.00  0.00     0.031 C 
ATOM     51  C   UNL A   1      44.384  23.335  31.708  1.00  0.00     0.029 A 
ATOM     52  N   UNL A   1      45.069  25.380  32.309  1.00  0.00    -0.354 N 
ATOM     53  C   UNL A   1      44.837  28.695  29.534  1.00  0.00     0.074 A 
ATOM     54  C   UNL A   1      44.244  28.276  28.282  1.00  0.00     0.031 C 
ATOM     55  C   UNL A   1      44.861  23.253  32.961  1.00  0.00     0.029 A 
ATOM     56  C   UNL A   1      45.385  24.558  33.364  1.00  0.00     0.049 A 
ATOM     57  H   UNL A   1      45.214  26.354  32.319  1.00  0.00     0.167 HD
ATOM     58  C   UNL A   1      45.242  29.959  29.804  1.00  0.00     0.037 A 
ATOM     59  C   UNL A   1      46.063  24.817  34.500  1.00  0.00     0.037 A 
ATOM     60  C   UNL A   1      45.840  30.358  31.050  1.00  0.00     0.049 A 
ATOM     61  C   UNL A   1      46.558  26.216  34.766  1.00  0.00     0.074 A 
ATOM     62  C   UNL A   1      46.253  31.620  31.439  1.00  0.00     0.029 A 
ATOM     63  N   UNL A   1      46.135  29.499  32.100  1.00  0.00    -0.354 N 
ATOM     64  N   UNL A   1      46.460  27.282  34.006  1.00  0.00    -0.248 NA
ATOM     65  C   UNL A   1      47.255  26.451  36.038  1.00  0.00     0.031 C 
ATOM     66  C   UNL A   1      46.858  31.512  32.696  1.00  0.00     0.029 A 
ATOM     67  C   UNL A   1      46.756  30.196  33.122  1.00  0.00     0.049 A 
ATOM     68  H   UNL A   1      45.933  28.535  32.114  1.00  0.00     0.167 HD
ATOM     69  C   UNL A   1      47.055  28.318  34.720  1.00  0.00     0.074 A 
ATOM     70  C   UNL A   1      47.512  27.752  35.973  1.00  0.00     0.031 C 
ATOM     71  C   UNL A   1      47.199  29.622  34.372  1.00  0.00     0.037 A 
BRANCH  58  72
ATOM     72  C   UNL A   1      45.098  30.979  28.707  1.00  0.00     0.058 A 
ATOM     73  C   UNL A   1      43.984  31.830  28.617  1.00  0.00     0.135 A 
ATOM     74  C   UNL A   1      46.091  31.098  27.720  1.00  0.00     0.135 A 
ATOM     75  F   UNL A   1      42.997  31.751  29.524  1.00  0.00    -0.206 F 
ATOM     76  C   UNL A   1      43.834  32.722  27.560  1.00  0.00     0.059 A 
ATOM     77  C   UNL A   1      45.979  32.009  26.674  1.00  0.00     0.059 A 
ATOM     78  F   UNL A   1      47.180  30.314  27.758  1.00  0.00    -0.206 F 
ATOM     79  C   UNL A   1      44.834  32.797  26.588  1.00  0.00     0.060 A 
BRANCH  79  80
ATOM     80  S   UNL A   1      44.605  33.928  25.201  1.00  0.00     0.124 S 
ATOM     81  O   UNL A   1      43.543  34.795  25.704  1.00  0.00    -0.237 OA
ATOM     82  O   UNL A   1      45.922  34.547  25.082  1.00  0.00    -0.237 OA
ATOM     83  O   UNL A   1      44.227  33.048  24.101  1.00  0.00    -0.744 OA
ENDBRANCH  79  80
ENDBRANCH  58  72
BRANCH  59  84
ATOM     84  C   UNL A   1      46.332  23.709  35.455  1.00  0.00     0.058 A 
ATOM     85  C   UNL A   1      45.419  23.381  36.467  1.00  0.00     0.135 A 
ATOM     86  C   UNL A   1      47.486  22.918  35.334  1.00  0.00     0.135 A 
ATOM     87  F   UNL A   1      44.309  24.115  36.634  1.00  0.00    -0.206 F 
ATOM     88  C   UNL A   1      45.635  22.302  37.319  1.00  0.00     0.059 A 
ATOM     89  C   UNL A   1      47.712  21.819  36.157  1.00  0.00     0.059 A 
ATOM     90  F   UNL A   1      48.389  23.187  34.377  1.00  0.00    -0.206 F 
ATOM     91  C   UNL A   1      46.779  21.518  37.147  1.00  0.00     0.060 A 
BRANCH  91  92
ATOM     92  S   UNL A   1      46.996  20.063  38.196  1.00  0.00     0.124 S 
ATOM     93  O   UNL A   1      48.272  19.542  37.717  1.00  0.00    -0.237 OA
ATOM     94  O   UNL A   1      47.009  20.652  39.531  1.00  0.00    -0.237 OA
ATOM     95  O   UNL A   1      45.826  19.248  37.888  1.00  0.00    -0.744 OA
ENDBRANCH  91  92
ENDBRANCH  59  84
BRANCH  71  96
ATOM     96  C   UNL A   1      47.836  30.558  35.366  1.00  0.00     0.058 A 
ATOM     97  C   UNL A   1      49.225  30.749  35.424  1.00  0.00     0.135 A 
ATOM     98  C   UNL A   1      47.030  31.358  36.194  1.00  0.00     0.135 A 
ATOM     99  F   UNL A   1      50.042  30.007  34.663  1.00  0.00    -0.206 F 
ATOM    100  C   UNL A   1      49.791  31.703  36.267  1.00  0.00     0.059 A 
ATOM    101  C   UNL A   1      47.573  32.336  37.021  1.00  0.00     0.059 A 
ATOM    102  F   UNL A   1      45.694  31.222  36.172  1.00  0.00    -0.206 F 
ATOM    103  C   UNL A   1      48.956  32.500  37.053  1.00  0.00     0.060 A 
BRANCH 103 104
ATOM    104  S   UNL A   1      49.699  33.787  38.079  1.00  0.00     0.124 S 
ATOM    105  O   UNL A   1      50.281  34.667  37.072  1.00  0.00    -0.237 OA
ATOM    106  O   UNL A   1      48.544  34.319  38.795  1.00  0.00    -0.237 OA
ATOM    107  O   UNL A   1      50.657  33.056  38.902  1.00  0.00    -0.744 OA
ENDBRANCH 103 104
ENDBRANCH  71  96
ENDBRANCH  45  46
ENDBRANCH  38  40
ENDBRANCH  37  38
ENDBRANCH  36  37
ENDBRANCH  35  36
ENDBRANCH  34  35
ENDBRANCH   1  34
TORSDOF 22
ENDMDL
