MODEL 1
REMARK VINA RESULT:     -10.2      0.000      0.000
REMARK SMILES O=C(OCCOCCOCCOC(=O)C1(Cc2ccncc2)Cc2ccccc2C1)c1ccc(-c2c3nc(c(-c4c(F)cc(S(=O)(=O)[O-])cc4F)c4ccc([nH]4)c(-c4c(F)cc(S(=O)(=O)[O-])cc4F)c4nc(c(-c5c(F)cc(S(=O)(=O)[O-])cc5F)c5ccc2[nH]5)C=C4)C=C3)cc1
REMARK SMILES IDX 7 1 6 2 5 3 4 4 3 5 2 6 1 7 31 8 32 9 96 10 33 11 95 12
REMARK SMILES IDX 34 13 35 14 36 15 89 16 37 17 94 18 88 19 90 20 38 21 93 22
REMARK SMILES IDX 87 23 86 24 39 26 73 27 52 28 72 29 53 30 56 31 71 32 91 33
REMARK SMILES IDX 54 34 55 35 70 37 92 38 57 39 40 40 41 41 50 42 42 43 43 44
REMARK SMILES IDX 49 45 51 46 44 47 45 48 46 49 47 50 48 51 74 52 75 53 84 54
REMARK SMILES IDX 76 55 77 56 83 57 85 58 78 59 79 60 80 61 81 62 82 63 58 64
REMARK SMILES IDX 59 65 68 66 60 67 61 68 67 69 69 70 62 71 63 72 64 73 65 74
REMARK SMILES IDX 66 75 8 76 9 77 10 78 11 79 12 80 13 81 14 82 15 83 23 84
REMARK SMILES IDX 30 85 24 86 29 87 25 88 28 89 26 90 27 91 16 92 17 93 18 94
REMARK SMILES IDX 22 95 19 96 21 97 20 98
REMARK H PARENT 90 25 56 36
REMARK Flexibility Score: inf
ROOT
ATOM      1  C   UNL A   1      35.555  22.398  23.565  1.00  0.00     0.188 C 
ENDROOT
BRANCH   1   2
ATOM      2  O   UNL A   1      35.129  21.415  24.511  1.00  0.00    -0.376 OA
BRANCH   2   3
ATOM      3  C   UNL A   1      36.222  20.756  25.157  1.00  0.00     0.202 C 
BRANCH   3   4
ATOM      4  C   UNL A   1      37.619  21.364  24.914  1.00  0.00     0.261 C 
BRANCH   4   5
ATOM      5  O   UNL A   1      38.008  22.401  25.836  1.00  0.00    -0.460 OA
BRANCH   5   6
ATOM      6  C   UNL A   1      39.229  22.719  26.337  1.00  0.00     0.338 C 
ATOM      7  O   UNL A   1      40.064  21.818  26.431  1.00  0.00    -0.246 OA
BRANCH   6   8
ATOM      8  C   UNL A   1      39.609  24.077  26.849  1.00  0.00     0.060 A 
ATOM      9  C   UNL A   1      40.202  25.082  26.090  1.00  0.00     0.016 A 
ATOM     10  C   UNL A   1      39.314  24.370  28.196  1.00  0.00     0.016 A 
ATOM     11  C   UNL A   1      40.550  26.308  26.635  1.00  0.00     0.010 A 
ATOM     12  C   UNL A   1      39.653  25.609  28.758  1.00  0.00     0.010 A 
ATOM     13  C   UNL A   1      40.307  26.567  27.976  1.00  0.00    -0.014 A 
BRANCH  13  14
ATOM     14  C   UNL A   1      40.961  27.753  28.557  1.00  0.00     0.031 A 
ATOM     15  C   UNL A   1      42.454  27.752  28.619  1.00  0.00     0.074 A 
ATOM     16  C   UNL A   1      40.257  28.865  28.832  1.00  0.00     0.049 A 
ATOM     17  N   UNL A   1      43.255  28.681  29.056  1.00  0.00    -0.248 NA
ATOM     18  C   UNL A   1      43.139  26.577  28.048  1.00  0.00     0.031 C 
ATOM     19  C   UNL A   1      38.836  29.033  28.559  1.00  0.00     0.029 A 
ATOM     20  N   UNL A   1      40.618  30.054  29.402  1.00  0.00    -0.354 N 
ATOM     21  C   UNL A   1      44.534  28.225  28.775  1.00  0.00     0.074 A 
ATOM     22  C   UNL A   1      44.411  26.916  28.179  1.00  0.00     0.031 C 
ATOM     23  C   UNL A   1      38.408  30.198  29.070  1.00  0.00     0.029 A 
ATOM     24  C   UNL A   1      39.540  30.864  29.691  1.00  0.00     0.049 A 
ATOM     25  H   UNL A   1      41.551  30.307  29.586  1.00  0.00     0.167 HD
ATOM     26  C   UNL A   1      45.702  28.870  28.981  1.00  0.00     0.037 A 
ATOM     27  C   UNL A   1      39.485  31.995  30.413  1.00  0.00     0.037 A 
ATOM     28  C   UNL A   1      45.777  30.157  29.615  1.00  0.00     0.049 A 
ATOM     29  C   UNL A   1      40.784  32.574  30.872  1.00  0.00     0.074 A 
ATOM     30  C   UNL A   1      46.897  30.891  29.954  1.00  0.00     0.029 A 
ATOM     31  N   UNL A   1      44.670  30.892  30.031  1.00  0.00    -0.354 N 
ATOM     32  N   UNL A   1      41.996  32.111  30.666  1.00  0.00    -0.248 NA
ATOM     33  C   UNL A   1      40.727  33.833  31.617  1.00  0.00     0.031 C 
ATOM     34  C   UNL A   1      46.468  32.039  30.629  1.00  0.00     0.029 A 
ATOM     35  C   UNL A   1      45.080  32.054  30.656  1.00  0.00     0.049 A 
ATOM     36  H   UNL A   1      43.733  30.624  29.898  1.00  0.00     0.167 HD
ATOM     37  C   UNL A   1      42.855  33.051  31.208  1.00  0.00     0.074 A 
ATOM     38  C   UNL A   1      42.018  34.097  31.772  1.00  0.00     0.031 C 
ATOM     39  C   UNL A   1      44.211  33.063  31.212  1.00  0.00     0.037 A 
BRANCH  26  40
ATOM     40  C   UNL A   1      46.956  28.153  28.578  1.00  0.00     0.058 A 
ATOM     41  C   UNL A   1      47.459  28.210  27.266  1.00  0.00     0.135 A 
ATOM     42  C   UNL A   1      47.639  27.354  29.507  1.00  0.00     0.135 A 
ATOM     43  F   UNL A   1      46.819  28.924  26.326  1.00  0.00    -0.206 F 
ATOM     44  C   UNL A   1      48.583  27.483  26.886  1.00  0.00     0.059 A 
ATOM     45  C   UNL A   1      48.779  26.638  29.156  1.00  0.00     0.059 A 
ATOM     46  F   UNL A   1      47.185  27.245  30.765  1.00  0.00    -0.206 F 
ATOM     47  C   UNL A   1      49.235  26.698  27.840  1.00  0.00     0.060 A 
BRANCH  47  48
ATOM     48  S   UNL A   1      50.685  25.752  27.329  1.00  0.00     0.124 S 
ATOM     49  O   UNL A   1      50.844  26.187  25.946  1.00  0.00    -0.237 OA
ATOM     50  O   UNL A   1      51.703  26.215  28.263  1.00  0.00    -0.237 OA
ATOM     51  O   UNL A   1      50.262  24.362  27.504  1.00  0.00    -0.744 OA
ENDBRANCH  47  48
ENDBRANCH  26  40
BRANCH  27  52
ATOM     52  C   UNL A   1      38.178  32.597  30.781  1.00  0.00     0.058 A 
ATOM     53  C   UNL A   1      37.564  32.363  32.016  1.00  0.00     0.135 A 
ATOM     54  C   UNL A   1      37.514  33.435  29.870  1.00  0.00     0.135 A 
ATOM     55  F   UNL A   1      38.148  31.553  32.911  1.00  0.00    -0.206 F 
ATOM     56  C   UNL A   1      36.335  32.937  32.338  1.00  0.00     0.059 A 
ATOM     57  C   UNL A   1      36.300  34.040  30.176  1.00  0.00     0.059 A 
ATOM     58  F   UNL A   1      38.046  33.657  28.657  1.00  0.00    -0.206 F 
ATOM     59  C   UNL A   1      35.711  33.777  31.412  1.00  0.00     0.060 A 
BRANCH  59  60
ATOM     60  S   UNL A   1      34.131  34.539  31.845  1.00  0.00     0.124 S 
ATOM     61  O   UNL A   1      33.472  34.607  30.547  1.00  0.00    -0.237 OA
ATOM     62  O   UNL A   1      33.573  33.578  32.793  1.00  0.00    -0.237 OA
ATOM     63  O   UNL A   1      34.523  35.821  32.423  1.00  0.00    -0.744 OA
ENDBRANCH  59  60
ENDBRANCH  27  52
BRANCH  39  64
ATOM     64  C   UNL A   1      44.861  34.273  31.805  1.00  0.00     0.058 A 
ATOM     65  C   UNL A   1      45.122  35.420  31.042  1.00  0.00     0.135 A 
ATOM     66  C   UNL A   1      45.185  34.292  33.171  1.00  0.00     0.135 A 
ATOM     67  F   UNL A   1      44.844  35.436  29.728  1.00  0.00    -0.206 F 
ATOM     68  C   UNL A   1      45.702  36.544  31.611  1.00  0.00     0.059 A 
ATOM     69  C   UNL A   1      45.734  35.417  33.768  1.00  0.00     0.059 A 
ATOM     70  F   UNL A   1      44.947  33.216  33.939  1.00  0.00    -0.206 F 
ATOM     71  C   UNL A   1      45.998  36.534  32.977  1.00  0.00     0.060 A 
BRANCH  71  72
ATOM     72  S   UNL A   1      46.706  38.018  33.715  1.00  0.00     0.124 S 
ATOM     73  O   UNL A   1      47.151  37.517  35.010  1.00  0.00    -0.237 OA
ATOM     74  O   UNL A   1      47.763  38.362  32.769  1.00  0.00    -0.237 OA
ATOM     75  O   UNL A   1      45.581  38.947  33.753  1.00  0.00    -0.744 OA
ENDBRANCH  71  72
ENDBRANCH  39  64
ENDBRANCH  13  14
ENDBRANCH   6   8
ENDBRANCH   5   6
ENDBRANCH   4   5
ENDBRANCH   3   4
ENDBRANCH   2   3
ENDBRANCH   1   2
BRANCH   1  76
ATOM     76  C   UNL A   1      34.467  23.381  23.168  1.00  0.00     0.188 C 
BRANCH  76  77
ATOM     77  O   UNL A   1      34.442  24.653  23.800  1.00  0.00    -0.376 OA
BRANCH  77  78
ATOM     78  C   UNL A   1      34.284  24.659  25.214  1.00  0.00     0.202 C 
BRANCH  78  79
ATOM     79  C   UNL A   1      32.875  24.842  25.816  1.00  0.00     0.261 C 
BRANCH  79  80
ATOM     80  O   UNL A   1      32.057  25.887  25.254  1.00  0.00    -0.463 OA
BRANCH  80  81
ATOM     81  C   UNL A   1      31.605  26.812  26.151  1.00  0.00     0.313 C 
ATOM     82  O   UNL A   1      30.769  26.561  27.014  1.00  0.00    -0.252 OA
BRANCH  81  83
ATOM     83  C   UNL A   1      32.275  28.178  26.026  1.00  0.00     0.080 C 
ATOM     84  C   UNL A   1      31.718  29.232  27.018  1.00  0.00     0.055 C 
ATOM     85  C   UNL A   1      33.752  28.001  26.486  1.00  0.00     0.055 C 
ATOM     86  C   UNL A   1      32.928  30.098  27.240  1.00  0.00    -0.044 A 
ATOM     87  C   UNL A   1      34.088  29.356  27.018  1.00  0.00    -0.044 A 
ATOM     88  C   UNL A   1      33.007  31.425  27.622  1.00  0.00     0.004 A 
ATOM     89  C   UNL A   1      35.340  29.872  27.298  1.00  0.00     0.004 A 
ATOM     90  C   UNL A   1      34.268  31.972  27.873  1.00  0.00     0.000 A 
ATOM     91  C   UNL A   1      35.424  31.192  27.740  1.00  0.00     0.000 A 
BRANCH  83  92
ATOM     92  C   UNL A   1      32.131  28.800  24.608  1.00  0.00     0.055 C 
BRANCH  92  93
ATOM     93  C   UNL A   1      30.785  29.228  24.082  1.00  0.00    -0.044 A 
ATOM     94  C   UNL A   1      30.289  30.522  24.234  1.00  0.00     0.024 A 
ATOM     95  C   UNL A   1      30.043  28.335  23.302  1.00  0.00     0.024 A 
ATOM     96  C   UNL A   1      29.111  30.872  23.593  1.00  0.00     0.111 A 
ATOM     97  C   UNL A   1      28.871  28.775  22.706  1.00  0.00     0.111 A 
ATOM     98  N   UNL A   1      28.391  30.030  22.824  1.00  0.00    -0.265 NA
ENDBRANCH  92  93
ENDBRANCH  83  92
ENDBRANCH  81  83
ENDBRANCH  80  81
ENDBRANCH  79  80
ENDBRANCH  78  79
ENDBRANCH  77  78
ENDBRANCH  76  77
ENDBRANCH   1  76
TORSDOF 22
ENDMDL
MODEL 2
REMARK VINA RESULT:     -10.2      4.115      7.267
REMARK SMILES O=C(OCCOCCOCCOC(=O)C1(Cc2ccncc2)Cc2ccccc2C1)c1ccc(-c2c3nc(c(-c4c(F)cc(S(=O)(=O)[O-])cc4F)c4ccc([nH]4)c(-c4c(F)cc(S(=O)(=O)[O-])cc4F)c4nc(c(-c5c(F)cc(S(=O)(=O)[O-])cc5F)c5ccc2[nH]5)C=C4)C=C3)cc1
REMARK SMILES IDX 7 1 6 2 5 3 4 4 3 5 2 6 1 7 31 8 32 9 96 10 33 11 95 12
REMARK SMILES IDX 34 13 35 14 36 15 89 16 37 17 94 18 88 19 90 20 38 21 93 22
REMARK SMILES IDX 87 23 86 24 39 26 73 27 52 28 72 29 53 30 56 31 71 32 91 33
REMARK SMILES IDX 54 34 55 35 70 37 92 38 57 39 40 40 41 41 50 42 42 43 43 44
REMARK SMILES IDX 49 45 51 46 44 47 45 48 46 49 47 50 48 51 74 52 75 53 84 54
REMARK SMILES IDX 76 55 77 56 83 57 85 58 78 59 79 60 80 61 81 62 82 63 58 64
REMARK SMILES IDX 59 65 68 66 60 67 61 68 67 69 69 70 62 71 63 72 64 73 65 74
REMARK SMILES IDX 66 75 8 76 9 77 10 78 11 79 12 80 13 81 14 82 15 83 23 84
REMARK SMILES IDX 30 85 24 86 29 87 25 88 28 89 26 90 27 91 16 92 17 93 18 94
REMARK SMILES IDX 22 95 19 96 21 97 20 98
REMARK H PARENT 90 25 56 36
REMARK Flexibility Score: inf
ROOT
ATOM      1  C   UNL A   1      33.410  27.817  23.574  1.00  0.00     0.188 C 
ENDROOT
BRANCH   1   2
ATOM      2  O   UNL A   1      33.087  29.202  23.720  1.00  0.00    -0.376 OA
BRANCH   2   3
ATOM      3  C   UNL A   1      32.009  29.427  24.634  1.00  0.00     0.202 C 
BRANCH   3   4
ATOM      4  C   UNL A   1      32.410  29.835  26.067  1.00  0.00     0.261 C 
BRANCH   4   5
ATOM      5  O   UNL A   1      33.825  29.990  26.291  1.00  0.00    -0.460 OA
BRANCH   5   6
ATOM      6  C   UNL A   1      34.494  30.625  27.287  1.00  0.00     0.338 C 
ATOM      7  O   UNL A   1      34.104  31.746  27.615  1.00  0.00    -0.246 OA
BRANCH   6   8
ATOM      8  C   UNL A   1      35.717  30.086  27.966  1.00  0.00     0.060 A 
ATOM      9  C   UNL A   1      35.740  29.501  29.230  1.00  0.00     0.016 A 
ATOM     10  C   UNL A   1      36.935  30.147  27.258  1.00  0.00     0.016 A 
ATOM     11  C   UNL A   1      36.913  29.045  29.809  1.00  0.00     0.010 A 
ATOM     12  C   UNL A   1      38.128  29.682  27.828  1.00  0.00     0.010 A 
ATOM     13  C   UNL A   1      38.116  29.161  29.127  1.00  0.00    -0.014 A 
BRANCH  13  14
ATOM     14  C   UNL A   1      39.349  28.937  29.903  1.00  0.00     0.031 A 
ATOM     15  C   UNL A   1      40.247  27.829  29.461  1.00  0.00     0.074 A 
ATOM     16  C   UNL A   1      39.745  29.817  30.840  1.00  0.00     0.049 A 
ATOM     17  N   UNL A   1      41.391  27.454  29.958  1.00  0.00    -0.248 NA
ATOM     18  C   UNL A   1      39.837  27.087  28.253  1.00  0.00     0.031 C 
ATOM     19  C   UNL A   1      39.052  31.060  31.153  1.00  0.00     0.029 A 
ATOM     20  N   UNL A   1      40.803  29.812  31.706  1.00  0.00    -0.354 N 
ATOM     21  C   UNL A   1      41.857  26.466  29.104  1.00  0.00     0.074 A 
ATOM     22  C   UNL A   1      40.854  26.258  28.086  1.00  0.00     0.031 C 
ATOM     23  C   UNL A   1      39.621  31.643  32.220  1.00  0.00     0.029 A 
ATOM     24  C   UNL A   1      40.733  30.814  32.650  1.00  0.00     0.049 A 
ATOM     25  H   UNL A   1      41.539  29.161  31.659  1.00  0.00     0.167 HD
ATOM     26  C   UNL A   1      43.039  25.817  29.164  1.00  0.00     0.037 A 
ATOM     27  C   UNL A   1      41.470  31.003  33.757  1.00  0.00     0.037 A 
ATOM     28  C   UNL A   1      43.989  26.029  30.220  1.00  0.00     0.049 A 
ATOM     29  C   UNL A   1      42.641  30.097  33.959  1.00  0.00     0.074 A 
ATOM     30  C   UNL A   1      45.190  25.386  30.445  1.00  0.00     0.029 A 
ATOM     31  N   UNL A   1      43.825  26.952  31.248  1.00  0.00    -0.354 N 
ATOM     32  N   UNL A   1      43.050  29.116  33.188  1.00  0.00    -0.248 NA
ATOM     33  C   UNL A   1      43.473  30.335  35.140  1.00  0.00     0.031 C 
ATOM     34  C   UNL A   1      45.720  25.877  31.644  1.00  0.00     0.029 A 
ATOM     35  C   UNL A   1      44.884  26.870  32.132  1.00  0.00     0.049 A 
ATOM     36  H   UNL A   1      43.066  27.572  31.333  1.00  0.00     0.167 HD
ATOM     37  C   UNL A   1      44.221  28.651  33.758  1.00  0.00     0.074 A 
ATOM     38  C   UNL A   1      44.440  29.446  34.954  1.00  0.00     0.031 C 
ATOM     39  C   UNL A   1      45.055  27.676  33.318  1.00  0.00     0.037 A 
BRANCH  26  40
ATOM     40  C   UNL A   1      43.304  24.789  28.104  1.00  0.00     0.058 A 
ATOM     41  C   UNL A   1      42.915  23.446  28.253  1.00  0.00     0.135 A 
ATOM     42  C   UNL A   1      44.004  25.142  26.940  1.00  0.00     0.135 A 
ATOM     43  F   UNL A   1      42.282  23.044  29.368  1.00  0.00    -0.206 F 
ATOM     44  C   UNL A   1      43.230  22.487  27.296  1.00  0.00     0.059 A 
ATOM     45  C   UNL A   1      44.308  24.205  25.958  1.00  0.00     0.059 A 
ATOM     46  F   UNL A   1      44.419  26.405  26.761  1.00  0.00    -0.206 F 
ATOM     47  C   UNL A   1      43.929  22.878  26.151  1.00  0.00     0.060 A 
BRANCH  47  48
ATOM     48  S   UNL A   1      44.339  21.620  24.923  1.00  0.00     0.124 S 
ATOM     49  O   UNL A   1      43.356  20.586  25.224  1.00  0.00    -0.237 OA
ATOM     50  O   UNL A   1      44.146  22.335  23.669  1.00  0.00    -0.237 OA
ATOM     51  O   UNL A   1      45.726  21.277  25.240  1.00  0.00    -0.744 OA
ENDBRANCH  47  48
ENDBRANCH  26  40
BRANCH  27  52
ATOM     52  C   UNL A   1      41.088  32.034  34.755  1.00  0.00     0.058 A 
ATOM     53  C   UNL A   1      40.187  31.775  35.795  1.00  0.00     0.135 A 
ATOM     54  C   UNL A   1      41.636  33.325  34.672  1.00  0.00     0.135 A 
ATOM     55  F   UNL A   1      39.622  30.565  35.905  1.00  0.00    -0.206 F 
ATOM     56  C   UNL A   1      39.841  32.760  36.719  1.00  0.00     0.059 A 
ATOM     57  C   UNL A   1      41.325  34.317  35.596  1.00  0.00     0.059 A 
ATOM     58  F   UNL A   1      42.473  33.630  33.668  1.00  0.00    -0.206 F 
ATOM     59  C   UNL A   1      40.418  34.028  36.613  1.00  0.00     0.060 A 
BRANCH  59  60
ATOM     60  S   UNL A   1      39.984  35.292  37.829  1.00  0.00     0.124 S 
ATOM     61  O   UNL A   1      38.860  34.667  38.515  1.00  0.00    -0.237 OA
ATOM     62  O   UNL A   1      41.216  35.412  38.604  1.00  0.00    -0.237 OA
ATOM     63  O   UNL A   1      39.656  36.453  37.006  1.00  0.00    -0.744 OA
ENDBRANCH  59  60
ENDBRANCH  27  52
BRANCH  39  64
ATOM     64  C   UNL A   1      46.302  27.460  34.115  1.00  0.00     0.058 A 
ATOM     65  C   UNL A   1      47.476  28.184  33.860  1.00  0.00     0.135 A 
ATOM     66  C   UNL A   1      46.300  26.543  35.178  1.00  0.00     0.135 A 
ATOM     67  F   UNL A   1      47.526  29.057  32.842  1.00  0.00    -0.206 F 
ATOM     68  C   UNL A   1      48.617  27.991  34.626  1.00  0.00     0.059 A 
ATOM     69  C   UNL A   1      47.419  26.360  35.977  1.00  0.00     0.059 A 
ATOM     70  F   UNL A   1      45.195  25.833  35.459  1.00  0.00    -0.206 F 
ATOM     71  C   UNL A   1      48.576  27.081  35.685  1.00  0.00     0.060 A 
BRANCH  71  72
ATOM     72  S   UNL A   1      50.050  26.877  36.702  1.00  0.00     0.124 S 
ATOM     73  O   UNL A   1      49.712  25.682  37.468  1.00  0.00    -0.237 OA
ATOM     74  O   UNL A   1      51.098  26.714  35.700  1.00  0.00    -0.237 OA
ATOM     75  O   UNL A   1      50.109  28.119  37.466  1.00  0.00    -0.744 OA
ENDBRANCH  71  72
ENDBRANCH  39  64
ENDBRANCH  13  14
ENDBRANCH   6   8
ENDBRANCH   5   6
ENDBRANCH   4   5
ENDBRANCH   3   4
ENDBRANCH   2   3
ENDBRANCH   1   2
BRANCH   1  76
ATOM     76  C   UNL A   1      32.696  27.138  22.418  1.00  0.00     0.188 C 
BRANCH  76  77
ATOM     77  O   UNL A   1      32.233  25.807  22.599  1.00  0.00    -0.376 OA
BRANCH  77  78
ATOM     78  C   UNL A   1      32.983  24.779  21.963  1.00  0.00     0.202 C 
BRANCH  78  79
ATOM     79  C   UNL A   1      33.625  23.671  22.823  1.00  0.00     0.261 C 
BRANCH  79  80
ATOM     80  O   UNL A   1      35.000  23.861  23.211  1.00  0.00    -0.463 OA
BRANCH  80  81
ATOM     81  C   UNL A   1      35.195  24.105  24.541  1.00  0.00     0.313 C 
ATOM     82  O   UNL A   1      34.780  25.110  25.109  1.00  0.00    -0.252 OA
BRANCH  81  83
ATOM     83  C   UNL A   1      35.928  22.987  25.276  1.00  0.00     0.080 C 
ATOM     84  C   UNL A   1      36.333  21.804  24.357  1.00  0.00     0.055 C 
ATOM     85  C   UNL A   1      37.299  23.569  25.733  1.00  0.00     0.055 C 
ATOM     86  C   UNL A   1      37.581  21.314  25.038  1.00  0.00    -0.044 A 
ATOM     87  C   UNL A   1      38.173  22.357  25.750  1.00  0.00    -0.044 A 
ATOM     88  C   UNL A   1      38.163  20.058  25.022  1.00  0.00     0.004 A 
ATOM     89  C   UNL A   1      39.413  22.213  26.346  1.00  0.00     0.004 A 
ATOM     90  C   UNL A   1      39.398  19.888  25.652  1.00  0.00     0.000 A 
ATOM     91  C   UNL A   1      40.032  20.965  26.284  1.00  0.00     0.000 A 
BRANCH  83  92
ATOM     92  C   UNL A   1      35.095  22.368  26.434  1.00  0.00     0.055 C 
BRANCH  92  93
ATOM     93  C   UNL A   1      33.609  22.156  26.291  1.00  0.00    -0.044 A 
ATOM     94  C   UNL A   1      32.665  22.969  26.917  1.00  0.00     0.024 A 
ATOM     95  C   UNL A   1      33.142  21.184  25.401  1.00  0.00     0.024 A 
ATOM     96  C   UNL A   1      31.323  22.798  26.615  1.00  0.00     0.111 A 
ATOM     97  C   UNL A   1      31.778  21.083  25.169  1.00  0.00     0.111 A 
ATOM     98  N   UNL A   1      30.855  21.877  25.749  1.00  0.00    -0.265 NA
ENDBRANCH  92  93
ENDBRANCH  83  92
ENDBRANCH  81  83
ENDBRANCH  80  81
ENDBRANCH  79  80
ENDBRANCH  78  79
ENDBRANCH  77  78
ENDBRANCH  76  77
ENDBRANCH   1  76
TORSDOF 22
ENDMDL
MODEL 3
REMARK VINA RESULT:      -9.9      0.650      8.117
REMARK SMILES O=C(OCCOCCOCCOC(=O)C1(Cc2ccncc2)Cc2ccccc2C1)c1ccc(-c2c3nc(c(-c4c(F)cc(S(=O)(=O)[O-])cc4F)c4ccc([nH]4)c(-c4c(F)cc(S(=O)(=O)[O-])cc4F)c4nc(c(-c5c(F)cc(S(=O)(=O)[O-])cc5F)c5ccc2[nH]5)C=C4)C=C3)cc1
REMARK SMILES IDX 7 1 6 2 5 3 4 4 3 5 2 6 1 7 31 8 32 9 96 10 33 11 95 12
REMARK SMILES IDX 34 13 35 14 36 15 89 16 37 17 94 18 88 19 90 20 38 21 93 22
REMARK SMILES IDX 87 23 86 24 39 26 73 27 52 28 72 29 53 30 56 31 71 32 91 33
REMARK SMILES IDX 54 34 55 35 70 37 92 38 57 39 40 40 41 41 50 42 42 43 43 44
REMARK SMILES IDX 49 45 51 46 44 47 45 48 46 49 47 50 48 51 74 52 75 53 84 54
REMARK SMILES IDX 76 55 77 56 83 57 85 58 78 59 79 60 80 61 81 62 82 63 58 64
REMARK SMILES IDX 59 65 68 66 60 67 61 68 67 69 69 70 62 71 63 72 64 73 65 74
REMARK SMILES IDX 66 75 8 76 9 77 10 78 11 79 12 80 13 81 14 82 15 83 23 84
REMARK SMILES IDX 30 85 24 86 29 87 25 88 28 89 26 90 27 91 16 92 17 93 18 94
REMARK SMILES IDX 22 95 19 96 21 97 20 98
REMARK H PARENT 90 25 56 36
REMARK Flexibility Score: inf
ROOT
ATOM      1  C   UNL A   1      35.056  22.585  23.243  1.00  0.00     0.188 C 
ENDROOT
BRANCH   1   2
ATOM      2  O   UNL A   1      34.814  21.802  24.414  1.00  0.00    -0.376 OA
BRANCH   2   3
ATOM      3  C   UNL A   1      36.006  21.217  24.946  1.00  0.00     0.202 C 
BRANCH   3   4
ATOM      4  C   UNL A   1      37.297  22.048  24.790  1.00  0.00     0.261 C 
BRANCH   4   5
ATOM      5  O   UNL A   1      37.814  22.617  26.008  1.00  0.00    -0.460 OA
BRANCH   5   6
ATOM      6  C   UNL A   1      39.094  22.855  26.393  1.00  0.00     0.338 C 
ATOM      7  O   UNL A   1      39.871  21.900  26.427  1.00  0.00    -0.246 OA
BRANCH   6   8
ATOM      8  C   UNL A   1      39.609  24.188  26.850  1.00  0.00     0.060 A 
ATOM      9  C   UNL A   1      40.271  25.110  26.043  1.00  0.00     0.016 A 
ATOM     10  C   UNL A   1      39.379  24.550  28.192  1.00  0.00     0.016 A 
ATOM     11  C   UNL A   1      40.743  26.316  26.536  1.00  0.00     0.010 A 
ATOM     12  C   UNL A   1      39.843  25.770  28.703  1.00  0.00     0.010 A 
ATOM     13  C   UNL A   1      40.561  26.638  27.874  1.00  0.00    -0.014 A 
BRANCH  13  14
ATOM     14  C   UNL A   1      41.335  27.778  28.398  1.00  0.00     0.031 A 
ATOM     15  C   UNL A   1      40.567  28.955  28.902  1.00  0.00     0.074 A 
ATOM     16  C   UNL A   1      42.661  27.678  28.598  1.00  0.00     0.049 A 
ATOM     17  N   UNL A   1      41.013  30.058  29.432  1.00  0.00    -0.248 NA
ATOM     18  C   UNL A   1      39.096  28.848  28.872  1.00  0.00     0.031 C 
ATOM     19  C   UNL A   1      43.444  26.471  28.369  1.00  0.00     0.029 A 
ATOM     20  N   UNL A   1      43.589  28.587  29.024  1.00  0.00    -0.354 N 
ATOM     21  C   UNL A   1      39.885  30.755  29.835  1.00  0.00     0.074 A 
ATOM     22  C   UNL A   1      38.730  29.982  29.445  1.00  0.00     0.031 C 
ATOM     23  C   UNL A   1      44.750  26.737  28.533  1.00  0.00     0.029 A 
ATOM     24  C   UNL A   1      44.885  28.136  28.898  1.00  0.00     0.049 A 
ATOM     25  H   UNL A   1      43.355  29.472  29.384  1.00  0.00     0.167 HD
ATOM     26  C   UNL A   1      39.837  31.929  30.500  1.00  0.00     0.037 A 
ATOM     27  C   UNL A   1      46.044  28.804  29.026  1.00  0.00     0.037 A 
ATOM     28  C   UNL A   1      41.014  32.683  30.831  1.00  0.00     0.049 A 
ATOM     29  C   UNL A   1      45.966  30.214  29.517  1.00  0.00     0.074 A 
ATOM     30  C   UNL A   1      41.107  33.922  31.434  1.00  0.00     0.029 A 
ATOM     31  N   UNL A   1      42.314  32.267  30.560  1.00  0.00    -0.354 N 
ATOM     32  N   UNL A   1      44.895  30.903  29.838  1.00  0.00    -0.248 NA
ATOM     33  C   UNL A   1      47.232  30.925  29.705  1.00  0.00     0.031 C 
ATOM     34  C   UNL A   1      42.459  34.281  31.470  1.00  0.00     0.029 A 
ATOM     35  C   UNL A   1      43.214  33.240  30.948  1.00  0.00     0.049 A 
ATOM     36  H   UNL A   1      42.556  31.405  30.151  1.00  0.00     0.167 HD
ATOM     37  C   UNL A   1      45.357  32.114  30.321  1.00  0.00     0.074 A 
ATOM     38  C   UNL A   1      46.806  32.069  30.225  1.00  0.00     0.031 C 
ATOM     39  C   UNL A   1      44.650  33.156  30.824  1.00  0.00     0.037 A 
BRANCH  26  40
ATOM     40  C   UNL A   1      38.477  32.470  30.827  1.00  0.00     0.058 A 
ATOM     41  C   UNL A   1      37.851  33.446  30.031  1.00  0.00     0.135 A 
ATOM     42  C   UNL A   1      37.808  32.042  31.984  1.00  0.00     0.135 A 
ATOM     43  F   UNL A   1      38.466  33.924  28.937  1.00  0.00    -0.206 F 
ATOM     44  C   UNL A   1      36.621  33.992  30.383  1.00  0.00     0.059 A 
ATOM     45  C   UNL A   1      36.566  32.556  32.342  1.00  0.00     0.059 A 
ATOM     46  F   UNL A   1      38.373  31.131  32.790  1.00  0.00    -0.206 F 
ATOM     47  C   UNL A   1      35.987  33.540  31.544  1.00  0.00     0.060 A 
BRANCH  47  48
ATOM     48  S   UNL A   1      34.397  34.266  31.993  1.00  0.00     0.124 S 
ATOM     49  O   UNL A   1      34.813  35.507  32.636  1.00  0.00    -0.237 OA
ATOM     50  O   UNL A   1      33.743  34.408  30.699  1.00  0.00    -0.237 OA
ATOM     51  O   UNL A   1      33.808  33.266  32.884  1.00  0.00    -0.744 OA
ENDBRANCH  47  48
ENDBRANCH  26  40
BRANCH  27  52
ATOM     52  C   UNL A   1      47.331  28.173  28.637  1.00  0.00     0.058 A 
ATOM     53  C   UNL A   1      48.139  27.491  29.553  1.00  0.00     0.135 A 
ATOM     54  C   UNL A   1      47.774  28.252  27.306  1.00  0.00     0.135 A 
ATOM     55  F   UNL A   1      47.769  27.405  30.839  1.00  0.00    -0.206 F 
ATOM     56  C   UNL A   1      49.344  26.908  29.165  1.00  0.00     0.059 A 
ATOM     57  C   UNL A   1      48.960  27.658  26.889  1.00  0.00     0.059 A 
ATOM     58  F   UNL A   1      47.050  28.931  26.402  1.00  0.00    -0.206 F 
ATOM     59  C   UNL A   1      49.746  26.995  27.830  1.00  0.00     0.060 A 
BRANCH  59  60
ATOM     60  S   UNL A   1      51.298  26.216  27.328  1.00  0.00     0.124 S 
ATOM     61  O   UNL A   1      50.883  24.831  27.140  1.00  0.00    -0.237 OA
ATOM     62  O   UNL A   1      51.635  26.951  26.113  1.00  0.00    -0.237 OA
ATOM     63  O   UNL A   1      52.181  26.462  28.465  1.00  0.00    -0.744 OA
ENDBRANCH  59  60
ENDBRANCH  27  52
BRANCH  39  64
ATOM     64  C   UNL A   1      45.449  34.306  31.352  1.00  0.00     0.058 A 
ATOM     65  C   UNL A   1      45.905  34.340  32.678  1.00  0.00     0.135 A 
ATOM     66  C   UNL A   1      45.796  35.365  30.499  1.00  0.00     0.135 A 
ATOM     67  F   UNL A   1      45.581  33.356  33.532  1.00  0.00    -0.206 F 
ATOM     68  C   UNL A   1      46.667  35.401  33.146  1.00  0.00     0.059 A 
ATOM     69  C   UNL A   1      46.584  36.418  30.937  1.00  0.00     0.059 A 
ATOM     70  F   UNL A   1      45.382  35.369  29.221  1.00  0.00    -0.206 F 
ATOM     71  C   UNL A   1      47.006  36.432  32.265  1.00  0.00     0.060 A 
BRANCH  71  72
ATOM     72  S   UNL A   1      48.038  37.778  32.874  1.00  0.00     0.124 S 
ATOM     73  O   UNL A   1      49.000  37.923  31.787  1.00  0.00    -0.237 OA
ATOM     74  O   UNL A   1      47.075  38.866  33.019  1.00  0.00    -0.237 OA
ATOM     75  O   UNL A   1      48.576  37.254  34.125  1.00  0.00    -0.744 OA
ENDBRANCH  71  72
ENDBRANCH  39  64
ENDBRANCH  13  14
ENDBRANCH   6   8
ENDBRANCH   5   6
ENDBRANCH   4   5
ENDBRANCH   3   4
ENDBRANCH   2   3
ENDBRANCH   1   2
BRANCH   1  76
ATOM     76  C   UNL A   1      34.006  23.653  22.990  1.00  0.00     0.188 C 
BRANCH  76  77
ATOM     77  O   UNL A   1      34.147  24.907  23.642  1.00  0.00    -0.376 OA
BRANCH  77  78
ATOM     78  C   UNL A   1      34.341  24.875  25.051  1.00  0.00     0.202 C 
BRANCH  78  79
ATOM     79  C   UNL A   1      33.158  25.205  25.984  1.00  0.00     0.261 C 
BRANCH  79  80
ATOM     80  O   UNL A   1      32.210  26.184  25.514  1.00  0.00    -0.463 OA
BRANCH  80  81
ATOM     81  C   UNL A   1      31.886  27.154  26.419  1.00  0.00     0.313 C 
ATOM     82  O   UNL A   1      31.089  26.980  27.336  1.00  0.00    -0.252 OA
BRANCH  81  83
ATOM     83  C   UNL A   1      32.647  28.462  26.227  1.00  0.00     0.080 C 
ATOM     84  C   UNL A   1      32.090  29.632  27.080  1.00  0.00     0.055 C 
ATOM     85  C   UNL A   1      34.075  28.244  26.811  1.00  0.00     0.055 C 
ATOM     86  C   UNL A   1      33.334  30.445  27.317  1.00  0.00    -0.044 A 
ATOM     87  C   UNL A   1      34.458  29.621  27.248  1.00  0.00    -0.044 A 
ATOM     88  C   UNL A   1      33.470  31.795  27.589  1.00  0.00     0.004 A 
ATOM     89  C   UNL A   1      35.717  30.089  27.576  1.00  0.00     0.004 A 
ATOM     90  C   UNL A   1      34.742  32.289  27.885  1.00  0.00     0.000 A 
ATOM     91  C   UNL A   1      35.853  31.436  27.907  1.00  0.00     0.000 A 
BRANCH  83  92
ATOM     92  C   UNL A   1      32.643  28.961  24.755  1.00  0.00     0.055 C 
BRANCH  92  93
ATOM     93  C   UNL A   1      31.365  29.011  23.957  1.00  0.00    -0.044 A 
ATOM     94  C   UNL A   1      30.406  30.009  24.127  1.00  0.00     0.024 A 
ATOM     95  C   UNL A   1      31.174  28.097  22.917  1.00  0.00     0.024 A 
ATOM     96  C   UNL A   1      29.332  30.067  23.253  1.00  0.00     0.111 A 
ATOM     97  C   UNL A   1      30.063  28.231  22.098  1.00  0.00     0.111 A 
ATOM     98  N   UNL A   1      29.139  29.205  22.235  1.00  0.00    -0.265 NA
ENDBRANCH  92  93
ENDBRANCH  83  92
ENDBRANCH  81  83
ENDBRANCH  80  81
ENDBRANCH  79  80
ENDBRANCH  78  79
ENDBRANCH  77  78
ENDBRANCH  76  77
ENDBRANCH   1  76
TORSDOF 22
ENDMDL
