MODEL 1
REMARK VINA RESULT:      -9.0      0.000      0.000
REMARK SMILES CC[N@@H+]1CC[C@H](C[NH2+]Cc2cc(C(=O)OCCOCCOCCOC(=O)c3ccc(-c4c5nc(c(-c6c(F)cc(S(=O)(=O)[O-])cc6F)c6ccc([nH]6)c(-c6c(F)cc(S(=O)(=O)[O-])cc6F)c6nc(c(-c7c(F)cc(S(=O)(=O)[O-])cc7F)c7ccc4[nH]7)C=C6)C=C5)cc3)cs2)C1
REMARK SMILES IDX 19 1 18 2 17 3 16 4 15 5 13 6 14 7 12 8 10 9 11 10 94 11
REMARK SMILES IDX 93 12 9 13 8 14 7 17 6 18 3 19 4 20 95 21 5 23 2 24 1 25
REMARK SMILES IDX 20 26 21 27 22 28 23 29 24 30 25 31 26 32 27 33 28 34 92 35
REMARK SMILES IDX 29 36 91 37 30 38 31 39 32 40 85 41 33 42 90 43 84 44 86 45
REMARK SMILES IDX 34 46 89 47 83 48 82 49 35 51 69 52 48 53 68 54 49 55 52 56
REMARK SMILES IDX 67 57 87 58 50 59 51 60 66 62 88 63 53 64 36 65 37 66 46 67
REMARK SMILES IDX 38 68 39 69 45 70 47 71 40 72 41 73 42 74 43 75 44 76 70 77
REMARK SMILES IDX 71 78 80 79 72 80 73 81 79 82 81 83 74 84 75 85 76 86 77 87
REMARK SMILES IDX 78 88 54 89 55 90 64 91 56 92 57 93 63 94 65 95 58 96 59 97
REMARK SMILES IDX 60 98 61 99 62 100
REMARK H PARENT 8 15 8 16 3 22 86 50 52 61
REMARK Flexibility Score: inf
ROOT
ATOM      1  C   UNL A   1      38.737  21.195  25.728  1.00  0.00     0.188 C 
ENDROOT
BRANCH   1   2
ATOM      2  O   UNL A   1      37.357  21.521  25.576  1.00  0.00    -0.376 OA
BRANCH   2   3
ATOM      3  C   UNL A   1      36.945  22.405  24.540  1.00  0.00     0.202 C 
BRANCH   3   4
ATOM      4  C   UNL A   1      35.561  23.050  24.658  1.00  0.00     0.261 C 
BRANCH   4   5
ATOM      5  O   UNL A   1      34.609  22.530  23.716  1.00  0.00    -0.460 OA
BRANCH   5   6
ATOM      6  C   UNL A   1      33.316  22.892  23.951  1.00  0.00     0.339 C 
ATOM      7  O   UNL A   1      32.575  22.354  24.768  1.00  0.00    -0.246 OA
BRANCH   6   8
ATOM      8  C   UNL A   1      32.927  24.096  23.226  1.00  0.00     0.071 A 
ATOM      9  C   UNL A   1      32.013  26.212  22.726  1.00  0.00     0.059 A 
ATOM     10  C   UNL A   1      32.204  25.244  23.703  1.00  0.00     0.037 A 
ATOM     11  S   UNL A   1      32.614  25.661  21.216  1.00  0.00    -0.142 S 
ATOM     12  C   UNL A   1      33.229  24.232  21.887  1.00  0.00     0.081 A 
BRANCH   9  13
ATOM     13  C   UNL A   1      31.348  27.565  22.876  1.00  0.00     0.308 C 
BRANCH  13  14
ATOM     14  N   UNL A   1      32.197  28.705  22.493  1.00  0.00    -0.341 N 
ATOM     15  H   UNL A   1      32.662  28.490  21.612  1.00  0.00     0.346 HD
ATOM     16  H   UNL A   1      31.600  29.528  22.401  1.00  0.00     0.346 HD
BRANCH  14  17
ATOM     17  C   UNL A   1      33.215  28.994  23.511  1.00  0.00     0.270 C 
BRANCH  17  18
ATOM     18  C   UNL A   1      32.744  28.716  24.945  1.00  0.00     0.105 C 
ATOM     19  N   UNL A   1      33.162  29.815  27.082  1.00  0.00    -0.335 N 
ATOM     20  C   UNL A   1      33.364  28.363  27.214  1.00  0.00     0.262 C 
ATOM     21  C   UNL A   1      32.577  30.020  25.743  1.00  0.00     0.271 C 
ATOM     22  H   UNL A   1      32.543  30.175  27.809  1.00  0.00     0.348 HD
ATOM     23  C   UNL A   1      33.687  27.887  25.809  1.00  0.00     0.076 C 
BRANCH  19  24
ATOM     24  C   UNL A   1      34.428  30.553  27.251  1.00  0.00     0.258 C 
ATOM     25  C   UNL A   1      35.403  29.752  28.107  1.00  0.00     0.071 C 
ENDBRANCH  19  24
ENDBRANCH  17  18
ENDBRANCH  14  17
ENDBRANCH  13  14
ENDBRANCH   9  13
ENDBRANCH   6   8
ENDBRANCH   5   6
ENDBRANCH   4   5
ENDBRANCH   3   4
ENDBRANCH   2   3
ENDBRANCH   1   2
BRANCH   1  26
ATOM     26  C   UNL A   1      39.656  22.136  26.532  1.00  0.00     0.188 C 
BRANCH  26  27
ATOM     27  O   UNL A   1      40.513  21.453  27.429  1.00  0.00    -0.376 OA
BRANCH  27  28
ATOM     28  C   UNL A   1      41.621  22.165  27.952  1.00  0.00     0.202 C 
BRANCH  28  29
ATOM     29  C   UNL A   1      42.685  22.674  26.969  1.00  0.00     0.261 C 
BRANCH  29  30
ATOM     30  O   UNL A   1      43.180  24.001  27.191  1.00  0.00    -0.460 OA
BRANCH  30  31
ATOM     31  C   UNL A   1      42.547  25.009  26.552  1.00  0.00     0.338 C 
ATOM     32  O   UNL A   1      42.257  25.057  25.371  1.00  0.00    -0.246 OA
BRANCH  31  33
ATOM     33  C   UNL A   1      42.128  25.997  27.571  1.00  0.00     0.060 A 
ATOM     34  C   UNL A   1      42.916  27.134  27.778  1.00  0.00     0.016 A 
ATOM     35  C   UNL A   1      40.969  25.791  28.328  1.00  0.00     0.016 A 
ATOM     36  C   UNL A   1      42.564  28.052  28.772  1.00  0.00     0.010 A 
ATOM     37  C   UNL A   1      40.627  26.704  29.330  1.00  0.00     0.010 A 
ATOM     38  C   UNL A   1      41.439  27.823  29.577  1.00  0.00    -0.014 A 
BRANCH  38  39
ATOM     39  C   UNL A   1      41.207  28.656  30.784  1.00  0.00     0.031 A 
ATOM     40  C   UNL A   1      40.108  29.684  30.746  1.00  0.00     0.074 A 
ATOM     41  C   UNL A   1      41.950  28.503  31.894  1.00  0.00     0.049 A 
ATOM     42  N   UNL A   1      39.736  30.537  31.664  1.00  0.00    -0.248 NA
ATOM     43  C   UNL A   1      39.325  29.759  29.501  1.00  0.00     0.031 C 
ATOM     44  C   UNL A   1      43.030  27.533  32.063  1.00  0.00     0.029 A 
ATOM     45  N   UNL A   1      41.912  29.176  33.090  1.00  0.00    -0.354 N 
ATOM     46  C   UNL A   1      38.676  31.247  31.113  1.00  0.00     0.074 A 
ATOM     47  C   UNL A   1      38.482  30.745  29.770  1.00  0.00     0.031 C 
ATOM     48  C   UNL A   1      43.561  27.681  33.291  1.00  0.00     0.029 A 
ATOM     49  C   UNL A   1      42.873  28.770  33.984  1.00  0.00     0.049 A 
ATOM     50  H   UNL A   1      41.255  29.883  33.289  1.00  0.00     0.167 HD
ATOM     51  C   UNL A   1      37.926  32.224  31.677  1.00  0.00     0.037 A 
ATOM     52  C   UNL A   1      43.172  29.236  35.213  1.00  0.00     0.037 A 
ATOM     53  C   UNL A   1      38.127  32.735  33.006  1.00  0.00     0.049 A 
ATOM     54  C   UNL A   1      42.358  30.361  35.801  1.00  0.00     0.074 A 
ATOM     55  C   UNL A   1      37.415  33.720  33.668  1.00  0.00     0.029 A 
ATOM     56  N   UNL A   1      39.118  32.305  33.875  1.00  0.00    -0.354 N 
ATOM     57  N   UNL A   1      41.340  31.003  35.279  1.00  0.00    -0.248 NA
ATOM     58  C   UNL A   1      42.733  30.822  37.146  1.00  0.00     0.031 C 
ATOM     59  C   UNL A   1      37.998  33.909  34.926  1.00  0.00     0.029 A 
ATOM     60  C   UNL A   1      39.048  33.016  35.061  1.00  0.00     0.049 A 
ATOM     61  H   UNL A   1      39.775  31.599  33.678  1.00  0.00     0.167 HD
ATOM     62  C   UNL A   1      40.936  31.923  36.241  1.00  0.00     0.074 A 
ATOM     63  C   UNL A   1      41.816  31.752  37.379  1.00  0.00     0.031 C 
ATOM     64  C   UNL A   1      39.924  32.825  36.189  1.00  0.00     0.037 A 
BRANCH  51  65
ATOM     65  C   UNL A   1      36.831  32.817  30.837  1.00  0.00     0.058 A 
ATOM     66  C   UNL A   1      37.102  33.780  29.853  1.00  0.00     0.135 A 
ATOM     67  C   UNL A   1      35.499  32.410  31.011  1.00  0.00     0.135 A 
ATOM     68  F   UNL A   1      38.357  34.217  29.662  1.00  0.00    -0.206 F 
ATOM     69  C   UNL A   1      36.085  34.342  29.089  1.00  0.00     0.059 A 
ATOM     70  C   UNL A   1      34.469  32.944  30.243  1.00  0.00     0.059 A 
ATOM     71  F   UNL A   1      35.188  31.495  31.942  1.00  0.00    -0.206 F 
ATOM     72  C   UNL A   1      34.771  33.921  29.295  1.00  0.00     0.060 A 
BRANCH  72  73
ATOM     73  S   UNL A   1      33.457  34.665  28.305  1.00  0.00     0.124 S 
ATOM     74  O   UNL A   1      32.885  33.491  27.654  1.00  0.00    -0.237 OA
ATOM     75  O   UNL A   1      32.619  35.299  29.318  1.00  0.00    -0.237 OA
ATOM     76  O   UNL A   1      34.174  35.585  27.426  1.00  0.00    -0.744 OA
ENDBRANCH  72  73
ENDBRANCH  51  65
BRANCH  52  77
ATOM     77  C   UNL A   1      44.300  28.643  35.979  1.00  0.00     0.058 A 
ATOM     78  C   UNL A   1      44.089  27.592  36.883  1.00  0.00     0.135 A 
ATOM     79  C   UNL A   1      45.611  29.121  35.826  1.00  0.00     0.135 A 
ATOM     80  F   UNL A   1      42.852  27.109  37.073  1.00  0.00    -0.206 F 
ATOM     81  C   UNL A   1      45.135  27.043  37.619  1.00  0.00     0.059 A 
ATOM     82  C   UNL A   1      46.676  28.575  36.534  1.00  0.00     0.059 A 
ATOM     83  F   UNL A   1      45.864  30.120  34.966  1.00  0.00    -0.206 F 
ATOM     84  C   UNL A   1      46.425  27.542  37.437  1.00  0.00     0.060 A 
BRANCH  84  85
ATOM     85  S   UNL A   1      47.785  26.794  38.360  1.00  0.00     0.124 S 
ATOM     86  O   UNL A   1      48.398  27.962  38.979  1.00  0.00    -0.237 OA
ATOM     87  O   UNL A   1      47.084  25.887  39.264  1.00  0.00    -0.237 OA
ATOM     88  O   UNL A   1      48.576  26.141  37.321  1.00  0.00    -0.744 OA
ENDBRANCH  84  85
ENDBRANCH  52  77
BRANCH  64  89
ATOM     89  C   UNL A   1      39.687  33.673  37.407  1.00  0.00     0.058 A 
ATOM     90  C   UNL A   1      38.851  33.247  38.451  1.00  0.00     0.135 A 
ATOM     91  C   UNL A   1      40.352  34.901  37.556  1.00  0.00     0.135 A 
ATOM     92  F   UNL A   1      38.191  32.082  38.355  1.00  0.00    -0.206 F 
ATOM     93  C   UNL A   1      38.667  34.020  39.594  1.00  0.00     0.059 A 
ATOM     94  C   UNL A   1      40.198  35.680  38.699  1.00  0.00     0.059 A 
ATOM     95  F   UNL A   1      41.170  35.348  36.590  1.00  0.00    -0.206 F 
ATOM     96  C   UNL A   1      39.344  35.236  39.707  1.00  0.00     0.060 A 
BRANCH  96  97
ATOM     97  S   UNL A   1      39.127  36.216  41.210  1.00  0.00     0.124 S 
ATOM     98  O   UNL A   1      39.029  37.566  40.667  1.00  0.00    -0.237 OA
ATOM     99  O   UNL A   1      37.897  35.666  41.771  1.00  0.00    -0.237 OA
ATOM    100  O   UNL A   1      40.337  35.932  41.976  1.00  0.00    -0.744 OA
ENDBRANCH  96  97
ENDBRANCH  64  89
ENDBRANCH  38  39
ENDBRANCH  31  33
ENDBRANCH  30  31
ENDBRANCH  29  30
ENDBRANCH  28  29
ENDBRANCH  27  28
ENDBRANCH  26  27
ENDBRANCH   1  26
TORSDOF 25
ENDMDL
MODEL 2
REMARK VINA RESULT:      -7.9      1.475      8.297
REMARK SMILES CC[N@@H+]1CC[C@H](C[NH2+]Cc2cc(C(=O)OCCOCCOCCOC(=O)c3ccc(-c4c5nc(c(-c6c(F)cc(S(=O)(=O)[O-])cc6F)c6ccc([nH]6)c(-c6c(F)cc(S(=O)(=O)[O-])cc6F)c6nc(c(-c7c(F)cc(S(=O)(=O)[O-])cc7F)c7ccc4[nH]7)C=C6)C=C5)cc3)cs2)C1
REMARK SMILES IDX 19 1 18 2 17 3 16 4 15 5 13 6 14 7 12 8 10 9 11 10 94 11
REMARK SMILES IDX 93 12 9 13 8 14 7 17 6 18 3 19 4 20 95 21 5 23 2 24 1 25
REMARK SMILES IDX 20 26 21 27 22 28 23 29 24 30 25 31 26 32 27 33 28 34 92 35
REMARK SMILES IDX 29 36 91 37 30 38 31 39 32 40 85 41 33 42 90 43 84 44 86 45
REMARK SMILES IDX 34 46 89 47 83 48 82 49 35 51 69 52 48 53 68 54 49 55 52 56
REMARK SMILES IDX 67 57 87 58 50 59 51 60 66 62 88 63 53 64 36 65 37 66 46 67
REMARK SMILES IDX 38 68 39 69 45 70 47 71 40 72 41 73 42 74 43 75 44 76 70 77
REMARK SMILES IDX 71 78 80 79 72 80 73 81 79 82 81 83 74 84 75 85 76 86 77 87
REMARK SMILES IDX 78 88 54 89 55 90 64 91 56 92 57 93 63 94 65 95 58 96 59 97
REMARK SMILES IDX 60 98 61 99 62 100
REMARK H PARENT 8 15 8 16 3 22 86 50 52 61
REMARK Flexibility Score: inf
ROOT
ATOM      1  C   UNL A   1      38.370  20.209  24.858  1.00  0.00     0.188 C 
ENDROOT
BRANCH   1   2
ATOM      2  O   UNL A   1      36.996  19.852  24.726  1.00  0.00    -0.376 OA
BRANCH   2   3
ATOM      3  C   UNL A   1      35.982  20.793  25.053  1.00  0.00     0.202 C 
BRANCH   3   4
ATOM      4  C   UNL A   1      34.585  20.257  25.378  1.00  0.00     0.261 C 
BRANCH   4   5
ATOM      5  O   UNL A   1      33.668  20.355  24.276  1.00  0.00    -0.460 OA
BRANCH   5   6
ATOM      6  C   UNL A   1      32.351  20.402  24.629  1.00  0.00     0.339 C 
ATOM      7  O   UNL A   1      31.672  19.426  24.927  1.00  0.00    -0.246 OA
BRANCH   6   8
ATOM      8  C   UNL A   1      31.852  21.765  24.760  1.00  0.00     0.071 A 
ATOM      9  C   UNL A   1      30.709  23.664  25.570  1.00  0.00     0.059 A 
ATOM     10  C   UNL A   1      30.975  22.314  25.759  1.00  0.00     0.037 A 
ATOM     11  S   UNL A   1      31.437  24.215  24.116  1.00  0.00    -0.142 S 
ATOM     12  C   UNL A   1      32.191  22.726  23.829  1.00  0.00     0.081 A 
BRANCH   9  13
ATOM     13  C   UNL A   1      29.880  24.580  26.446  1.00  0.00     0.308 C 
BRANCH  13  14
ATOM     14  N   UNL A   1      30.281  25.996  26.397  1.00  0.00    -0.341 N 
ATOM     15  H   UNL A   1      29.955  26.401  25.520  1.00  0.00     0.346 HD
ATOM     16  H   UNL A   1      29.864  26.471  27.198  1.00  0.00     0.346 HD
BRANCH  14  17
ATOM     17  C   UNL A   1      31.738  26.154  26.482  1.00  0.00     0.270 C 
BRANCH  17  18
ATOM     18  C   UNL A   1      32.189  27.614  26.622  1.00  0.00     0.105 C 
ATOM     19  N   UNL A   1      32.730  29.358  25.004  1.00  0.00    -0.335 N 
ATOM     20  C   UNL A   1      33.785  29.274  26.027  1.00  0.00     0.262 C 
ATOM     21  C   UNL A   1      31.640  28.483  25.478  1.00  0.00     0.271 C 
ATOM     22  H   UNL A   1      32.401  30.316  24.882  1.00  0.00     0.348 HD
ATOM     23  C   UNL A   1      33.692  27.857  26.566  1.00  0.00     0.076 C 
BRANCH  19  24
ATOM     24  C   UNL A   1      33.231  28.947  23.679  1.00  0.00     0.258 C 
ATOM     25  C   UNL A   1      32.126  29.056  22.633  1.00  0.00     0.071 C 
ENDBRANCH  19  24
ENDBRANCH  17  18
ENDBRANCH  14  17
ENDBRANCH  13  14
ENDBRANCH   9  13
ENDBRANCH   6   8
ENDBRANCH   5   6
ENDBRANCH   4   5
ENDBRANCH   3   4
ENDBRANCH   2   3
ENDBRANCH   1   2
BRANCH   1  26
ATOM     26  C   UNL A   1      38.753  21.482  25.637  1.00  0.00     0.188 C 
BRANCH  26  27
ATOM     27  O   UNL A   1      40.079  21.461  26.134  1.00  0.00    -0.376 OA
BRANCH  27  28
ATOM     28  C   UNL A   1      40.641  22.687  26.568  1.00  0.00     0.202 C 
BRANCH  28  29
ATOM     29  C   UNL A   1      41.927  23.176  25.885  1.00  0.00     0.261 C 
BRANCH  29  30
ATOM     30  O   UNL A   1      42.633  24.239  26.536  1.00  0.00    -0.460 OA
BRANCH  30  31
ATOM     31  C   UNL A   1      42.411  25.493  26.085  1.00  0.00     0.338 C 
ATOM     32  O   UNL A   1      42.154  25.823  24.942  1.00  0.00    -0.246 OA
BRANCH  31  33
ATOM     33  C   UNL A   1      42.387  26.397  27.256  1.00  0.00     0.060 A 
ATOM     34  C   UNL A   1      41.841  25.936  28.458  1.00  0.00     0.016 A 
ATOM     35  C   UNL A   1      42.888  27.700  27.161  1.00  0.00     0.016 A 
ATOM     36  C   UNL A   1      41.763  26.791  29.561  1.00  0.00     0.010 A 
ATOM     37  C   UNL A   1      42.796  28.559  28.261  1.00  0.00     0.010 A 
ATOM     38  C   UNL A   1      42.205  28.118  29.457  1.00  0.00    -0.014 A 
BRANCH  38  39
ATOM     39  C   UNL A   1      41.898  29.091  30.534  1.00  0.00     0.031 A 
ATOM     40  C   UNL A   1      42.779  29.114  31.755  1.00  0.00     0.074 A 
ATOM     41  C   UNL A   1      40.862  29.944  30.434  1.00  0.00     0.049 A 
ATOM     42  N   UNL A   1      42.693  29.855  32.827  1.00  0.00    -0.248 NA
ATOM     43  C   UNL A   1      43.907  28.168  31.764  1.00  0.00     0.031 C 
ATOM     44  C   UNL A   1      39.947  30.034  29.297  1.00  0.00     0.029 A 
ATOM     45  N   UNL A   1      40.402  30.892  31.313  1.00  0.00    -0.354 N 
ATOM     46  C   UNL A   1      43.754  29.472  33.638  1.00  0.00     0.074 A 
ATOM     47  C   UNL A   1      44.454  28.411  32.946  1.00  0.00     0.031 C 
ATOM     48  C   UNL A   1      39.025  30.979  29.555  1.00  0.00     0.029 A 
ATOM     49  C   UNL A   1      39.272  31.545  30.881  1.00  0.00     0.049 A 
ATOM     50  H   UNL A   1      40.841  31.086  32.173  1.00  0.00     0.167 HD
ATOM     51  C   UNL A   1      44.120  29.962  34.847  1.00  0.00     0.037 A 
ATOM     52  C   UNL A   1      38.518  32.479  31.493  1.00  0.00     0.037 A 
ATOM     53  C   UNL A   1      43.417  31.006  35.543  1.00  0.00     0.049 A 
ATOM     54  C   UNL A   1      38.912  32.974  32.862  1.00  0.00     0.074 A 
ATOM     55  C   UNL A   1      43.713  31.575  36.769  1.00  0.00     0.029 A 
ATOM     56  N   UNL A   1      42.272  31.634  35.076  1.00  0.00    -0.354 N 
ATOM     57  N   UNL A   1      39.935  32.622  33.603  1.00  0.00    -0.248 NA
ATOM     58  C   UNL A   1      38.050  33.994  33.475  1.00  0.00     0.031 C 
ATOM     59  C   UNL A   1      42.726  32.524  37.060  1.00  0.00     0.029 A 
ATOM     60  C   UNL A   1      41.839  32.572  35.997  1.00  0.00     0.049 A 
ATOM     61  H   UNL A   1      41.831  31.440  34.218  1.00  0.00     0.167 HD
ATOM     62  C   UNL A   1      39.855  33.396  34.757  1.00  0.00     0.074 A 
ATOM     63  C   UNL A   1      38.687  34.239  34.613  1.00  0.00     0.031 C 
ATOM     64  C   UNL A   1      40.679  33.412  35.834  1.00  0.00     0.037 A 
BRANCH  51  65
ATOM     65  C   UNL A   1      45.327  29.351  35.498  1.00  0.00     0.058 A 
ATOM     66  C   UNL A   1      45.218  28.238  36.345  1.00  0.00     0.135 A 
ATOM     67  C   UNL A   1      46.607  29.877  35.264  1.00  0.00     0.135 A 
ATOM     68  F   UNL A   1      44.014  27.711  36.617  1.00  0.00    -0.206 F 
ATOM     69  C   UNL A   1      46.335  27.684  36.963  1.00  0.00     0.059 A 
ATOM     70  C   UNL A   1      47.740  29.325  35.854  1.00  0.00     0.059 A 
ATOM     71  F   UNL A   1      46.764  30.944  34.465  1.00  0.00    -0.206 F 
ATOM     72  C   UNL A   1      47.591  28.238  36.715  1.00  0.00     0.060 A 
BRANCH  72  73
ATOM     73  S   UNL A   1      49.031  27.519  37.530  1.00  0.00     0.124 S 
ATOM     74  O   UNL A   1      49.438  26.507  36.559  1.00  0.00    -0.237 OA
ATOM     75  O   UNL A   1      49.925  28.664  37.662  1.00  0.00    -0.237 OA
ATOM     76  O   UNL A   1      48.490  27.004  38.784  1.00  0.00    -0.744 OA
ENDBRANCH  72  73
ENDBRANCH  51  65
BRANCH  52  77
ATOM     77  C   UNL A   1      37.304  33.012  30.821  1.00  0.00     0.058 A 
ATOM     78  C   UNL A   1      36.025  32.554  31.167  1.00  0.00     0.135 A 
ATOM     79  C   UNL A   1      37.401  33.986  29.815  1.00  0.00     0.135 A 
ATOM     80  F   UNL A   1      35.883  31.615  32.114  1.00  0.00    -0.206 F 
ATOM     81  C   UNL A   1      34.883  33.032  30.531  1.00  0.00     0.059 A 
ATOM     82  C   UNL A   1      36.273  34.494  29.179  1.00  0.00     0.059 A 
ATOM     83  F   UNL A   1      38.602  34.462  29.454  1.00  0.00    -0.206 F 
ATOM     84  C   UNL A   1      35.018  34.003  29.537  1.00  0.00     0.060 A 
BRANCH  84  85
ATOM     85  S   UNL A   1      33.529  34.652  28.748  1.00  0.00     0.124 S 
ATOM     86  O   UNL A   1      34.012  35.915  28.202  1.00  0.00    -0.237 OA
ATOM     87  O   UNL A   1      33.218  33.613  27.772  1.00  0.00    -0.237 OA
ATOM     88  O   UNL A   1      32.584  34.763  29.856  1.00  0.00    -0.744 OA
ENDBRANCH  84  85
ENDBRANCH  52  77
BRANCH  64  89
ATOM     89  C   UNL A   1      40.369  34.393  36.929  1.00  0.00     0.058 A 
ATOM     90  C   UNL A   1      39.574  34.043  38.031  1.00  0.00     0.135 A 
ATOM     91  C   UNL A   1      40.925  35.683  36.903  1.00  0.00     0.135 A 
ATOM     92  F   UNL A   1      39.017  32.824  38.101  1.00  0.00    -0.206 F 
ATOM     93  C   UNL A   1      39.323  34.946  39.061  1.00  0.00     0.059 A 
ATOM     94  C   UNL A   1      40.705  36.593  37.932  1.00  0.00     0.059 A 
ATOM     95  F   UNL A   1      41.702  36.063  35.876  1.00  0.00    -0.206 F 
ATOM     96  C   UNL A   1      39.893  36.219  39.001  1.00  0.00     0.060 A 
BRANCH  96  97
ATOM     97  S   UNL A   1      39.593  37.371  40.360  1.00  0.00     0.124 S 
ATOM     98  O   UNL A   1      39.946  36.557  41.518  1.00  0.00    -0.237 OA
ATOM     99  O   UNL A   1      40.506  38.467  40.053  1.00  0.00    -0.237 OA
ATOM    100  O   UNL A   1      38.175  37.690  40.226  1.00  0.00    -0.744 OA
ENDBRANCH  96  97
ENDBRANCH  64  89
ENDBRANCH  38  39
ENDBRANCH  31  33
ENDBRANCH  30  31
ENDBRANCH  29  30
ENDBRANCH  28  29
ENDBRANCH  27  28
ENDBRANCH  26  27
ENDBRANCH   1  26
TORSDOF 25
ENDMDL
MODEL 3
REMARK VINA RESULT:      -7.7      6.300     12.260
REMARK SMILES CC[N@@H+]1CC[C@H](C[NH2+]Cc2cc(C(=O)OCCOCCOCCOC(=O)c3ccc(-c4c5nc(c(-c6c(F)cc(S(=O)(=O)[O-])cc6F)c6ccc([nH]6)c(-c6c(F)cc(S(=O)(=O)[O-])cc6F)c6nc(c(-c7c(F)cc(S(=O)(=O)[O-])cc7F)c7ccc4[nH]7)C=C6)C=C5)cc3)cs2)C1
REMARK SMILES IDX 19 1 18 2 17 3 16 4 15 5 13 6 14 7 12 8 10 9 11 10 94 11
REMARK SMILES IDX 93 12 9 13 8 14 7 17 6 18 3 19 4 20 95 21 5 23 2 24 1 25
REMARK SMILES IDX 20 26 21 27 22 28 23 29 24 30 25 31 26 32 27 33 28 34 92 35
REMARK SMILES IDX 29 36 91 37 30 38 31 39 32 40 85 41 33 42 90 43 84 44 86 45
REMARK SMILES IDX 34 46 89 47 83 48 82 49 35 51 69 52 48 53 68 54 49 55 52 56
REMARK SMILES IDX 67 57 87 58 50 59 51 60 66 62 88 63 53 64 36 65 37 66 46 67
REMARK SMILES IDX 38 68 39 69 45 70 47 71 40 72 41 73 42 74 43 75 44 76 70 77
REMARK SMILES IDX 71 78 80 79 72 80 73 81 79 82 81 83 74 84 75 85 76 86 77 87
REMARK SMILES IDX 78 88 54 89 55 90 64 91 56 92 57 93 63 94 65 95 58 96 59 97
REMARK SMILES IDX 60 98 61 99 62 100
REMARK H PARENT 8 15 8 16 3 22 86 50 52 61
REMARK Flexibility Score: inf
ROOT
ATOM      1  C   UNL A   1      37.162  33.599  29.427  1.00  0.00     0.188 C 
ENDROOT
BRANCH   1   2
ATOM      2  O   UNL A   1      35.888  33.700  28.797  1.00  0.00    -0.376 OA
BRANCH   2   3
ATOM      3  C   UNL A   1      35.451  32.681  27.907  1.00  0.00     0.202 C 
BRANCH   3   4
ATOM      4  C   UNL A   1      34.557  31.573  28.472  1.00  0.00     0.261 C 
BRANCH   4   5
ATOM      5  O   UNL A   1      34.274  30.532  27.522  1.00  0.00    -0.460 OA
BRANCH   5   6
ATOM      6  C   UNL A   1      32.995  30.524  27.048  1.00  0.00     0.339 C 
ATOM      7  O   UNL A   1      32.226  31.477  27.091  1.00  0.00    -0.246 OA
BRANCH   6   8
ATOM      8  C   UNL A   1      32.666  29.292  26.340  1.00  0.00     0.071 A 
ATOM      9  C   UNL A   1      31.741  27.184  25.826  1.00  0.00     0.059 A 
ATOM     10  C   UNL A   1      31.831  28.201  26.766  1.00  0.00     0.037 A 
ATOM     11  S   UNL A   1      32.764  27.518  24.488  1.00  0.00    -0.142 S 
ATOM     12  C   UNL A   1      33.202  29.037  25.095  1.00  0.00     0.081 A 
BRANCH   9  13
ATOM     13  C   UNL A   1      30.916  25.915  25.905  1.00  0.00     0.308 C 
BRANCH  13  14
ATOM     14  N   UNL A   1      31.648  24.691  25.539  1.00  0.00    -0.341 N 
ATOM     15  H   UNL A   1      31.137  23.882  25.892  1.00  0.00     0.346 HD
ATOM     16  H   UNL A   1      31.725  24.660  24.522  1.00  0.00     0.346 HD
BRANCH  14  17
ATOM     17  C   UNL A   1      33.005  24.678  26.098  1.00  0.00     0.270 C 
BRANCH  17  18
ATOM     18  C   UNL A   1      33.356  23.373  26.827  1.00  0.00     0.105 C 
ATOM     19  N   UNL A   1      35.037  21.648  26.448  1.00  0.00    -0.335 N 
ATOM     20  C   UNL A   1      33.717  21.030  26.658  1.00  0.00     0.262 C 
ATOM     21  C   UNL A   1      34.863  23.080  26.758  1.00  0.00     0.271 C 
ATOM     22  H   UNL A   1      35.747  21.228  27.048  1.00  0.00     0.348 HD
ATOM     23  C   UNL A   1      32.718  22.105  26.273  1.00  0.00     0.076 C 
BRANCH  19  24
ATOM     24  C   UNL A   1      35.518  21.435  25.070  1.00  0.00     0.258 C 
ATOM     25  C   UNL A   1      36.691  20.460  25.058  1.00  0.00     0.071 C 
ENDBRANCH  19  24
ENDBRANCH  17  18
ENDBRANCH  14  17
ENDBRANCH  13  14
ENDBRANCH   9  13
ENDBRANCH   6   8
ENDBRANCH   5   6
ENDBRANCH   4   5
ENDBRANCH   3   4
ENDBRANCH   2   3
ENDBRANCH   1   2
BRANCH   1  26
ATOM     26  C   UNL A   1      37.242  33.299  30.937  1.00  0.00     0.188 C 
BRANCH  26  27
ATOM     27  O   UNL A   1      35.973  33.172  31.554  1.00  0.00    -0.376 OA
BRANCH  27  28
ATOM     28  C   UNL A   1      35.937  33.018  32.961  1.00  0.00     0.202 C 
BRANCH  28  29
ATOM     29  C   UNL A   1      37.138  32.351  33.648  1.00  0.00     0.261 C 
BRANCH  29  30
ATOM     30  O   UNL A   1      37.659  31.171  33.025  1.00  0.00    -0.460 OA
BRANCH  30  31
ATOM     31  C   UNL A   1      38.567  30.455  33.724  1.00  0.00     0.338 C 
ATOM     32  O   UNL A   1      38.500  30.135  34.896  1.00  0.00    -0.246 OA
BRANCH  31  33
ATOM     33  C   UNL A   1      39.604  29.992  32.775  1.00  0.00     0.060 A 
ATOM     34  C   UNL A   1      40.638  29.175  33.245  1.00  0.00     0.016 A 
ATOM     35  C   UNL A   1      39.562  30.378  31.431  1.00  0.00     0.016 A 
ATOM     36  C   UNL A   1      41.654  28.769  32.375  1.00  0.00     0.010 A 
ATOM     37  C   UNL A   1      40.588  29.982  30.566  1.00  0.00     0.010 A 
ATOM     38  C   UNL A   1      41.654  29.201  31.041  1.00  0.00    -0.014 A 
BRANCH  38  39
ATOM     39  C   UNL A   1      42.849  28.982  30.188  1.00  0.00     0.031 A 
ATOM     40  C   UNL A   1      42.973  27.678  29.446  1.00  0.00     0.074 A 
ATOM     41  C   UNL A   1      43.806  29.920  30.068  1.00  0.00     0.049 A 
ATOM     42  N   UNL A   1      43.931  27.254  28.665  1.00  0.00    -0.248 NA
ATOM     43  C   UNL A   1      41.864  26.724  29.612  1.00  0.00     0.031 C 
ATOM     44  C   UNL A   1      43.795  31.229  30.720  1.00  0.00     0.029 A 
ATOM     45  N   UNL A   1      44.981  29.907  29.360  1.00  0.00    -0.354 N 
ATOM     46  C   UNL A   1      43.543  25.989  28.242  1.00  0.00     0.074 A 
ATOM     47  C   UNL A   1      42.274  25.701  28.876  1.00  0.00     0.031 C 
ATOM     48  C   UNL A   1      44.919  31.890  30.389  1.00  0.00     0.029 A 
ATOM     49  C   UNL A   1      45.738  31.043  29.521  1.00  0.00     0.049 A 
ATOM     50  H   UNL A   1      45.256  29.153  28.788  1.00  0.00     0.167 HD
ATOM     51  C   UNL A   1      44.180  25.144  27.397  1.00  0.00     0.037 A 
ATOM     52  C   UNL A   1      46.956  31.354  29.036  1.00  0.00     0.037 A 
ATOM     53  C   UNL A   1      45.448  25.422  26.777  1.00  0.00     0.049 A 
ATOM     54  C   UNL A   1      47.672  30.377  28.139  1.00  0.00     0.074 A 
ATOM     55  C   UNL A   1      46.171  24.632  25.901  1.00  0.00     0.029 A 
ATOM     56  N   UNL A   1      46.186  26.579  26.975  1.00  0.00    -0.354 N 
ATOM     57  N   UNL A   1      47.278  29.196  27.725  1.00  0.00    -0.248 NA
ATOM     58  C   UNL A   1      48.996  30.777  27.641  1.00  0.00     0.031 C 
ATOM     59  C   UNL A   1      47.363  25.297  25.595  1.00  0.00     0.029 A 
ATOM     60  C   UNL A   1      47.364  26.518  26.251  1.00  0.00     0.049 A 
ATOM     61  H   UNL A   1      45.913  27.333  27.547  1.00  0.00     0.167 HD
ATOM     62  C   UNL A   1      48.293  28.725  26.897  1.00  0.00     0.074 A 
ATOM     63  C   UNL A   1      49.316  29.749  26.865  1.00  0.00     0.031 C 
ATOM     64  C   UNL A   1      48.368  27.552  26.221  1.00  0.00     0.037 A 
BRANCH  51  65
ATOM     65  C   UNL A   1      43.516  23.828  27.114  1.00  0.00     0.058 A 
ATOM     66  C   UNL A   1      42.788  23.613  25.933  1.00  0.00     0.135 A 
ATOM     67  C   UNL A   1      43.616  22.767  28.027  1.00  0.00     0.135 A 
ATOM     68  F   UNL A   1      42.646  24.603  25.038  1.00  0.00    -0.206 F 
ATOM     69  C   UNL A   1      42.157  22.399  25.680  1.00  0.00     0.059 A 
ATOM     70  C   UNL A   1      43.010  21.538  27.784  1.00  0.00     0.059 A 
ATOM     71  F   UNL A   1      44.296  22.924  29.173  1.00  0.00    -0.206 F 
ATOM     72  C   UNL A   1      42.270  21.369  26.615  1.00  0.00     0.060 A 
BRANCH  72  73
ATOM     73  S   UNL A   1      41.439  19.803  26.281  1.00  0.00     0.124 S 
ATOM     74  O   UNL A   1      41.580  19.121  27.564  1.00  0.00    -0.237 OA
ATOM     75  O   UNL A   1      40.086  20.230  25.937  1.00  0.00    -0.237 OA
ATOM     76  O   UNL A   1      42.211  19.235  25.180  1.00  0.00    -0.744 OA
ENDBRANCH  72  73
ENDBRANCH  51  65
BRANCH  52  77
ATOM     77  C   UNL A   1      47.587  32.653  29.390  1.00  0.00     0.058 A 
ATOM     78  C   UNL A   1      47.381  33.796  28.604  1.00  0.00     0.135 A 
ATOM     79  C   UNL A   1      48.413  32.774  30.518  1.00  0.00     0.135 A 
ATOM     80  F   UNL A   1      46.610  33.727  27.509  1.00  0.00    -0.206 F 
ATOM     81  C   UNL A   1      47.983  35.012  28.916  1.00  0.00     0.059 A 
ATOM     82  C   UNL A   1      49.008  33.983  30.862  1.00  0.00     0.059 A 
ATOM     83  F   UNL A   1      48.633  31.710  31.306  1.00  0.00    -0.206 F 
ATOM     84  C   UNL A   1      48.795  35.095  30.048  1.00  0.00     0.060 A 
BRANCH  84  85
ATOM     85  S   UNL A   1      49.535  36.687  30.473  1.00  0.00     0.124 S 
ATOM     86  O   UNL A   1      49.362  37.432  29.232  1.00  0.00    -0.237 OA
ATOM     87  O   UNL A   1      48.712  37.121  31.597  1.00  0.00    -0.237 OA
ATOM     88  O   UNL A   1      50.911  36.336  30.814  1.00  0.00    -0.744 OA
ENDBRANCH  84  85
ENDBRANCH  52  77
BRANCH  64  89
ATOM     89  C   UNL A   1      49.578  27.324  25.359  1.00  0.00     0.058 A 
ATOM     90  C   UNL A   1      49.550  27.547  23.974  1.00  0.00     0.135 A 
ATOM     91  C   UNL A   1      50.797  26.932  25.937  1.00  0.00     0.135 A 
ATOM     92  F   UNL A   1      48.408  27.920  23.373  1.00  0.00    -0.206 F 
ATOM     93  C   UNL A   1      50.685  27.372  23.187  1.00  0.00     0.059 A 
ATOM     94  C   UNL A   1      51.948  26.771  25.173  1.00  0.00     0.059 A 
ATOM     95  F   UNL A   1      50.878  26.715  27.259  1.00  0.00    -0.206 F 
ATOM     96  C   UNL A   1      51.879  26.982  23.797  1.00  0.00     0.060 A 
BRANCH  96  97
ATOM     97  S   UNL A   1      53.357  26.792  22.774  1.00  0.00     0.124 S 
ATOM     98  O   UNL A   1      54.236  26.045  23.667  1.00  0.00    -0.237 OA
ATOM     99  O   UNL A   1      52.850  26.054  21.621  1.00  0.00    -0.237 OA
ATOM    100  O   UNL A   1      53.758  28.168  22.501  1.00  0.00    -0.744 OA
ENDBRANCH  96  97
ENDBRANCH  64  89
ENDBRANCH  38  39
ENDBRANCH  31  33
ENDBRANCH  30  31
ENDBRANCH  29  30
ENDBRANCH  28  29
ENDBRANCH  27  28
ENDBRANCH  26  27
ENDBRANCH   1  26
TORSDOF 25
ENDMDL
