MODEL 1
REMARK VINA RESULT:     -11.6      0.000      0.000
REMARK SMILES N#Cc1cccnc1N1CC[NH+]([C@@H](C(=O)OCCOCCOCCOC(=O)c2ccc(-c3c4nc(c(-c5c(F)cc(S(=O)(=O)[O-])cc5F)c5ccc([nH]5)c(-c5c(F)cc(S(=O)(=O)[O-])cc5F)c5nc(c(-c6c(F)cc(S(=O)(=O)[O-])cc6F)c6ccc3[nH]6)C=C5)C=C4)cc2)c2c[nH]c3cc(CO)ccc23)CC1
REMARK SMILES IDX 20 1 19 2 18 3 17 4 16 5 14 6 15 7 13 8 12 9 9 10 10 11
REMARK SMILES IDX 106 12 11 13 105 14 8 16 3 17 4 18 5 19 7 20 6 21 2 22 1 23
REMARK SMILES IDX 94 24 95 25 104 26 96 27 97 28 103 29 98 31 102 32 99 33
REMARK SMILES IDX 100 34 101 35 21 37 22 38 23 39 24 40 25 41 26 42 27 43
REMARK SMILES IDX 28 44 29 45 93 46 30 47 92 48 31 49 32 50 33 51 86 52 34 53
REMARK SMILES IDX 91 54 85 55 87 56 35 57 90 58 84 59 83 60 36 62 70 63 49 64
REMARK SMILES IDX 69 65 50 66 53 67 68 68 88 69 51 70 52 71 67 73 89 74 54 75
REMARK SMILES IDX 37 76 38 77 47 78 39 79 40 80 46 81 48 82 41 83 42 84 43 85
REMARK SMILES IDX 44 86 45 87 71 88 72 89 81 90 73 91 74 92 80 93 82 94 75 95
REMARK SMILES IDX 76 96 77 97 78 98 79 99 55 100 56 101 65 102 57 103 58 104
REMARK SMILES IDX 64 105 66 106 59 107 60 108 61 109 62 110 63 111
REMARK H PARENT 12 15 96 30 101 36 87 61 53 72
REMARK Flexibility Score: inf
ROOT
ATOM      1  C   UNL A   1      39.788  22.865  26.782  1.00  0.00     0.188 C 
ENDROOT
BRANCH   1   2
ATOM      2  O   UNL A   1      38.488  22.848  26.228  1.00  0.00    -0.376 OA
BRANCH   2   3
ATOM      3  C   UNL A   1      38.155  21.693  25.464  1.00  0.00     0.202 C 
BRANCH   3   4
ATOM      4  C   UNL A   1      36.754  21.631  24.811  1.00  0.00     0.261 C 
BRANCH   4   5
ATOM      5  O   UNL A   1      35.946  22.830  24.963  1.00  0.00    -0.459 OA
BRANCH   5   6
ATOM      6  C   UNL A   1      35.272  23.309  23.879  1.00  0.00     0.370 C 
ATOM      7  O   UNL A   1      35.777  23.368  22.759  1.00  0.00    -0.245 OA
BRANCH   6   8
ATOM      8  C   UNL A   1      33.807  23.766  24.176  1.00  0.00     0.328 C 
BRANCH   8   9
ATOM      9  N   UNL A   1      33.610  24.920  25.167  1.00  0.00    -0.316 N 
ATOM     10  N   UNL A   1      31.881  27.326  24.779  1.00  0.00    -0.344 N 
ATOM     11  C   UNL A   1      33.131  27.103  24.058  1.00  0.00     0.179 C 
ATOM     12  C   UNL A   1      31.257  26.067  25.253  1.00  0.00     0.179 C 
ATOM     13  C   UNL A   1      34.045  26.307  24.992  1.00  0.00     0.285 C 
ATOM     14  C   UNL A   1      32.300  25.039  25.853  1.00  0.00     0.285 C 
ATOM     15  H   UNL A   1      34.368  24.462  25.671  1.00  0.00     0.349 HD
BRANCH  10  16
ATOM     16  C   UNL A   1      31.055  28.276  24.174  1.00  0.00     0.146 A 
ATOM     17  C   UNL A   1      30.947  29.576  24.666  1.00  0.00     0.095 A 
ATOM     18  C   UNL A   1      30.065  30.483  24.054  1.00  0.00     0.025 A 
ATOM     19  C   UNL A   1      29.354  30.107  22.929  1.00  0.00     0.022 A 
ATOM     20  N   UNL A   1      30.391  27.939  23.045  1.00  0.00    -0.238 NA
ATOM     21  C   UNL A   1      29.591  28.848  22.441  1.00  0.00     0.113 A 
BRANCH  17  22
ATOM     22  C   UNL A   1      31.791  30.040  25.721  1.00  0.00     0.103 C 
ATOM     23  N   UNL A   1      32.427  30.469  26.593  1.00  0.00    -0.192 NA
ENDBRANCH  17  22
ENDBRANCH  10  16
ENDBRANCH   8   9
BRANCH   8  24
ATOM     24  C   UNL A   1      32.624  22.697  23.671  1.00  0.00     0.046 A 
ATOM     25  C   UNL A   1      31.659  22.386  24.630  1.00  0.00     0.094 A 
ATOM     26  C   UNL A   1      32.663  21.325  23.178  1.00  0.00     0.009 A 
ATOM     27  N   UNL A   1      32.403  21.489  25.437  1.00  0.00    -0.361 N 
ATOM     28  C   UNL A   1      33.282  20.655  24.578  1.00  0.00     0.046 A 
ATOM     29  C   UNL A   1      31.946  20.161  21.966  1.00  0.00     0.011 A 
ATOM     30  H   UNL A   1      32.345  21.428  26.418  1.00  0.00     0.166 HD
ATOM     31  C   UNL A   1      33.663  18.937  24.817  1.00  0.00     0.032 A 
ATOM     32  C   UNL A   1      32.245  18.175  22.249  1.00  0.00     0.007 A 
ATOM     33  C   UNL A   1      33.157  17.674  23.698  1.00  0.00    -0.021 A 
BRANCH  33  34
ATOM     34  C   UNL A   1      33.649  16.273  23.845  1.00  0.00     0.191 C 
BRANCH  34  35
ATOM     35  O   UNL A   1      34.429  15.924  22.710  1.00  0.00    -0.392 OA
ATOM     36  H   UNL A   1      33.852  15.556  22.021  1.00  0.00     0.211 HD
ENDBRANCH  34  35
ENDBRANCH  33  34
ENDBRANCH   8  24
ENDBRANCH   6   8
ENDBRANCH   5   6
ENDBRANCH   4   5
ENDBRANCH   3   4
ENDBRANCH   2   3
ENDBRANCH   1   2
BRANCH   1  37
ATOM     37  C   UNL A   1      40.756  21.820  26.245  1.00  0.00     0.188 C 
BRANCH  37  38
ATOM     38  O   UNL A   1      42.094  21.785  26.712  1.00  0.00    -0.376 OA
BRANCH  38  39
ATOM     39  C   UNL A   1      43.133  22.093  25.791  1.00  0.00     0.202 C 
BRANCH  39  40
ATOM     40  C   UNL A   1      43.038  23.405  25.006  1.00  0.00     0.261 C 
BRANCH  40  41
ATOM     41  O   UNL A   1      42.846  24.516  25.883  1.00  0.00    -0.460 OA
BRANCH  41  42
ATOM     42  C   UNL A   1      42.229  25.691  25.714  1.00  0.00     0.338 C 
ATOM     43  O   UNL A   1      42.236  26.354  24.698  1.00  0.00    -0.246 OA
BRANCH  42  44
ATOM     44  C   UNL A   1      41.790  26.029  27.190  1.00  0.00     0.060 A 
ATOM     45  C   UNL A   1      40.175  26.050  28.420  1.00  0.00     0.016 A 
ATOM     46  C   UNL A   1      43.211  27.035  27.793  1.00  0.00     0.016 A 
ATOM     47  C   UNL A   1      40.196  26.944  29.920  1.00  0.00     0.010 A 
ATOM     48  C   UNL A   1      43.063  27.909  29.307  1.00  0.00     0.010 A 
ATOM     49  C   UNL A   1      41.596  27.861  30.271  1.00  0.00    -0.014 A 
BRANCH  49  50
ATOM     50  C   UNL A   1      41.339  28.774  31.366  1.00  0.00     0.031 A 
ATOM     51  C   UNL A   1      42.219  28.716  32.580  1.00  0.00     0.074 A 
ATOM     52  C   UNL A   1      40.499  29.765  31.059  1.00  0.00     0.049 A 
ATOM     53  N   UNL A   1      42.173  29.446  33.656  1.00  0.00    -0.248 NA
ATOM     54  C   UNL A   1      43.337  27.750  32.588  1.00  0.00     0.031 C 
ATOM     55  C   UNL A   1      39.829  29.933  29.762  1.00  0.00     0.029 A 
ATOM     56  N   UNL A   1      40.072  30.818  31.797  1.00  0.00    -0.354 N 
ATOM     57  C   UNL A   1      43.227  29.011  34.458  1.00  0.00     0.074 A 
ATOM     58  C   UNL A   1      43.920  27.972  33.755  1.00  0.00     0.031 C 
ATOM     59  C   UNL A   1      39.005  30.986  29.830  1.00  0.00     0.029 A 
ATOM     60  C   UNL A   1      39.062  31.512  31.182  1.00  0.00     0.049 A 
ATOM     61  H   UNL A   1      40.446  31.059  32.675  1.00  0.00     0.167 HD
ATOM     62  C   UNL A   1      43.553  29.457  35.688  1.00  0.00     0.037 A 
ATOM     63  C   UNL A   1      38.226  32.409  31.721  1.00  0.00     0.037 A 
ATOM     64  C   UNL A   1      42.789  30.497  36.314  1.00  0.00     0.049 A 
ATOM     65  C   UNL A   1      38.498  32.772  33.151  1.00  0.00     0.074 A 
ATOM     66  C   UNL A   1      42.923  31.036  37.575  1.00  0.00     0.029 A 
ATOM     67  N   UNL A   1      41.722  31.142  35.697  1.00  0.00    -0.354 N 
ATOM     68  N   UNL A   1      39.442  32.310  33.945  1.00  0.00    -0.248 NA
ATOM     69  C   UNL A   1      37.626  33.773  33.759  1.00  0.00     0.031 C 
ATOM     70  C   UNL A   1      41.881  31.952  37.746  1.00  0.00     0.029 A 
ATOM     71  C   UNL A   1      41.159  32.052  36.561  1.00  0.00     0.049 A 
ATOM     72  H   UNL A   1      41.414  30.972  34.778  1.00  0.00     0.167 HD
ATOM     73  C   UNL A   1      39.314  33.007  35.132  1.00  0.00     0.074 A 
ATOM     74  C   UNL A   1      38.191  33.912  34.951  1.00  0.00     0.031 C 
ATOM     75  C   UNL A   1      40.052  32.930  36.268  1.00  0.00     0.037 A 
BRANCH  62  76
ATOM     76  C   UNL A   1      44.662  28.774  36.440  1.00  0.00     0.058 A 
ATOM     77  C   UNL A   1      45.989  29.233  36.431  1.00  0.00     0.135 A 
ATOM     78  C   UNL A   1      44.373  27.641  37.218  1.00  0.00     0.135 A 
ATOM     79  F   UNL A   1      46.341  30.277  35.663  1.00  0.00    -0.206 F 
ATOM     80  C   UNL A   1      46.982  28.609  37.186  1.00  0.00     0.059 A 
ATOM     81  C   UNL A   1      45.342  27.016  37.998  1.00  0.00     0.059 A 
ATOM     82  F   UNL A   1      43.132  27.132  37.231  1.00  0.00    -0.206 F 
ATOM     83  C   UNL A   1      46.643  27.512  37.982  1.00  0.00     0.060 A 
BRANCH  83  84
ATOM     84  S   UNL A   1      47.917  26.770  39.027  1.00  0.00     0.124 S 
ATOM     85  O   UNL A   1      48.641  27.949  39.493  1.00  0.00    -0.237 OA
ATOM     86  O   UNL A   1      47.121  26.076  40.035  1.00  0.00    -0.237 OA
ATOM     87  O   UNL A   1      48.652  25.906  38.109  1.00  0.00    -0.744 OA
ENDBRANCH  83  84
ENDBRANCH  62  76
BRANCH  63  88
ATOM     88  C   UNL A   1      37.074  32.917  30.942  1.00  0.00     0.058 A 
ATOM     89  C   UNL A   1      37.235  33.906  29.966  1.00  0.00     0.135 A 
ATOM     90  C   UNL A   1      35.778  32.408  31.149  1.00  0.00     0.135 A 
ATOM     91  F   UNL A   1      38.455  34.403  29.709  1.00  0.00    -0.206 F 
ATOM     92  C   UNL A   1      36.149  34.415  29.263  1.00  0.00     0.059 A 
ATOM     93  C   UNL A   1      34.683  32.875  30.436  1.00  0.00     0.059 A 
ATOM     94  F   UNL A   1      35.572  31.429  32.046  1.00  0.00    -0.206 F 
ATOM     95  C   UNL A   1      34.874  33.901  29.514  1.00  0.00     0.060 A 
BRANCH  95  96
ATOM     96  S   UNL A   1      33.470  34.611  28.633  1.00  0.00     0.124 S 
ATOM     97  O   UNL A   1      34.089  35.761  27.983  1.00  0.00    -0.237 OA
ATOM     98  O   UNL A   1      33.076  33.515  27.754  1.00  0.00    -0.237 OA
ATOM     99  O   UNL A   1      32.524  34.925  29.700  1.00  0.00    -0.744 OA
ENDBRANCH  95  96
ENDBRANCH  63  88
BRANCH  75 100
ATOM    100  C   UNL A   1      39.715  33.910  37.340  1.00  0.00     0.058 A 
ATOM    101  C   UNL A   1      38.905  33.557  38.426  1.00  0.00     0.135 A 
ATOM    102  C   UNL A   1      40.318  35.177  37.324  1.00  0.00     0.135 A 
ATOM    103  F   UNL A   1      38.306  32.356  38.465  1.00  0.00    -0.206 F 
ATOM    104  C   UNL A   1      38.696  34.442  39.469  1.00  0.00     0.059 A 
ATOM    105  C   UNL A   1      40.157  36.059  38.377  1.00  0.00     0.059 A 
ATOM    106  F   UNL A   1      41.112  35.538  36.302  1.00  0.00    -0.206 F 
ATOM    107  C   UNL A   1      39.340  35.683  39.442  1.00  0.00     0.060 A 
BRANCH 107 108
ATOM    108  S   UNL A   1      39.132  36.781  40.851  1.00  0.00     0.124 S 
ATOM    109  O   UNL A   1      38.149  36.054  41.646  1.00  0.00    -0.237 OA
ATOM    110  O   UNL A   1      40.484  36.832  41.403  1.00  0.00    -0.237 OA
ATOM    111  O   UNL A   1      38.660  38.024  40.248  1.00  0.00    -0.744 OA
ENDBRANCH 107 108
ENDBRANCH  75 100
ENDBRANCH  49  50
ENDBRANCH  42  44
ENDBRANCH  41  42
ENDBRANCH  40  41
ENDBRANCH  39  40
ENDBRANCH  38  39
ENDBRANCH  37  38
ENDBRANCH   1  37
TORSDOF 26
ENDMDL
MODEL 2
REMARK VINA RESULT:     -11.2      0.421      7.788
REMARK SMILES N#Cc1cccnc1N1CC[NH+]([C@@H](C(=O)OCCOCCOCCOC(=O)c2ccc(-c3c4nc(c(-c5c(F)cc(S(=O)(=O)[O-])cc5F)c5ccc([nH]5)c(-c5c(F)cc(S(=O)(=O)[O-])cc5F)c5nc(c(-c6c(F)cc(S(=O)(=O)[O-])cc6F)c6ccc3[nH]6)C=C5)C=C4)cc2)c2c[nH]c3cc(CO)ccc23)CC1
REMARK SMILES IDX 20 1 19 2 18 3 17 4 16 5 14 6 15 7 13 8 12 9 9 10 10 11
REMARK SMILES IDX 106 12 11 13 105 14 8 16 3 17 4 18 5 19 7 20 6 21 2 22 1 23
REMARK SMILES IDX 94 24 95 25 104 26 96 27 97 28 103 29 98 31 102 32 99 33
REMARK SMILES IDX 100 34 101 35 21 37 22 38 23 39 24 40 25 41 26 42 27 43
REMARK SMILES IDX 28 44 29 45 93 46 30 47 92 48 31 49 32 50 33 51 86 52 34 53
REMARK SMILES IDX 91 54 85 55 87 56 35 57 90 58 84 59 83 60 36 62 70 63 49 64
REMARK SMILES IDX 69 65 50 66 53 67 68 68 88 69 51 70 52 71 67 73 89 74 54 75
REMARK SMILES IDX 37 76 38 77 47 78 39 79 40 80 46 81 48 82 41 83 42 84 43 85
REMARK SMILES IDX 44 86 45 87 71 88 72 89 81 90 73 91 74 92 80 93 82 94 75 95
REMARK SMILES IDX 76 96 77 97 78 98 79 99 55 100 56 101 65 102 57 103 58 104
REMARK SMILES IDX 64 105 66 106 59 107 60 108 61 109 62 110 63 111
REMARK H PARENT 12 15 96 30 101 36 87 61 53 72
REMARK Flexibility Score: inf
ROOT
ATOM      1  C   UNL A   1      39.832  22.736  26.752  1.00  0.00     0.188 C 
ENDROOT
BRANCH   1   2
ATOM      2  O   UNL A   1      38.566  22.788  26.129  1.00  0.00    -0.376 OA
BRANCH   2   3
ATOM      3  C   UNL A   1      38.030  21.536  25.710  1.00  0.00     0.202 C 
BRANCH   3   4
ATOM      4  C   UNL A   1      36.599  21.517  25.122  1.00  0.00     0.261 C 
BRANCH   4   5
ATOM      5  O   UNL A   1      35.887  22.783  25.184  1.00  0.00    -0.459 OA
BRANCH   5   6
ATOM      6  C   UNL A   1      35.229  23.221  24.073  1.00  0.00     0.370 C 
ATOM      7  O   UNL A   1      35.765  23.280  22.968  1.00  0.00    -0.245 OA
BRANCH   6   8
ATOM      8  C   UNL A   1      33.740  23.631  24.320  1.00  0.00     0.328 C 
BRANCH   8   9
ATOM      9  N   UNL A   1      33.471  24.754  25.330  1.00  0.00    -0.316 N 
ATOM     10  N   UNL A   1      31.811  27.197  24.878  1.00  0.00    -0.344 N 
ATOM     11  C   UNL A   1      33.117  26.980  24.261  1.00  0.00     0.179 C 
ATOM     12  C   UNL A   1      31.133  25.932  25.251  1.00  0.00     0.179 C 
ATOM     13  C   UNL A   1      33.936  26.140  25.243  1.00  0.00     0.285 C 
ATOM     14  C   UNL A   1      32.107  24.868  25.904  1.00  0.00     0.285 C 
ATOM     15  H   UNL A   1      34.177  24.267  25.882  1.00  0.00     0.349 HD
BRANCH  10  16
ATOM     16  C   UNL A   1      31.053  28.179  24.237  1.00  0.00     0.146 A 
ATOM     17  C   UNL A   1      30.970  29.481  24.729  1.00  0.00     0.095 A 
ATOM     18  C   UNL A   1      30.154  30.422  24.079  1.00  0.00     0.025 A 
ATOM     19  C   UNL A   1      29.486  30.076  22.918  1.00  0.00     0.022 A 
ATOM     20  N   UNL A   1      30.433  27.870  23.076  1.00  0.00    -0.238 NA
ATOM     21  C   UNL A   1      29.698  28.810  22.437  1.00  0.00     0.113 A 
BRANCH  17  22
ATOM     22  C   UNL A   1      31.779  29.911  25.826  1.00  0.00     0.103 C 
ATOM     23  N   UNL A   1      32.384  30.236  26.762  1.00  0.00    -0.192 NA
ENDBRANCH  17  22
ENDBRANCH  10  16
ENDBRANCH   8   9
BRANCH   8  24
ATOM     24  C   UNL A   1      32.609  22.545  23.740  1.00  0.00     0.046 A 
ATOM     25  C   UNL A   1      31.492  22.361  24.556  1.00  0.00     0.094 A 
ATOM     26  C   UNL A   1      32.669  21.128  23.399  1.00  0.00     0.009 A 
ATOM     27  N   UNL A   1      32.061  21.536  25.559  1.00  0.00    -0.361 N 
ATOM     28  C   UNL A   1      33.030  20.594  24.942  1.00  0.00     0.046 A 
ATOM     29  C   UNL A   1      32.106  19.861  22.211  1.00  0.00     0.011 A 
ATOM     30  H   UNL A   1      31.846  21.580  26.519  1.00  0.00     0.166 HD
ATOM     31  C   UNL A   1      33.297  18.902  25.410  1.00  0.00     0.032 A 
ATOM     32  C   UNL A   1      32.273  17.909  22.736  1.00  0.00     0.007 A 
ATOM     33  C   UNL A   1      32.923  17.540  24.356  1.00  0.00    -0.021 A 
BRANCH  33  34
ATOM     34  C   UNL A   1      33.326  16.151  24.720  1.00  0.00     0.191 C 
BRANCH  34  35
ATOM     35  O   UNL A   1      34.645  15.904  24.252  1.00  0.00    -0.392 OA
ATOM     36  H   UNL A   1      35.279  16.398  24.796  1.00  0.00     0.211 HD
ENDBRANCH  34  35
ENDBRANCH  33  34
ENDBRANCH   8  24
ENDBRANCH   6   8
ENDBRANCH   5   6
ENDBRANCH   4   5
ENDBRANCH   3   4
ENDBRANCH   2   3
ENDBRANCH   1   2
BRANCH   1  37
ATOM     37  C   UNL A   1      40.863  21.827  26.097  1.00  0.00     0.188 C 
BRANCH  37  38
ATOM     38  O   UNL A   1      42.155  21.693  26.665  1.00  0.00    -0.376 OA
BRANCH  38  39
ATOM     39  C   UNL A   1      43.266  22.183  25.924  1.00  0.00     0.202 C 
BRANCH  39  40
ATOM     40  C   UNL A   1      43.065  23.430  25.059  1.00  0.00     0.261 C 
BRANCH  40  41
ATOM     41  O   UNL A   1      42.993  24.608  25.863  1.00  0.00    -0.460 OA
BRANCH  41  42
ATOM     42  C   UNL A   1      42.325  25.758  25.708  1.00  0.00     0.338 C 
ATOM     43  O   UNL A   1      42.283  26.418  24.692  1.00  0.00    -0.246 OA
BRANCH  42  44
ATOM     44  C   UNL A   1      41.908  26.079  27.193  1.00  0.00     0.060 A 
ATOM     45  C   UNL A   1      40.322  26.036  28.460  1.00  0.00     0.016 A 
ATOM     46  C   UNL A   1      43.300  27.145  27.762  1.00  0.00     0.016 A 
ATOM     47  C   UNL A   1      40.341  26.933  29.959  1.00  0.00     0.010 A 
ATOM     48  C   UNL A   1      43.151  28.014  29.278  1.00  0.00     0.010 A 
ATOM     49  C   UNL A   1      41.710  27.908  30.276  1.00  0.00    -0.014 A 
BRANCH  49  50
ATOM     50  C   UNL A   1      41.441  28.812  31.376  1.00  0.00     0.031 A 
ATOM     51  C   UNL A   1      40.305  29.785  31.255  1.00  0.00     0.074 A 
ATOM     52  C   UNL A   1      42.077  28.493  32.506  1.00  0.00     0.049 A 
ATOM     53  N   UNL A   1      39.888  30.663  32.120  1.00  0.00    -0.248 NA
ATOM     54  C   UNL A   1      39.484  29.752  30.027  1.00  0.00     0.031 C 
ATOM     55  C   UNL A   1      43.013  27.371  32.660  1.00  0.00     0.029 A 
ATOM     56  N   UNL A   1      42.032  29.064  33.734  1.00  0.00    -0.354 N 
ATOM     57  C   UNL A   1      38.789  31.286  31.531  1.00  0.00     0.074 A 
ATOM     58  C   UNL A   1      38.573  30.686  30.248  1.00  0.00     0.031 C 
ATOM     59  C   UNL A   1      43.520  27.393  33.900  1.00  0.00     0.029 A 
ATOM     60  C   UNL A   1      42.979  28.554  34.583  1.00  0.00     0.049 A 
ATOM     61  H   UNL A   1      41.389  29.765  33.988  1.00  0.00     0.167 HD
ATOM     62  C   UNL A   1      38.048  32.288  32.045  1.00  0.00     0.037 A 
ATOM     63  C   UNL A   1      43.405  29.060  35.747  1.00  0.00     0.037 A 
ATOM     64  C   UNL A   1      38.350  32.831  33.338  1.00  0.00     0.049 A 
ATOM     65  C   UNL A   1      42.680  30.282  36.228  1.00  0.00     0.074 A 
ATOM     66  C   UNL A   1      37.759  33.885  33.999  1.00  0.00     0.029 A 
ATOM     67  N   UNL A   1      39.363  32.341  34.158  1.00  0.00    -0.354 N 
ATOM     68  N   UNL A   1      41.692  30.928  35.644  1.00  0.00    -0.248 NA
ATOM     69  C   UNL A   1      43.097  30.840  37.512  1.00  0.00     0.031 C 
ATOM     70  C   UNL A   1      38.473  34.082  35.185  1.00  0.00     0.029 A 
ATOM     71  C   UNL A   1      39.443  33.093  35.306  1.00  0.00     0.049 A 
ATOM     72  H   UNL A   1      39.938  31.571  33.946  1.00  0.00     0.167 HD
ATOM     73  C   UNL A   1      41.329  31.937  36.517  1.00  0.00     0.074 A 
ATOM     74  C   UNL A   1      42.216  31.819  37.662  1.00  0.00     0.031 C 
ATOM     75  C   UNL A   1      40.351  32.870  36.406  1.00  0.00     0.037 A 
BRANCH  62  76
ATOM     76  C   UNL A   1      36.969  32.905  31.199  1.00  0.00     0.058 A 
ATOM     77  C   UNL A   1      37.239  33.696  30.070  1.00  0.00     0.135 A 
ATOM     78  C   UNL A   1      35.621  32.668  31.516  1.00  0.00     0.135 A 
ATOM     79  F   UNL A   1      38.505  34.005  29.746  1.00  0.00    -0.206 F 
ATOM     80  C   UNL A   1      36.214  34.205  29.274  1.00  0.00     0.059 A 
ATOM     81  C   UNL A   1      34.582  33.147  30.723  1.00  0.00     0.059 A 
ATOM     82  F   UNL A   1      35.302  31.956  32.608  1.00  0.00    -0.206 F 
ATOM     83  C   UNL A   1      34.888  33.909  29.599  1.00  0.00     0.060 A 
BRANCH  83  84
ATOM     84  S   UNL A   1      33.574  34.497  28.508  1.00  0.00     0.124 S 
ATOM     85  O   UNL A   1      33.267  33.294  27.738  1.00  0.00    -0.237 OA
ATOM     86  O   UNL A   1      32.551  34.918  29.459  1.00  0.00    -0.237 OA
ATOM     87  O   UNL A   1      34.209  35.574  27.756  1.00  0.00    -0.744 OA
ENDBRANCH  83  84
ENDBRANCH  62  76
BRANCH  63  88
ATOM     88  C   UNL A   1      44.573  28.465  36.437  1.00  0.00     0.058 A 
ATOM     89  C   UNL A   1      45.864  28.968  36.248  1.00  0.00     0.135 A 
ATOM     90  C   UNL A   1      44.416  27.380  37.320  1.00  0.00     0.135 A 
ATOM     91  F   UNL A   1      46.062  30.020  35.439  1.00  0.00    -0.206 F 
ATOM     92  C   UNL A   1      46.967  28.384  36.860  1.00  0.00     0.059 A 
ATOM     93  C   UNL A   1      45.498  26.801  37.971  1.00  0.00     0.059 A 
ATOM     94  F   UNL A   1      43.194  26.882  37.570  1.00  0.00    -0.206 F 
ATOM     95  C   UNL A   1      46.774  27.293  37.711  1.00  0.00     0.060 A 
BRANCH  95  96
ATOM     96  S   UNL A   1      48.221  26.514  38.455  1.00  0.00     0.124 S 
ATOM     97  O   UNL A   1      48.379  25.335  37.611  1.00  0.00    -0.237 OA
ATOM     98  O   UNL A   1      49.237  27.550  38.303  1.00  0.00    -0.237 OA
ATOM     99  O   UNL A   1      47.798  26.253  39.827  1.00  0.00    -0.744 OA
ENDBRANCH  95  96
ENDBRANCH  63  88
BRANCH  75 100
ATOM    100  C   UNL A   1      40.148  33.756  37.588  1.00  0.00     0.058 A 
ATOM    101  C   UNL A   1      40.780  35.001  37.688  1.00  0.00     0.135 A 
ATOM    102  C   UNL A   1      39.212  33.387  38.566  1.00  0.00     0.135 A 
ATOM    103  F   UNL A   1      41.688  35.377  36.774  1.00  0.00    -0.206 F 
ATOM    104  C   UNL A   1      40.493  35.858  38.736  1.00  0.00     0.059 A 
ATOM    105  C   UNL A   1      38.878  34.247  39.597  1.00  0.00     0.059 A 
ATOM    106  F   UNL A   1      38.580  32.204  38.489  1.00  0.00    -0.206 F 
ATOM    107  C   UNL A   1      39.528  35.478  39.674  1.00  0.00     0.060 A 
BRANCH 107 108
ATOM    108  S   UNL A   1      39.099  36.644  40.975  1.00  0.00     0.124 S 
ATOM    109  O   UNL A   1      38.616  37.781  40.198  1.00  0.00    -0.237 OA
ATOM    110  O   UNL A   1      38.083  35.909  41.723  1.00  0.00    -0.237 OA
ATOM    111  O   UNL A   1      40.361  36.852  41.677  1.00  0.00    -0.744 OA
ENDBRANCH 107 108
ENDBRANCH  75 100
ENDBRANCH  49  50
ENDBRANCH  42  44
ENDBRANCH  41  42
ENDBRANCH  40  41
ENDBRANCH  39  40
ENDBRANCH  38  39
ENDBRANCH  37  38
ENDBRANCH   1  37
TORSDOF 26
ENDMDL
MODEL 3
REMARK VINA RESULT:     -11.0      1.397      9.248
REMARK SMILES N#Cc1cccnc1N1CC[NH+]([C@@H](C(=O)OCCOCCOCCOC(=O)c2ccc(-c3c4nc(c(-c5c(F)cc(S(=O)(=O)[O-])cc5F)c5ccc([nH]5)c(-c5c(F)cc(S(=O)(=O)[O-])cc5F)c5nc(c(-c6c(F)cc(S(=O)(=O)[O-])cc6F)c6ccc3[nH]6)C=C5)C=C4)cc2)c2c[nH]c3cc(CO)ccc23)CC1
REMARK SMILES IDX 20 1 19 2 18 3 17 4 16 5 14 6 15 7 13 8 12 9 9 10 10 11
REMARK SMILES IDX 106 12 11 13 105 14 8 16 3 17 4 18 5 19 7 20 6 21 2 22 1 23
REMARK SMILES IDX 94 24 95 25 104 26 96 27 97 28 103 29 98 31 102 32 99 33
REMARK SMILES IDX 100 34 101 35 21 37 22 38 23 39 24 40 25 41 26 42 27 43
REMARK SMILES IDX 28 44 29 45 93 46 30 47 92 48 31 49 32 50 33 51 86 52 34 53
REMARK SMILES IDX 91 54 85 55 87 56 35 57 90 58 84 59 83 60 36 62 70 63 49 64
REMARK SMILES IDX 69 65 50 66 53 67 68 68 88 69 51 70 52 71 67 73 89 74 54 75
REMARK SMILES IDX 37 76 38 77 47 78 39 79 40 80 46 81 48 82 41 83 42 84 43 85
REMARK SMILES IDX 44 86 45 87 71 88 72 89 81 90 73 91 74 92 80 93 82 94 75 95
REMARK SMILES IDX 76 96 77 97 78 98 79 99 55 100 56 101 65 102 57 103 58 104
REMARK SMILES IDX 64 105 66 106 59 107 60 108 61 109 62 110 63 111
REMARK H PARENT 12 15 96 30 101 36 87 61 53 72
REMARK Flexibility Score: inf
ROOT
ATOM      1  C   UNL A   1      38.552  23.801  26.357  1.00  0.00     0.188 C 
ENDROOT
BRANCH   1   2
ATOM      2  O   UNL A   1      37.157  23.649  26.520  1.00  0.00    -0.376 OA
BRANCH   2   3
ATOM      3  C   UNL A   1      36.392  23.630  25.318  1.00  0.00     0.202 C 
BRANCH   3   4
ATOM      4  C   UNL A   1      35.191  24.598  25.205  1.00  0.00     0.261 C 
BRANCH   4   5
ATOM      5  O   UNL A   1      34.851  25.008  23.852  1.00  0.00    -0.459 OA
BRANCH   5   6
ATOM      6  C   UNL A   1      33.582  25.435  23.595  1.00  0.00     0.370 C 
ATOM      7  O   UNL A   1      33.283  26.035  22.564  1.00  0.00    -0.245 OA
BRANCH   6   8
ATOM      8  C   UNL A   1      32.543  25.092  24.711  1.00  0.00     0.328 C 
BRANCH   8   9
ATOM      9  N   UNL A   1      31.935  23.684  24.707  1.00  0.00    -0.316 N 
ATOM     10  N   UNL A   1      33.427  21.097  24.829  1.00  0.00    -0.344 N 
ATOM     11  C   UNL A   1      33.416  21.971  23.659  1.00  0.00     0.179 C 
ATOM     12  C   UNL A   1      33.151  21.824  26.092  1.00  0.00     0.179 C 
ATOM     13  C   UNL A   1      32.060  22.680  23.648  1.00  0.00     0.285 C 
ATOM     14  C   UNL A   1      31.990  22.892  25.960  1.00  0.00     0.285 C 
ATOM     15  H   UNL A   1      31.070  24.185  24.501  1.00  0.00     0.349 HD
BRANCH  10  16
ATOM     16  C   UNL A   1      34.476  20.176  24.822  1.00  0.00     0.146 A 
ATOM     17  C   UNL A   1      34.250  18.807  24.689  1.00  0.00     0.095 A 
ATOM     18  C   UNL A   1      35.333  17.913  24.737  1.00  0.00     0.025 A 
ATOM     19  C   UNL A   1      36.625  18.394  24.854  1.00  0.00     0.022 A 
ATOM     20  N   UNL A   1      35.747  20.634  24.887  1.00  0.00    -0.238 NA
ATOM     21  C   UNL A   1      36.777  19.756  24.876  1.00  0.00     0.113 A 
BRANCH  17  22
ATOM     22  C   UNL A   1      32.947  18.296  24.399  1.00  0.00     0.103 C 
ATOM     23  N   UNL A   1      31.919  17.839  24.113  1.00  0.00    -0.192 NA
ENDBRANCH  17  22
ENDBRANCH  10  16
ENDBRANCH   8   9
BRANCH   8  24
ATOM     24  C   UNL A   1      31.943  26.414  25.541  1.00  0.00     0.046 A 
ATOM     25  C   UNL A   1      30.710  26.213  26.163  1.00  0.00     0.094 A 
ATOM     26  C   UNL A   1      31.585  27.769  25.135  1.00  0.00     0.009 A 
ATOM     27  N   UNL A   1      29.857  26.285  25.034  1.00  0.00    -0.361 N 
ATOM     28  C   UNL A   1      30.358  27.318  24.093  1.00  0.00     0.046 A 
ATOM     29  C   UNL A   1      31.633  29.527  25.624  1.00  0.00     0.011 A 
ATOM     30  H   UNL A   1      29.053  25.733  24.896  1.00  0.00     0.166 HD
ATOM     31  C   UNL A   1      29.367  28.431  23.127  1.00  0.00     0.032 A 
ATOM     32  C   UNL A   1      30.433  30.833  24.638  1.00  0.00     0.007 A 
ATOM     33  C   UNL A   1      29.362  30.176  23.372  1.00  0.00    -0.021 A 
BRANCH  33  34
ATOM     34  C   UNL A   1      28.652  31.084  22.425  1.00  0.00     0.191 C 
BRANCH  34  35
ATOM     35  O   UNL A   1      29.387  31.172  21.212  1.00  0.00    -0.392 OA
ATOM     36  H   UNL A   1      28.876  31.676  20.560  1.00  0.00     0.211 HD
ENDBRANCH  34  35
ENDBRANCH  33  34
ENDBRANCH   8  24
ENDBRANCH   6   8
ENDBRANCH   5   6
ENDBRANCH   4   5
ENDBRANCH   3   4
ENDBRANCH   2   3
ENDBRANCH   1   2
BRANCH   1  37
ATOM     37  C   UNL A   1      39.371  22.518  26.381  1.00  0.00     0.188 C 
BRANCH  37  38
ATOM     38  O   UNL A   1      40.719  22.544  26.820  1.00  0.00    -0.376 OA
BRANCH  38  39
ATOM     39  C   UNL A   1      41.720  22.046  25.941  1.00  0.00     0.202 C 
BRANCH  39  40
ATOM     40  C   UNL A   1      42.645  23.055  25.254  1.00  0.00     0.261 C 
BRANCH  40  41
ATOM     41  O   UNL A   1      42.743  24.262  26.011  1.00  0.00    -0.460 OA
BRANCH  41  42
ATOM     42  C   UNL A   1      42.195  25.471  25.842  1.00  0.00     0.338 C 
ATOM     43  O   UNL A   1      42.210  26.116  24.815  1.00  0.00    -0.246 OA
BRANCH  42  44
ATOM     44  C   UNL A   1      41.827  25.858  27.325  1.00  0.00     0.060 A 
ATOM     45  C   UNL A   1      40.298  25.825  28.660  1.00  0.00     0.016 A 
ATOM     46  C   UNL A   1      43.198  27.003  27.775  1.00  0.00     0.016 A 
ATOM     47  C   UNL A   1      40.344  26.802  30.107  1.00  0.00     0.010 A 
ATOM     48  C   UNL A   1      43.078  27.948  29.248  1.00  0.00     0.010 A 
ATOM     49  C   UNL A   1      41.685  27.844  30.312  1.00  0.00    -0.014 A 
BRANCH  49  50
ATOM     50  C   UNL A   1      41.426  28.795  31.373  1.00  0.00     0.031 A 
ATOM     51  C   UNL A   1      40.268  29.739  31.235  1.00  0.00     0.074 A 
ATOM     52  C   UNL A   1      42.098  28.545  32.499  1.00  0.00     0.049 A 
ATOM     53  N   UNL A   1      39.856  30.651  32.067  1.00  0.00    -0.248 NA
ATOM     54  C   UNL A   1      39.416  29.630  30.034  1.00  0.00     0.031 C 
ATOM     55  C   UNL A   1      43.061  27.451  32.683  1.00  0.00     0.029 A 
ATOM     56  N   UNL A   1      42.073  29.175  33.699  1.00  0.00    -0.354 N 
ATOM     57  C   UNL A   1      38.729  31.222  31.479  1.00  0.00     0.074 A 
ATOM     58  C   UNL A   1      38.492  30.556  30.232  1.00  0.00     0.031 C 
ATOM     59  C   UNL A   1      43.599  27.543  33.906  1.00  0.00     0.029 A 
ATOM     60  C   UNL A   1      43.052  28.726  34.546  1.00  0.00     0.049 A 
ATOM     61  H   UNL A   1      41.423  29.876  33.935  1.00  0.00     0.167 HD
ATOM     62  C   UNL A   1      37.981  32.235  31.963  1.00  0.00     0.037 A 
ATOM     63  C   UNL A   1      43.498  29.297  35.672  1.00  0.00     0.037 A 
ATOM     64  C   UNL A   1      38.306  32.846  33.219  1.00  0.00     0.049 A 
ATOM     65  C   UNL A   1      42.761  30.528  36.112  1.00  0.00     0.074 A 
ATOM     66  C   UNL A   1      37.711  33.921  33.843  1.00  0.00     0.029 A 
ATOM     67  N   UNL A   1      39.350  32.417  34.033  1.00  0.00    -0.354 N 
ATOM     68  N   UNL A   1      41.745  31.125  35.524  1.00  0.00    -0.248 NA
ATOM     69  C   UNL A   1      43.200  31.156  37.355  1.00  0.00     0.031 C 
ATOM     70  C   UNL A   1      38.451  34.190  34.998  1.00  0.00     0.029 A 
ATOM     71  C   UNL A   1      39.444  33.227  35.141  1.00  0.00     0.049 A 
ATOM     72  H   UNL A   1      39.934  31.649  33.845  1.00  0.00     0.167 HD
ATOM     73  C   UNL A   1      41.384  32.169  36.355  1.00  0.00     0.074 A 
ATOM     74  C   UNL A   1      42.303  32.125  37.481  1.00  0.00     0.031 C 
ATOM     75  C   UNL A   1      40.385  33.077  36.225  1.00  0.00     0.037 A 
BRANCH  62  76
ATOM     76  C   UNL A   1      36.868  32.788  31.117  1.00  0.00     0.058 A 
ATOM     77  C   UNL A   1      35.523  32.419  31.283  1.00  0.00     0.135 A 
ATOM     78  C   UNL A   1      37.160  33.742  30.128  1.00  0.00     0.135 A 
ATOM     79  F   UNL A   1      35.185  31.471  32.173  1.00  0.00    -0.206 F 
ATOM     80  C   UNL A   1      34.508  32.995  30.519  1.00  0.00     0.059 A 
ATOM     81  C   UNL A   1      36.162  34.347  29.370  1.00  0.00     0.059 A 
ATOM     82  F   UNL A   1      38.431  34.102  29.894  1.00  0.00    -0.206 F 
ATOM     83  C   UNL A   1      34.837  33.972  29.578  1.00  0.00     0.060 A 
BRANCH  83  84
ATOM     84  S   UNL A   1      33.505  34.777  28.660  1.00  0.00     0.124 S 
ATOM     85  O   UNL A   1      32.538  35.050  29.720  1.00  0.00    -0.237 OA
ATOM     86  O   UNL A   1      34.179  35.946  28.102  1.00  0.00    -0.237 OA
ATOM     87  O   UNL A   1      33.100  33.767  27.688  1.00  0.00    -0.744 OA
ENDBRANCH  83  84
ENDBRANCH  62  76
BRANCH  63  88
ATOM     88  C   UNL A   1      44.695  28.760  36.358  1.00  0.00     0.058 A 
ATOM     89  C   UNL A   1      44.599  27.703  37.270  1.00  0.00     0.135 A 
ATOM     90  C   UNL A   1      45.975  29.286  36.101  1.00  0.00     0.135 A 
ATOM     91  F   UNL A   1      43.405  27.146  37.527  1.00  0.00    -0.206 F 
ATOM     92  C   UNL A   1      45.715  27.224  37.947  1.00  0.00     0.059 A 
ATOM     93  C   UNL A   1      47.110  28.802  36.738  1.00  0.00     0.059 A 
ATOM     94  F   UNL A   1      46.132  30.275  35.205  1.00  0.00    -0.206 F 
ATOM     95  C   UNL A   1      46.965  27.790  37.682  1.00  0.00     0.060 A 
BRANCH  95  96
ATOM     96  S   UNL A   1      48.393  27.194  38.608  1.00  0.00     0.124 S 
ATOM     97  O   UNL A   1      49.482  27.901  37.945  1.00  0.00    -0.237 OA
ATOM     98  O   UNL A   1      48.081  27.630  39.965  1.00  0.00    -0.237 OA
ATOM     99  O   UNL A   1      48.358  25.751  38.395  1.00  0.00    -0.744 OA
ENDBRANCH  95  96
ENDBRANCH  63  88
BRANCH  75 100
ATOM    100  C   UNL A   1      40.195  34.015  37.368  1.00  0.00     0.058 A 
ATOM    101  C   UNL A   1      40.795  35.280  37.385  1.00  0.00     0.135 A 
ATOM    102  C   UNL A   1      39.300  33.673  38.393  1.00  0.00     0.135 A 
ATOM    103  F   UNL A   1      41.664  35.633  36.424  1.00  0.00    -0.206 F 
ATOM    104  C   UNL A   1      40.518  36.181  38.397  1.00  0.00     0.059 A 
ATOM    105  C   UNL A   1      38.975  34.576  39.390  1.00  0.00     0.059 A 
ATOM    106  F   UNL A   1      38.698  32.472  38.395  1.00  0.00    -0.206 F 
ATOM    107  C   UNL A   1      39.593  35.825  39.384  1.00  0.00     0.060 A 
BRANCH 107 108
ATOM    108  S   UNL A   1      39.173  37.045  40.638  1.00  0.00     0.124 S 
ATOM    109  O   UNL A   1      38.128  36.350  41.381  1.00  0.00    -0.237 OA
ATOM    110  O   UNL A   1      40.443  37.217  41.337  1.00  0.00    -0.237 OA
ATOM    111  O   UNL A   1      38.731  38.197  39.858  1.00  0.00    -0.744 OA
ENDBRANCH 107 108
ENDBRANCH  75 100
ENDBRANCH  49  50
ENDBRANCH  42  44
ENDBRANCH  41  42
ENDBRANCH  40  41
ENDBRANCH  39  40
ENDBRANCH  38  39
ENDBRANCH  37  38
ENDBRANCH   1  37
TORSDOF 26
ENDMDL
