MODEL 1
REMARK VINA RESULT:     -11.3      0.000      0.000
REMARK SMILES Cc1ccc(-c2cc(Cl)cc3c2O[C@H](C(F)(F)F)C(C(=O)OCCOCCOCCOC(=O)c2ccc(-c4c5nc(c(-c6c(F)cc(S(=O)(=O)[O-])cc6F)c6ccc([nH]6)c(-c6c(F)cc(S(=O)(=O)[O-])cc6F)c6nc(c(-c7c(F)cc(S(=O)(=O)[O-])cc7F)c7ccc4[nH]7)C=C6)C=C5)cc2)=C3)cc1F
REMARK SMILES IDX 27 1 26 2 25 3 24 4 23 5 22 6 20 7 21 8 19 9 6 10 7 11 12 12
REMARK SMILES IDX 8 13 11 14 13 15 9 16 10 17 100 18 14 19 5 20 1 21 2 22 3 23
REMARK SMILES IDX 102 24 4 25 101 26 103 27 15 28 16 29 17 30 18 31 28 32
REMARK SMILES IDX 29 33 30 34 31 35 32 36 33 37 34 38 35 39 99 40 36 41 98 42
REMARK SMILES IDX 37 43 38 44 39 45 92 46 40 47 97 48 91 49 93 50 41 51 96 52
REMARK SMILES IDX 90 53 89 54 42 56 76 57 55 58 75 59 56 60 59 61 74 62 94 63
REMARK SMILES IDX 57 64 58 65 73 67 95 68 60 69 43 70 44 71 53 72 45 73 46 74
REMARK SMILES IDX 52 75 54 76 47 77 48 78 49 79 50 80 51 81 77 82 78 83 87 84
REMARK SMILES IDX 79 85 80 86 86 87 88 88 81 89 82 90 83 91 84 92 85 93 61 94
REMARK SMILES IDX 62 95 71 96 63 97 64 98 70 99 72 100 65 101 66 102 67 103
REMARK SMILES IDX 68 104 69 105
REMARK H PARENT 93 55 59 66
REMARK Flexibility Score: inf
ROOT
ATOM      1  C   UNL A   1      46.518  28.724  31.134  1.00  0.00     0.188 C 
ENDROOT
BRANCH   1   2
ATOM      2  C   UNL A   1      45.212  30.087  30.682  1.00  0.00     0.188 C 
BRANCH   2   3
ATOM      3  O   UNL A   1      45.693  31.151  28.998  1.00  0.00    -0.376 OA
BRANCH   3   4
ATOM      4  C   UNL A   1      47.280  30.994  28.089  1.00  0.00     0.202 C 
BRANCH   4   5
ATOM      5  C   UNL A   1      47.790  29.405  27.217  1.00  0.00     0.261 C 
BRANCH   5   6
ATOM      6  O   UNL A   1      47.132  27.884  27.593  1.00  0.00    -0.460 OA
BRANCH   6   7
ATOM      7  C   UNL A   1      46.255  27.028  26.932  1.00  0.00     0.338 C 
ATOM      8  O   UNL A   1      46.442  26.562  25.811  1.00  0.00    -0.246 OA
BRANCH   7   9
ATOM      9  C   UNL A   1      44.947  26.607  27.638  1.00  0.00     0.087 C 
ATOM     10  C   UNL A   1      40.839  25.777  28.387  1.00  0.00     0.026 A 
ATOM     11  C   UNL A   1      40.336  24.476  28.207  1.00  0.00     0.033 A 
ATOM     12  C   UNL A   1      42.223  26.031  28.279  1.00  0.00     0.135 A 
ATOM     13  C   UNL A   1      41.208  23.440  27.909  1.00  0.00     0.042 A 
ATOM     14  C   UNL A   1      43.084  25.002  27.988  1.00  0.00     0.019 A 
ATOM     15  O   UNL A   1      42.702  27.299  28.511  1.00  0.00    -0.475 OA
ATOM     16  Cl  UNL A   1      40.599  21.849  27.658  1.00  0.00    -0.084 Cl
ATOM     17  C   UNL A   1      42.575  23.698  27.797  1.00  0.00     0.032 A 
ATOM     18  C   UNL A   1      44.494  25.347  27.843  1.00  0.00     0.027 C 
ATOM     19  C   UNL A   1      43.971  27.711  27.906  1.00  0.00     0.316 C 
BRANCH  10  20
ATOM     20  C   UNL A   1      39.942  26.895  28.637  1.00  0.00    -0.012 A 
ATOM     21  C   UNL A   1      38.057  30.671  29.357  1.00  0.00     0.047 C 
ATOM     22  C   UNL A   1      38.637  29.317  29.121  1.00  0.00    -0.015 A 
ATOM     23  C   UNL A   1      38.880  28.428  30.176  1.00  0.00     0.007 A 
ATOM     24  C   UNL A   1      38.995  28.952  27.824  1.00  0.00     0.126 A 
ATOM     25  C   UNL A   1      39.530  27.219  29.935  1.00  0.00     0.009 A 
ATOM     26  C   UNL A   1      39.617  27.746  27.573  1.00  0.00     0.048 A 
ATOM     27  F   UNL A   1      38.786  29.795  26.804  1.00  0.00    -0.207 F 
ENDBRANCH  10  20
BRANCH  19  28
ATOM     28  C   UNL A   1      43.699  28.561  26.672  1.00  0.00     0.430 C 
ATOM     29  F   UNL A   1      43.679  27.798  25.555  1.00  0.00    -0.167 F 
ATOM     30  F   UNL A   1      42.489  29.163  26.744  1.00  0.00    -0.167 F 
ATOM     31  F   UNL A   1      44.636  29.519  26.492  1.00  0.00    -0.167 F 
ENDBRANCH  19  28
ENDBRANCH   7   9
ENDBRANCH   6   7
ENDBRANCH   5   6
ENDBRANCH   4   5
ENDBRANCH   3   4
ENDBRANCH   2   3
ENDBRANCH   1   2
BRANCH   1  32
ATOM     32  O   UNL A   1      46.005  27.032  30.921  1.00  0.00    -0.376 OA
BRANCH  32  33
ATOM     33  C   UNL A   1      44.509  26.254  31.497  1.00  0.00     0.202 C 
BRANCH  33  34
ATOM     34  C   UNL A   1      44.297  24.681  32.546  1.00  0.00     0.261 C 
BRANCH  34  35
ATOM     35  O   UNL A   1      43.546  24.397  34.136  1.00  0.00    -0.460 OA
BRANCH  35  36
ATOM     36  C   UNL A   1      42.794  24.984  35.276  1.00  0.00     0.338 C 
ATOM     37  O   UNL A   1      42.463  24.282  36.237  1.00  0.00    -0.246 OA
BRANCH  36  38
ATOM     38  C   UNL A   1      41.986  26.367  35.191  1.00  0.00     0.060 A 
ATOM     39  C   UNL A   1      41.601  26.902  33.954  1.00  0.00     0.016 A 
ATOM     40  C   UNL A   1      41.567  27.157  36.285  1.00  0.00     0.016 A 
ATOM     41  C   UNL A   1      41.243  28.276  33.823  1.00  0.00     0.010 A 
ATOM     42  C   UNL A   1      41.292  28.536  36.184  1.00  0.00     0.010 A 
ATOM     43  C   UNL A   1      41.238  29.132  34.934  1.00  0.00    -0.014 A 
BRANCH  43  44
ATOM     44  C   UNL A   1      41.027  30.594  34.847  1.00  0.00     0.031 A 
ATOM     45  C   UNL A   1      39.965  30.951  33.910  1.00  0.00     0.074 A 
ATOM     46  C   UNL A   1      41.752  31.518  35.533  1.00  0.00     0.049 A 
ATOM     47  N   UNL A   1      40.067  31.796  32.952  1.00  0.00    -0.248 NA
ATOM     48  C   UNL A   1      38.687  30.231  33.911  1.00  0.00     0.031 C 
ATOM     49  C   UNL A   1      41.812  32.975  35.643  1.00  0.00     0.029 A 
ATOM     50  N   UNL A   1      42.849  31.240  36.302  1.00  0.00    -0.354 N 
ATOM     51  C   UNL A   1      38.760  32.085  32.627  1.00  0.00     0.074 A 
ATOM     52  C   UNL A   1      38.007  30.910  32.983  1.00  0.00     0.031 C 
ATOM     53  C   UNL A   1      43.100  33.350  35.892  1.00  0.00     0.029 A 
ATOM     54  C   UNL A   1      43.867  32.122  36.008  1.00  0.00     0.049 A 
ATOM     55  H   UNL A   1      42.904  30.516  36.967  1.00  0.00     0.167 HD
ATOM     56  C   UNL A   1      38.388  33.394  32.519  1.00  0.00     0.037 A 
ATOM     57  C   UNL A   1      44.975  31.591  35.451  1.00  0.00     0.037 A 
ATOM     58  C   UNL A   1      39.529  34.254  32.847  1.00  0.00     0.049 A 
ATOM     59  C   UNL A   1      44.988  32.315  34.138  1.00  0.00     0.074 A 
ATOM     60  C   UNL A   1      39.840  35.023  33.955  1.00  0.00     0.029 A 
ATOM     61  N   UNL A   1      40.717  34.103  32.140  1.00  0.00    -0.354 N 
ATOM     62  N   UNL A   1      43.908  32.535  33.418  1.00  0.00    -0.248 NA
ATOM     63  C   UNL A   1      46.083  33.246  33.846  1.00  0.00     0.031 C 
ATOM     64  C   UNL A   1      41.229  35.334  33.897  1.00  0.00     0.029 A 
ATOM     65  C   UNL A   1      41.785  34.622  32.841  1.00  0.00     0.049 A 
ATOM     66  H   UNL A   1      40.785  33.680  31.253  1.00  0.00     0.167 HD
ATOM     67  C   UNL A   1      44.077  33.746  32.778  1.00  0.00     0.074 A 
ATOM     68  C   UNL A   1      45.463  34.123  33.045  1.00  0.00     0.031 C 
ATOM     69  C   UNL A   1      43.113  34.568  32.260  1.00  0.00     0.037 A 
BRANCH  56  70
ATOM     70  C   UNL A   1      36.961  33.884  32.436  1.00  0.00     0.058 A 
ATOM     71  C   UNL A   1      36.294  34.370  33.583  1.00  0.00     0.135 A 
ATOM     72  C   UNL A   1      36.224  33.989  31.237  1.00  0.00     0.135 A 
ATOM     73  F   UNL A   1      36.864  34.364  34.793  1.00  0.00    -0.206 F 
ATOM     74  C   UNL A   1      35.016  34.919  33.547  1.00  0.00     0.059 A 
ATOM     75  C   UNL A   1      34.923  34.501  31.182  1.00  0.00     0.059 A 
ATOM     76  F   UNL A   1      36.763  33.664  30.054  1.00  0.00    -0.206 F 
ATOM     77  C   UNL A   1      34.340  34.994  32.341  1.00  0.00     0.060 A 
BRANCH  77  78
ATOM     78  S   UNL A   1      32.744  35.827  32.314  1.00  0.00     0.124 S 
ATOM     79  O   UNL A   1      32.965  36.946  33.224  1.00  0.00    -0.237 OA
ATOM     80  O   UNL A   1      32.613  36.175  30.902  1.00  0.00    -0.237 OA
ATOM     81  O   UNL A   1      31.818  34.806  32.794  1.00  0.00    -0.744 OA
ENDBRANCH  77  78
ENDBRANCH  56  70
BRANCH  57  82
ATOM     82  C   UNL A   1      45.076  30.168  35.999  1.00  0.00     0.058 A 
ATOM     83  C   UNL A   1      45.062  28.973  34.734  1.00  0.00     0.135 A 
ATOM     84  C   UNL A   1      45.541  29.686  37.498  1.00  0.00     0.135 A 
ATOM     85  F   UNL A   1      44.343  29.437  33.703  1.00  0.00    -0.206 F 
ATOM     86  C   UNL A   1      45.558  27.151  35.036  1.00  0.00     0.059 A 
ATOM     87  C   UNL A   1      46.107  28.088  37.911  1.00  0.00     0.059 A 
ATOM     88  F   UNL A   1      45.467  30.571  38.508  1.00  0.00    -0.206 F 
ATOM     89  C   UNL A   1      46.317  26.754  36.750  1.00  0.00     0.060 A 
BRANCH  89  90
ATOM     90  S   UNL A   1      48.076  25.166  37.002  1.00  0.00     0.124 S 
ATOM     91  O   UNL A   1      48.877  24.952  35.784  1.00  0.00    -0.237 OA
ATOM     92  O   UNL A   1      48.902  25.694  38.061  1.00  0.00    -0.237 OA
ATOM     93  O   UNL A   1      47.547  23.838  37.295  1.00  0.00    -0.744 OA
ENDBRANCH  89  90
ENDBRANCH  57  82
BRANCH  69  94
ATOM     94  C   UNL A   1      43.379  35.417  31.043  1.00  0.00     0.058 A 
ATOM     95  C   UNL A   1      43.828  36.744  31.132  1.00  0.00     0.135 A 
ATOM     96  C   UNL A   1      43.416  34.838  29.748  1.00  0.00     0.135 A 
ATOM     97  F   UNL A   1      43.959  37.380  32.304  1.00  0.00    -0.206 F 
ATOM     98  C   UNL A   1      44.217  37.467  30.020  1.00  0.00     0.059 A 
ATOM     99  C   UNL A   1      43.892  35.517  28.638  1.00  0.00     0.059 A 
ATOM    100  F   UNL A   1      43.030  33.575  29.514  1.00  0.00    -0.206 F 
ATOM    101  C   UNL A   1      44.260  36.842  28.781  1.00  0.00     0.060 A 
BRANCH 101 102
ATOM    102  S   UNL A   1      44.838  37.790  27.378  1.00  0.00     0.124 S 
ATOM    103  O   UNL A   1      43.573  38.150  26.744  1.00  0.00    -0.237 OA
ATOM    104  O   UNL A   1      45.559  38.886  28.020  1.00  0.00    -0.237 OA
ATOM    105  O   UNL A   1      45.669  36.841  26.645  1.00  0.00    -0.744 OA
ENDBRANCH 101 102
ENDBRANCH  69  94
ENDBRANCH  43  44
ENDBRANCH  36  38
ENDBRANCH  35  36
ENDBRANCH  34  35
ENDBRANCH  33  34
ENDBRANCH  32  33
ENDBRANCH   1  32
TORSDOF 22
ENDMDL
MODEL 2
REMARK VINA RESULT:     -10.3      4.149     11.735
REMARK SMILES Cc1ccc(-c2cc(Cl)cc3c2O[C@H](C(F)(F)F)C(C(=O)OCCOCCOCCOC(=O)c2ccc(-c4c5nc(c(-c6c(F)cc(S(=O)(=O)[O-])cc6F)c6ccc([nH]6)c(-c6c(F)cc(S(=O)(=O)[O-])cc6F)c6nc(c(-c7c(F)cc(S(=O)(=O)[O-])cc7F)c7ccc4[nH]7)C=C6)C=C5)cc2)=C3)cc1F
REMARK SMILES IDX 27 1 26 2 25 3 24 4 23 5 22 6 20 7 21 8 19 9 6 10 7 11 12 12
REMARK SMILES IDX 8 13 11 14 13 15 9 16 10 17 100 18 14 19 5 20 1 21 2 22 3 23
REMARK SMILES IDX 102 24 4 25 101 26 103 27 15 28 16 29 17 30 18 31 28 32
REMARK SMILES IDX 29 33 30 34 31 35 32 36 33 37 34 38 35 39 99 40 36 41 98 42
REMARK SMILES IDX 37 43 38 44 39 45 92 46 40 47 97 48 91 49 93 50 41 51 96 52
REMARK SMILES IDX 90 53 89 54 42 56 76 57 55 58 75 59 56 60 59 61 74 62 94 63
REMARK SMILES IDX 57 64 58 65 73 67 95 68 60 69 43 70 44 71 53 72 45 73 46 74
REMARK SMILES IDX 52 75 54 76 47 77 48 78 49 79 50 80 51 81 77 82 78 83 87 84
REMARK SMILES IDX 79 85 80 86 86 87 88 88 81 89 82 90 83 91 84 92 85 93 61 94
REMARK SMILES IDX 62 95 71 96 63 97 64 98 70 99 72 100 65 101 66 102 67 103
REMARK SMILES IDX 68 104 69 105
REMARK H PARENT 93 55 59 66
REMARK Flexibility Score: inf
ROOT
ATOM      1  C   UNL A   1      38.266  34.590  34.270  1.00  0.00     0.188 C 
ENDROOT
BRANCH   1   2
ATOM      2  C   UNL A   1      36.972  33.431  35.137  1.00  0.00     0.188 C 
BRANCH   2   3
ATOM      3  O   UNL A   1      35.379  32.948  33.940  1.00  0.00    -0.376 OA
BRANCH   3   4
ATOM      4  C   UNL A   1      35.113  33.612  32.250  1.00  0.00     0.202 C 
BRANCH   4   5
ATOM      5  C   UNL A   1      34.700  32.504  30.784  1.00  0.00     0.261 C 
BRANCH   5   6
ATOM      6  O   UNL A   1      35.883  31.755  29.822  1.00  0.00    -0.460 OA
BRANCH   6   7
ATOM      7  C   UNL A   1      37.039  32.210  29.194  1.00  0.00     0.338 C 
ATOM      8  O   UNL A   1      37.196  33.344  28.750  1.00  0.00    -0.246 OA
BRANCH   7   9
ATOM      9  C   UNL A   1      38.234  31.243  29.036  1.00  0.00     0.087 C 
ATOM     10  C   UNL A   1      41.063  28.151  29.783  1.00  0.00     0.026 A 
ATOM     11  C   UNL A   1      40.852  26.860  29.265  1.00  0.00     0.033 A 
ATOM     12  C   UNL A   1      40.207  29.214  29.425  1.00  0.00     0.135 A 
ATOM     13  C   UNL A   1      39.789  26.632  28.405  1.00  0.00     0.042 A 
ATOM     14  C   UNL A   1      39.157  28.985  28.569  1.00  0.00     0.019 A 
ATOM     15  O   UNL A   1      40.459  30.480  29.899  1.00  0.00    -0.475 OA
ATOM     16  Cl  UNL A   1      39.506  25.049  27.789  1.00  0.00    -0.084 Cl
ATOM     17  C   UNL A   1      38.942  27.686  28.059  1.00  0.00     0.032 A 
ATOM     18  C   UNL A   1      38.285  30.120  28.282  1.00  0.00     0.027 C 
ATOM     19  C   UNL A   1      39.360  31.442  30.004  1.00  0.00     0.316 C 
BRANCH  10  20
ATOM     20  C   UNL A   1      42.132  28.406  30.737  1.00  0.00    -0.012 A 
ATOM     21  C   UNL A   1      45.470  29.845  32.997  1.00  0.00     0.047 C 
ATOM     22  C   UNL A   1      44.304  29.274  32.262  1.00  0.00    -0.015 A 
ATOM     23  C   UNL A   1      44.440  28.170  31.411  1.00  0.00     0.007 A 
ATOM     24  C   UNL A   1      43.060  29.891  32.387  1.00  0.00     0.126 A 
ATOM     25  C   UNL A   1      43.357  27.736  30.651  1.00  0.00     0.009 A 
ATOM     26  C   UNL A   1      41.975  29.453  31.655  1.00  0.00     0.048 A 
ATOM     27  F   UNL A   1      42.913  30.959  33.183  1.00  0.00    -0.207 F 
ENDBRANCH  10  20
BRANCH  19  28
ATOM     28  C   UNL A   1      38.882  31.519  31.448  1.00  0.00     0.430 C 
ATOM     29  F   UNL A   1      39.924  31.431  32.306  1.00  0.00    -0.167 F 
ATOM     30  F   UNL A   1      38.276  32.701  31.704  1.00  0.00    -0.167 F 
ATOM     31  F   UNL A   1      38.018  30.526  31.756  1.00  0.00    -0.167 F 
ENDBRANCH  19  28
ENDBRANCH   7   9
ENDBRANCH   6   7
ENDBRANCH   5   6
ENDBRANCH   4   5
ENDBRANCH   3   4
ENDBRANCH   2   3
ENDBRANCH   1   2
BRANCH   1  32
ATOM     32  O   UNL A   1      39.916  33.943  34.095  1.00  0.00    -0.376 OA
BRANCH  32  33
ATOM     33  C   UNL A   1      41.266  34.614  33.145  1.00  0.00     0.202 C 
BRANCH  33  34
ATOM     34  C   UNL A   1      42.142  33.888  31.619  1.00  0.00     0.261 C 
BRANCH  34  35
ATOM     35  O   UNL A   1      42.632  34.609  30.067  1.00  0.00    -0.460 OA
BRANCH  35  36
ATOM     36  C   UNL A   1      43.102  34.365  28.677  1.00  0.00     0.338 C 
ATOM     37  O   UNL A   1      42.759  35.115  27.758  1.00  0.00    -0.246 OA
BRANCH  36  38
ATOM     38  C   UNL A   1      43.678  32.957  28.168  1.00  0.00     0.060 A 
ATOM     39  C   UNL A   1      43.488  31.787  28.916  1.00  0.00     0.016 A 
ATOM     40  C   UNL A   1      44.383  32.730  26.964  1.00  0.00     0.016 A 
ATOM     41  C   UNL A   1      44.296  30.633  28.700  1.00  0.00     0.010 A 
ATOM     42  C   UNL A   1      45.251  31.637  26.770  1.00  0.00     0.010 A 
ATOM     43  C   UNL A   1      45.291  30.620  27.711  1.00  0.00    -0.014 A 
BRANCH  43  44
ATOM     44  C   UNL A   1      46.263  29.519  27.534  1.00  0.00     0.031 A 
ATOM     45  C   UNL A   1      45.632  28.202  27.580  1.00  0.00     0.074 A 
ATOM     46  C   UNL A   1      47.603  29.693  27.375  1.00  0.00     0.049 A 
ATOM     47  N   UNL A   1      45.996  27.226  28.326  1.00  0.00    -0.248 NA
ATOM     48  C   UNL A   1      44.391  27.936  26.844  1.00  0.00     0.031 C 
ATOM     49  C   UNL A   1      48.787  28.852  27.212  1.00  0.00     0.029 A 
ATOM     50  N   UNL A   1      48.254  30.893  27.476  1.00  0.00    -0.354 N 
ATOM     51  C   UNL A   1      45.395  26.129  27.748  1.00  0.00     0.074 A 
ATOM     52  C   UNL A   1      44.216  26.636  27.095  1.00  0.00     0.031 C 
ATOM     53  C   UNL A   1      49.858  29.473  27.786  1.00  0.00     0.029 A 
ATOM     54  C   UNL A   1      49.375  30.756  28.267  1.00  0.00     0.049 A 
ATOM     55  H   UNL A   1      47.965  31.730  27.046  1.00  0.00     0.167 HD
ATOM     56  C   UNL A   1      46.156  25.024  27.501  1.00  0.00     0.037 A 
ATOM     57  C   UNL A   1      49.371  31.440  29.430  1.00  0.00     0.037 A 
ATOM     58  C   UNL A   1      47.545  25.291  27.883  1.00  0.00     0.049 A 
ATOM     59  C   UNL A   1      49.470  30.307  30.406  1.00  0.00     0.074 A 
ATOM     60  C   UNL A   1      48.692  25.547  27.150  1.00  0.00     0.029 A 
ATOM     61  N   UNL A   1      47.823  25.700  29.183  1.00  0.00    -0.354 N 
ATOM     62  N   UNL A   1      48.800  29.180  30.283  1.00  0.00    -0.248 NA
ATOM     63  C   UNL A   1      50.670  30.184  31.240  1.00  0.00     0.031 C 
ATOM     64  C   UNL A   1      49.660  26.109  28.031  1.00  0.00     0.029 A 
ATOM     65  C   UNL A   1      49.045  26.337  29.256  1.00  0.00     0.049 A 
ATOM     66  H   UNL A   1      47.225  25.553  29.951  1.00  0.00     0.167 HD
ATOM     67  C   UNL A   1      49.592  28.171  30.794  1.00  0.00     0.074 A 
ATOM     68  C   UNL A   1      50.723  28.856  31.414  1.00  0.00     0.031 C 
ATOM     69  C   UNL A   1      49.517  26.828  30.537  1.00  0.00     0.037 A 
BRANCH  56  70
ATOM     70  C   UNL A   1      45.730  23.854  26.643  1.00  0.00     0.058 A 
ATOM     71  C   UNL A   1      46.355  23.600  25.402  1.00  0.00     0.135 A 
ATOM     72  C   UNL A   1      44.775  22.890  27.030  1.00  0.00     0.135 A 
ATOM     73  F   UNL A   1      47.300  24.405  24.903  1.00  0.00    -0.206 F 
ATOM     74  C   UNL A   1      46.069  22.488  24.616  1.00  0.00     0.059 A 
ATOM     75  C   UNL A   1      44.442  21.784  26.239  1.00  0.00     0.059 A 
ATOM     76  F   UNL A   1      44.175  22.941  28.227  1.00  0.00    -0.206 F 
ATOM     77  C   UNL A   1      45.120  21.576  25.046  1.00  0.00     0.060 A 
BRANCH  77  78
ATOM     78  S   UNL A   1      44.871  20.086  24.068  1.00  0.00     0.124 S 
ATOM     79  O   UNL A   1      43.753  19.448  24.756  1.00  0.00    -0.237 OA
ATOM     80  O   UNL A   1      44.570  20.640  22.751  1.00  0.00    -0.237 OA
ATOM     81  O   UNL A   1      46.149  19.389  24.176  1.00  0.00    -0.744 OA
ENDBRANCH  77  78
ENDBRANCH  56  70
BRANCH  57  82
ATOM     82  C   UNL A   1      48.532  32.691  29.175  1.00  0.00     0.058 A 
ATOM     83  C   UNL A   1      47.168  32.799  30.252  1.00  0.00     0.135 A 
ATOM     84  C   UNL A   1      48.941  34.036  28.326  1.00  0.00     0.135 A 
ATOM     85  F   UNL A   1      46.772  31.562  30.579  1.00  0.00    -0.206 F 
ATOM     86  C   UNL A   1      46.153  34.405  30.465  1.00  0.00     0.059 A 
ATOM     87  C   UNL A   1      48.173  35.594  28.478  1.00  0.00     0.059 A 
ATOM     88  F   UNL A   1      49.930  33.945  27.419  1.00  0.00    -0.206 F 
ATOM     89  C   UNL A   1      46.862  35.973  29.622  1.00  0.00     0.060 A 
BRANCH  89  90
ATOM     90  S   UNL A   1      46.692  38.123  30.635  1.00  0.00     0.124 S 
ATOM     91  O   UNL A   1      45.680  39.003  30.022  1.00  0.00    -0.237 OA
ATOM     92  O   UNL A   1      46.357  37.857  32.013  1.00  0.00    -0.237 OA
ATOM     93  O   UNL A   1      47.931  38.876  30.481  1.00  0.00    -0.744 OA
ENDBRANCH  89  90
ENDBRANCH  57  82
BRANCH  69  94
ATOM     94  C   UNL A   1      49.880  25.809  31.586  1.00  0.00     0.058 A 
ATOM     95  C   UNL A   1      48.977  25.389  32.574  1.00  0.00     0.135 A 
ATOM     96  C   UNL A   1      51.076  25.052  31.479  1.00  0.00     0.135 A 
ATOM     97  F   UNL A   1      47.761  25.933  32.714  1.00  0.00    -0.206 F 
ATOM     98  C   UNL A   1      49.261  24.346  33.437  1.00  0.00     0.059 A 
ATOM     99  C   UNL A   1      51.335  23.946  32.272  1.00  0.00     0.059 A 
ATOM    100  F   UNL A   1      52.024  25.330  30.572  1.00  0.00    -0.206 F 
ATOM    101  C   UNL A   1      50.433  23.622  33.269  1.00  0.00     0.060 A 
BRANCH 101 102
ATOM    102  S   UNL A   1      50.731  22.234  34.359  1.00  0.00     0.124 S 
ATOM    103  O   UNL A   1      50.585  21.115  33.434  1.00  0.00    -0.237 OA
ATOM    104  O   UNL A   1      52.090  22.495  34.828  1.00  0.00    -0.237 OA
ATOM    105  O   UNL A   1      49.687  22.365  35.369  1.00  0.00    -0.744 OA
ENDBRANCH 101 102
ENDBRANCH  69  94
ENDBRANCH  43  44
ENDBRANCH  36  38
ENDBRANCH  35  36
ENDBRANCH  34  35
ENDBRANCH  33  34
ENDBRANCH  32  33
ENDBRANCH   1  32
TORSDOF 22
ENDMDL
MODEL 3
REMARK VINA RESULT:     -10.3      7.801     13.960
REMARK SMILES Cc1ccc(-c2cc(Cl)cc3c2O[C@H](C(F)(F)F)C(C(=O)OCCOCCOCCOC(=O)c2ccc(-c4c5nc(c(-c6c(F)cc(S(=O)(=O)[O-])cc6F)c6ccc([nH]6)c(-c6c(F)cc(S(=O)(=O)[O-])cc6F)c6nc(c(-c7c(F)cc(S(=O)(=O)[O-])cc7F)c7ccc4[nH]7)C=C6)C=C5)cc2)=C3)cc1F
REMARK SMILES IDX 27 1 26 2 25 3 24 4 23 5 22 6 20 7 21 8 19 9 6 10 7 11 12 12
REMARK SMILES IDX 8 13 11 14 13 15 9 16 10 17 100 18 14 19 5 20 1 21 2 22 3 23
REMARK SMILES IDX 102 24 4 25 101 26 103 27 15 28 16 29 17 30 18 31 28 32
REMARK SMILES IDX 29 33 30 34 31 35 32 36 33 37 34 38 35 39 99 40 36 41 98 42
REMARK SMILES IDX 37 43 38 44 39 45 92 46 40 47 97 48 91 49 93 50 41 51 96 52
REMARK SMILES IDX 90 53 89 54 42 56 76 57 55 58 75 59 56 60 59 61 74 62 94 63
REMARK SMILES IDX 57 64 58 65 73 67 95 68 60 69 43 70 44 71 53 72 45 73 46 74
REMARK SMILES IDX 52 75 54 76 47 77 48 78 49 79 50 80 51 81 77 82 78 83 87 84
REMARK SMILES IDX 79 85 80 86 86 87 88 88 81 89 82 90 83 91 84 92 85 93 61 94
REMARK SMILES IDX 62 95 71 96 63 97 64 98 70 99 72 100 65 101 66 102 67 103
REMARK SMILES IDX 68 104 69 105
REMARK H PARENT 93 55 59 66
REMARK Flexibility Score: inf
ROOT
ATOM      1  C   UNL A   1      39.572  23.672  26.475  1.00  0.00     0.188 C 
ENDROOT
BRANCH   1   2
ATOM      2  C   UNL A   1      37.709  23.684  25.931  1.00  0.00     0.188 C 
BRANCH   2   3
ATOM      3  O   UNL A   1      37.291  22.361  24.423  1.00  0.00    -0.376 OA
BRANCH   3   4
ATOM      4  C   UNL A   1      37.024  20.562  24.665  1.00  0.00     0.202 C 
BRANCH   4   5
ATOM      5  C   UNL A   1      35.313  19.823  24.937  1.00  0.00     0.261 C 
BRANCH   5   6
ATOM      6  O   UNL A   1      34.009  20.706  25.576  1.00  0.00    -0.460 OA
BRANCH   6   7
ATOM      7  C   UNL A   1      32.685  20.882  25.184  1.00  0.00     0.338 C 
ATOM      8  O   UNL A   1      31.799  20.041  25.311  1.00  0.00    -0.246 OA
BRANCH   7   9
ATOM      9  C   UNL A   1      32.266  22.225  24.547  1.00  0.00     0.087 C 
ATOM     10  C   UNL A   1      32.413  26.180  22.976  1.00  0.00     0.026 A 
ATOM     11  C   UNL A   1      32.599  26.386  21.597  1.00  0.00     0.033 A 
ATOM     12  C   UNL A   1      32.222  24.877  23.486  1.00  0.00     0.135 A 
ATOM     13  C   UNL A   1      32.604  25.299  20.737  1.00  0.00     0.042 A 
ATOM     14  C   UNL A   1      32.224  23.804  22.630  1.00  0.00     0.019 A 
ATOM     15  O   UNL A   1      31.989  24.700  24.829  1.00  0.00    -0.475 OA
ATOM     16  Cl  UNL A   1      32.860  25.539  19.051  1.00  0.00    -0.084 Cl
ATOM     17  C   UNL A   1      32.420  24.013  21.246  1.00  0.00     0.032 A 
ATOM     18  C   UNL A   1      32.070  22.484  23.232  1.00  0.00     0.027 C 
ATOM     19  C   UNL A   1      32.318  23.417  25.453  1.00  0.00     0.316 C 
BRANCH  10  20
ATOM     20  C   UNL A   1      32.466  27.294  23.911  1.00  0.00    -0.012 A 
ATOM     21  C   UNL A   1      32.466  29.938  27.278  1.00  0.00     0.047 C 
ATOM     22  C   UNL A   1      32.470  29.086  26.053  1.00  0.00    -0.015 A 
ATOM     23  C   UNL A   1      31.342  28.979  25.229  1.00  0.00     0.007 A 
ATOM     24  C   UNL A   1      33.607  28.338  25.753  1.00  0.00     0.126 A 
ATOM     25  C   UNL A   1      31.340  28.086  24.159  1.00  0.00     0.009 A 
ATOM     26  C   UNL A   1      33.622  27.468  24.682  1.00  0.00     0.048 A 
ATOM     27  F   UNL A   1      34.690  28.413  26.539  1.00  0.00    -0.207 F 
ENDBRANCH  10  20
BRANCH  19  28
ATOM     28  C   UNL A   1      33.646  23.530  26.191  1.00  0.00     0.430 C 
ATOM     29  F   UNL A   1      34.660  23.047  25.436  1.00  0.00    -0.167 F 
ATOM     30  F   UNL A   1      33.952  24.820  26.460  1.00  0.00    -0.167 F 
ATOM     31  F   UNL A   1      33.645  22.845  27.356  1.00  0.00    -0.167 F 
ENDBRANCH  19  28
ENDBRANCH   7   9
ENDBRANCH   6   7
ENDBRANCH   5   6
ENDBRANCH   4   5
ENDBRANCH   3   4
ENDBRANCH   2   3
ENDBRANCH   1   2
BRANCH   1  32
ATOM     32  O   UNL A   1      40.028  22.478  27.716  1.00  0.00    -0.376 OA
BRANCH  32  33
ATOM     33  C   UNL A   1      41.655  21.868  28.112  1.00  0.00     0.202 C 
BRANCH  33  34
ATOM     34  C   UNL A   1      43.198  22.831  28.672  1.00  0.00     0.261 C 
BRANCH  34  35
ATOM     35  O   UNL A   1      43.517  24.573  28.861  1.00  0.00    -0.460 OA
BRANCH  35  36
ATOM     36  C   UNL A   1      43.515  25.912  28.216  1.00  0.00     0.338 C 
ATOM     37  O   UNL A   1      42.461  26.541  28.079  1.00  0.00    -0.246 OA
BRANCH  36  38
ATOM     38  C   UNL A   1      44.703  26.451  27.283  1.00  0.00     0.060 A 
ATOM     39  C   UNL A   1      45.610  25.565  26.686  1.00  0.00     0.016 A 
ATOM     40  C   UNL A   1      44.954  27.802  26.947  1.00  0.00     0.016 A 
ATOM     41  C   UNL A   1      46.868  26.018  26.190  1.00  0.00     0.010 A 
ATOM     42  C   UNL A   1      46.216  28.275  26.537  1.00  0.00     0.010 A 
ATOM     43  C   UNL A   1      47.228  27.372  26.260  1.00  0.00    -0.014 A 
BRANCH  43  44
ATOM     44  C   UNL A   1      48.570  27.886  25.907  1.00  0.00     0.031 A 
ATOM     45  C   UNL A   1      48.997  27.470  24.574  1.00  0.00     0.074 A 
ATOM     46  C   UNL A   1      49.348  28.638  26.733  1.00  0.00     0.049 A 
ATOM     47  N   UNL A   1      50.108  26.898  24.289  1.00  0.00    -0.248 NA
ATOM     48  C   UNL A   1      48.082  27.553  23.430  1.00  0.00     0.031 C 
ATOM     49  C   UNL A   1      50.673  29.253  26.700  1.00  0.00     0.029 A 
ATOM     50  N   UNL A   1      49.055  28.924  28.039  1.00  0.00    -0.354 N 
ATOM     51  C   UNL A   1      50.227  27.067  22.928  1.00  0.00     0.074 A 
ATOM     52  C   UNL A   1      48.878  27.159  22.433  1.00  0.00     0.031 C 
ATOM     53  C   UNL A   1      51.191  29.263  27.962  1.00  0.00     0.029 A 
ATOM     54  C   UNL A   1      50.164  28.710  28.828  1.00  0.00     0.049 A 
ATOM     55  H   UNL A   1      48.181  29.237  28.366  1.00  0.00     0.167 HD
ATOM     56  C   UNL A   1      51.403  27.550  22.431  1.00  0.00     0.037 A 
ATOM     57  C   UNL A   1      50.066  27.719  29.740  1.00  0.00     0.037 A 
ATOM     58  C   UNL A   1      52.316  27.848  23.538  1.00  0.00     0.049 A 
ATOM     59  C   UNL A   1      51.162  26.812  29.267  1.00  0.00     0.074 A 
ATOM     60  C   UNL A   1      52.732  29.033  24.122  1.00  0.00     0.029 A 
ATOM     61  N   UNL A   1      52.633  26.842  24.444  1.00  0.00    -0.354 N 
ATOM     62  N   UNL A   1      51.388  26.543  27.998  1.00  0.00    -0.248 NA
ATOM     63  C   UNL A   1      52.331  26.596  30.126  1.00  0.00     0.031 C 
ATOM     64  C   UNL A   1      53.308  28.718  25.387  1.00  0.00     0.029 A 
ATOM     65  C   UNL A   1      53.096  27.367  25.632  1.00  0.00     0.049 A 
ATOM     66  H   UNL A   1      52.540  25.879  24.259  1.00  0.00     0.167 HD
ATOM     67  C   UNL A   1      52.749  26.370  27.848  1.00  0.00     0.074 A 
ATOM     68  C   UNL A   1      53.281  26.371  29.208  1.00  0.00     0.031 C 
ATOM     69  C   UNL A   1      53.491  26.471  26.702  1.00  0.00     0.037 A 
BRANCH  56  70
ATOM     70  C   UNL A   1      51.607  28.042  21.016  1.00  0.00     0.058 A 
ATOM     71  C   UNL A   1      51.544  29.420  20.712  1.00  0.00     0.135 A 
ATOM     72  C   UNL A   1      51.962  27.214  19.929  1.00  0.00     0.135 A 
ATOM     73  F   UNL A   1      51.244  30.340  21.636  1.00  0.00    -0.206 F 
ATOM     74  C   UNL A   1      51.815  29.937  19.449  1.00  0.00     0.059 A 
ATOM     75  C   UNL A   1      52.202  27.706  18.641  1.00  0.00     0.059 A 
ATOM     76  F   UNL A   1      52.162  25.899  20.088  1.00  0.00    -0.206 F 
ATOM     77  C   UNL A   1      52.156  29.075  18.419  1.00  0.00     0.060 A 
BRANCH  77  78
ATOM     78  S   UNL A   1      52.626  29.790  16.835  1.00  0.00     0.124 S 
ATOM     79  O   UNL A   1      54.001  29.326  16.683  1.00  0.00    -0.237 OA
ATOM     80  O   UNL A   1      51.649  29.186  15.934  1.00  0.00    -0.237 OA
ATOM     81  O   UNL A   1      52.473  31.226  17.050  1.00  0.00    -0.744 OA
ENDBRANCH  77  78
ENDBRANCH  56  70
BRANCH  57  82
ATOM     82  C   UNL A   1      48.590  27.659  30.132  1.00  0.00     0.058 A 
ATOM     83  C   UNL A   1      47.897  26.087  29.853  1.00  0.00     0.135 A 
ATOM     84  C   UNL A   1      47.743  28.711  31.068  1.00  0.00     0.135 A 
ATOM     85  F   UNL A   1      48.525  25.511  28.819  1.00  0.00    -0.206 F 
ATOM     86  C   UNL A   1      46.211  25.563  30.586  1.00  0.00     0.059 A 
ATOM     87  C   UNL A   1      46.241  28.351  31.878  1.00  0.00     0.059 A 
ATOM     88  F   UNL A   1      48.216  29.961  31.216  1.00  0.00    -0.206 F 
ATOM     89  C   UNL A   1      45.429  26.766  31.856  1.00  0.00     0.060 A 
BRANCH  89  90
ATOM     90  S   UNL A   1      44.221  25.973  33.751  1.00  0.00     0.124 S 
ATOM     91  O   UNL A   1      43.800  24.564  33.653  1.00  0.00    -0.237 OA
ATOM     92  O   UNL A   1      45.121  26.153  34.865  1.00  0.00    -0.237 OA
ATOM     93  O   UNL A   1      42.962  26.692  33.910  1.00  0.00    -0.744 OA
ENDBRANCH  89  90
ENDBRANCH  57  82
BRANCH  69  94
ATOM     94  C   UNL A   1      54.720  25.625  26.489  1.00  0.00     0.058 A 
ATOM     95  C   UNL A   1      54.661  24.330  25.952  1.00  0.00     0.135 A 
ATOM     96  C   UNL A   1      56.017  26.190  26.600  1.00  0.00     0.135 A 
ATOM     97  F   UNL A   1      53.501  23.718  25.680  1.00  0.00    -0.206 F 
ATOM     98  C   UNL A   1      55.798  23.619  25.615  1.00  0.00     0.059 A 
ATOM     99  C   UNL A   1      57.160  25.529  26.180  1.00  0.00     0.059 A 
ATOM    100  F   UNL A   1      56.226  27.424  27.083  1.00  0.00    -0.206 F 
ATOM    101  C   UNL A   1      57.040  24.230  25.718  1.00  0.00     0.060 A 
BRANCH 101 102
ATOM    102  S   UNL A   1      58.482  23.303  25.205  1.00  0.00     0.124 S 
ATOM    103  O   UNL A   1      58.372  23.395  23.752  1.00  0.00    -0.237 OA
ATOM    104  O   UNL A   1      59.572  24.067  25.807  1.00  0.00    -0.237 OA
ATOM    105  O   UNL A   1      58.258  21.980  25.777  1.00  0.00    -0.744 OA
ENDBRANCH 101 102
ENDBRANCH  69  94
ENDBRANCH  43  44
ENDBRANCH  36  38
ENDBRANCH  35  36
ENDBRANCH  34  35
ENDBRANCH  33  34
ENDBRANCH  32  33
ENDBRANCH   1  32
TORSDOF 22
ENDMDL
