MODEL 1
REMARK VINA RESULT:      -8.7      0.000      0.000
REMARK SMILES C[C@H]1[C@@H](C(=O)OCCOCCOCCOC(=O)c2ccc(-c3c4nc(c(-c5c(F)cc(S(=O)(=O)[O-])cc5F)c5ccc([nH]5)c(-c5c(F)cc(S(=O)(=O)[O-])cc5F)c5nc(c(-c6c(F)cc(S(=O)(=O)[O-])cc6F)c6ccc3[nH]6)C=C5)C=C4)cc2)CCN1C(=O)c1cc([N+](=O)[O-])ccc1Br
REMARK SMILES IDX 10 1 9 2 8 3 7 4 6 5 4 6 5 7 3 8 1 9 2 10 86 11 84 12 85 13
REMARK SMILES IDX 87 14 88 15 89 16 90 17 97 18 91 19 96 20 98 21 95 22 92 23
REMARK SMILES IDX 93 24 94 25 11 26 12 27 13 28 14 29 15 30 16 31 17 32 18 33
REMARK SMILES IDX 19 34 83 35 20 36 82 37 21 38 22 39 23 40 76 41 24 42 81 43
REMARK SMILES IDX 75 44 77 45 25 46 80 47 74 48 73 49 26 51 60 52 39 53 59 54
REMARK SMILES IDX 40 55 43 56 58 57 78 58 41 59 42 60 57 62 79 63 44 64 27 65
REMARK SMILES IDX 28 66 37 67 29 68 30 69 36 70 38 71 31 72 32 73 33 74 34 75
REMARK SMILES IDX 35 76 61 77 62 78 71 79 63 80 64 81 70 82 72 83 65 84 66 85
REMARK SMILES IDX 67 86 68 87 69 88 45 89 46 90 55 91 47 92 48 93 54 94 56 95
REMARK SMILES IDX 49 96 50 97 51 98 52 99 53 100
REMARK H PARENT 77 50 43 61
REMARK Flexibility Score: inf
ROOT
ATOM      1  C   UNL A   1      48.201  20.274  39.218  1.00  0.00     0.188 C 
ENDROOT
BRANCH   1   2
ATOM      2  O   UNL A   1      48.336  19.685  40.498  1.00  0.00    -0.376 OA
BRANCH   2   3
ATOM      3  C   UNL A   1      47.249  18.951  41.037  1.00  0.00     0.202 C 
BRANCH   3   4
ATOM      4  C   UNL A   1      46.648  17.799  40.226  1.00  0.00     0.261 C 
BRANCH   4   5
ATOM      5  O   UNL A   1      45.213  17.879  40.097  1.00  0.00    -0.463 OA
BRANCH   5   6
ATOM      6  C   UNL A   1      44.495  17.813  41.241  1.00  0.00     0.311 C 
ATOM      7  O   UNL A   1      43.719  18.690  41.609  1.00  0.00    -0.252 OA
BRANCH   6   8
ATOM      8  C   UNL A   1      44.644  16.525  42.039  1.00  0.00     0.123 C 
ATOM      9  C   UNL A   1      42.261  15.634  41.360  1.00  0.00     0.032 C 
ATOM     10  C   UNL A   1      43.570  15.422  42.112  1.00  0.00     0.096 C 
ATOM     11  N   UNL A   1      43.393  15.129  43.547  1.00  0.00    -0.335 N 
ATOM     12  C   UNL A   1      45.073  16.813  43.485  1.00  0.00     0.039 C 
ATOM     13  C   UNL A   1      44.146  16.026  44.391  1.00  0.00     0.121 C 
BRANCH  11  14
ATOM     14  C   UNL A   1      42.699  14.101  44.174  1.00  0.00     0.255 C 
ATOM     15  O   UNL A   1      41.709  14.282  44.877  1.00  0.00    -0.269 OA
BRANCH  14  16
ATOM     16  C   UNL A   1      43.151  12.710  44.008  1.00  0.00     0.061 A 
ATOM     17  C   UNL A   1      44.419  12.380  44.514  1.00  0.00     0.100 A 
ATOM     18  C   UNL A   1      42.398  11.760  43.305  1.00  0.00     0.031 A 
ATOM     19  C   UNL A   1      44.881  11.065  44.388  1.00  0.00     0.270 A 
ATOM     20  C   UNL A   1      42.842  10.438  43.242  1.00  0.00     0.023 A 
ATOM     21  Br  UNL A   1      40.843  12.199  42.302  1.00  0.00    -0.050 Br
ATOM     22  C   UNL A   1      44.077  10.083  43.792  1.00  0.00     0.087 A 
BRANCH  19  23
ATOM     23  N   UNL A   1      46.225  10.707  44.859  1.00  0.00     0.062 N 
ATOM     24  O   UNL A   1      47.102  10.497  44.012  1.00  0.00    -0.258 OA
ATOM     25  O   UNL A   1      46.401  10.634  46.085  1.00  0.00    -0.258 OA
ENDBRANCH  19  23
ENDBRANCH  14  16
ENDBRANCH  11  14
ENDBRANCH   6   8
ENDBRANCH   5   6
ENDBRANCH   4   5
ENDBRANCH   3   4
ENDBRANCH   2   3
ENDBRANCH   1   2
BRANCH   1  26
ATOM     26  C   UNL A   1      49.456  20.556  38.372  1.00  0.00     0.188 C 
BRANCH  26  27
ATOM     27  O   UNL A   1      49.934  21.865  38.153  1.00  0.00    -0.376 OA
BRANCH  27  28
ATOM     28  C   UNL A   1      51.223  22.066  37.604  1.00  0.00     0.202 C 
BRANCH  28  29
ATOM     29  C   UNL A   1      51.424  22.582  36.174  1.00  0.00     0.261 C 
BRANCH  29  30
ATOM     30  O   UNL A   1      50.404  23.453  35.675  1.00  0.00    -0.460 OA
BRANCH  30  31
ATOM     31  C   UNL A   1      50.588  24.770  35.944  1.00  0.00     0.338 C 
ATOM     32  O   UNL A   1      51.581  25.296  36.428  1.00  0.00    -0.246 OA
BRANCH  31  33
ATOM     33  C   UNL A   1      49.453  25.527  35.396  1.00  0.00     0.060 A 
ATOM     34  C   UNL A   1      48.144  25.093  35.655  1.00  0.00     0.016 A 
ATOM     35  C   UNL A   1      49.686  26.645  34.599  1.00  0.00     0.016 A 
ATOM     36  C   UNL A   1      47.057  25.781  35.115  1.00  0.00     0.010 A 
ATOM     37  C   UNL A   1      48.602  27.313  34.033  1.00  0.00     0.010 A 
ATOM     38  C   UNL A   1      47.286  26.873  34.273  1.00  0.00    -0.014 A 
BRANCH  38  39
ATOM     39  C   UNL A   1      46.191  27.465  33.470  1.00  0.00     0.031 A 
ATOM     40  C   UNL A   1      45.446  28.631  34.054  1.00  0.00     0.074 A 
ATOM     41  C   UNL A   1      45.825  26.938  32.289  1.00  0.00     0.049 A 
ATOM     42  N   UNL A   1      44.311  29.159  33.685  1.00  0.00    -0.248 NA
ATOM     43  C   UNL A   1      46.064  29.276  35.224  1.00  0.00     0.031 C 
ATOM     44  C   UNL A   1      46.518  25.858  31.591  1.00  0.00     0.029 A 
ATOM     45  N   UNL A   1      44.747  27.222  31.487  1.00  0.00    -0.354 N 
ATOM     46  C   UNL A   1      44.058  30.175  34.598  1.00  0.00     0.074 A 
ATOM     47  C   UNL A   1      45.154  30.186  35.541  1.00  0.00     0.031 C 
ATOM     48  C   UNL A   1      45.827  25.544  30.481  1.00  0.00     0.029 A 
ATOM     49  C   UNL A   1      44.614  26.359  30.424  1.00  0.00     0.049 A 
ATOM     50  H   UNL A   1      44.129  27.970  31.657  1.00  0.00     0.167 HD
ATOM     51  C   UNL A   1      42.999  31.016  34.643  1.00  0.00     0.037 A 
ATOM     52  C   UNL A   1      43.603  26.211  29.545  1.00  0.00     0.037 A 
ATOM     53  C   UNL A   1      41.917  30.987  33.696  1.00  0.00     0.049 A 
ATOM     54  C   UNL A   1      42.388  27.100  29.665  1.00  0.00     0.074 A 
ATOM     55  C   UNL A   1      40.796  31.796  33.647  1.00  0.00     0.029 A 
ATOM     56  N   UNL A   1      41.818  30.099  32.634  1.00  0.00    -0.354 N 
ATOM     57  N   UNL A   1      42.144  28.051  30.537  1.00  0.00    -0.248 NA
ATOM     58  C   UNL A   1      41.305  26.892  28.692  1.00  0.00     0.031 C 
ATOM     59  C   UNL A   1      39.991  31.357  32.593  1.00  0.00     0.029 A 
ATOM     60  C   UNL A   1      40.644  30.324  31.939  1.00  0.00     0.049 A 
ATOM     61  H   UNL A   1      42.485  29.410  32.411  1.00  0.00     0.167 HD
ATOM     62  C   UNL A   1      40.906  28.583  30.188  1.00  0.00     0.074 A 
ATOM     63  C   UNL A   1      40.445  27.843  29.033  1.00  0.00     0.031 C 
ATOM     64  C   UNL A   1      40.219  29.598  30.766  1.00  0.00     0.037 A 
BRANCH  51  65
ATOM     65  C   UNL A   1      42.935  32.000  35.778  1.00  0.00     0.058 A 
ATOM     66  C   UNL A   1      43.523  33.272  35.695  1.00  0.00     0.135 A 
ATOM     67  C   UNL A   1      42.245  31.675  36.958  1.00  0.00     0.135 A 
ATOM     68  F   UNL A   1      44.213  33.629  34.600  1.00  0.00    -0.206 F 
ATOM     69  C   UNL A   1      43.452  34.176  36.750  1.00  0.00     0.059 A 
ATOM     70  C   UNL A   1      42.134  32.575  38.012  1.00  0.00     0.059 A 
ATOM     71  F   UNL A   1      41.669  30.470  37.092  1.00  0.00    -0.206 F 
ATOM     72  C   UNL A   1      42.751  33.818  37.904  1.00  0.00     0.060 A 
BRANCH  72  73
ATOM     73  S   UNL A   1      42.660  35.007  39.260  1.00  0.00     0.124 S 
ATOM     74  O   UNL A   1      42.198  36.205  38.566  1.00  0.00    -0.237 OA
ATOM     75  O   UNL A   1      41.693  34.381  40.157  1.00  0.00    -0.237 OA
ATOM     76  O   UNL A   1      44.030  35.061  39.759  1.00  0.00    -0.744 OA
ENDBRANCH  72  73
ENDBRANCH  51  65
BRANCH  52  77
ATOM     77  C   UNL A   1      43.675  25.160  28.492  1.00  0.00     0.058 A 
ATOM     78  C   UNL A   1      43.203  23.861  28.735  1.00  0.00     0.135 A 
ATOM     79  C   UNL A   1      44.218  25.429  27.226  1.00  0.00     0.135 A 
ATOM     80  F   UNL A   1      42.688  23.548  29.933  1.00  0.00    -0.206 F 
ATOM     81  C   UNL A   1      43.276  22.864  27.767  1.00  0.00     0.059 A 
ATOM     82  C   UNL A   1      44.276  24.457  26.231  1.00  0.00     0.059 A 
ATOM     83  F   UNL A   1      44.680  26.656  26.938  1.00  0.00    -0.206 F 
ATOM     84  C   UNL A   1      43.811  23.173  26.515  1.00  0.00     0.060 A 
BRANCH  84  85
ATOM     85  S   UNL A   1      43.859  21.883  25.253  1.00  0.00     0.124 S 
ATOM     86  O   UNL A   1      42.764  21.016  25.677  1.00  0.00    -0.237 OA
ATOM     87  O   UNL A   1      43.632  22.645  24.029  1.00  0.00    -0.237 OA
ATOM     88  O   UNL A   1      45.199  21.323  25.394  1.00  0.00    -0.744 OA
ENDBRANCH  84  85
ENDBRANCH  52  77
BRANCH  64  89
ATOM     89  C   UNL A   1      38.928  30.040  30.130  1.00  0.00     0.058 A 
ATOM     90  C   UNL A   1      37.719  29.366  30.350  1.00  0.00     0.135 A 
ATOM     91  C   UNL A   1      38.890  31.235  29.391  1.00  0.00     0.135 A 
ATOM     92  F   UNL A   1      37.701  28.216  31.041  1.00  0.00    -0.206 F 
ATOM     93  C   UNL A   1      36.514  29.865  29.865  1.00  0.00     0.059 A 
ATOM     94  C   UNL A   1      37.693  31.767  28.922  1.00  0.00     0.059 A 
ATOM     95  F   UNL A   1      40.020  31.923  29.159  1.00  0.00    -0.206 F 
ATOM     96  C   UNL A   1      36.509  31.075  29.165  1.00  0.00     0.060 A 
BRANCH  96  97
ATOM     97  S   UNL A   1      34.926  31.757  28.626  1.00  0.00     0.124 S 
ATOM     98  O   UNL A   1      35.356  32.835  27.742  1.00  0.00    -0.237 OA
ATOM     99  O   UNL A   1      34.300  30.611  27.973  1.00  0.00    -0.237 OA
ATOM    100  O   UNL A   1      34.296  32.182  29.872  1.00  0.00    -0.744 OA
ENDBRANCH  96  97
ENDBRANCH  64  89
ENDBRANCH  38  39
ENDBRANCH  31  33
ENDBRANCH  30  31
ENDBRANCH  29  30
ENDBRANCH  28  29
ENDBRANCH  27  28
ENDBRANCH  26  27
ENDBRANCH   1  26
TORSDOF 23
ENDMDL
MODEL 2
REMARK VINA RESULT:      -8.4      6.287     11.232
REMARK SMILES C[C@H]1[C@@H](C(=O)OCCOCCOCCOC(=O)c2ccc(-c3c4nc(c(-c5c(F)cc(S(=O)(=O)[O-])cc5F)c5ccc([nH]5)c(-c5c(F)cc(S(=O)(=O)[O-])cc5F)c5nc(c(-c6c(F)cc(S(=O)(=O)[O-])cc6F)c6ccc3[nH]6)C=C5)C=C4)cc2)CCN1C(=O)c1cc([N+](=O)[O-])ccc1Br
REMARK SMILES IDX 10 1 9 2 8 3 7 4 6 5 4 6 5 7 3 8 1 9 2 10 86 11 84 12 85 13
REMARK SMILES IDX 87 14 88 15 89 16 90 17 97 18 91 19 96 20 98 21 95 22 92 23
REMARK SMILES IDX 93 24 94 25 11 26 12 27 13 28 14 29 15 30 16 31 17 32 18 33
REMARK SMILES IDX 19 34 83 35 20 36 82 37 21 38 22 39 23 40 76 41 24 42 81 43
REMARK SMILES IDX 75 44 77 45 25 46 80 47 74 48 73 49 26 51 60 52 39 53 59 54
REMARK SMILES IDX 40 55 43 56 58 57 78 58 41 59 42 60 57 62 79 63 44 64 27 65
REMARK SMILES IDX 28 66 37 67 29 68 30 69 36 70 38 71 31 72 32 73 33 74 34 75
REMARK SMILES IDX 35 76 61 77 62 78 71 79 63 80 64 81 70 82 72 83 65 84 66 85
REMARK SMILES IDX 67 86 68 87 69 88 45 89 46 90 55 91 47 92 48 93 54 94 56 95
REMARK SMILES IDX 49 96 50 97 51 98 52 99 53 100
REMARK H PARENT 77 50 43 61
REMARK Flexibility Score: inf
ROOT
ATOM      1  C   UNL A   1      48.736  29.304  40.636  1.00  0.00     0.188 C 
ENDROOT
BRANCH   1   2
ATOM      2  O   UNL A   1      47.782  28.841  41.573  1.00  0.00    -0.376 OA
BRANCH   2   3
ATOM      3  C   UNL A   1      46.441  29.294  41.473  1.00  0.00     0.202 C 
BRANCH   3   4
ATOM      4  C   UNL A   1      45.591  28.857  40.277  1.00  0.00     0.261 C 
BRANCH   4   5
ATOM      5  O   UNL A   1      44.580  27.886  40.619  1.00  0.00    -0.463 OA
BRANCH   5   6
ATOM      6  C   UNL A   1      44.885  26.587  40.397  1.00  0.00     0.311 C 
ATOM      7  O   UNL A   1      44.470  25.663  41.090  1.00  0.00    -0.252 OA
BRANCH   6   8
ATOM      8  C   UNL A   1      45.733  26.313  39.163  1.00  0.00     0.123 C 
ATOM      9  C   UNL A   1      43.713  25.329  37.789  1.00  0.00     0.032 C 
ATOM     10  C   UNL A   1      45.189  25.704  37.856  1.00  0.00     0.096 C 
ATOM     11  N   UNL A   1      46.103  24.596  37.518  1.00  0.00    -0.335 N 
ATOM     12  C   UNL A   1      46.996  25.515  39.522  1.00  0.00     0.039 C 
ATOM     13  C   UNL A   1      47.086  24.358  38.548  1.00  0.00     0.121 C 
BRANCH  11  14
ATOM     14  C   UNL A   1      46.199  23.834  36.360  1.00  0.00     0.255 C 
ATOM     15  O   UNL A   1      46.256  22.607  36.359  1.00  0.00    -0.269 OA
BRANCH  14  16
ATOM     16  C   UNL A   1      46.242  24.503  35.050  1.00  0.00     0.061 A 
ATOM     17  C   UNL A   1      47.298  25.400  34.818  1.00  0.00     0.100 A 
ATOM     18  C   UNL A   1      45.235  24.329  34.091  1.00  0.00     0.031 A 
ATOM     19  C   UNL A   1      47.382  26.047  33.580  1.00  0.00     0.270 A 
ATOM     20  C   UNL A   1      45.365  24.932  32.837  1.00  0.00     0.023 A 
ATOM     21  Br  UNL A   1      43.609  23.410  34.444  1.00  0.00    -0.050 Br
ATOM     22  C   UNL A   1      46.443  25.782  32.574  1.00  0.00     0.087 A 
BRANCH  19  23
ATOM     23  N   UNL A   1      48.445  27.031  33.332  1.00  0.00     0.062 N 
ATOM     24  O   UNL A   1      49.410  27.051  34.107  1.00  0.00    -0.258 OA
ATOM     25  O   UNL A   1      48.309  27.786  32.358  1.00  0.00    -0.258 OA
ENDBRANCH  19  23
ENDBRANCH  14  16
ENDBRANCH  11  14
ENDBRANCH   6   8
ENDBRANCH   5   6
ENDBRANCH   4   5
ENDBRANCH   3   4
ENDBRANCH   2   3
ENDBRANCH   1   2
BRANCH   1  26
ATOM     26  C   UNL A   1      50.176  29.597  41.096  1.00  0.00     0.188 C 
BRANCH  26  27
ATOM     27  O   UNL A   1      51.114  30.236  40.258  1.00  0.00    -0.376 OA
BRANCH  27  28
ATOM     28  C   UNL A   1      50.670  31.017  39.164  1.00  0.00     0.202 C 
BRANCH  28  29
ATOM     29  C   UNL A   1      50.732  30.502  37.721  1.00  0.00     0.261 C 
BRANCH  29  30
ATOM     30  O   UNL A   1      49.494  30.504  37.004  1.00  0.00    -0.460 OA
BRANCH  30  31
ATOM     31  C   UNL A   1      48.932  29.283  36.823  1.00  0.00     0.338 C 
ATOM     32  O   UNL A   1      49.316  28.214  37.278  1.00  0.00    -0.246 OA
BRANCH  31  33
ATOM     33  C   UNL A   1      47.651  29.453  36.118  1.00  0.00     0.060 A 
ATOM     34  C   UNL A   1      47.491  30.525  35.227  1.00  0.00     0.016 A 
ATOM     35  C   UNL A   1      46.602  28.571  36.366  1.00  0.00     0.016 A 
ATOM     36  C   UNL A   1      46.273  30.718  34.576  1.00  0.00     0.010 A 
ATOM     37  C   UNL A   1      45.376  28.784  35.741  1.00  0.00     0.010 A 
ATOM     38  C   UNL A   1      45.200  29.868  34.859  1.00  0.00    -0.014 A 
BRANCH  38  39
ATOM     39  C   UNL A   1      43.827  30.188  34.405  1.00  0.00     0.031 A 
ATOM     40  C   UNL A   1      43.360  29.588  33.110  1.00  0.00     0.074 A 
ATOM     41  C   UNL A   1      43.044  31.042  35.088  1.00  0.00     0.049 A 
ATOM     42  N   UNL A   1      42.327  29.901  32.375  1.00  0.00    -0.248 NA
ATOM     43  C   UNL A   1      44.185  28.497  32.565  1.00  0.00     0.031 C 
ATOM     44  C   UNL A   1      43.360  31.625  36.389  1.00  0.00     0.029 A 
ATOM     45  N   UNL A   1      41.833  31.595  34.754  1.00  0.00    -0.354 N 
ATOM     46  C   UNL A   1      42.396  29.071  31.263  1.00  0.00     0.074 A 
ATOM     47  C   UNL A   1      43.574  28.247  31.416  1.00  0.00     0.031 C 
ATOM     48  C   UNL A   1      42.383  32.485  36.729  1.00  0.00     0.029 A 
ATOM     49  C   UNL A   1      41.408  32.556  35.641  1.00  0.00     0.049 A 
ATOM     50  H   UNL A   1      41.319  31.330  33.956  1.00  0.00     0.167 HD
ATOM     51  C   UNL A   1      41.551  29.012  30.208  1.00  0.00     0.037 A 
ATOM     52  C   UNL A   1      40.382  33.427  35.555  1.00  0.00     0.037 A 
ATOM     53  C   UNL A   1      40.385  29.843  30.074  1.00  0.00     0.049 A 
ATOM     54  C   UNL A   1      39.501  33.407  34.328  1.00  0.00     0.074 A 
ATOM     55  C   UNL A   1      39.458  29.864  29.047  1.00  0.00     0.029 A 
ATOM     56  N   UNL A   1      39.988  30.804  30.993  1.00  0.00    -0.354 N 
ATOM     57  N   UNL A   1      39.577  32.632  33.272  1.00  0.00    -0.248 NA
ATOM     58  C   UNL A   1      38.405  34.385  34.273  1.00  0.00     0.031 C 
ATOM     59  C   UNL A   1      38.536  30.879  29.317  1.00  0.00     0.029 A 
ATOM     60  C   UNL A   1      38.844  31.440  30.546  1.00  0.00     0.049 A 
ATOM     61  H   UNL A   1      40.453  31.004  31.838  1.00  0.00     0.167 HD
ATOM     62  C   UNL A   1      38.511  32.996  32.453  1.00  0.00     0.074 A 
ATOM     63  C   UNL A   1      37.813  34.068  33.129  1.00  0.00     0.031 C 
ATOM     64  C   UNL A   1      38.141  32.483  31.254  1.00  0.00     0.037 A 
BRANCH  51  65
ATOM     65  C   UNL A   1      41.884  28.056  29.097  1.00  0.00     0.058 A 
ATOM     66  C   UNL A   1      42.906  28.318  28.170  1.00  0.00     0.135 A 
ATOM     67  C   UNL A   1      41.188  26.842  28.977  1.00  0.00     0.135 A 
ATOM     68  F   UNL A   1      43.590  29.472  28.224  1.00  0.00    -0.206 F 
ATOM     69  C   UNL A   1      43.208  27.422  27.150  1.00  0.00     0.059 A 
ATOM     70  C   UNL A   1      41.496  25.917  27.984  1.00  0.00     0.059 A 
ATOM     71  F   UNL A   1      40.198  26.543  29.833  1.00  0.00    -0.206 F 
ATOM     72  C   UNL A   1      42.498  26.222  27.067  1.00  0.00     0.060 A 
BRANCH  72  73
ATOM     73  S   UNL A   1      42.910  25.066  25.743  1.00  0.00     0.124 S 
ATOM     74  O   UNL A   1      42.494  25.815  24.562  1.00  0.00    -0.237 OA
ATOM     75  O   UNL A   1      44.350  24.899  25.914  1.00  0.00    -0.237 OA
ATOM     76  O   UNL A   1      42.105  23.889  26.055  1.00  0.00    -0.744 OA
ENDBRANCH  72  73
ENDBRANCH  51  65
BRANCH  52  77
ATOM     77  C   UNL A   1      40.148  34.416  36.644  1.00  0.00     0.058 A 
ATOM     78  C   UNL A   1      39.252  34.143  37.687  1.00  0.00     0.135 A 
ATOM     79  C   UNL A   1      40.813  35.652  36.664  1.00  0.00     0.135 A 
ATOM     80  F   UNL A   1      38.581  32.981  37.708  1.00  0.00    -0.206 F 
ATOM     81  C   UNL A   1      39.012  35.062  38.704  1.00  0.00     0.059 A 
ATOM     82  C   UNL A   1      40.612  36.577  37.685  1.00  0.00     0.059 A 
ATOM     83  F   UNL A   1      41.685  35.964  35.692  1.00  0.00    -0.206 F 
ATOM     84  C   UNL A   1      39.701  36.276  38.697  1.00  0.00     0.060 A 
BRANCH  84  85
ATOM     85  S   UNL A   1      39.415  37.441  40.046  1.00  0.00     0.124 S 
ATOM     86  O   UNL A   1      38.440  38.349  39.450  1.00  0.00    -0.237 OA
ATOM     87  O   UNL A   1      38.913  36.568  41.101  1.00  0.00    -0.237 OA
ATOM     88  O   UNL A   1      40.739  38.007  40.289  1.00  0.00    -0.744 OA
ENDBRANCH  84  85
ENDBRANCH  52  77
BRANCH  64  89
ATOM     89  C   UNL A   1      36.883  33.004  30.612  1.00  0.00     0.058 A 
ATOM     90  C   UNL A   1      35.608  32.634  31.063  1.00  0.00     0.135 A 
ATOM     91  C   UNL A   1      36.967  33.987  29.612  1.00  0.00     0.135 A 
ATOM     92  F   UNL A   1      35.471  31.693  32.010  1.00  0.00    -0.206 F 
ATOM     93  C   UNL A   1      34.458  33.227  30.549  1.00  0.00     0.059 A 
ATOM     94  C   UNL A   1      35.832  34.613  29.105  1.00  0.00     0.059 A 
ATOM     95  F   UNL A   1      38.165  34.382  29.151  1.00  0.00    -0.206 F 
ATOM     96  C   UNL A   1      34.582  34.227  29.581  1.00  0.00     0.060 A 
BRANCH  96  97
ATOM     97  S   UNL A   1      33.087  35.054  28.993  1.00  0.00     0.124 S 
ATOM     98  O   UNL A   1      32.543  34.060  28.075  1.00  0.00    -0.237 OA
ATOM     99  O   UNL A   1      32.337  35.255  30.229  1.00  0.00    -0.237 OA
ATOM    100  O   UNL A   1      33.595  36.273  28.370  1.00  0.00    -0.744 OA
ENDBRANCH  96  97
ENDBRANCH  64  89
ENDBRANCH  38  39
ENDBRANCH  31  33
ENDBRANCH  30  31
ENDBRANCH  29  30
ENDBRANCH  28  29
ENDBRANCH  27  28
ENDBRANCH  26  27
ENDBRANCH   1  26
TORSDOF 23
ENDMDL
MODEL 3
REMARK VINA RESULT:      -8.2      8.044     15.105
REMARK SMILES C[C@H]1[C@@H](C(=O)OCCOCCOCCOC(=O)c2ccc(-c3c4nc(c(-c5c(F)cc(S(=O)(=O)[O-])cc5F)c5ccc([nH]5)c(-c5c(F)cc(S(=O)(=O)[O-])cc5F)c5nc(c(-c6c(F)cc(S(=O)(=O)[O-])cc6F)c6ccc3[nH]6)C=C5)C=C4)cc2)CCN1C(=O)c1cc([N+](=O)[O-])ccc1Br
REMARK SMILES IDX 10 1 9 2 8 3 7 4 6 5 4 6 5 7 3 8 1 9 2 10 86 11 84 12 85 13
REMARK SMILES IDX 87 14 88 15 89 16 90 17 97 18 91 19 96 20 98 21 95 22 92 23
REMARK SMILES IDX 93 24 94 25 11 26 12 27 13 28 14 29 15 30 16 31 17 32 18 33
REMARK SMILES IDX 19 34 83 35 20 36 82 37 21 38 22 39 23 40 76 41 24 42 81 43
REMARK SMILES IDX 75 44 77 45 25 46 80 47 74 48 73 49 26 51 60 52 39 53 59 54
REMARK SMILES IDX 40 55 43 56 58 57 78 58 41 59 42 60 57 62 79 63 44 64 27 65
REMARK SMILES IDX 28 66 37 67 29 68 30 69 36 70 38 71 31 72 32 73 33 74 34 75
REMARK SMILES IDX 35 76 61 77 62 78 71 79 63 80 64 81 70 82 72 83 65 84 66 85
REMARK SMILES IDX 67 86 68 87 69 88 45 89 46 90 55 91 47 92 48 93 54 94 56 95
REMARK SMILES IDX 49 96 50 97 51 98 52 99 53 100
REMARK H PARENT 77 50 43 61
REMARK Flexibility Score: inf
ROOT
ATOM      1  C   UNL A   1      34.439  33.122  30.442  1.00  0.00     0.188 C 
ENDROOT
BRANCH   1   2
ATOM      2  O   UNL A   1      34.044  33.262  29.090  1.00  0.00    -0.376 OA
BRANCH   2   3
ATOM      3  C   UNL A   1      34.955  32.896  28.065  1.00  0.00     0.202 C 
BRANCH   3   4
ATOM      4  C   UNL A   1      34.964  31.453  27.552  1.00  0.00     0.261 C 
BRANCH   4   5
ATOM      5  O   UNL A   1      33.930  30.632  28.135  1.00  0.00    -0.463 OA
BRANCH   5   6
ATOM      6  C   UNL A   1      33.048  30.067  27.281  1.00  0.00     0.311 C 
ATOM      7  O   UNL A   1      32.421  30.697  26.436  1.00  0.00    -0.252 OA
BRANCH   6   8
ATOM      8  C   UNL A   1      32.925  28.552  27.369  1.00  0.00     0.123 C 
ATOM      9  C   UNL A   1      34.256  28.146  25.133  1.00  0.00     0.032 C 
ATOM     10  C   UNL A   1      33.517  27.573  26.336  1.00  0.00     0.096 C 
ATOM     11  N   UNL A   1      32.418  26.654  25.980  1.00  0.00    -0.335 N 
ATOM     12  C   UNL A   1      31.466  28.125  27.589  1.00  0.00     0.039 C 
ATOM     13  C   UNL A   1      31.162  27.037  26.580  1.00  0.00     0.121 C 
BRANCH  11  14
ATOM     14  C   UNL A   1      32.439  25.474  25.247  1.00  0.00     0.255 C 
ATOM     15  O   UNL A   1      31.889  25.344  24.156  1.00  0.00    -0.269 OA
BRANCH  14  16
ATOM     16  C   UNL A   1      33.145  24.298  25.780  1.00  0.00     0.061 A 
ATOM     17  C   UNL A   1      34.508  24.168  25.467  1.00  0.00     0.100 A 
ATOM     18  C   UNL A   1      32.485  23.295  26.502  1.00  0.00     0.031 A 
ATOM     19  C   UNL A   1      35.221  23.071  25.965  1.00  0.00     0.270 A 
ATOM     20  C   UNL A   1      33.220  22.239  27.046  1.00  0.00     0.023 A 
ATOM     21  Br  UNL A   1      30.594  23.214  26.682  1.00  0.00    -0.050 Br
ATOM     22  C   UNL A   1      34.590  22.130  26.790  1.00  0.00     0.087 A 
BRANCH  19  23
ATOM     23  N   UNL A   1      36.633  22.884  25.607  1.00  0.00     0.062 N 
ATOM     24  O   UNL A   1      37.243  23.847  25.125  1.00  0.00    -0.258 OA
ATOM     25  O   UNL A   1      37.131  21.767  25.808  1.00  0.00    -0.258 OA
ENDBRANCH  19  23
ENDBRANCH  14  16
ENDBRANCH  11  14
ENDBRANCH   6   8
ENDBRANCH   5   6
ENDBRANCH   4   5
ENDBRANCH   3   4
ENDBRANCH   2   3
ENDBRANCH   1   2
BRANCH   1  26
ATOM     26  C   UNL A   1      35.299  34.215  31.102  1.00  0.00     0.188 C 
BRANCH  26  27
ATOM     27  O   UNL A   1      34.727  35.341  31.731  1.00  0.00    -0.376 OA
BRANCH  27  28
ATOM     28  C   UNL A   1      34.567  35.361  33.137  1.00  0.00     0.202 C 
BRANCH  28  29
ATOM     29  C   UNL A   1      35.236  34.322  34.045  1.00  0.00     0.261 C 
BRANCH  29  30
ATOM     30  O   UNL A   1      36.564  34.635  34.478  1.00  0.00    -0.460 OA
BRANCH  30  31
ATOM     31  C   UNL A   1      37.061  33.821  35.444  1.00  0.00     0.338 C 
ATOM     32  O   UNL A   1      36.504  33.464  36.472  1.00  0.00    -0.246 OA
BRANCH  31  33
ATOM     33  C   UNL A   1      38.345  33.271  34.981  1.00  0.00     0.060 A 
ATOM     34  C   UNL A   1      39.528  33.629  35.645  1.00  0.00     0.016 A 
ATOM     35  C   UNL A   1      38.378  32.429  33.873  1.00  0.00     0.016 A 
ATOM     36  C   UNL A   1      40.756  33.141  35.199  1.00  0.00     0.010 A 
ATOM     37  C   UNL A   1      39.608  31.969  33.408  1.00  0.00     0.010 A 
ATOM     38  C   UNL A   1      40.803  32.337  34.056  1.00  0.00    -0.014 A 
BRANCH  38  39
ATOM     39  C   UNL A   1      42.088  32.018  33.394  1.00  0.00     0.031 A 
ATOM     40  C   UNL A   1      42.600  32.978  32.359  1.00  0.00     0.074 A 
ATOM     41  C   UNL A   1      42.745  30.874  33.654  1.00  0.00     0.049 A 
ATOM     42  N   UNL A   1      43.542  32.816  31.470  1.00  0.00    -0.248 NA
ATOM     43  C   UNL A   1      41.945  34.297  32.316  1.00  0.00     0.031 C 
ATOM     44  C   UNL A   1      42.384  29.905  34.686  1.00  0.00     0.029 A 
ATOM     45  N   UNL A   1      43.837  30.319  33.034  1.00  0.00    -0.354 N 
ATOM     46  C   UNL A   1      43.570  33.995  30.737  1.00  0.00     0.074 A 
ATOM     47  C   UNL A   1      42.548  34.862  31.280  1.00  0.00     0.031 C 
ATOM     48  C   UNL A   1      43.220  28.854  34.606  1.00  0.00     0.029 A 
ATOM     49  C   UNL A   1      44.131  29.050  33.479  1.00  0.00     0.049 A 
ATOM     50  H   UNL A   1      44.359  30.782  32.340  1.00  0.00     0.167 HD
ATOM     51  C   UNL A   1      44.375  34.318  29.698  1.00  0.00     0.037 A 
ATOM     52  C   UNL A   1      44.998  28.138  32.995  1.00  0.00     0.037 A 
ATOM     53  C   UNL A   1      45.385  33.440  29.171  1.00  0.00     0.049 A 
ATOM     54  C   UNL A   1      45.826  28.482  31.780  1.00  0.00     0.074 A 
ATOM     55  C   UNL A   1      46.259  33.667  28.123  1.00  0.00     0.029 A 
ATOM     56  N   UNL A   1      45.652  32.164  29.648  1.00  0.00    -0.354 N 
ATOM     57  N   UNL A   1      45.841  29.592  31.080  1.00  0.00    -0.248 NA
ATOM     58  C   UNL A   1      46.746  27.450  31.281  1.00  0.00     0.031 C 
ATOM     59  C   UNL A   1      47.013  32.506  27.928  1.00  0.00     0.029 A 
ATOM     60  C   UNL A   1      46.661  31.583  28.901  1.00  0.00     0.049 A 
ATOM     61  H   UNL A   1      45.191  31.736  30.405  1.00  0.00     0.167 HD
ATOM     62  C   UNL A   1      46.803  29.408  30.091  1.00  0.00     0.074 A 
ATOM     63  C   UNL A   1      47.340  28.077  30.275  1.00  0.00     0.031 C 
ATOM     64  C   UNL A   1      47.209  30.267  29.123  1.00  0.00     0.037 A 
BRANCH  51  65
ATOM     65  C   UNL A   1      44.163  35.650  29.035  1.00  0.00     0.058 A 
ATOM     66  C   UNL A   1      43.299  35.808  27.940  1.00  0.00     0.135 A 
ATOM     67  C   UNL A   1      44.814  36.795  29.524  1.00  0.00     0.135 A 
ATOM     68  F   UNL A   1      42.666  34.745  27.418  1.00  0.00    -0.206 F 
ATOM     69  C   UNL A   1      43.106  37.048  27.339  1.00  0.00     0.059 A 
ATOM     70  C   UNL A   1      44.612  38.049  28.959  1.00  0.00     0.059 A 
ATOM     71  F   UNL A   1      45.656  36.699  30.566  1.00  0.00    -0.206 F 
ATOM     72  C   UNL A   1      43.767  38.163  27.859  1.00  0.00     0.060 A 
BRANCH  72  73
ATOM     73  S   UNL A   1      43.498  39.766  27.073  1.00  0.00     0.124 S 
ATOM     74  O   UNL A   1      42.204  39.563  26.429  1.00  0.00    -0.237 OA
ATOM     75  O   UNL A   1      43.502  40.676  28.214  1.00  0.00    -0.237 OA
ATOM     76  O   UNL A   1      44.635  39.897  26.167  1.00  0.00    -0.744 OA
ENDBRANCH  72  73
ENDBRANCH  51  65
BRANCH  52  77
ATOM     77  C   UNL A   1      45.106  26.797  33.635  1.00  0.00     0.058 A 
ATOM     78  C   UNL A   1      44.472  25.677  33.078  1.00  0.00     0.135 A 
ATOM     79  C   UNL A   1      45.842  26.607  34.816  1.00  0.00     0.135 A 
ATOM     80  F   UNL A   1      43.745  25.807  31.957  1.00  0.00    -0.206 F 
ATOM     81  C   UNL A   1      44.552  24.421  33.671  1.00  0.00     0.059 A 
ATOM     82  C   UNL A   1      45.961  25.356  35.413  1.00  0.00     0.059 A 
ATOM     83  F   UNL A   1      46.473  27.644  35.390  1.00  0.00    -0.206 F 
ATOM     84  C   UNL A   1      45.304  24.270  34.837  1.00  0.00     0.060 A 
BRANCH  84  85
ATOM     85  S   UNL A   1      45.437  22.625  35.572  1.00  0.00     0.124 S 
ATOM     86  O   UNL A   1      46.729  22.179  35.061  1.00  0.00    -0.237 OA
ATOM     87  O   UNL A   1      45.384  22.924  36.999  1.00  0.00    -0.237 OA
ATOM     88  O   UNL A   1      44.272  21.924  35.043  1.00  0.00    -0.744 OA
ENDBRANCH  84  85
ENDBRANCH  52  77
BRANCH  64  89
ATOM     89  C   UNL A   1      48.342  29.847  28.226  1.00  0.00     0.058 A 
ATOM     90  C   UNL A   1      48.140  29.041  27.097  1.00  0.00     0.135 A 
ATOM     91  C   UNL A   1      49.629  30.371  28.438  1.00  0.00     0.135 A 
ATOM     92  F   UNL A   1      46.933  28.507  26.854  1.00  0.00    -0.206 F 
ATOM     93  C   UNL A   1      49.174  28.774  26.204  1.00  0.00     0.059 A 
ATOM     94  C   UNL A   1      50.669  30.141  27.543  1.00  0.00     0.059 A 
ATOM     95  F   UNL A   1      49.873  31.155  29.500  1.00  0.00    -0.206 F 
ATOM     96  C   UNL A   1      50.431  29.342  26.427  1.00  0.00     0.060 A 
BRANCH  96  97
ATOM     97  S   UNL A   1      51.735  29.065  25.209  1.00  0.00     0.124 S 
ATOM     98  O   UNL A   1      51.836  30.377  24.581  1.00  0.00    -0.237 OA
ATOM     99  O   UNL A   1      52.865  28.673  26.047  1.00  0.00    -0.237 OA
ATOM    100  O   UNL A   1      51.193  28.005  24.364  1.00  0.00    -0.744 OA
ENDBRANCH  96  97
ENDBRANCH  64  89
ENDBRANCH  38  39
ENDBRANCH  31  33
ENDBRANCH  30  31
ENDBRANCH  29  30
ENDBRANCH  28  29
ENDBRANCH  27  28
ENDBRANCH  26  27
ENDBRANCH   1  26
TORSDOF 23
ENDMDL
