MODEL 1
REMARK VINA RESULT:     -11.6      0.000      0.000
REMARK SMILES O=C(OCCOCCOCCOC(=O)[C@H]1Cc2[nH]cnc2CN1C(=O)c1ccncc1Cl)c1ccc(-c2c3nc(c(-c4c(F)cc(S(=O)(=O)[O-])cc4F)c4ccc([nH]4)c(-c4c(F)cc(S(=O)(=O)[O-])cc4F)c4nc(c(-c5c(F)cc(S(=O)(=O)[O-])cc5F)c5ccc2[nH]5)C=C4)C=C3)cc1
REMARK SMILES IDX 7 1 6 2 5 3 4 4 3 5 2 6 1 7 33 8 34 9 98 10 35 11 97 12
REMARK SMILES IDX 36 13 37 14 38 15 91 16 39 17 96 18 90 19 92 20 40 21 95 22
REMARK SMILES IDX 89 23 88 24 41 26 75 27 54 28 74 29 55 30 58 31 73 32 93 33
REMARK SMILES IDX 56 34 57 35 72 37 94 38 59 39 42 40 43 41 52 42 44 43 45 44
REMARK SMILES IDX 51 45 53 46 46 47 47 48 48 49 49 50 50 51 76 52 77 53 86 54
REMARK SMILES IDX 78 55 79 56 85 57 87 58 80 59 81 60 82 61 83 62 84 63 60 64
REMARK SMILES IDX 61 65 70 66 62 67 63 68 69 69 71 70 64 71 65 72 66 73 67 74
REMARK SMILES IDX 68 75 8 76 9 77 10 78 11 79 12 80 13 81 14 82 15 83 16 84
REMARK SMILES IDX 23 85 17 86 22 87 18 88 21 89 19 90 20 92 24 93 25 94 26 95
REMARK SMILES IDX 27 96 31 97 28 98 30 99 32 100 29 101
REMARK H PARENT 92 25 58 36 18 91
REMARK Flexibility Score: inf
ROOT
ATOM      1  C   UNL A   1      36.359  21.941  24.275  1.00  0.00     0.188 C 
ENDROOT
BRANCH   1   2
ATOM      2  O   UNL A   1      36.497  22.392  25.624  1.00  0.00    -0.376 OA
BRANCH   2   3
ATOM      3  C   UNL A   1      37.831  22.617  26.090  1.00  0.00     0.202 C 
BRANCH   3   4
ATOM      4  C   UNL A   1      38.975  21.639  25.768  1.00  0.00     0.261 C 
BRANCH   4   5
ATOM      5  O   UNL A   1      40.326  22.091  25.950  1.00  0.00    -0.460 OA
BRANCH   5   6
ATOM      6  C   UNL A   1      40.913  22.578  27.067  1.00  0.00     0.338 C 
ATOM      7  O   UNL A   1      41.074  21.837  28.035  1.00  0.00    -0.246 OA
BRANCH   6   8
ATOM      8  C   UNL A   1      41.293  24.003  27.212  1.00  0.00     0.060 A 
ATOM      9  C   UNL A   1      42.017  24.473  28.302  1.00  0.00     0.016 A 
ATOM     10  C   UNL A   1      40.712  24.917  26.305  1.00  0.00     0.016 A 
ATOM     11  C   UNL A   1      42.082  25.834  28.536  1.00  0.00     0.010 A 
ATOM     12  C   UNL A   1      40.753  26.281  26.552  1.00  0.00     0.010 A 
ATOM     13  C   UNL A   1      41.370  26.718  27.716  1.00  0.00    -0.014 A 
BRANCH  13  14
ATOM     14  C   UNL A   1      41.197  28.062  28.242  1.00  0.00     0.031 A 
ATOM     15  C   UNL A   1      42.343  28.981  28.060  1.00  0.00     0.074 A 
ATOM     16  C   UNL A   1      40.110  28.416  28.954  1.00  0.00     0.049 A 
ATOM     17  N   UNL A   1      43.191  29.385  28.949  1.00  0.00    -0.248 NA
ATOM     18  C   UNL A   1      42.654  29.400  26.689  1.00  0.00     0.031 C 
ATOM     19  C   UNL A   1      38.811  27.743  29.045  1.00  0.00     0.029 A 
ATOM     20  N   UNL A   1      39.936  29.529  29.717  1.00  0.00    -0.354 N 
ATOM     21  C   UNL A   1      44.028  30.279  28.291  1.00  0.00     0.074 A 
ATOM     22  C   UNL A   1      43.748  30.138  26.883  1.00  0.00     0.031 C 
ATOM     23  C   UNL A   1      37.923  28.570  29.644  1.00  0.00     0.029 A 
ATOM     24  C   UNL A   1      38.626  29.752  30.110  1.00  0.00     0.049 A 
ATOM     25  H   UNL A   1      40.677  30.125  29.969  1.00  0.00     0.167 HD
ATOM     26  C   UNL A   1      44.753  31.217  28.959  1.00  0.00     0.037 A 
ATOM     27  C   UNL A   1      38.149  30.867  30.715  1.00  0.00     0.037 A 
ATOM     28  C   UNL A   1      44.900  30.895  30.353  1.00  0.00     0.049 A 
ATOM     29  C   UNL A   1      39.297  31.542  31.374  1.00  0.00     0.074 A 
ATOM     30  C   UNL A   1      45.461  29.840  31.047  1.00  0.00     0.029 A 
ATOM     31  N   UNL A   1      44.124  31.567  31.267  1.00  0.00    -0.354 N 
ATOM     32  N   UNL A   1      39.943  31.054  32.400  1.00  0.00    -0.248 NA
ATOM     33  C   UNL A   1      40.007  32.570  30.627  1.00  0.00     0.031 C 
ATOM     34  C   UNL A   1      44.622  29.652  32.183  1.00  0.00     0.029 A 
ATOM     35  C   UNL A   1      43.624  30.627  32.135  1.00  0.00     0.049 A 
ATOM     36  H   UNL A   1      43.957  32.536  31.294  1.00  0.00     0.167 HD
ATOM     37  C   UNL A   1      41.268  31.410  32.194  1.00  0.00     0.074 A 
ATOM     38  C   UNL A   1      41.231  32.418  31.140  1.00  0.00     0.031 C 
ATOM     39  C   UNL A   1      42.295  30.671  32.706  1.00  0.00     0.037 A 
BRANCH  26  40
ATOM     40  C   UNL A   1      45.060  32.582  28.398  1.00  0.00     0.058 A 
ATOM     41  C   UNL A   1      46.387  32.942  28.095  1.00  0.00     0.135 A 
ATOM     42  C   UNL A   1      44.123  33.639  28.396  1.00  0.00     0.135 A 
ATOM     43  F   UNL A   1      47.363  32.020  28.095  1.00  0.00    -0.206 F 
ATOM     44  C   UNL A   1      46.764  34.265  27.856  1.00  0.00     0.059 A 
ATOM     45  C   UNL A   1      44.464  34.953  28.106  1.00  0.00     0.059 A 
ATOM     46  F   UNL A   1      42.849  33.461  28.774  1.00  0.00    -0.206 F 
ATOM     47  C   UNL A   1      45.794  35.265  27.879  1.00  0.00     0.060 A 
BRANCH  47  48
ATOM     48  S   UNL A   1      46.287  36.987  27.694  1.00  0.00     0.124 S 
ATOM     49  O   UNL A   1      45.128  37.545  27.007  1.00  0.00    -0.237 OA
ATOM     50  O   UNL A   1      46.473  37.403  29.079  1.00  0.00    -0.237 OA
ATOM     51  O   UNL A   1      47.510  36.901  26.901  1.00  0.00    -0.744 OA
ENDBRANCH  47  48
ENDBRANCH  26  40
BRANCH  27  52
ATOM     52  C   UNL A   1      36.865  31.554  30.421  1.00  0.00     0.058 A 
ATOM     53  C   UNL A   1      36.078  32.097  31.450  1.00  0.00     0.135 A 
ATOM     54  C   UNL A   1      36.524  31.936  29.107  1.00  0.00     0.135 A 
ATOM     55  F   UNL A   1      36.350  31.807  32.732  1.00  0.00    -0.206 F 
ATOM     56  C   UNL A   1      35.042  33.002  31.194  1.00  0.00     0.059 A 
ATOM     57  C   UNL A   1      35.489  32.824  28.827  1.00  0.00     0.059 A 
ATOM     58  F   UNL A   1      37.249  31.529  28.054  1.00  0.00    -0.206 F 
ATOM     59  C   UNL A   1      34.769  33.375  29.879  1.00  0.00     0.060 A 
BRANCH  59  60
ATOM     60  S   UNL A   1      33.556  34.676  29.554  1.00  0.00     0.124 S 
ATOM     61  O   UNL A   1      33.148  35.050  30.904  1.00  0.00    -0.237 OA
ATOM     62  O   UNL A   1      34.352  35.663  28.832  1.00  0.00    -0.237 OA
ATOM     63  O   UNL A   1      32.536  33.998  28.758  1.00  0.00    -0.744 OA
ENDBRANCH  59  60
ENDBRANCH  27  52
BRANCH  39  64
ATOM     64  C   UNL A   1      41.983  29.636  33.757  1.00  0.00     0.058 A 
ATOM     65  C   UNL A   1      41.539  28.333  33.471  1.00  0.00     0.135 A 
ATOM     66  C   UNL A   1      42.326  29.918  35.089  1.00  0.00     0.135 A 
ATOM     67  F   UNL A   1      41.288  27.953  32.210  1.00  0.00    -0.206 F 
ATOM     68  C   UNL A   1      41.419  27.363  34.469  1.00  0.00     0.059 A 
ATOM     69  C   UNL A   1      42.243  28.958  36.095  1.00  0.00     0.059 A 
ATOM     70  F   UNL A   1      42.815  31.126  35.416  1.00  0.00    -0.206 F 
ATOM     71  C   UNL A   1      41.783  27.682  35.777  1.00  0.00     0.060 A 
BRANCH  71  72
ATOM     72  S   UNL A   1      41.750  26.387  37.037  1.00  0.00     0.124 S 
ATOM     73  O   UNL A   1      40.477  26.634  37.701  1.00  0.00    -0.237 OA
ATOM     74  O   UNL A   1      41.827  25.166  36.241  1.00  0.00    -0.237 OA
ATOM     75  O   UNL A   1      42.939  26.667  37.844  1.00  0.00    -0.744 OA
ENDBRANCH  71  72
ENDBRANCH  39  64
ENDBRANCH  13  14
ENDBRANCH   6   8
ENDBRANCH   5   6
ENDBRANCH   4   5
ENDBRANCH   3   4
ENDBRANCH   2   3
ENDBRANCH   1   2
BRANCH   1  76
ATOM     76  C   UNL A   1      36.517  22.989  23.175  1.00  0.00     0.188 C 
BRANCH  76  77
ATOM     77  O   UNL A   1      35.298  23.564  22.709  1.00  0.00    -0.376 OA
BRANCH  77  78
ATOM     78  C   UNL A   1      34.119  22.828  22.998  1.00  0.00     0.202 C 
BRANCH  78  79
ATOM     79  C   UNL A   1      32.834  23.501  22.533  1.00  0.00     0.261 C 
BRANCH  79  80
ATOM     80  O   UNL A   1      32.734  24.878  22.951  1.00  0.00    -0.462 OA
BRANCH  80  81
ATOM     81  C   UNL A   1      32.487  25.786  21.966  1.00  0.00     0.329 C 
ATOM     82  O   UNL A   1      33.134  25.866  20.926  1.00  0.00    -0.250 OA
BRANCH  81  83
ATOM     83  C   UNL A   1      31.386  26.789  22.331  1.00  0.00     0.201 C 
ATOM     84  C   UNL A   1      30.277  26.320  23.317  1.00  0.00     0.093 C 
ATOM     85  N   UNL A   1      31.738  28.232  22.553  1.00  0.00    -0.318 N 
ATOM     86  C   UNL A   1      29.199  27.358  23.271  1.00  0.00     0.042 A 
ATOM     87  C   UNL A   1      30.644  29.180  22.220  1.00  0.00     0.179 C 
ATOM     88  N   UNL A   1      27.883  27.260  23.617  1.00  0.00    -0.348 N 
ATOM     89  C   UNL A   1      29.362  28.641  22.782  1.00  0.00     0.081 A 
ATOM     90  C   UNL A   1      27.305  28.467  23.315  1.00  0.00     0.197 A 
ATOM     91  H   UNL A   1      27.435  26.474  24.007  1.00  0.00     0.167 HD
ATOM     92  N   UNL A   1      28.172  29.314  22.799  1.00  0.00    -0.240 NA
BRANCH  85  93
ATOM     93  C   UNL A   1      32.742  28.731  23.375  1.00  0.00     0.256 C 
ATOM     94  O   UNL A   1      33.862  29.052  22.982  1.00  0.00    -0.269 OA
BRANCH  93  95
ATOM     95  C   UNL A   1      32.542  28.880  24.819  1.00  0.00     0.061 A 
ATOM     96  C   UNL A   1      32.005  30.083  25.286  1.00  0.00     0.035 A 
ATOM     97  C   UNL A   1      33.056  27.946  25.717  1.00  0.00     0.072 A 
ATOM     98  C   UNL A   1      31.953  30.281  26.654  1.00  0.00     0.112 A 
ATOM     99  C   UNL A   1      32.948  28.240  27.067  1.00  0.00     0.132 A 
ATOM    100  Cl  UNL A   1      33.805  26.474  25.236  1.00  0.00    -0.082 Cl
ATOM    101  N   UNL A   1      32.394  29.379  27.558  1.00  0.00    -0.263 NA
ENDBRANCH  93  95
ENDBRANCH  85  93
ENDBRANCH  81  83
ENDBRANCH  80  81
ENDBRANCH  79  80
ENDBRANCH  78  79
ENDBRANCH  77  78
ENDBRANCH  76  77
ENDBRANCH   1  76
TORSDOF 22
ENDMDL
MODEL 2
REMARK VINA RESULT:     -11.5      3.056      9.224
REMARK SMILES O=C(OCCOCCOCCOC(=O)[C@H]1Cc2[nH]cnc2CN1C(=O)c1ccncc1Cl)c1ccc(-c2c3nc(c(-c4c(F)cc(S(=O)(=O)[O-])cc4F)c4ccc([nH]4)c(-c4c(F)cc(S(=O)(=O)[O-])cc4F)c4nc(c(-c5c(F)cc(S(=O)(=O)[O-])cc5F)c5ccc2[nH]5)C=C4)C=C3)cc1
REMARK SMILES IDX 7 1 6 2 5 3 4 4 3 5 2 6 1 7 33 8 34 9 98 10 35 11 97 12
REMARK SMILES IDX 36 13 37 14 38 15 91 16 39 17 96 18 90 19 92 20 40 21 95 22
REMARK SMILES IDX 89 23 88 24 41 26 75 27 54 28 74 29 55 30 58 31 73 32 93 33
REMARK SMILES IDX 56 34 57 35 72 37 94 38 59 39 42 40 43 41 52 42 44 43 45 44
REMARK SMILES IDX 51 45 53 46 46 47 47 48 48 49 49 50 50 51 76 52 77 53 86 54
REMARK SMILES IDX 78 55 79 56 85 57 87 58 80 59 81 60 82 61 83 62 84 63 60 64
REMARK SMILES IDX 61 65 70 66 62 67 63 68 69 69 71 70 64 71 65 72 66 73 67 74
REMARK SMILES IDX 68 75 8 76 9 77 10 78 11 79 12 80 13 81 14 82 15 83 16 84
REMARK SMILES IDX 23 85 17 86 22 87 18 88 21 89 19 90 20 92 24 93 25 94 26 95
REMARK SMILES IDX 27 96 31 97 28 98 30 99 32 100 29 101
REMARK H PARENT 92 25 58 36 18 91
REMARK Flexibility Score: inf
ROOT
ATOM      1  C   UNL A   1      31.399  29.579  25.131  1.00  0.00     0.188 C 
ENDROOT
BRANCH   1   2
ATOM      2  O   UNL A   1      31.589  28.772  26.295  1.00  0.00    -0.376 OA
BRANCH   2   3
ATOM      3  C   UNL A   1      32.565  29.228  27.236  1.00  0.00     0.202 C 
BRANCH   3   4
ATOM      4  C   UNL A   1      33.016  30.699  27.285  1.00  0.00     0.261 C 
BRANCH   4   5
ATOM      5  O   UNL A   1      34.398  30.994  27.027  1.00  0.00    -0.460 OA
BRANCH   5   6
ATOM      6  C   UNL A   1      35.260  31.729  27.766  1.00  0.00     0.338 C 
ATOM      7  O   UNL A   1      35.202  32.956  27.716  1.00  0.00    -0.246 OA
BRANCH   6   8
ATOM      8  C   UNL A   1      36.341  31.117  28.573  1.00  0.00     0.060 A 
ATOM      9  C   UNL A   1      37.543  31.769  28.824  1.00  0.00     0.016 A 
ATOM     10  C   UNL A   1      36.197  29.752  28.908  1.00  0.00     0.016 A 
ATOM     11  C   UNL A   1      38.615  31.049  29.316  1.00  0.00     0.010 A 
ATOM     12  C   UNL A   1      37.279  29.020  29.377  1.00  0.00     0.010 A 
ATOM     13  C   UNL A   1      38.503  29.665  29.495  1.00  0.00    -0.014 A 
BRANCH  13  14
ATOM     14  C   UNL A   1      39.757  28.948  29.657  1.00  0.00     0.031 A 
ATOM     15  C   UNL A   1      40.242  28.797  31.047  1.00  0.00     0.074 A 
ATOM     16  C   UNL A   1      40.492  28.547  28.602  1.00  0.00     0.049 A 
ATOM     17  N   UNL A   1      41.215  29.424  31.624  1.00  0.00    -0.248 NA
ATOM     18  C   UNL A   1      39.464  27.931  31.938  1.00  0.00     0.031 C 
ATOM     19  C   UNL A   1      40.087  28.405  27.200  1.00  0.00     0.029 A 
ATOM     20  N   UNL A   1      41.782  28.114  28.596  1.00  0.00    -0.354 N 
ATOM     21  C   UNL A   1      41.307  28.881  32.901  1.00  0.00     0.074 A 
ATOM     22  C   UNL A   1      40.122  28.080  33.089  1.00  0.00     0.031 C 
ATOM     23  C   UNL A   1      41.043  27.722  26.529  1.00  0.00     0.029 A 
ATOM     24  C   UNL A   1      42.180  27.520  27.410  1.00  0.00     0.049 A 
ATOM     25  H   UNL A   1      42.382  28.215  29.370  1.00  0.00     0.167 HD
ATOM     26  C   UNL A   1      42.445  28.964  33.643  1.00  0.00     0.037 A 
ATOM     27  C   UNL A   1      43.338  26.849  27.197  1.00  0.00     0.037 A 
ATOM     28  C   UNL A   1      43.320  30.005  33.176  1.00  0.00     0.049 A 
ATOM     29  C   UNL A   1      44.317  27.318  28.212  1.00  0.00     0.074 A 
ATOM     30  C   UNL A   1      43.204  31.376  33.039  1.00  0.00     0.029 A 
ATOM     31  N   UNL A   1      44.423  29.653  32.437  1.00  0.00    -0.354 N 
ATOM     32  N   UNL A   1      44.820  28.523  28.243  1.00  0.00    -0.248 NA
ATOM     33  C   UNL A   1      44.420  26.573  29.458  1.00  0.00     0.031 C 
ATOM     34  C   UNL A   1      43.929  31.695  31.856  1.00  0.00     0.029 A 
ATOM     35  C   UNL A   1      44.477  30.509  31.364  1.00  0.00     0.049 A 
ATOM     36  H   UNL A   1      45.055  28.925  32.638  1.00  0.00     0.167 HD
ATOM     37  C   UNL A   1      44.935  28.833  29.590  1.00  0.00     0.074 A 
ATOM     38  C   UNL A   1      44.763  27.562  30.287  1.00  0.00     0.031 C 
ATOM     39  C   UNL A   1      44.897  30.123  30.034  1.00  0.00     0.037 A 
BRANCH  26  40
ATOM     40  C   UNL A   1      42.891  27.888  34.600  1.00  0.00     0.058 A 
ATOM     41  C   UNL A   1      43.070  28.183  35.965  1.00  0.00     0.135 A 
ATOM     42  C   UNL A   1      43.402  26.643  34.169  1.00  0.00     0.135 A 
ATOM     43  F   UNL A   1      42.646  29.350  36.473  1.00  0.00    -0.206 F 
ATOM     44  C   UNL A   1      43.752  27.323  36.829  1.00  0.00     0.059 A 
ATOM     45  C   UNL A   1      44.034  25.748  35.022  1.00  0.00     0.059 A 
ATOM     46  F   UNL A   1      43.402  26.282  32.878  1.00  0.00    -0.206 F 
ATOM     47  C   UNL A   1      44.242  26.114  36.341  1.00  0.00     0.060 A 
BRANCH  47  48
ATOM     48  S   UNL A   1      45.226  25.056  37.415  1.00  0.00     0.124 S 
ATOM     49  O   UNL A   1      45.325  23.842  36.612  1.00  0.00    -0.237 OA
ATOM     50  O   UNL A   1      46.455  25.827  37.563  1.00  0.00    -0.237 OA
ATOM     51  O   UNL A   1      44.410  24.951  38.621  1.00  0.00    -0.744 OA
ENDBRANCH  47  48
ENDBRANCH  26  40
BRANCH  27  52
ATOM     52  C   UNL A   1      43.502  25.584  26.437  1.00  0.00     0.058 A 
ATOM     53  C   UNL A   1      44.548  25.419  25.515  1.00  0.00     0.135 A 
ATOM     54  C   UNL A   1      42.805  24.414  26.804  1.00  0.00     0.135 A 
ATOM     55  F   UNL A   1      45.281  26.475  25.130  1.00  0.00    -0.206 F 
ATOM     56  C   UNL A   1      44.913  24.162  25.021  1.00  0.00     0.059 A 
ATOM     57  C   UNL A   1      43.140  23.154  26.315  1.00  0.00     0.059 A 
ATOM     58  F   UNL A   1      41.831  24.445  27.727  1.00  0.00    -0.206 F 
ATOM     59  C   UNL A   1      44.214  23.032  25.443  1.00  0.00     0.060 A 
BRANCH  59  60
ATOM     60  S   UNL A   1      44.790  21.391  24.952  1.00  0.00     0.124 S 
ATOM     61  O   UNL A   1      43.812  20.523  25.598  1.00  0.00    -0.237 OA
ATOM     62  O   UNL A   1      44.717  21.463  23.497  1.00  0.00    -0.237 OA
ATOM     63  O   UNL A   1      46.142  21.327  25.503  1.00  0.00    -0.744 OA
ENDBRANCH  59  60
ENDBRANCH  27  52
BRANCH  39  64
ATOM     64  C   UNL A   1      45.037  31.235  29.026  1.00  0.00     0.058 A 
ATOM     65  C   UNL A   1      46.269  31.768  28.608  1.00  0.00     0.135 A 
ATOM     66  C   UNL A   1      43.891  31.644  28.325  1.00  0.00     0.135 A 
ATOM     67  F   UNL A   1      47.420  31.354  29.157  1.00  0.00    -0.206 F 
ATOM     68  C   UNL A   1      46.353  32.684  27.557  1.00  0.00     0.059 A 
ATOM     69  C   UNL A   1      43.955  32.533  27.255  1.00  0.00     0.059 A 
ATOM     70  F   UNL A   1      42.691  31.125  28.637  1.00  0.00    -0.206 F 
ATOM     71  C   UNL A   1      45.191  33.053  26.879  1.00  0.00     0.060 A 
BRANCH  71  72
ATOM     72  S   UNL A   1      45.322  34.136  25.438  1.00  0.00     0.124 S 
ATOM     73  O   UNL A   1      44.666  33.350  24.401  1.00  0.00    -0.237 OA
ATOM     74  O   UNL A   1      44.612  35.334  25.875  1.00  0.00    -0.237 OA
ATOM     75  O   UNL A   1      46.766  34.308  25.272  1.00  0.00    -0.744 OA
ENDBRANCH  71  72
ENDBRANCH  39  64
ENDBRANCH  13  14
ENDBRANCH   6   8
ENDBRANCH   5   6
ENDBRANCH   4   5
ENDBRANCH   3   4
ENDBRANCH   2   3
ENDBRANCH   1   2
BRANCH   1  76
ATOM     76  C   UNL A   1      30.768  28.903  23.915  1.00  0.00     0.188 C 
BRANCH  76  77
ATOM     77  O   UNL A   1      31.577  28.897  22.741  1.00  0.00    -0.376 OA
BRANCH  77  78
ATOM     78  C   UNL A   1      32.958  29.156  22.942  1.00  0.00     0.202 C 
BRANCH  78  79
ATOM     79  C   UNL A   1      33.840  27.914  22.885  1.00  0.00     0.261 C 
BRANCH  79  80
ATOM     80  O   UNL A   1      33.796  27.248  21.606  1.00  0.00    -0.462 OA
BRANCH  80  81
ATOM     81  C   UNL A   1      33.319  25.972  21.613  1.00  0.00     0.329 C 
ATOM     82  O   UNL A   1      33.213  25.271  20.611  1.00  0.00    -0.250 OA
BRANCH  81  83
ATOM     83  C   UNL A   1      32.812  25.524  22.989  1.00  0.00     0.201 C 
ATOM     84  C   UNL A   1      31.332  25.055  23.099  1.00  0.00     0.093 C 
ATOM     85  N   UNL A   1      33.708  24.717  23.885  1.00  0.00    -0.318 N 
ATOM     86  C   UNL A   1      31.023  24.960  24.560  1.00  0.00     0.042 A 
ATOM     87  C   UNL A   1      33.454  24.918  25.334  1.00  0.00     0.179 C 
ATOM     88  N   UNL A   1      29.816  24.980  25.196  1.00  0.00    -0.348 N 
ATOM     89  C   UNL A   1      31.972  24.896  25.563  1.00  0.00     0.081 A 
ATOM     90  C   UNL A   1      30.078  24.942  26.542  1.00  0.00     0.197 A 
ATOM     91  H   UNL A   1      28.928  25.016  24.770  1.00  0.00     0.167 HD
ATOM     92  N   UNL A   1      31.371  24.902  26.792  1.00  0.00    -0.240 NA
BRANCH  85  93
ATOM     93  C   UNL A   1      34.410  23.565  23.547  1.00  0.00     0.256 C 
ATOM     94  O   UNL A   1      35.490  23.562  22.958  1.00  0.00    -0.269 OA
BRANCH  93  95
ATOM     95  C   UNL A   1      33.879  22.233  23.844  1.00  0.00     0.061 A 
ATOM     96  C   UNL A   1      32.787  21.781  23.097  1.00  0.00     0.035 A 
ATOM     97  C   UNL A   1      34.306  21.520  24.963  1.00  0.00     0.072 A 
ATOM     98  C   UNL A   1      32.194  20.590  23.473  1.00  0.00     0.112 A 
ATOM     99  C   UNL A   1      33.646  20.335  25.248  1.00  0.00     0.132 A 
ATOM    100  Cl  UNL A   1      35.588  22.034  25.988  1.00  0.00    -0.082 Cl
ATOM    101  N   UNL A   1      32.610  19.844  24.520  1.00  0.00    -0.263 NA
ENDBRANCH  93  95
ENDBRANCH  85  93
ENDBRANCH  81  83
ENDBRANCH  80  81
ENDBRANCH  79  80
ENDBRANCH  78  79
ENDBRANCH  77  78
ENDBRANCH  76  77
ENDBRANCH   1  76
TORSDOF 22
ENDMDL
MODEL 3
REMARK VINA RESULT:     -11.3      1.938      2.603
REMARK SMILES O=C(OCCOCCOCCOC(=O)[C@H]1Cc2[nH]cnc2CN1C(=O)c1ccncc1Cl)c1ccc(-c2c3nc(c(-c4c(F)cc(S(=O)(=O)[O-])cc4F)c4ccc([nH]4)c(-c4c(F)cc(S(=O)(=O)[O-])cc4F)c4nc(c(-c5c(F)cc(S(=O)(=O)[O-])cc5F)c5ccc2[nH]5)C=C4)C=C3)cc1
REMARK SMILES IDX 7 1 6 2 5 3 4 4 3 5 2 6 1 7 33 8 34 9 98 10 35 11 97 12
REMARK SMILES IDX 36 13 37 14 38 15 91 16 39 17 96 18 90 19 92 20 40 21 95 22
REMARK SMILES IDX 89 23 88 24 41 26 75 27 54 28 74 29 55 30 58 31 73 32 93 33
REMARK SMILES IDX 56 34 57 35 72 37 94 38 59 39 42 40 43 41 52 42 44 43 45 44
REMARK SMILES IDX 51 45 53 46 46 47 47 48 48 49 49 50 50 51 76 52 77 53 86 54
REMARK SMILES IDX 78 55 79 56 85 57 87 58 80 59 81 60 82 61 83 62 84 63 60 64
REMARK SMILES IDX 61 65 70 66 62 67 63 68 69 69 71 70 64 71 65 72 66 73 67 74
REMARK SMILES IDX 68 75 8 76 9 77 10 78 11 79 12 80 13 81 14 82 15 83 16 84
REMARK SMILES IDX 23 85 17 86 22 87 18 88 21 89 19 90 20 92 24 93 25 94 26 95
REMARK SMILES IDX 27 96 31 97 28 98 30 99 32 100 29 101
REMARK H PARENT 92 25 58 36 18 91
REMARK Flexibility Score: inf
ROOT
ATOM      1  C   UNL A   1      35.668  21.030  25.055  1.00  0.00     0.188 C 
ENDROOT
BRANCH   1   2
ATOM      2  O   UNL A   1      36.770  20.125  24.967  1.00  0.00    -0.376 OA
BRANCH   2   3
ATOM      3  C   UNL A   1      38.075  20.688  25.129  1.00  0.00     0.202 C 
BRANCH   3   4
ATOM      4  C   UNL A   1      38.276  22.143  25.588  1.00  0.00     0.261 C 
BRANCH   4   5
ATOM      5  O   UNL A   1      38.975  22.376  26.822  1.00  0.00    -0.460 OA
BRANCH   5   6
ATOM      6  C   UNL A   1      40.287  22.641  27.015  1.00  0.00     0.338 C 
ATOM      7  O   UNL A   1      41.085  21.709  27.088  1.00  0.00    -0.246 OA
BRANCH   6   8
ATOM      8  C   UNL A   1      40.799  24.014  27.236  1.00  0.00     0.060 A 
ATOM      9  C   UNL A   1      41.602  24.343  28.322  1.00  0.00     0.016 A 
ATOM     10  C   UNL A   1      40.270  25.035  26.416  1.00  0.00     0.016 A 
ATOM     11  C   UNL A   1      41.798  25.673  28.641  1.00  0.00     0.010 A 
ATOM     12  C   UNL A   1      40.443  26.371  26.749  1.00  0.00     0.010 A 
ATOM     13  C   UNL A   1      41.140  26.670  27.912  1.00  0.00    -0.014 A 
BRANCH  13  14
ATOM     14  C   UNL A   1      41.109  27.985  28.532  1.00  0.00     0.031 A 
ATOM     15  C   UNL A   1      42.218  28.897  28.171  1.00  0.00     0.074 A 
ATOM     16  C   UNL A   1      40.194  28.314  29.464  1.00  0.00     0.049 A 
ATOM     17  N   UNL A   1      43.235  29.239  28.892  1.00  0.00    -0.248 NA
ATOM     18  C   UNL A   1      42.259  29.388  26.790  1.00  0.00     0.031 C 
ATOM     19  C   UNL A   1      38.923  27.655  29.778  1.00  0.00     0.029 A 
ATOM     20  N   UNL A   1      40.203  29.385  30.304  1.00  0.00    -0.354 N 
ATOM     21  C   UNL A   1      43.947  30.157  28.127  1.00  0.00     0.074 A 
ATOM     22  C   UNL A   1      43.388  30.098  26.799  1.00  0.00     0.031 C 
ATOM     23  C   UNL A   1      38.194  28.459  30.586  1.00  0.00     0.029 A 
ATOM     24  C   UNL A   1      39.004  29.604  30.962  1.00  0.00     0.049 A 
ATOM     25  H   UNL A   1      40.995  29.955  30.433  1.00  0.00     0.167 HD
ATOM     26  C   UNL A   1      44.813  31.046  28.685  1.00  0.00     0.037 A 
ATOM     27  C   UNL A   1      38.685  30.690  31.708  1.00  0.00     0.037 A 
ATOM     28  C   UNL A   1      45.227  30.644  30.002  1.00  0.00     0.049 A 
ATOM     29  C   UNL A   1      39.958  31.311  32.158  1.00  0.00     0.074 A 
ATOM     30  C   UNL A   1      45.889  29.544  30.513  1.00  0.00     0.029 A 
ATOM     31  N   UNL A   1      44.666  31.274  31.087  1.00  0.00    -0.354 N 
ATOM     32  N   UNL A   1      40.783  30.757  33.006  1.00  0.00    -0.248 NA
ATOM     33  C   UNL A   1      40.530  32.368  31.338  1.00  0.00     0.031 C 
ATOM     34  C   UNL A   1      45.289  29.304  31.783  1.00  0.00     0.029 A 
ATOM     35  C   UNL A   1      44.326  30.295  31.987  1.00  0.00     0.049 A 
ATOM     36  H   UNL A   1      44.532  32.243  31.197  1.00  0.00     0.167 HD
ATOM     37  C   UNL A   1      42.049  31.105  32.558  1.00  0.00     0.074 A 
ATOM     38  C   UNL A   1      41.827  32.172  31.587  1.00  0.00     0.031 C 
ATOM     39  C   UNL A   1      43.138  30.325  32.815  1.00  0.00     0.037 A 
BRANCH  26  40
ATOM     40  C   UNL A   1      45.036  32.435  28.145  1.00  0.00     0.058 A 
ATOM     41  C   UNL A   1      46.314  32.827  27.702  1.00  0.00     0.135 A 
ATOM     42  C   UNL A   1      44.093  33.477  28.294  1.00  0.00     0.135 A 
ATOM     43  F   UNL A   1      47.293  31.922  27.552  1.00  0.00    -0.206 F 
ATOM     44  C   UNL A   1      46.644  34.165  27.473  1.00  0.00     0.059 A 
ATOM     45  C   UNL A   1      44.382  34.806  28.019  1.00  0.00     0.059 A 
ATOM     46  F   UNL A   1      42.875  33.264  28.813  1.00  0.00    -0.206 F 
ATOM     47  C   UNL A   1      45.673  35.147  27.649  1.00  0.00     0.060 A 
BRANCH  47  48
ATOM     48  S   UNL A   1      46.120  36.883  27.474  1.00  0.00     0.124 S 
ATOM     49  O   UNL A   1      44.811  37.524  27.523  1.00  0.00    -0.237 OA
ATOM     50  O   UNL A   1      46.981  37.095  28.633  1.00  0.00    -0.237 OA
ATOM     51  O   UNL A   1      46.797  36.925  26.182  1.00  0.00    -0.744 OA
ENDBRANCH  47  48
ENDBRANCH  26  40
BRANCH  27  52
ATOM     52  C   UNL A   1      37.386  31.409  31.713  1.00  0.00     0.058 A 
ATOM     53  C   UNL A   1      36.704  31.671  32.913  1.00  0.00     0.135 A 
ATOM     54  C   UNL A   1      36.926  32.098  30.571  1.00  0.00     0.135 A 
ATOM     55  F   UNL A   1      37.092  31.079  34.053  1.00  0.00    -0.206 F 
ATOM     56  C   UNL A   1      35.657  32.597  32.986  1.00  0.00     0.059 A 
ATOM     57  C   UNL A   1      35.878  33.014  30.617  1.00  0.00     0.059 A 
ATOM     58  F   UNL A   1      37.546  31.974  29.387  1.00  0.00    -0.206 F 
ATOM     59  C   UNL A   1      35.265  33.279  31.835  1.00  0.00     0.060 A 
BRANCH  59  60
ATOM     60  S   UNL A   1      34.040  34.602  31.956  1.00  0.00     0.124 S 
ATOM     61  O   UNL A   1      34.856  35.727  32.400  1.00  0.00    -0.237 OA
ATOM     62  O   UNL A   1      33.536  34.680  30.589  1.00  0.00    -0.237 OA
ATOM     63  O   UNL A   1      33.088  34.094  32.940  1.00  0.00    -0.744 OA
ENDBRANCH  59  60
ENDBRANCH  27  52
BRANCH  39  64
ATOM     64  C   UNL A   1      43.017  29.237  33.851  1.00  0.00     0.058 A 
ATOM     65  C   UNL A   1      43.301  29.415  35.216  1.00  0.00     0.135 A 
ATOM     66  C   UNL A   1      42.413  28.026  33.475  1.00  0.00     0.135 A 
ATOM     67  F   UNL A   1      43.784  30.579  35.673  1.00  0.00    -0.206 F 
ATOM     68  C   UNL A   1      43.020  28.424  36.160  1.00  0.00     0.059 A 
ATOM     69  C   UNL A   1      42.096  27.037  34.402  1.00  0.00     0.059 A 
ATOM     70  F   UNL A   1      42.061  27.820  32.194  1.00  0.00    -0.206 F 
ATOM     71  C   UNL A   1      42.407  27.241  35.745  1.00  0.00     0.060 A 
BRANCH  71  72
ATOM     72  S   UNL A   1      41.926  26.020  36.986  1.00  0.00     0.124 S 
ATOM     73  O   UNL A   1      42.043  24.768  36.250  1.00  0.00    -0.237 OA
ATOM     74  O   UNL A   1      42.913  26.233  38.041  1.00  0.00    -0.237 OA
ATOM     75  O   UNL A   1      40.560  26.411  37.338  1.00  0.00    -0.744 OA
ENDBRANCH  71  72
ENDBRANCH  39  64
ENDBRANCH  13  14
ENDBRANCH   6   8
ENDBRANCH   5   6
ENDBRANCH   4   5
ENDBRANCH   3   4
ENDBRANCH   2   3
ENDBRANCH   1   2
BRANCH   1  76
ATOM     76  C   UNL A   1      34.268  20.419  25.066  1.00  0.00     0.188 C 
BRANCH  76  77
ATOM     77  O   UNL A   1      33.546  20.587  26.284  1.00  0.00    -0.376 OA
BRANCH  77  78
ATOM     78  C   UNL A   1      33.831  21.772  27.011  1.00  0.00     0.202 C 
BRANCH  78  79
ATOM     79  C   UNL A   1      32.696  22.236  27.918  1.00  0.00     0.261 C 
BRANCH  79  80
ATOM     80  O   UNL A   1      32.064  23.449  27.457  1.00  0.00    -0.462 OA
BRANCH  80  81
ATOM     81  C   UNL A   1      31.332  23.344  26.313  1.00  0.00     0.329 C 
ATOM     82  O   UNL A   1      30.414  22.546  26.154  1.00  0.00    -0.250 OA
BRANCH  81  83
ATOM     83  C   UNL A   1      31.842  24.248  25.184  1.00  0.00     0.201 C 
ATOM     84  C   UNL A   1      31.090  24.203  23.823  1.00  0.00     0.093 C 
ATOM     85  N   UNL A   1      32.312  25.640  25.502  1.00  0.00    -0.318 N 
ATOM     86  C   UNL A   1      31.948  24.935  22.838  1.00  0.00     0.042 A 
ATOM     87  C   UNL A   1      33.361  26.148  24.582  1.00  0.00     0.179 C 
ATOM     88  N   UNL A   1      31.963  24.860  21.476  1.00  0.00    -0.348 N 
ATOM     89  C   UNL A   1      32.963  25.809  23.175  1.00  0.00     0.081 A 
ATOM     90  C   UNL A   1      32.984  25.671  21.048  1.00  0.00     0.197 A 
ATOM     91  H   UNL A   1      31.358  24.327  20.909  1.00  0.00     0.167 HD
ATOM     92  N   UNL A   1      33.612  26.246  22.053  1.00  0.00    -0.240 NA
BRANCH  85  93
ATOM     93  C   UNL A   1      31.633  26.604  26.238  1.00  0.00     0.256 C 
ATOM     94  O   UNL A   1      30.623  26.382  26.903  1.00  0.00    -0.269 OA
BRANCH  93  95
ATOM     95  C   UNL A   1      32.065  28.004  26.244  1.00  0.00     0.061 A 
ATOM     96  C   UNL A   1      32.873  28.436  27.300  1.00  0.00     0.035 A 
ATOM     97  C   UNL A   1      31.526  28.928  25.349  1.00  0.00     0.072 A 
ATOM     98  C   UNL A   1      33.159  29.787  27.385  1.00  0.00     0.112 A 
ATOM     99  C   UNL A   1      31.882  30.256  25.521  1.00  0.00     0.132 A 
ATOM    100  Cl  UNL A   1      30.462  28.502  24.067  1.00  0.00    -0.082 Cl
ATOM    101  N   UNL A   1      32.699  30.706  26.508  1.00  0.00    -0.263 NA
ENDBRANCH  93  95
ENDBRANCH  85  93
ENDBRANCH  81  83
ENDBRANCH  80  81
ENDBRANCH  79  80
ENDBRANCH  78  79
ENDBRANCH  77  78
ENDBRANCH  76  77
ENDBRANCH   1  76
TORSDOF 22
ENDMDL
