MODEL 1
REMARK VINA RESULT:     -10.7      0.000      0.000
REMARK SMILES C[C@@H](Oc1ccc(I)cc1)C(=O)NCc1ccc(C(=O)OCCOCCOCCOC(=O)c2ccc(-c3c4nc(c(-c5c(F)cc(S(=O)(=O)[O-])cc5F)c5ccc([nH]5)c(-c5c(F)cc(S(=O)(=O)[O-])cc5F)c5nc(c(-c6c(F)cc(S(=O)(=O)[O-])cc6F)c6ccc3[nH]6)C=C5)C=C4)cc2)cc1
REMARK SMILES IDX 25 1 24 2 23 3 22 4 21 5 19 6 20 7 18 8 15 9 16 10 100 11
REMARK SMILES IDX 17 12 99 13 14 14 13 15 11 16 12 17 2 19 1 20 3 21 4 22 5 23
REMARK SMILES IDX 10 24 6 25 9 26 7 27 8 28 26 29 27 30 28 31 29 32 30 33
REMARK SMILES IDX 31 34 32 35 33 36 34 37 98 38 35 39 97 40 36 41 37 42 38 43
REMARK SMILES IDX 91 44 39 45 96 46 90 47 92 48 40 49 95 50 89 51 88 52 41 54
REMARK SMILES IDX 75 55 54 56 74 57 55 58 58 59 73 60 93 61 56 62 57 63 72 65
REMARK SMILES IDX 94 66 59 67 42 68 43 69 52 70 44 71 45 72 51 73 53 74 46 75
REMARK SMILES IDX 47 76 48 77 49 78 50 79 76 80 77 81 86 82 78 83 79 84 85 85
REMARK SMILES IDX 87 86 80 87 81 88 82 89 83 90 84 91 60 92 61 93 70 94 62 95
REMARK SMILES IDX 63 96 69 97 71 98 64 99 65 100 66 101 67 102 68 103
REMARK H PARENT 13 18 92 53 58 64
REMARK Flexibility Score: inf
ROOT
ATOM      1  C   UNL A   1      46.390  19.518  25.036  1.00  0.00     0.188 C 
ENDROOT
BRANCH   1   2
ATOM      2  O   UNL A   1      45.344  18.584  24.926  1.00  0.00    -0.376 OA
BRANCH   2   3
ATOM      3  C   UNL A   1      43.994  19.003  25.000  1.00  0.00     0.202 C 
BRANCH   3   4
ATOM      4  C   UNL A   1      42.952  18.513  26.028  1.00  0.00     0.261 C 
BRANCH   4   5
ATOM      5  O   UNL A   1      41.589  18.900  25.849  1.00  0.00    -0.460 OA
BRANCH   5   6
ATOM      6  C   UNL A   1      41.280  20.161  26.248  1.00  0.00     0.338 C 
ATOM      7  O   UNL A   1      42.047  20.990  26.700  1.00  0.00    -0.246 OA
BRANCH   6   8
ATOM      8  C   UNL A   1      39.874  20.462  25.899  1.00  0.00     0.060 A 
ATOM      9  C   UNL A   1      37.213  20.944  25.139  1.00  0.00    -0.029 A 
ATOM     10  C   UNL A   1      37.769  19.663  25.010  1.00  0.00     0.006 A 
ATOM     11  C   UNL A   1      37.989  21.962  25.722  1.00  0.00     0.006 A 
ATOM     12  C   UNL A   1      39.096  19.426  25.371  1.00  0.00     0.016 A 
ATOM     13  C   UNL A   1      39.313  21.726  26.103  1.00  0.00     0.016 A 
BRANCH   9  14
ATOM     14  C   UNL A   1      35.788  21.235  24.734  1.00  0.00     0.151 C 
BRANCH  14  15
ATOM     15  N   UNL A   1      34.901  20.103  24.935  1.00  0.00    -0.349 N 
ATOM     16  C   UNL A   1      33.578  19.966  24.620  1.00  0.00     0.261 C 
ATOM     17  O   UNL A   1      33.054  18.865  24.808  1.00  0.00    -0.271 OA
ATOM     18  H   UNL A   1      35.314  19.317  25.362  1.00  0.00     0.163 HD
BRANCH  16  19
ATOM     19  C   UNL A   1      32.756  21.166  24.121  1.00  0.00     0.258 C 
ATOM     20  C   UNL A   1      32.109  20.780  22.791  1.00  0.00     0.064 C 
BRANCH  19  21
ATOM     21  O   UNL A   1      31.834  21.505  25.165  1.00  0.00    -0.481 OA
BRANCH  21  22
ATOM     22  C   UNL A   1      31.897  22.790  25.616  1.00  0.00     0.120 A 
ATOM     23  C   UNL A   1      33.077  23.525  25.531  1.00  0.00     0.047 A 
ATOM     24  C   UNL A   1      30.704  23.418  25.972  1.00  0.00     0.047 A 
ATOM     25  C   UNL A   1      33.080  24.883  25.852  1.00  0.00     0.018 A 
ATOM     26  C   UNL A   1      30.700  24.781  26.279  1.00  0.00     0.018 A 
ATOM     27  C   UNL A   1      31.889  25.508  26.219  1.00  0.00     0.013 A 
ATOM     28  I   UNL A   1      31.883  27.545  26.628  1.00  0.00    -0.044 I 
ENDBRANCH  21  22
ENDBRANCH  19  21
ENDBRANCH  16  19
ENDBRANCH  14  15
ENDBRANCH   9  14
ENDBRANCH   6   8
ENDBRANCH   5   6
ENDBRANCH   4   5
ENDBRANCH   3   4
ENDBRANCH   2   3
ENDBRANCH   1   2
BRANCH   1  29
ATOM     29  C   UNL A   1      45.994  20.968  24.685  1.00  0.00     0.188 C 
BRANCH  29  30
ATOM     30  O   UNL A   1      46.218  22.017  25.613  1.00  0.00    -0.376 OA
BRANCH  30  31
ATOM     31  C   UNL A   1      45.115  22.607  26.289  1.00  0.00     0.202 C 
BRANCH  31  32
ATOM     32  C   UNL A   1      44.487  23.940  25.842  1.00  0.00     0.261 C 
BRANCH  32  33
ATOM     33  O   UNL A   1      43.455  24.480  26.677  1.00  0.00    -0.460 OA
BRANCH  33  34
ATOM     34  C   UNL A   1      42.790  25.544  26.169  1.00  0.00     0.338 C 
ATOM     35  O   UNL A   1      42.486  25.741  24.998  1.00  0.00    -0.246 OA
BRANCH  34  36
ATOM     36  C   UNL A   1      42.318  26.391  27.276  1.00  0.00     0.060 A 
ATOM     37  C   UNL A   1      42.935  27.631  27.497  1.00  0.00     0.016 A 
ATOM     38  C   UNL A   1      41.301  25.943  28.119  1.00  0.00     0.016 A 
ATOM     39  C   UNL A   1      42.539  28.428  28.571  1.00  0.00     0.010 A 
ATOM     40  C   UNL A   1      40.924  26.731  29.208  1.00  0.00     0.010 A 
ATOM     41  C   UNL A   1      41.556  27.964  29.452  1.00  0.00    -0.014 A 
BRANCH  41  42
ATOM     42  C   UNL A   1      41.293  28.673  30.726  1.00  0.00     0.031 A 
ATOM     43  C   UNL A   1      40.184  29.685  30.765  1.00  0.00     0.074 A 
ATOM     44  C   UNL A   1      42.049  28.447  31.815  1.00  0.00     0.049 A 
ATOM     45  N   UNL A   1      39.864  30.531  31.707  1.00  0.00    -0.248 NA
ATOM     46  C   UNL A   1      39.323  29.756  29.572  1.00  0.00     0.031 C 
ATOM     47  C   UNL A   1      43.119  27.456  31.913  1.00  0.00     0.029 A 
ATOM     48  N   UNL A   1      42.044  29.062  33.044  1.00  0.00    -0.354 N 
ATOM     49  C   UNL A   1      38.780  31.249  31.216  1.00  0.00     0.074 A 
ATOM     50  C   UNL A   1      38.508  30.753  29.886  1.00  0.00     0.031 C 
ATOM     51  C   UNL A   1      43.689  27.549  33.127  1.00  0.00     0.029 A 
ATOM     52  C   UNL A   1      43.054  28.635  33.874  1.00  0.00     0.049 A 
ATOM     53  H   UNL A   1      41.382  29.742  33.304  1.00  0.00     0.167 HD
ATOM     54  C   UNL A   1      38.078  32.235  31.824  1.00  0.00     0.037 A 
ATOM     55  C   UNL A   1      43.444  29.097  35.080  1.00  0.00     0.037 A 
ATOM     56  C   UNL A   1      38.363  32.725  33.147  1.00  0.00     0.049 A 
ATOM     57  C   UNL A   1      42.696  30.249  35.706  1.00  0.00     0.074 A 
ATOM     58  C   UNL A   1      37.704  33.713  33.857  1.00  0.00     0.029 A 
ATOM     59  N   UNL A   1      39.397  32.273  33.953  1.00  0.00    -0.354 N 
ATOM     60  N   UNL A   1      41.666  30.915  35.240  1.00  0.00    -0.248 NA
ATOM     61  C   UNL A   1      43.163  30.713  37.021  1.00  0.00     0.031 C 
ATOM     62  C   UNL A   1      38.374  33.897  35.070  1.00  0.00     0.029 A 
ATOM     63  C   UNL A   1      39.408  32.977  35.146  1.00  0.00     0.049 A 
ATOM     64  H   UNL A   1      40.029  31.557  33.714  1.00  0.00     0.167 HD
ATOM     65  C   UNL A   1      41.336  31.845  36.222  1.00  0.00     0.074 A 
ATOM     66  C   UNL A   1      42.279  31.661  37.305  1.00  0.00     0.031 C 
ATOM     67  C   UNL A   1      40.338  32.764  36.228  1.00  0.00     0.037 A 
BRANCH  54  68
ATOM     68  C   UNL A   1      36.957  32.872  31.051  1.00  0.00     0.058 A 
ATOM     69  C   UNL A   1      37.198  33.777  30.003  1.00  0.00     0.135 A 
ATOM     70  C   UNL A   1      35.622  32.546  31.339  1.00  0.00     0.135 A 
ATOM     71  F   UNL A   1      38.454  34.140  29.698  1.00  0.00    -0.206 F 
ATOM     72  C   UNL A   1      36.153  34.354  29.287  1.00  0.00     0.059 A 
ATOM     73  C   UNL A   1      34.563  33.088  30.616  1.00  0.00     0.059 A 
ATOM     74  F   UNL A   1      35.334  31.691  32.332  1.00  0.00    -0.206 F 
ATOM     75  C   UNL A   1      34.839  34.002  29.600  1.00  0.00     0.060 A 
BRANCH  75  76
ATOM     76  S   UNL A   1      33.498  34.755  28.657  1.00  0.00     0.124 S 
ATOM     77  O   UNL A   1      32.516  35.015  29.706  1.00  0.00    -0.237 OA
ATOM     78  O   UNL A   1      34.142  35.933  28.086  1.00  0.00    -0.237 OA
ATOM     79  O   UNL A   1      33.130  33.717  27.699  1.00  0.00    -0.744 OA
ENDBRANCH  75  76
ENDBRANCH  54  68
BRANCH  55  80
ATOM     80  C   UNL A   1      44.612  28.484  35.770  1.00  0.00     0.058 A 
ATOM     81  C   UNL A   1      44.455  27.371  36.608  1.00  0.00     0.135 A 
ATOM     82  C   UNL A   1      45.907  29.001  35.609  1.00  0.00     0.135 A 
ATOM     83  F   UNL A   1      43.235  26.847  36.806  1.00  0.00    -0.206 F 
ATOM     84  C   UNL A   1      45.536  26.800  37.273  1.00  0.00     0.059 A 
ATOM     85  C   UNL A   1      47.008  28.431  36.240  1.00  0.00     0.059 A 
ATOM     86  F   UNL A   1      46.115  30.062  34.812  1.00  0.00    -0.206 F 
ATOM     87  C   UNL A   1      46.810  27.335  37.079  1.00  0.00     0.060 A 
BRANCH  87  88
ATOM     88  S   UNL A   1      48.211  26.556  37.911  1.00  0.00     0.124 S 
ATOM     89  O   UNL A   1      47.787  26.601  39.306  1.00  0.00    -0.237 OA
ATOM     90  O   UNL A   1      48.237  25.234  37.294  1.00  0.00    -0.237 OA
ATOM     91  O   UNL A   1      49.333  27.425  37.564  1.00  0.00    -0.744 OA
ENDBRANCH  87  88
ENDBRANCH  55  80
BRANCH  67  92
ATOM     92  C   UNL A   1      40.154  33.601  37.465  1.00  0.00     0.058 A 
ATOM     93  C   UNL A   1      39.294  33.216  38.506  1.00  0.00     0.135 A 
ATOM     94  C   UNL A   1      40.929  34.759  37.651  1.00  0.00     0.135 A 
ATOM     95  F   UNL A   1      38.526  32.124  38.378  1.00  0.00    -0.206 F 
ATOM     96  C   UNL A   1      39.205  33.954  39.683  1.00  0.00     0.059 A 
ATOM     97  C   UNL A   1      40.877  35.494  38.830  1.00  0.00     0.059 A 
ATOM     98  F   UNL A   1      41.774  35.166  36.690  1.00  0.00    -0.206 F 
ATOM     99  C   UNL A   1      40.009  35.086  39.840  1.00  0.00     0.060 A 
BRANCH  99 100
ATOM    100  S   UNL A   1      39.933  35.992  41.399  1.00  0.00     0.124 S 
ATOM    101  O   UNL A   1      39.774  34.908  42.363  1.00  0.00    -0.237 OA
ATOM    102  O   UNL A   1      41.221  36.678  41.424  1.00  0.00    -0.237 OA
ATOM    103  O   UNL A   1      38.771  36.860  41.234  1.00  0.00    -0.744 OA
ENDBRANCH  99 100
ENDBRANCH  67  92
ENDBRANCH  41  42
ENDBRANCH  34  36
ENDBRANCH  33  34
ENDBRANCH  32  33
ENDBRANCH  31  32
ENDBRANCH  30  31
ENDBRANCH  29  30
ENDBRANCH   1  29
TORSDOF 25
ENDMDL
MODEL 2
REMARK VINA RESULT:     -10.6      1.562      2.275
REMARK SMILES C[C@@H](Oc1ccc(I)cc1)C(=O)NCc1ccc(C(=O)OCCOCCOCCOC(=O)c2ccc(-c3c4nc(c(-c5c(F)cc(S(=O)(=O)[O-])cc5F)c5ccc([nH]5)c(-c5c(F)cc(S(=O)(=O)[O-])cc5F)c5nc(c(-c6c(F)cc(S(=O)(=O)[O-])cc6F)c6ccc3[nH]6)C=C5)C=C4)cc2)cc1
REMARK SMILES IDX 25 1 24 2 23 3 22 4 21 5 19 6 20 7 18 8 15 9 16 10 100 11
REMARK SMILES IDX 17 12 99 13 14 14 13 15 11 16 12 17 2 19 1 20 3 21 4 22 5 23
REMARK SMILES IDX 10 24 6 25 9 26 7 27 8 28 26 29 27 30 28 31 29 32 30 33
REMARK SMILES IDX 31 34 32 35 33 36 34 37 98 38 35 39 97 40 36 41 37 42 38 43
REMARK SMILES IDX 91 44 39 45 96 46 90 47 92 48 40 49 95 50 89 51 88 52 41 54
REMARK SMILES IDX 75 55 54 56 74 57 55 58 58 59 73 60 93 61 56 62 57 63 72 65
REMARK SMILES IDX 94 66 59 67 42 68 43 69 52 70 44 71 45 72 51 73 53 74 46 75
REMARK SMILES IDX 47 76 48 77 49 78 50 79 76 80 77 81 86 82 78 83 79 84 85 85
REMARK SMILES IDX 87 86 80 87 81 88 82 89 83 90 84 91 60 92 61 93 70 94 62 95
REMARK SMILES IDX 63 96 69 97 71 98 64 99 65 100 66 101 67 102 68 103
REMARK H PARENT 13 18 92 53 58 64
REMARK Flexibility Score: inf
ROOT
ATOM      1  C   UNL A   1      45.994  19.331  25.194  1.00  0.00     0.188 C 
ENDROOT
BRANCH   1   2
ATOM      2  O   UNL A   1      44.819  18.599  25.446  1.00  0.00    -0.376 OA
BRANCH   2   3
ATOM      3  C   UNL A   1      43.548  19.209  25.308  1.00  0.00     0.202 C 
BRANCH   3   4
ATOM      4  C   UNL A   1      42.288  18.867  26.131  1.00  0.00     0.261 C 
BRANCH   4   5
ATOM      5  O   UNL A   1      41.030  19.380  25.691  1.00  0.00    -0.460 OA
BRANCH   5   6
ATOM      6  C   UNL A   1      40.721  20.628  26.126  1.00  0.00     0.338 C 
ATOM      7  O   UNL A   1      41.492  21.452  26.582  1.00  0.00    -0.246 OA
BRANCH   6   8
ATOM      8  C   UNL A   1      39.306  20.928  25.813  1.00  0.00     0.060 A 
ATOM      9  C   UNL A   1      36.621  21.586  25.319  1.00  0.00    -0.029 A 
ATOM     10  C   UNL A   1      37.517  22.557  25.789  1.00  0.00     0.006 A 
ATOM     11  C   UNL A   1      37.109  20.298  25.031  1.00  0.00     0.006 A 
ATOM     12  C   UNL A   1      38.846  22.228  26.051  1.00  0.00     0.016 A 
ATOM     13  C   UNL A   1      38.446  19.968  25.275  1.00  0.00     0.016 A 
BRANCH   9  14
ATOM     14  C   UNL A   1      35.171  21.908  25.049  1.00  0.00     0.151 C 
BRANCH  14  15
ATOM     15  N   UNL A   1      34.968  22.582  23.779  1.00  0.00    -0.349 N 
ATOM     16  C   UNL A   1      33.807  22.838  23.104  1.00  0.00     0.261 C 
ATOM     17  O   UNL A   1      33.879  23.512  22.074  1.00  0.00    -0.271 OA
ATOM     18  H   UNL A   1      35.788  22.902  23.339  1.00  0.00     0.163 HD
BRANCH  16  19
ATOM     19  C   UNL A   1      32.471  22.239  23.574  1.00  0.00     0.258 C 
ATOM     20  C   UNL A   1      31.402  23.327  23.480  1.00  0.00     0.064 C 
BRANCH  19  21
ATOM     21  O   UNL A   1      32.225  21.079  22.768  1.00  0.00    -0.481 OA
BRANCH  21  22
ATOM     22  C   UNL A   1      32.516  19.881  23.350  1.00  0.00     0.120 A 
ATOM     23  C   UNL A   1      32.597  19.755  24.735  1.00  0.00     0.047 A 
ATOM     24  C   UNL A   1      32.527  18.746  22.541  1.00  0.00     0.047 A 
ATOM     25  C   UNL A   1      32.740  18.494  25.316  1.00  0.00     0.018 A 
ATOM     26  C   UNL A   1      32.654  17.481  23.120  1.00  0.00     0.018 A 
ATOM     27  C   UNL A   1      32.762  17.360  24.505  1.00  0.00     0.013 A 
ATOM     28  I   UNL A   1      32.904  15.479  25.376  1.00  0.00    -0.044 I 
ENDBRANCH  21  22
ENDBRANCH  19  21
ENDBRANCH  16  19
ENDBRANCH  14  15
ENDBRANCH   9  14
ENDBRANCH   6   8
ENDBRANCH   5   6
ENDBRANCH   4   5
ENDBRANCH   3   4
ENDBRANCH   2   3
ENDBRANCH   1   2
BRANCH   1  29
ATOM     29  C   UNL A   1      45.758  20.779  24.715  1.00  0.00     0.188 C 
BRANCH  29  30
ATOM     30  O   UNL A   1      46.082  21.874  25.556  1.00  0.00    -0.376 OA
BRANCH  30  31
ATOM     31  C   UNL A   1      45.054  22.525  26.292  1.00  0.00     0.202 C 
BRANCH  31  32
ATOM     32  C   UNL A   1      44.456  23.877  25.862  1.00  0.00     0.261 C 
BRANCH  32  33
ATOM     33  O   UNL A   1      43.493  24.468  26.743  1.00  0.00    -0.460 OA
BRANCH  33  34
ATOM     34  C   UNL A   1      42.752  25.468  26.212  1.00  0.00     0.338 C 
ATOM     35  O   UNL A   1      42.407  25.597  25.043  1.00  0.00    -0.246 OA
BRANCH  34  36
ATOM     36  C   UNL A   1      42.256  26.330  27.297  1.00  0.00     0.060 A 
ATOM     37  C   UNL A   1      42.895  27.555  27.540  1.00  0.00     0.016 A 
ATOM     38  C   UNL A   1      41.195  25.910  28.099  1.00  0.00     0.016 A 
ATOM     39  C   UNL A   1      42.475  28.365  28.595  1.00  0.00     0.010 A 
ATOM     40  C   UNL A   1      40.795  26.710  29.170  1.00  0.00     0.010 A 
ATOM     41  C   UNL A   1      41.446  27.929  29.437  1.00  0.00    -0.014 A 
BRANCH  41  42
ATOM     42  C   UNL A   1      41.150  28.648  30.698  1.00  0.00     0.031 A 
ATOM     43  C   UNL A   1      40.036  29.656  30.700  1.00  0.00     0.074 A 
ATOM     44  C   UNL A   1      41.880  28.435  31.807  1.00  0.00     0.049 A 
ATOM     45  N   UNL A   1      39.690  30.509  31.627  1.00  0.00    -0.248 NA
ATOM     46  C   UNL A   1      39.204  29.712  29.486  1.00  0.00     0.031 C 
ATOM     47  C   UNL A   1      42.952  27.450  31.939  1.00  0.00     0.029 A 
ATOM     48  N   UNL A   1      41.844  29.061  33.029  1.00  0.00    -0.354 N 
ATOM     49  C   UNL A   1      38.616  31.218  31.103  1.00  0.00     0.074 A 
ATOM     50  C   UNL A   1      38.378  30.708  29.771  1.00  0.00     0.031 C 
ATOM     51  C   UNL A   1      43.492  27.557  33.166  1.00  0.00     0.029 A 
ATOM     52  C   UNL A   1      42.835  28.647  33.887  1.00  0.00     0.049 A 
ATOM     53  H   UNL A   1      41.173  29.741  33.267  1.00  0.00     0.167 HD
ATOM     54  C   UNL A   1      37.895  32.206  31.684  1.00  0.00     0.037 A 
ATOM     55  C   UNL A   1      43.194  29.121  35.097  1.00  0.00     0.037 A 
ATOM     56  C   UNL A   1      38.146  32.710  33.009  1.00  0.00     0.049 A 
ATOM     57  C   UNL A   1      42.427  30.275  35.695  1.00  0.00     0.074 A 
ATOM     58  C   UNL A   1      37.466  33.701  33.694  1.00  0.00     0.029 A 
ATOM     59  N   UNL A   1      39.162  32.270  33.844  1.00  0.00    -0.354 N 
ATOM     60  N   UNL A   1      41.405  30.933  35.198  1.00  0.00    -0.248 NA
ATOM     61  C   UNL A   1      42.860  30.754  37.016  1.00  0.00     0.031 C 
ATOM     62  C   UNL A   1      38.106  33.899  34.921  1.00  0.00     0.029 A 
ATOM     63  C   UNL A   1      39.142  32.985  35.030  1.00  0.00     0.049 A 
ATOM     64  H   UNL A   1      39.803  31.554  33.627  1.00  0.00     0.167 HD
ATOM     65  C   UNL A   1      41.048  31.871  36.163  1.00  0.00     0.074 A 
ATOM     66  C   UNL A   1      41.965  31.701  37.270  1.00  0.00     0.031 C 
ATOM     67  C   UNL A   1      40.046  32.785  36.136  1.00  0.00     0.037 A 
BRANCH  54  68
ATOM     68  C   UNL A   1      36.790  32.831  30.878  1.00  0.00     0.058 A 
ATOM     69  C   UNL A   1      37.054  33.697  29.804  1.00  0.00     0.135 A 
ATOM     70  C   UNL A   1      35.448  32.532  31.163  1.00  0.00     0.135 A 
ATOM     71  F   UNL A   1      38.317  34.033  29.500  1.00  0.00    -0.206 F 
ATOM     72  C   UNL A   1      36.024  34.263  29.058  1.00  0.00     0.059 A 
ATOM     73  C   UNL A   1      34.404  33.063  30.412  1.00  0.00     0.059 A 
ATOM     74  F   UNL A   1      35.139  31.715  32.182  1.00  0.00    -0.206 F 
ATOM     75  C   UNL A   1      34.703  33.939  29.369  1.00  0.00     0.060 A 
BRANCH  75  76
ATOM     76  S   UNL A   1      33.381  34.676  28.387  1.00  0.00     0.124 S 
ATOM     77  O   UNL A   1      32.500  35.195  29.429  1.00  0.00    -0.237 OA
ATOM     78  O   UNL A   1      34.097  35.679  27.605  1.00  0.00    -0.237 OA
ATOM     79  O   UNL A   1      32.852  33.550  27.625  1.00  0.00    -0.744 OA
ENDBRANCH  75  76
ENDBRANCH  54  68
BRANCH  55  80
ATOM     80  C   UNL A   1      44.347  28.520  35.821  1.00  0.00     0.058 A 
ATOM     81  C   UNL A   1      44.159  27.488  36.752  1.00  0.00     0.135 A 
ATOM     82  C   UNL A   1      45.660  28.967  35.600  1.00  0.00     0.135 A 
ATOM     83  F   UNL A   1      42.923  27.034  37.010  1.00  0.00    -0.206 F 
ATOM     84  C   UNL A   1      45.227  26.930  37.448  1.00  0.00     0.059 A 
ATOM     85  C   UNL A   1      46.747  28.406  36.263  1.00  0.00     0.059 A 
ATOM     86  F   UNL A   1      45.897  29.948  34.714  1.00  0.00    -0.206 F 
ATOM     87  C   UNL A   1      46.518  27.393  37.193  1.00  0.00     0.060 A 
BRANCH  87  88
ATOM     88  S   UNL A   1      47.901  26.629  38.069  1.00  0.00     0.124 S 
ATOM     89  O   UNL A   1      47.402  26.600  39.439  1.00  0.00    -0.237 OA
ATOM     90  O   UNL A   1      48.008  25.336  37.401  1.00  0.00    -0.237 OA
ATOM     91  O   UNL A   1      49.007  27.549  37.819  1.00  0.00    -0.744 OA
ENDBRANCH  87  88
ENDBRANCH  55  80
BRANCH  67  92
ATOM     92  C   UNL A   1      39.829  33.633  37.361  1.00  0.00     0.058 A 
ATOM     93  C   UNL A   1      38.966  33.242  38.396  1.00  0.00     0.135 A 
ATOM     94  C   UNL A   1      40.576  34.810  37.541  1.00  0.00     0.135 A 
ATOM     95  F   UNL A   1      38.224  32.130  38.274  1.00  0.00    -0.206 F 
ATOM     96  C   UNL A   1      38.846  33.991  39.563  1.00  0.00     0.059 A 
ATOM     97  C   UNL A   1      40.494  35.558  38.710  1.00  0.00     0.059 A 
ATOM     98  F   UNL A   1      41.423  35.224  36.586  1.00  0.00    -0.206 F 
ATOM     99  C   UNL A   1      39.623  35.143  39.715  1.00  0.00     0.060 A 
BRANCH  99 100
ATOM    100  S   UNL A   1      39.509  36.066  41.263  1.00  0.00     0.124 S 
ATOM    101  O   UNL A   1      39.560  37.445  40.788  1.00  0.00    -0.237 OA
ATOM    102  O   UNL A   1      38.222  35.625  41.794  1.00  0.00    -0.237 OA
ATOM    103  O   UNL A   1      40.677  35.617  42.014  1.00  0.00    -0.744 OA
ENDBRANCH  99 100
ENDBRANCH  67  92
ENDBRANCH  41  42
ENDBRANCH  34  36
ENDBRANCH  33  34
ENDBRANCH  32  33
ENDBRANCH  31  32
ENDBRANCH  30  31
ENDBRANCH  29  30
ENDBRANCH   1  29
TORSDOF 25
ENDMDL
MODEL 3
REMARK VINA RESULT:     -10.2      1.960      8.603
REMARK SMILES C[C@@H](Oc1ccc(I)cc1)C(=O)NCc1ccc(C(=O)OCCOCCOCCOC(=O)c2ccc(-c3c4nc(c(-c5c(F)cc(S(=O)(=O)[O-])cc5F)c5ccc([nH]5)c(-c5c(F)cc(S(=O)(=O)[O-])cc5F)c5nc(c(-c6c(F)cc(S(=O)(=O)[O-])cc6F)c6ccc3[nH]6)C=C5)C=C4)cc2)cc1
REMARK SMILES IDX 25 1 24 2 23 3 22 4 21 5 19 6 20 7 18 8 15 9 16 10 100 11
REMARK SMILES IDX 17 12 99 13 14 14 13 15 11 16 12 17 2 19 1 20 3 21 4 22 5 23
REMARK SMILES IDX 10 24 6 25 9 26 7 27 8 28 26 29 27 30 28 31 29 32 30 33
REMARK SMILES IDX 31 34 32 35 33 36 34 37 98 38 35 39 97 40 36 41 37 42 38 43
REMARK SMILES IDX 91 44 39 45 96 46 90 47 92 48 40 49 95 50 89 51 88 52 41 54
REMARK SMILES IDX 75 55 54 56 74 57 55 58 58 59 73 60 93 61 56 62 57 63 72 65
REMARK SMILES IDX 94 66 59 67 42 68 43 69 52 70 44 71 45 72 51 73 53 74 46 75
REMARK SMILES IDX 47 76 48 77 49 78 50 79 76 80 77 81 86 82 78 83 79 84 85 85
REMARK SMILES IDX 87 86 80 87 81 88 82 89 83 90 84 91 60 92 61 93 70 94 62 95
REMARK SMILES IDX 63 96 69 97 71 98 64 99 65 100 66 101 67 102 68 103
REMARK H PARENT 13 18 92 53 58 64
REMARK Flexibility Score: inf
ROOT
ATOM      1  C   UNL A   1      40.258  22.024  27.069  1.00  0.00     0.188 C 
ENDROOT
BRANCH   1   2
ATOM      2  O   UNL A   1      39.849  20.999  26.197  1.00  0.00    -0.376 OA
BRANCH   2   3
ATOM      3  C   UNL A   1      38.561  21.025  25.611  1.00  0.00     0.202 C 
BRANCH   3   4
ATOM      4  C   UNL A   1      37.677  22.277  25.426  1.00  0.00     0.261 C 
BRANCH   4   5
ATOM      5  O   UNL A   1      36.418  22.129  24.769  1.00  0.00    -0.460 OA
BRANCH   5   6
ATOM      6  C   UNL A   1      36.180  22.999  23.754  1.00  0.00     0.338 C 
ATOM      7  O   UNL A   1      36.584  22.910  22.609  1.00  0.00    -0.246 OA
BRANCH   6   8
ATOM      8  C   UNL A   1      35.200  24.018  24.192  1.00  0.00     0.060 A 
ATOM      9  C   UNL A   1      33.378  26.027  24.918  1.00  0.00    -0.029 A 
ATOM     10  C   UNL A   1      33.672  25.787  23.568  1.00  0.00     0.006 A 
ATOM     11  C   UNL A   1      33.956  25.196  25.894  1.00  0.00     0.006 A 
ATOM     12  C   UNL A   1      34.590  24.801  23.207  1.00  0.00     0.016 A 
ATOM     13  C   UNL A   1      34.863  24.194  25.536  1.00  0.00     0.016 A 
BRANCH   9  14
ATOM     14  C   UNL A   1      32.406  27.104  25.339  1.00  0.00     0.151 C 
BRANCH  14  15
ATOM     15  N   UNL A   1      31.716  27.713  24.217  1.00  0.00    -0.349 N 
ATOM     16  C   UNL A   1      30.546  27.350  23.611  1.00  0.00     0.261 C 
ATOM     17  O   UNL A   1      30.107  28.084  22.722  1.00  0.00    -0.271 OA
ATOM     18  H   UNL A   1      32.158  28.506  23.834  1.00  0.00     0.163 HD
BRANCH  16  19
ATOM     19  C   UNL A   1      29.842  26.033  23.978  1.00  0.00     0.258 C 
ATOM     20  C   UNL A   1      28.343  26.309  24.090  1.00  0.00     0.064 C 
BRANCH  19  21
ATOM     21  O   UNL A   1      30.207  25.072  22.978  1.00  0.00    -0.481 OA
BRANCH  21  22
ATOM     22  C   UNL A   1      30.761  23.916  23.441  1.00  0.00     0.120 A 
ATOM     23  C   UNL A   1      31.546  23.113  22.616  1.00  0.00     0.047 A 
ATOM     24  C   UNL A   1      30.696  23.662  24.810  1.00  0.00     0.047 A 
ATOM     25  C   UNL A   1      32.230  22.020  23.149  1.00  0.00     0.018 A 
ATOM     26  C   UNL A   1      31.392  22.577  25.350  1.00  0.00     0.018 A 
ATOM     27  C   UNL A   1      32.155  21.759  24.516  1.00  0.00     0.013 A 
ATOM     28  I   UNL A   1      33.231  20.174  25.319  1.00  0.00    -0.044 I 
ENDBRANCH  21  22
ENDBRANCH  19  21
ENDBRANCH  16  19
ENDBRANCH  14  15
ENDBRANCH   9  14
ENDBRANCH   6   8
ENDBRANCH   5   6
ENDBRANCH   4   5
ENDBRANCH   3   4
ENDBRANCH   2   3
ENDBRANCH   1   2
BRANCH   1  29
ATOM     29  C   UNL A   1      41.587  21.749  27.804  1.00  0.00     0.188 C 
BRANCH  29  30
ATOM     30  O   UNL A   1      42.825  21.909  27.130  1.00  0.00    -0.376 OA
BRANCH  30  31
ATOM     31  C   UNL A   1      42.838  22.183  25.736  1.00  0.00     0.202 C 
BRANCH  31  32
ATOM     32  C   UNL A   1      43.111  23.589  25.170  1.00  0.00     0.261 C 
BRANCH  32  33
ATOM     33  O   UNL A   1      43.285  24.647  26.121  1.00  0.00    -0.460 OA
BRANCH  33  34
ATOM     34  C   UNL A   1      42.534  25.752  25.909  1.00  0.00     0.338 C 
ATOM     35  O   UNL A   1      41.881  26.027  24.908  1.00  0.00    -0.246 OA
BRANCH  34  36
ATOM     36  C   UNL A   1      42.471  26.538  27.151  1.00  0.00     0.060 A 
ATOM     37  C   UNL A   1      41.639  26.101  28.193  1.00  0.00     0.016 A 
ATOM     38  C   UNL A   1      43.194  27.725  27.269  1.00  0.00     0.016 A 
ATOM     39  C   UNL A   1      41.523  26.857  29.359  1.00  0.00     0.010 A 
ATOM     40  C   UNL A   1      43.056  28.493  28.427  1.00  0.00     0.010 A 
ATOM     41  C   UNL A   1      42.204  28.075  29.466  1.00  0.00    -0.014 A 
BRANCH  41  42
ATOM     42  C   UNL A   1      41.910  29.006  30.580  1.00  0.00     0.031 A 
ATOM     43  C   UNL A   1      42.746  28.917  31.825  1.00  0.00     0.074 A 
ATOM     44  C   UNL A   1      40.897  29.886  30.500  1.00  0.00     0.049 A 
ATOM     45  N   UNL A   1      42.587  29.514  32.976  1.00  0.00    -0.248 NA
ATOM     46  C   UNL A   1      43.918  28.028  31.762  1.00  0.00     0.031 C 
ATOM     47  C   UNL A   1      40.049  30.098  29.327  1.00  0.00     0.029 A 
ATOM     48  N   UNL A   1      40.394  30.752  31.441  1.00  0.00    -0.354 N 
ATOM     49  C   UNL A   1      43.623  29.058  33.782  1.00  0.00     0.074 A 
ATOM     50  C   UNL A   1      44.395  28.122  32.995  1.00  0.00     0.031 C 
ATOM     51  C   UNL A   1      39.111  31.012  29.628  1.00  0.00     0.029 A 
ATOM     52  C   UNL A   1      39.264  31.417  31.025  1.00  0.00     0.049 A 
ATOM     53  H   UNL A   1      40.802  30.882  32.326  1.00  0.00     0.167 HD
ATOM     54  C   UNL A   1      43.903  29.392  35.065  1.00  0.00     0.037 A 
ATOM     55  C   UNL A   1      38.430  32.226  31.709  1.00  0.00     0.037 A 
ATOM     56  C   UNL A   1      43.122  30.320  35.840  1.00  0.00     0.049 A 
ATOM     57  C   UNL A   1      38.715  32.525  33.161  1.00  0.00     0.074 A 
ATOM     58  C   UNL A   1      43.328  30.735  37.144  1.00  0.00     0.029 A 
ATOM     59  N   UNL A   1      41.983  30.968  35.388  1.00  0.00    -0.354 N 
ATOM     60  N   UNL A   1      39.703  32.098  33.912  1.00  0.00    -0.248 NA
ATOM     61  C   UNL A   1      37.773  33.412  33.859  1.00  0.00     0.031 C 
ATOM     62  C   UNL A   1      42.280  31.590  37.498  1.00  0.00     0.029 A 
ATOM     63  C   UNL A   1      41.460  31.764  36.394  1.00  0.00     0.049 A 
ATOM     64  H   UNL A   1      41.601  30.877  34.485  1.00  0.00     0.167 HD
ATOM     65  C   UNL A   1      39.525  32.700  35.155  1.00  0.00     0.074 A 
ATOM     66  C   UNL A   1      38.333  33.515  35.058  1.00  0.00     0.031 C 
ATOM     67  C   UNL A   1      40.286  32.592  36.274  1.00  0.00     0.037 A 
BRANCH  54  68
ATOM     68  C   UNL A   1      45.079  28.723  35.720  1.00  0.00     0.058 A 
ATOM     69  C   UNL A   1      44.954  27.500  36.399  1.00  0.00     0.135 A 
ATOM     70  C   UNL A   1      46.358  29.298  35.636  1.00  0.00     0.135 A 
ATOM     71  F   UNL A   1      43.752  26.917  36.527  1.00  0.00    -0.206 F 
ATOM     72  C   UNL A   1      46.052  26.885  36.994  1.00  0.00     0.059 A 
ATOM     73  C   UNL A   1      47.474  28.685  36.198  1.00  0.00     0.059 A 
ATOM     74  F   UNL A   1      46.533  30.468  35.003  1.00  0.00    -0.206 F 
ATOM     75  C   UNL A   1      47.307  27.485  36.887  1.00  0.00     0.060 A 
BRANCH  75  76
ATOM     76  S   UNL A   1      48.720  26.670  37.659  1.00  0.00     0.124 S 
ATOM     77  O   UNL A   1      48.568  25.302  37.172  1.00  0.00    -0.237 OA
ATOM     78  O   UNL A   1      49.848  27.416  37.110  1.00  0.00    -0.237 OA
ATOM     79  O   UNL A   1      48.483  26.856  39.087  1.00  0.00    -0.744 OA
ENDBRANCH  75  76
ENDBRANCH  54  68
BRANCH  55  80
ATOM     80  C   UNL A   1      37.232  32.801  31.037  1.00  0.00     0.058 A 
ATOM     81  C   UNL A   1      37.319  33.983  30.288  1.00  0.00     0.135 A 
ATOM     82  C   UNL A   1      35.976  32.180  31.132  1.00  0.00     0.135 A 
ATOM     83  F   UNL A   1      38.494  34.622  30.178  1.00  0.00    -0.206 F 
ATOM     84  C   UNL A   1      36.203  34.539  29.670  1.00  0.00     0.059 A 
ATOM     85  C   UNL A   1      34.852  32.701  30.499  1.00  0.00     0.059 A 
ATOM     86  F   UNL A   1      35.838  31.042  31.830  1.00  0.00    -0.206 F 
ATOM     87  C   UNL A   1      34.974  33.888  29.778  1.00  0.00     0.060 A 
BRANCH  87  88
ATOM     88  S   UNL A   1      33.543  34.595  28.932  1.00  0.00     0.124 S 
ATOM     89  O   UNL A   1      32.623  34.811  30.042  1.00  0.00    -0.237 OA
ATOM     90  O   UNL A   1      34.109  35.796  28.328  1.00  0.00    -0.237 OA
ATOM     91  O   UNL A   1      33.159  33.548  27.989  1.00  0.00    -0.744 OA
ENDBRANCH  87  88
ENDBRANCH  55  80
BRANCH  67  92
ATOM     92  C   UNL A   1      39.907  33.422  37.470  1.00  0.00     0.058 A 
ATOM     93  C   UNL A   1      38.980  32.977  38.425  1.00  0.00     0.135 A 
ATOM     94  C   UNL A   1      40.559  34.643  37.712  1.00  0.00     0.135 A 
ATOM     95  F   UNL A   1      38.322  31.821  38.241  1.00  0.00    -0.206 F 
ATOM     96  C   UNL A   1      38.709  33.716  39.573  1.00  0.00     0.059 A 
ATOM     97  C   UNL A   1      40.325  35.384  38.866  1.00  0.00     0.059 A 
ATOM     98  F   UNL A   1      41.462  35.111  36.835  1.00  0.00    -0.206 F 
ATOM     99  C   UNL A   1      39.394  34.913  39.790  1.00  0.00     0.060 A 
BRANCH  99 100
ATOM    100  S   UNL A   1      39.083  35.825  41.316  1.00  0.00     0.124 S 
ATOM    101  O   UNL A   1      37.644  35.649  41.477  1.00  0.00    -0.237 OA
ATOM    102  O   UNL A   1      39.921  35.116  42.279  1.00  0.00    -0.237 OA
ATOM    103  O   UNL A   1      39.518  37.182  40.998  1.00  0.00    -0.744 OA
ENDBRANCH  99 100
ENDBRANCH  67  92
ENDBRANCH  41  42
ENDBRANCH  34  36
ENDBRANCH  33  34
ENDBRANCH  32  33
ENDBRANCH  31  32
ENDBRANCH  30  31
ENDBRANCH  29  30
ENDBRANCH   1  29
TORSDOF 25
ENDMDL
