MODEL 1
REMARK VINA RESULT:      -8.8      0.000      0.000
REMARK SMILES C=CC[N@@H+](CC(=O)OCCOCCOCCOC(=O)c1ccc(-c2c3nc(c(-c4c(F)cc(S(=O)(=O)[O-])cc4F)c4ccc([nH]4)c(-c4c(F)cc(S(=O)(=O)[O-])cc4F)c4nc(c(-c5c(F)cc(S(=O)(=O)[O-])cc5F)c5ccc2[nH]5)C=C4)C=C3)cc1)C[C@H]1CCC[C@H](C)C1
REMARK SMILES IDX 12 1 11 2 10 3 9 4 8 5 6 6 7 7 5 8 4 9 3 11 2 12 1 13 86 14
REMARK SMILES IDX 87 15 88 16 93 17 89 18 91 19 90 20 92 21 13 22 14 23 15 24
REMARK SMILES IDX 16 25 17 26 18 27 19 28 20 29 21 30 85 31 22 32 84 33 23 34
REMARK SMILES IDX 24 35 25 36 78 37 26 38 83 39 77 40 79 41 27 42 82 43 76 44
REMARK SMILES IDX 75 45 28 47 62 48 41 49 61 50 42 51 45 52 60 53 80 54 43 55
REMARK SMILES IDX 44 56 59 58 81 59 46 60 29 61 30 62 39 63 31 64 32 65 38 66
REMARK SMILES IDX 40 67 33 68 34 69 35 70 36 71 37 72 63 73 64 74 73 75 65 76
REMARK SMILES IDX 66 77 72 78 74 79 67 80 68 81 69 82 70 83 71 84 47 85 48 86
REMARK SMILES IDX 57 87 49 88 50 89 56 90 58 91 51 92 52 93 53 94 54 95 55 96
REMARK H PARENT 4 10 79 46 45 57
REMARK Flexibility Score: inf
ROOT
ATOM      1  C   UNL A   1      39.285  21.336  25.686  1.00  0.00     0.188 C 
ENDROOT
BRANCH   1   2
ATOM      2  O   UNL A   1      38.085  21.954  26.144  1.00  0.00    -0.376 OA
BRANCH   2   3
ATOM      3  C   UNL A   1      37.624  23.093  25.426  1.00  0.00     0.202 C 
BRANCH   3   4
ATOM      4  C   UNL A   1      36.417  23.790  26.055  1.00  0.00     0.261 C 
BRANCH   4   5
ATOM      5  O   UNL A   1      35.651  24.534  25.080  1.00  0.00    -0.459 OA
BRANCH   5   6
ATOM      6  C   UNL A   1      34.369  24.818  25.421  1.00  0.00     0.361 C 
ATOM      7  O   UNL A   1      33.912  25.958  25.426  1.00  0.00    -0.245 OA
BRANCH   6   8
ATOM      8  C   UNL A   1      33.482  23.612  25.770  1.00  0.00     0.386 C 
BRANCH   8   9
ATOM      9  N   UNL A   1      33.311  22.469  24.822  1.00  0.00    -0.322 N 
ATOM     10  H   UNL A   1      34.100  22.458  24.175  1.00  0.00     0.348 HD
BRANCH   9  11
ATOM     11  C   UNL A   1      32.220  22.651  23.866  1.00  0.00     0.290 C 
BRANCH  11  12
ATOM     12  C   UNL A   1      32.605  22.370  22.441  1.00  0.00     0.025 C 
ATOM     13  C   UNL A   1      33.310  23.213  21.672  1.00  0.00     0.010 C 
ENDBRANCH  11  12
ENDBRANCH   9  11
BRANCH   9  14
ATOM     14  C   UNL A   1      33.443  21.169  25.507  1.00  0.00     0.266 C 
BRANCH  14  15
ATOM     15  C   UNL A   1      33.602  19.889  24.646  1.00  0.00     0.044 C 
ATOM     16  C   UNL A   1      34.808  19.026  25.053  1.00  0.00     0.009 C 
ATOM     17  C   UNL A   1      32.344  19.004  24.685  1.00  0.00     0.012 C 
ATOM     18  C   UNL A   1      34.970  17.827  24.115  1.00  0.00     0.001 C 
ATOM     19  C   UNL A   1      32.440  17.791  23.743  1.00  0.00    -0.014 C 
ATOM     20  C   UNL A   1      33.703  16.974  24.035  1.00  0.00     0.003 C 
ATOM     21  C   UNL A   1      32.364  18.206  22.269  1.00  0.00     0.007 C 
ENDBRANCH  14  15
ENDBRANCH   9  14
ENDBRANCH   8   9
ENDBRANCH   6   8
ENDBRANCH   5   6
ENDBRANCH   4   5
ENDBRANCH   3   4
ENDBRANCH   2   3
ENDBRANCH   1   2
BRANCH   1  22
ATOM     22  C   UNL A   1      40.588  21.750  26.377  1.00  0.00     0.188 C 
BRANCH  22  23
ATOM     23  O   UNL A   1      41.727  21.463  25.569  1.00  0.00    -0.376 OA
BRANCH  23  24
ATOM     24  C   UNL A   1      42.885  22.165  26.002  1.00  0.00     0.202 C 
BRANCH  24  25
ATOM     25  C   UNL A   1      42.889  23.573  25.408  1.00  0.00     0.261 C 
BRANCH  25  26
ATOM     26  O   UNL A   1      42.759  24.605  26.408  1.00  0.00    -0.460 OA
BRANCH  26  27
ATOM     27  C   UNL A   1      42.608  25.866  25.963  1.00  0.00     0.338 C 
ATOM     28  O   UNL A   1      42.803  26.269  24.822  1.00  0.00    -0.246 OA
BRANCH  27  29
ATOM     29  C   UNL A   1      42.092  26.709  27.055  1.00  0.00     0.060 A 
ATOM     30  C   UNL A   1      42.695  27.941  27.336  1.00  0.00     0.016 A 
ATOM     31  C   UNL A   1      41.069  26.226  27.871  1.00  0.00     0.016 A 
ATOM     32  C   UNL A   1      42.319  28.666  28.470  1.00  0.00     0.010 A 
ATOM     33  C   UNL A   1      40.688  26.956  28.999  1.00  0.00     0.010 A 
ATOM     34  C   UNL A   1      41.335  28.162  29.327  1.00  0.00    -0.014 A 
BRANCH  34  35
ATOM     35  C   UNL A   1      41.042  28.808  30.631  1.00  0.00     0.031 A 
ATOM     36  C   UNL A   1      39.925  29.813  30.707  1.00  0.00     0.074 A 
ATOM     37  C   UNL A   1      41.789  28.543  31.717  1.00  0.00     0.049 A 
ATOM     38  N   UNL A   1      39.635  30.662  31.658  1.00  0.00    -0.248 NA
ATOM     39  C   UNL A   1      39.018  29.872  29.549  1.00  0.00     0.031 C 
ATOM     40  C   UNL A   1      42.856  27.547  31.788  1.00  0.00     0.029 A 
ATOM     41  N   UNL A   1      41.780  29.119  32.964  1.00  0.00    -0.354 N 
ATOM     42  C   UNL A   1      38.536  31.380  31.202  1.00  0.00     0.074 A 
ATOM     43  C   UNL A   1      38.211  30.867  29.888  1.00  0.00     0.031 C 
ATOM     44  C   UNL A   1      43.424  27.603  33.005  1.00  0.00     0.029 A 
ATOM     45  C   UNL A   1      42.798  28.676  33.776  1.00  0.00     0.049 A 
ATOM     46  H   UNL A   1      41.113  29.783  33.249  1.00  0.00     0.167 HD
ATOM     47  C   UNL A   1      37.866  32.383  31.821  1.00  0.00     0.037 A 
ATOM     48  C   UNL A   1      43.211  29.119  34.980  1.00  0.00     0.037 A 
ATOM     49  C   UNL A   1      38.194  32.878  33.133  1.00  0.00     0.049 A 
ATOM     50  C   UNL A   1      42.498  30.280  35.623  1.00  0.00     0.074 A 
ATOM     51  C   UNL A   1      37.574  33.884  33.854  1.00  0.00     0.029 A 
ATOM     52  N   UNL A   1      39.232  32.403  33.920  1.00  0.00    -0.354 N 
ATOM     53  N   UNL A   1      41.475  30.970  35.175  1.00  0.00    -0.248 NA
ATOM     54  C   UNL A   1      42.999  30.730  36.929  1.00  0.00     0.031 C 
ATOM     55  C   UNL A   1      38.264  34.046  35.061  1.00  0.00     0.029 A 
ATOM     56  C   UNL A   1      39.284  33.109  35.111  1.00  0.00     0.049 A 
ATOM     57  H   UNL A   1      39.843  31.674  33.669  1.00  0.00     0.167 HD
ATOM     58  C   UNL A   1      41.198  31.920  36.153  1.00  0.00     0.074 A 
ATOM     59  C   UNL A   1      42.155  31.711  37.220  1.00  0.00     0.031 C 
ATOM     60  C   UNL A   1      40.239  32.879  36.167  1.00  0.00     0.037 A 
BRANCH  47  61
ATOM     61  C   UNL A   1      36.739  33.037  31.071  1.00  0.00     0.058 A 
ATOM     62  C   UNL A   1      35.395  32.787  31.386  1.00  0.00     0.135 A 
ATOM     63  C   UNL A   1      37.012  33.954  30.042  1.00  0.00     0.135 A 
ATOM     64  F   UNL A   1      35.078  31.907  32.349  1.00  0.00    -0.206 F 
ATOM     65  C   UNL A   1      34.359  33.405  30.690  1.00  0.00     0.059 A 
ATOM     66  C   UNL A   1      35.993  34.600  29.349  1.00  0.00     0.059 A 
ATOM     67  F   UNL A   1      38.280  34.227  29.700  1.00  0.00    -0.206 F 
ATOM     68  C   UNL A   1      34.668  34.309  29.671  1.00  0.00     0.060 A 
BRANCH  68  69
ATOM     69  S   UNL A   1      33.315  35.102  28.779  1.00  0.00     0.124 S 
ATOM     70  O   UNL A   1      32.758  33.976  28.035  1.00  0.00    -0.237 OA
ATOM     71  O   UNL A   1      32.485  35.620  29.861  1.00  0.00    -0.237 OA
ATOM     72  O   UNL A   1      33.988  36.114  27.971  1.00  0.00    -0.744 OA
ENDBRANCH  68  69
ENDBRANCH  47  61
BRANCH  48  73
ATOM     73  C   UNL A   1      44.390  28.494  35.636  1.00  0.00     0.058 A 
ATOM     74  C   UNL A   1      44.236  27.433  36.541  1.00  0.00     0.135 A 
ATOM     75  C   UNL A   1      45.695  28.939  35.367  1.00  0.00     0.135 A 
ATOM     76  F   UNL A   1      43.009  26.983  36.842  1.00  0.00    -0.206 F 
ATOM     77  C   UNL A   1      45.331  26.840  37.161  1.00  0.00     0.059 A 
ATOM     78  C   UNL A   1      46.807  28.345  35.954  1.00  0.00     0.059 A 
ATOM     79  F   UNL A   1      45.895  29.947  34.503  1.00  0.00    -0.206 F 
ATOM     80  C   UNL A   1      46.614  27.301  36.858  1.00  0.00     0.060 A 
BRANCH  80  81
ATOM     81  S   UNL A   1      48.033  26.489  37.626  1.00  0.00     0.124 S 
ATOM     82  O   UNL A   1      47.480  25.179  37.953  1.00  0.00    -0.237 OA
ATOM     83  O   UNL A   1      49.020  26.514  36.551  1.00  0.00    -0.237 OA
ATOM     84  O   UNL A   1      48.336  27.350  38.765  1.00  0.00    -0.744 OA
ENDBRANCH  80  81
ENDBRANCH  48  73
BRANCH  60  85
ATOM     85  C   UNL A   1      40.148  33.751  37.388  1.00  0.00     0.058 A 
ATOM     86  C   UNL A   1      39.343  33.402  38.484  1.00  0.00     0.135 A 
ATOM     87  C   UNL A   1      40.921  34.918  37.485  1.00  0.00     0.135 A 
ATOM     88  F   UNL A   1      38.579  32.300  38.438  1.00  0.00    -0.206 F 
ATOM     89  C   UNL A   1      39.297  34.192  39.630  1.00  0.00     0.059 A 
ATOM     90  C   UNL A   1      40.909  35.710  38.630  1.00  0.00     0.059 A 
ATOM     91  F   UNL A   1      41.716  35.289  36.469  1.00  0.00    -0.206 F 
ATOM     92  C   UNL A   1      40.085  35.343  39.693  1.00  0.00     0.060 A 
BRANCH  92  93
ATOM     93  S   UNL A   1      40.048  36.338  41.200  1.00  0.00     0.124 S 
ATOM     94  O   UNL A   1      38.740  36.978  41.097  1.00  0.00    -0.237 OA
ATOM     95  O   UNL A   1      40.179  35.329  42.246  1.00  0.00    -0.237 OA
ATOM     96  O   UNL A   1      41.196  37.227  41.047  1.00  0.00    -0.744 OA
ENDBRANCH  92  93
ENDBRANCH  60  85
ENDBRANCH  34  35
ENDBRANCH  27  29
ENDBRANCH  26  27
ENDBRANCH  25  26
ENDBRANCH  24  25
ENDBRANCH  23  24
ENDBRANCH  22  23
ENDBRANCH   1  22
TORSDOF 25
ENDMDL
MODEL 2
REMARK VINA RESULT:      -8.7      1.609      3.284
REMARK SMILES C=CC[N@@H+](CC(=O)OCCOCCOCCOC(=O)c1ccc(-c2c3nc(c(-c4c(F)cc(S(=O)(=O)[O-])cc4F)c4ccc([nH]4)c(-c4c(F)cc(S(=O)(=O)[O-])cc4F)c4nc(c(-c5c(F)cc(S(=O)(=O)[O-])cc5F)c5ccc2[nH]5)C=C4)C=C3)cc1)C[C@H]1CCC[C@H](C)C1
REMARK SMILES IDX 12 1 11 2 10 3 9 4 8 5 6 6 7 7 5 8 4 9 3 11 2 12 1 13 86 14
REMARK SMILES IDX 87 15 88 16 93 17 89 18 91 19 90 20 92 21 13 22 14 23 15 24
REMARK SMILES IDX 16 25 17 26 18 27 19 28 20 29 21 30 85 31 22 32 84 33 23 34
REMARK SMILES IDX 24 35 25 36 78 37 26 38 83 39 77 40 79 41 27 42 82 43 76 44
REMARK SMILES IDX 75 45 28 47 62 48 41 49 61 50 42 51 45 52 60 53 80 54 43 55
REMARK SMILES IDX 44 56 59 58 81 59 46 60 29 61 30 62 39 63 31 64 32 65 38 66
REMARK SMILES IDX 40 67 33 68 34 69 35 70 36 71 37 72 63 73 64 74 73 75 65 76
REMARK SMILES IDX 66 77 72 78 74 79 67 80 68 81 69 82 70 83 71 84 47 85 48 86
REMARK SMILES IDX 57 87 49 88 50 89 56 90 58 91 51 92 52 93 53 94 54 95 55 96
REMARK H PARENT 4 10 79 46 45 57
REMARK Flexibility Score: inf
ROOT
ATOM      1  C   UNL A   1      38.435  21.801  25.686  1.00  0.00     0.188 C 
ENDROOT
BRANCH   1   2
ATOM      2  O   UNL A   1      37.186  22.388  26.045  1.00  0.00    -0.376 OA
BRANCH   2   3
ATOM      3  C   UNL A   1      36.430  22.996  25.005  1.00  0.00     0.202 C 
BRANCH   3   4
ATOM      4  C   UNL A   1      35.491  22.043  24.266  1.00  0.00     0.261 C 
BRANCH   4   5
ATOM      5  O   UNL A   1      34.120  22.181  24.706  1.00  0.00    -0.459 OA
BRANCH   5   6
ATOM      6  C   UNL A   1      33.199  22.379  23.729  1.00  0.00     0.361 C 
ATOM      7  O   UNL A   1      32.221  21.651  23.572  1.00  0.00    -0.245 OA
BRANCH   6   8
ATOM      8  C   UNL A   1      33.419  23.607  22.833  1.00  0.00     0.386 C 
BRANCH   8   9
ATOM      9  N   UNL A   1      32.877  24.951  23.203  1.00  0.00    -0.322 N 
ATOM     10  H   UNL A   1      32.051  24.821  23.788  1.00  0.00     0.348 HD
BRANCH   9  11
ATOM     11  C   UNL A   1      32.270  25.672  22.087  1.00  0.00     0.290 C 
BRANCH  11  12
ATOM     12  C   UNL A   1      32.884  25.358  20.752  1.00  0.00     0.025 C 
ATOM     13  C   UNL A   1      32.280  25.582  19.576  1.00  0.00     0.010 C 
ENDBRANCH  11  12
ENDBRANCH   9  11
BRANCH   9  14
ATOM     14  C   UNL A   1      33.794  25.677  24.103  1.00  0.00     0.266 C 
BRANCH  14  15
ATOM     15  C   UNL A   1      33.266  26.937  24.839  1.00  0.00     0.044 C 
ATOM     16  C   UNL A   1      33.444  28.234  24.033  1.00  0.00     0.009 C 
ATOM     17  C   UNL A   1      31.782  26.807  25.219  1.00  0.00     0.012 C 
ATOM     18  C   UNL A   1      32.992  29.453  24.842  1.00  0.00     0.001 C 
ATOM     19  C   UNL A   1      31.274  27.996  26.054  1.00  0.00    -0.014 C 
ATOM     20  C   UNL A   1      31.551  29.322  25.336  1.00  0.00     0.003 C 
ATOM     21  C   UNL A   1      31.859  27.988  27.471  1.00  0.00     0.007 C 
ENDBRANCH  14  15
ENDBRANCH   9  14
ENDBRANCH   8   9
ENDBRANCH   6   8
ENDBRANCH   5   6
ENDBRANCH   4   5
ENDBRANCH   3   4
ENDBRANCH   2   3
ENDBRANCH   1   2
BRANCH   1  22
ATOM     22  C   UNL A   1      39.693  22.397  26.325  1.00  0.00     0.188 C 
BRANCH  22  23
ATOM     23  O   UNL A   1      40.746  21.439  26.408  1.00  0.00    -0.376 OA
BRANCH  23  24
ATOM     24  C   UNL A   1      41.921  21.981  26.998  1.00  0.00     0.202 C 
BRANCH  24  25
ATOM     25  C   UNL A   1      42.340  23.245  26.246  1.00  0.00     0.261 C 
BRANCH  25  26
ATOM     26  O   UNL A   1      43.173  24.118  27.037  1.00  0.00    -0.460 OA
BRANCH  26  27
ATOM     27  C   UNL A   1      43.272  25.396  26.629  1.00  0.00     0.338 C 
ATOM     28  O   UNL A   1      43.743  25.794  25.569  1.00  0.00    -0.246 OA
BRANCH  27  29
ATOM     29  C   UNL A   1      42.652  26.277  27.634  1.00  0.00     0.060 A 
ATOM     30  C   UNL A   1      43.102  27.594  27.786  1.00  0.00     0.016 A 
ATOM     31  C   UNL A   1      41.689  25.759  28.499  1.00  0.00     0.016 A 
ATOM     32  C   UNL A   1      42.635  28.380  28.843  1.00  0.00     0.010 A 
ATOM     33  C   UNL A   1      41.217  26.548  29.551  1.00  0.00     0.010 A 
ATOM     34  C   UNL A   1      41.712  27.850  29.752  1.00  0.00    -0.014 A 
BRANCH  34  35
ATOM     35  C   UNL A   1      41.336  28.584  30.986  1.00  0.00     0.031 A 
ATOM     36  C   UNL A   1      40.190  29.556  30.930  1.00  0.00     0.074 A 
ATOM     37  C   UNL A   1      42.034  28.427  32.125  1.00  0.00     0.049 A 
ATOM     38  N   UNL A   1      39.828  30.466  31.797  1.00  0.00    -0.248 NA
ATOM     39  C   UNL A   1      39.340  29.498  29.729  1.00  0.00     0.031 C 
ATOM     40  C   UNL A   1      43.124  27.473  32.324  1.00  0.00     0.029 A 
ATOM     41  N   UNL A   1      41.947  29.095  33.321  1.00  0.00    -0.354 N 
ATOM     42  C   UNL A   1      38.734  31.112  31.234  1.00  0.00     0.074 A 
ATOM     43  C   UNL A   1      38.490  30.490  29.950  1.00  0.00     0.031 C 
ATOM     44  C   UNL A   1      43.628  27.640  33.559  1.00  0.00     0.029 A 
ATOM     45  C   UNL A   1      42.934  28.748  34.214  1.00  0.00     0.049 A 
ATOM     46  H   UNL A   1      41.247  29.758  33.521  1.00  0.00     0.167 HD
ATOM     47  C   UNL A   1      38.006  32.138  31.740  1.00  0.00     0.037 A 
ATOM     48  C   UNL A   1      43.274  29.295  35.397  1.00  0.00     0.037 A 
ATOM     49  C   UNL A   1      38.253  32.741  33.024  1.00  0.00     0.049 A 
ATOM     50  C   UNL A   1      42.496  30.478  35.913  1.00  0.00     0.074 A 
ATOM     51  C   UNL A   1      37.570  33.780  33.633  1.00  0.00     0.029 A 
ATOM     52  N   UNL A   1      39.264  32.361  33.894  1.00  0.00    -0.354 N 
ATOM     53  N   UNL A   1      41.478  31.099  35.364  1.00  0.00    -0.248 NA
ATOM     54  C   UNL A   1      42.919  31.042  37.203  1.00  0.00     0.031 C 
ATOM     55  C   UNL A   1      38.194  34.055  34.856  1.00  0.00     0.029 A 
ATOM     56  C   UNL A   1      39.235  33.157  35.028  1.00  0.00     0.049 A 
ATOM     57  H   UNL A   1      39.907  31.634  33.731  1.00  0.00     0.167 HD
ATOM     58  C   UNL A   1      41.127  32.113  36.250  1.00  0.00     0.074 A 
ATOM     59  C   UNL A   1      42.034  32.015  37.376  1.00  0.00     0.031 C 
ATOM     60  C   UNL A   1      40.142  33.039  36.143  1.00  0.00     0.037 A 
BRANCH  47  61
ATOM     61  C   UNL A   1      36.901  32.696  30.888  1.00  0.00     0.058 A 
ATOM     62  C   UNL A   1      35.566  32.294  31.045  1.00  0.00     0.135 A 
ATOM     63  C   UNL A   1      37.180  33.676  29.920  1.00  0.00     0.135 A 
ATOM     64  F   UNL A   1      35.246  31.349  31.944  1.00  0.00    -0.206 F 
ATOM     65  C   UNL A   1      34.549  32.825  30.257  1.00  0.00     0.059 A 
ATOM     66  C   UNL A   1      36.176  34.236  29.135  1.00  0.00     0.059 A 
ATOM     67  F   UNL A   1      38.440  34.094  29.726  1.00  0.00    -0.206 F 
ATOM     68  C   UNL A   1      34.865  33.794  29.302  1.00  0.00     0.060 A 
BRANCH  68  69
ATOM     69  S   UNL A   1      33.536  34.473  28.287  1.00  0.00     0.124 S 
ATOM     70  O   UNL A   1      32.979  33.263  27.690  1.00  0.00    -0.237 OA
ATOM     71  O   UNL A   1      32.693  35.137  29.275  1.00  0.00    -0.237 OA
ATOM     72  O   UNL A   1      34.234  35.363  27.364  1.00  0.00    -0.744 OA
ENDBRANCH  68  69
ENDBRANCH  47  61
BRANCH  48  73
ATOM     73  C   UNL A   1      44.434  28.759  36.157  1.00  0.00     0.058 A 
ATOM     74  C   UNL A   1      44.280  27.698  37.061  1.00  0.00     0.135 A 
ATOM     75  C   UNL A   1      45.723  29.292  35.988  1.00  0.00     0.135 A 
ATOM     76  F   UNL A   1      43.065  27.166  37.268  1.00  0.00    -0.206 F 
ATOM     77  C   UNL A   1      45.358  27.189  37.777  1.00  0.00     0.059 A 
ATOM     78  C   UNL A   1      46.822  28.781  36.673  1.00  0.00     0.059 A 
ATOM     79  F   UNL A   1      45.924  30.303  35.129  1.00  0.00    -0.206 F 
ATOM     80  C   UNL A   1      46.627  27.735  37.573  1.00  0.00     0.060 A 
BRANCH  80  81
ATOM     81  S   UNL A   1      48.030  27.030  38.465  1.00  0.00     0.124 S 
ATOM     82  O   UNL A   1      49.149  27.747  37.865  1.00  0.00    -0.237 OA
ATOM     83  O   UNL A   1      47.720  27.377  39.849  1.00  0.00    -0.237 OA
ATOM     84  O   UNL A   1      47.948  25.607  38.151  1.00  0.00    -0.744 OA
ENDBRANCH  80  81
ENDBRANCH  48  73
BRANCH  60  85
ATOM     85  C   UNL A   1      39.965  33.998  37.287  1.00  0.00     0.058 A 
ATOM     86  C   UNL A   1      40.593  35.253  37.301  1.00  0.00     0.135 A 
ATOM     87  C   UNL A   1      39.110  33.679  38.354  1.00  0.00     0.135 A 
ATOM     88  F   UNL A   1      41.426  35.603  36.308  1.00  0.00    -0.206 F 
ATOM     89  C   UNL A   1      40.391  36.154  38.343  1.00  0.00     0.059 A 
ATOM     90  C   UNL A   1      38.874  34.574  39.393  1.00  0.00     0.059 A 
ATOM     91  F   UNL A   1      38.477  32.496  38.383  1.00  0.00    -0.206 F 
ATOM     92  C   UNL A   1      39.527  35.806  39.384  1.00  0.00     0.060 A 
BRANCH  92  93
ATOM     93  S   UNL A   1      39.240  36.998  40.709  1.00  0.00     0.124 S 
ATOM     94  O   UNL A   1      38.642  36.154  41.738  1.00  0.00    -0.237 OA
ATOM     95  O   UNL A   1      40.588  37.483  40.992  1.00  0.00    -0.237 OA
ATOM     96  O   UNL A   1      38.345  37.975  40.098  1.00  0.00    -0.744 OA
ENDBRANCH  92  93
ENDBRANCH  60  85
ENDBRANCH  34  35
ENDBRANCH  27  29
ENDBRANCH  26  27
ENDBRANCH  25  26
ENDBRANCH  24  25
ENDBRANCH  23  24
ENDBRANCH  22  23
ENDBRANCH   1  22
TORSDOF 25
ENDMDL
MODEL 3
REMARK VINA RESULT:      -8.6      1.401      3.148
REMARK SMILES C=CC[N@@H+](CC(=O)OCCOCCOCCOC(=O)c1ccc(-c2c3nc(c(-c4c(F)cc(S(=O)(=O)[O-])cc4F)c4ccc([nH]4)c(-c4c(F)cc(S(=O)(=O)[O-])cc4F)c4nc(c(-c5c(F)cc(S(=O)(=O)[O-])cc5F)c5ccc2[nH]5)C=C4)C=C3)cc1)C[C@H]1CCC[C@H](C)C1
REMARK SMILES IDX 12 1 11 2 10 3 9 4 8 5 6 6 7 7 5 8 4 9 3 11 2 12 1 13 86 14
REMARK SMILES IDX 87 15 88 16 93 17 89 18 91 19 90 20 92 21 13 22 14 23 15 24
REMARK SMILES IDX 16 25 17 26 18 27 19 28 20 29 21 30 85 31 22 32 84 33 23 34
REMARK SMILES IDX 24 35 25 36 78 37 26 38 83 39 77 40 79 41 27 42 82 43 76 44
REMARK SMILES IDX 75 45 28 47 62 48 41 49 61 50 42 51 45 52 60 53 80 54 43 55
REMARK SMILES IDX 44 56 59 58 81 59 46 60 29 61 30 62 39 63 31 64 32 65 38 66
REMARK SMILES IDX 40 67 33 68 34 69 35 70 36 71 37 72 63 73 64 74 73 75 65 76
REMARK SMILES IDX 66 77 72 78 74 79 67 80 68 81 69 82 70 83 71 84 47 85 48 86
REMARK SMILES IDX 57 87 49 88 50 89 56 90 58 91 51 92 52 93 53 94 54 95 55 96
REMARK H PARENT 4 10 79 46 45 57
REMARK Flexibility Score: inf
ROOT
ATOM      1  C   UNL A   1      38.536  21.671  25.643  1.00  0.00     0.188 C 
ENDROOT
BRANCH   1   2
ATOM      2  O   UNL A   1      37.260  22.087  26.124  1.00  0.00    -0.376 OA
BRANCH   2   3
ATOM      3  C   UNL A   1      36.328  22.568  25.165  1.00  0.00     0.202 C 
BRANCH   3   4
ATOM      4  C   UNL A   1      35.451  21.485  24.537  1.00  0.00     0.261 C 
BRANCH   4   5
ATOM      5  O   UNL A   1      34.286  21.193  25.342  1.00  0.00    -0.459 OA
BRANCH   5   6
ATOM      6  C   UNL A   1      33.089  21.270  24.708  1.00  0.00     0.361 C 
ATOM      7  O   UNL A   1      32.590  20.326  24.100  1.00  0.00    -0.245 OA
BRANCH   6   8
ATOM      8  C   UNL A   1      32.350  22.612  24.823  1.00  0.00     0.386 C 
BRANCH   8   9
ATOM      9  N   UNL A   1      32.509  23.490  26.023  1.00  0.00    -0.322 N 
ATOM     10  H   UNL A   1      32.824  22.919  26.808  1.00  0.00     0.348 HD
BRANCH   9  11
ATOM     11  C   UNL A   1      31.245  23.976  26.573  1.00  0.00     0.290 C 
BRANCH  11  12
ATOM     12  C   UNL A   1      30.378  24.686  25.572  1.00  0.00     0.025 C 
ATOM     13  C   UNL A   1      29.799  25.876  25.789  1.00  0.00     0.010 C 
ENDBRANCH  11  12
ENDBRANCH   9  11
BRANCH   9  14
ATOM     14  C   UNL A   1      33.623  24.444  25.856  1.00  0.00     0.266 C 
BRANCH  14  15
ATOM     15  C   UNL A   1      33.330  25.819  25.199  1.00  0.00     0.044 C 
ATOM     16  C   UNL A   1      33.909  27.005  25.987  1.00  0.00     0.009 C 
ATOM     17  C   UNL A   1      33.858  25.896  23.757  1.00  0.00     0.012 C 
ATOM     18  C   UNL A   1      33.514  28.338  25.345  1.00  0.00     0.001 C 
ATOM     19  C   UNL A   1      33.472  27.208  23.051  1.00  0.00    -0.014 C 
ATOM     20  C   UNL A   1      33.921  28.420  23.874  1.00  0.00     0.003 C 
ATOM     21  C   UNL A   1      31.973  27.265  22.734  1.00  0.00     0.007 C 
ENDBRANCH  14  15
ENDBRANCH   9  14
ENDBRANCH   8   9
ENDBRANCH   6   8
ENDBRANCH   5   6
ENDBRANCH   4   5
ENDBRANCH   3   4
ENDBRANCH   2   3
ENDBRANCH   1   2
BRANCH   1  22
ATOM     22  C   UNL A   1      39.767  22.220  26.371  1.00  0.00     0.188 C 
BRANCH  22  23
ATOM     23  O   UNL A   1      40.881  21.336  26.264  1.00  0.00    -0.376 OA
BRANCH  23  24
ATOM     24  C   UNL A   1      42.078  21.916  26.763  1.00  0.00     0.202 C 
BRANCH  24  25
ATOM     25  C   UNL A   1      42.377  23.213  26.010  1.00  0.00     0.261 C 
BRANCH  25  26
ATOM     26  O   UNL A   1      43.054  24.192  26.825  1.00  0.00    -0.460 OA
BRANCH  26  27
ATOM     27  C   UNL A   1      43.045  25.462  26.380  1.00  0.00     0.338 C 
ATOM     28  O   UNL A   1      43.383  25.853  25.269  1.00  0.00    -0.246 OA
BRANCH  27  29
ATOM     29  C   UNL A   1      42.487  26.339  27.425  1.00  0.00     0.060 A 
ATOM     30  C   UNL A   1      43.034  27.609  27.641  1.00  0.00     0.016 A 
ATOM     31  C   UNL A   1      41.483  25.854  28.263  1.00  0.00     0.016 A 
ATOM     32  C   UNL A   1      42.621  28.377  28.733  1.00  0.00     0.010 A 
ATOM     33  C   UNL A   1      41.065  26.626  29.350  1.00  0.00     0.010 A 
ATOM     34  C   UNL A   1      41.656  27.875  29.615  1.00  0.00    -0.014 A 
BRANCH  34  35
ATOM     35  C   UNL A   1      41.329  28.577  30.881  1.00  0.00     0.031 A 
ATOM     36  C   UNL A   1      40.199  29.569  30.890  1.00  0.00     0.074 A 
ATOM     37  C   UNL A   1      42.057  28.372  31.993  1.00  0.00     0.049 A 
ATOM     38  N   UNL A   1      39.879  30.458  31.794  1.00  0.00    -0.248 NA
ATOM     39  C   UNL A   1      39.314  29.564  29.712  1.00  0.00     0.031 C 
ATOM     40  C   UNL A   1      43.135  27.394  32.130  1.00  0.00     0.029 A 
ATOM     41  N   UNL A   1      42.017  29.003  33.212  1.00  0.00    -0.354 N 
ATOM     42  C   UNL A   1      38.781  31.140  31.284  1.00  0.00     0.074 A 
ATOM     43  C   UNL A   1      38.489  30.562  29.989  1.00  0.00     0.031 C 
ATOM     44  C   UNL A   1      43.678  27.513  33.354  1.00  0.00     0.029 A 
ATOM     45  C   UNL A   1      43.023  28.611  34.063  1.00  0.00     0.049 A 
ATOM     46  H   UNL A   1      41.335  29.672  33.453  1.00  0.00     0.167 HD
ATOM     47  C   UNL A   1      38.087  32.161  31.843  1.00  0.00     0.037 A 
ATOM     48  C   UNL A   1      43.407  29.115  35.253  1.00  0.00     0.037 A 
ATOM     49  C   UNL A   1      38.382  32.719  33.137  1.00  0.00     0.049 A 
ATOM     50  C   UNL A   1      42.666  30.294  35.828  1.00  0.00     0.074 A 
ATOM     51  C   UNL A   1      37.736  33.750  33.799  1.00  0.00     0.029 A 
ATOM     52  N   UNL A   1      39.410  32.295  33.966  1.00  0.00    -0.354 N 
ATOM     53  N   UNL A   1      41.644  30.950  35.328  1.00  0.00    -0.248 NA
ATOM     54  C   UNL A   1      43.136  30.810  37.122  1.00  0.00     0.031 C 
ATOM     55  C   UNL A   1      38.400  33.975  35.011  1.00  0.00     0.029 A 
ATOM     56  C   UNL A   1      39.429  33.054  35.124  1.00  0.00     0.049 A 
ATOM     57  H   UNL A   1      40.035  31.563  33.760  1.00  0.00     0.167 HD
ATOM     58  C   UNL A   1      41.336  31.940  36.256  1.00  0.00     0.074 A 
ATOM     59  C   UNL A   1      42.274  31.792  37.351  1.00  0.00     0.031 C 
ATOM     60  C   UNL A   1      40.366  32.886  36.207  1.00  0.00     0.037 A 
BRANCH  47  61
ATOM     61  C   UNL A   1      36.967  32.765  31.042  1.00  0.00     0.058 A 
ATOM     62  C   UNL A   1      37.204  33.695  30.019  1.00  0.00     0.135 A 
ATOM     63  C   UNL A   1      35.638  32.379  31.282  1.00  0.00     0.135 A 
ATOM     64  F   UNL A   1      38.454  34.111  29.760  1.00  0.00    -0.206 F 
ATOM     65  C   UNL A   1      36.160  34.242  29.278  1.00  0.00     0.059 A 
ATOM     66  C   UNL A   1      34.581  32.895  30.538  1.00  0.00     0.059 A 
ATOM     67  F   UNL A   1      35.355  31.494  32.250  1.00  0.00    -0.206 F 
ATOM     68  C   UNL A   1      34.851  33.837  29.547  1.00  0.00     0.060 A 
BRANCH  68  69
ATOM     69  S   UNL A   1      33.508  34.554  28.578  1.00  0.00     0.124 S 
ATOM     70  O   UNL A   1      32.557  34.919  29.624  1.00  0.00    -0.237 OA
ATOM     71  O   UNL A   1      34.166  35.668  27.903  1.00  0.00    -0.237 OA
ATOM     72  O   UNL A   1      33.092  33.457  27.709  1.00  0.00    -0.744 OA
ENDBRANCH  68  69
ENDBRANCH  47  61
BRANCH  48  73
ATOM     73  C   UNL A   1      44.579  28.536  35.961  1.00  0.00     0.058 A 
ATOM     74  C   UNL A   1      45.874  29.023  35.735  1.00  0.00     0.135 A 
ATOM     75  C   UNL A   1      44.427  27.488  36.885  1.00  0.00     0.135 A 
ATOM     76  F   UNL A   1      46.073  30.012  34.850  1.00  0.00    -0.206 F 
ATOM     77  C   UNL A   1      46.978  28.489  36.392  1.00  0.00     0.059 A 
ATOM     78  C   UNL A   1      45.512  26.956  37.573  1.00  0.00     0.059 A 
ATOM     79  F   UNL A   1      43.207  26.991  37.141  1.00  0.00    -0.206 F 
ATOM     80  C   UNL A   1      46.787  27.458  37.313  1.00  0.00     0.060 A 
BRANCH  80  81
ATOM     81  S   UNL A   1      48.219  26.809  38.201  1.00  0.00     0.124 S 
ATOM     82  O   UNL A   1      47.636  26.483  39.498  1.00  0.00    -0.237 OA
ATOM     83  O   UNL A   1      48.605  25.671  37.372  1.00  0.00    -0.237 OA
ATOM     84  O   UNL A   1      49.155  27.928  38.191  1.00  0.00    -0.744 OA
ENDBRANCH  80  81
ENDBRANCH  48  73
BRANCH  60  85
ATOM     85  C   UNL A   1      40.239  33.811  37.385  1.00  0.00     0.058 A 
ATOM     86  C   UNL A   1      39.395  33.516  38.468  1.00  0.00     0.135 A 
ATOM     87  C   UNL A   1      41.017  34.977  37.457  1.00  0.00     0.135 A 
ATOM     88  F   UNL A   1      38.626  32.417  38.444  1.00  0.00    -0.206 F 
ATOM     89  C   UNL A   1      39.315  34.356  39.575  1.00  0.00     0.059 A 
ATOM     90  C   UNL A   1      40.971  35.819  38.565  1.00  0.00     0.059 A 
ATOM     91  F   UNL A   1      41.848  35.299  36.453  1.00  0.00    -0.206 F 
ATOM     92  C   UNL A   1      40.109  35.505  39.615  1.00  0.00     0.060 A 
BRANCH  92  93
ATOM     93  S   UNL A   1      40.028  36.565  41.073  1.00  0.00     0.124 S 
ATOM     94  O   UNL A   1      39.911  35.582  42.145  1.00  0.00    -0.237 OA
ATOM     95  O   UNL A   1      41.297  37.284  41.010  1.00  0.00    -0.237 OA
ATOM     96  O   UNL A   1      38.841  37.381  40.834  1.00  0.00    -0.744 OA
ENDBRANCH  92  93
ENDBRANCH  60  85
ENDBRANCH  34  35
ENDBRANCH  27  29
ENDBRANCH  26  27
ENDBRANCH  25  26
ENDBRANCH  24  25
ENDBRANCH  23  24
ENDBRANCH  22  23
ENDBRANCH   1  22
TORSDOF 25
ENDMDL
