MODEL 1
REMARK VINA RESULT:      -9.1      0.000      0.000
REMARK SMILES CC(C)[C@](C)(CC(=O)NC#N)C(=O)OCCOCCOCCOC(=O)c1ccc(-c2c3nc(c(-c4c(F)cc(S(=O)(=O)[O-])cc4F)c4ccc([nH]4)c(-c4c(F)cc(S(=O)(=O)[O-])cc4F)c4nc(c(-c5c(F)cc(S(=O)(=O)[O-])cc5F)c5ccc2[nH]5)C=C4)C=C3)cc1
REMARK SMILES IDX 18 1 17 2 16 3 15 4 14 5 12 6 13 7 4 8 5 9 2 10 1 11 3 12
REMARK SMILES IDX 6 13 7 14 8 15 9 16 10 18 11 19 19 20 20 21 21 22 22 23
REMARK SMILES IDX 23 24 24 25 25 26 26 27 27 28 91 29 28 30 90 31 29 32 30 33
REMARK SMILES IDX 31 34 84 35 32 36 89 37 83 38 85 39 33 40 88 41 82 42 81 43
REMARK SMILES IDX 34 45 68 46 47 47 67 48 48 49 51 50 66 51 86 52 49 53 50 54
REMARK SMILES IDX 65 56 87 57 52 58 35 59 36 60 45 61 37 62 38 63 44 64 46 65
REMARK SMILES IDX 39 66 40 67 41 68 42 69 43 70 69 71 70 72 79 73 71 74 72 75
REMARK SMILES IDX 78 76 80 77 73 78 74 79 75 80 76 81 77 82 53 83 54 84 63 85
REMARK SMILES IDX 55 86 56 87 62 88 64 89 57 90 58 91 59 92 60 93 61 94
REMARK H PARENT 9 17 85 44 51 55
REMARK Flexibility Score: inf
ROOT
ATOM      1  C   UNL A   1      38.767  21.452  25.750  1.00  0.00     0.188 C 
ENDROOT
BRANCH   1   2
ATOM      2  O   UNL A   1      38.568  22.678  26.432  1.00  0.00    -0.376 OA
BRANCH   2   3
ATOM      3  C   UNL A   1      37.718  23.669  25.875  1.00  0.00     0.202 C 
BRANCH   3   4
ATOM      4  C   UNL A   1      36.876  23.368  24.609  1.00  0.00     0.261 C 
BRANCH   4   5
ATOM      5  O   UNL A   1      35.595  22.685  24.745  1.00  0.00    -0.463 OA
BRANCH   5   6
ATOM      6  C   UNL A   1      34.690  22.974  23.775  1.00  0.00     0.312 C 
ATOM      7  O   UNL A   1      35.013  23.599  22.766  1.00  0.00    -0.252 OA
BRANCH   6   8
ATOM      8  C   UNL A   1      33.210  22.486  23.996  1.00  0.00     0.076 C 
ATOM      9  C   UNL A   1      32.481  22.895  22.703  1.00  0.00     0.024 C 
BRANCH   8  10
ATOM     10  C   UNL A   1      32.728  23.362  25.245  1.00  0.00     0.000 C 
ATOM     11  C   UNL A   1      33.327  24.778  25.292  1.00  0.00     0.008 C 
ATOM     12  C   UNL A   1      31.205  23.523  25.400  1.00  0.00     0.008 C 
ENDBRANCH   8  10
BRANCH   8  13
ATOM     13  C   UNL A   1      32.944  20.968  24.334  1.00  0.00     0.119 C 
BRANCH  13  14
ATOM     14  C   UNL A   1      33.048  20.270  25.700  1.00  0.00     0.234 C 
ATOM     15  O   UNL A   1      33.086  20.947  26.734  1.00  0.00    -0.274 OA
ATOM     16  N   UNL A   1      32.963  18.926  25.870  1.00  0.00    -0.263 N 
ATOM     17  H   UNL A   1      33.009  18.683  26.823  1.00  0.00     0.182 HD
BRANCH  16  18
ATOM     18  C   UNL A   1      32.833  17.845  25.100  1.00  0.00     0.183 C 
ATOM     19  N   UNL A   1      32.765  16.937  24.382  1.00  0.00    -0.172 NA
ENDBRANCH  16  18
ENDBRANCH  13  14
ENDBRANCH   8  13
ENDBRANCH   6   8
ENDBRANCH   5   6
ENDBRANCH   4   5
ENDBRANCH   3   4
ENDBRANCH   2   3
ENDBRANCH   1   2
BRANCH   1  20
ATOM     20  C   UNL A   1      39.945  20.559  26.149  1.00  0.00     0.188 C 
BRANCH  20  21
ATOM     21  O   UNL A   1      40.486  20.802  27.420  1.00  0.00    -0.376 OA
BRANCH  21  22
ATOM     22  C   UNL A   1      41.741  21.437  27.497  1.00  0.00     0.202 C 
BRANCH  22  23
ATOM     23  C   UNL A   1      42.244  22.312  26.331  1.00  0.00     0.261 C 
BRANCH  23  24
ATOM     24  O   UNL A   1      41.536  23.536  26.049  1.00  0.00    -0.460 OA
BRANCH  24  25
ATOM     25  C   UNL A   1      42.279  24.655  25.871  1.00  0.00     0.338 C 
ATOM     26  O   UNL A   1      43.072  24.868  24.972  1.00  0.00    -0.246 OA
BRANCH  25  27
ATOM     27  C   UNL A   1      41.837  25.695  26.833  1.00  0.00     0.060 A 
ATOM     28  C   UNL A   1      42.415  26.972  26.777  1.00  0.00     0.016 A 
ATOM     29  C   UNL A   1      40.925  25.394  27.838  1.00  0.00     0.016 A 
ATOM     30  C   UNL A   1      42.124  27.936  27.741  1.00  0.00     0.010 A 
ATOM     31  C   UNL A   1      40.635  26.359  28.812  1.00  0.00     0.010 A 
ATOM     32  C   UNL A   1      41.259  27.623  28.791  1.00  0.00    -0.014 A 
BRANCH  32  33
ATOM     33  C   UNL A   1      41.116  28.551  29.945  1.00  0.00     0.031 A 
ATOM     34  C   UNL A   1      42.035  28.384  31.127  1.00  0.00     0.074 A 
ATOM     35  C   UNL A   1      40.202  29.539  29.940  1.00  0.00     0.049 A 
ATOM     36  N   UNL A   1      41.994  28.957  32.301  1.00  0.00    -0.248 NA
ATOM     37  C   UNL A   1      43.146  27.432  30.962  1.00  0.00     0.031 C 
ATOM     38  C   UNL A   1      39.310  29.861  28.826  1.00  0.00     0.029 A 
ATOM     39  N   UNL A   1      39.860  30.445  30.915  1.00  0.00    -0.354 N 
ATOM     40  C   UNL A   1      43.050  28.414  33.026  1.00  0.00     0.074 A 
ATOM     41  C   UNL A   1      43.697  27.446  32.166  1.00  0.00     0.031 C 
ATOM     42  C   UNL A   1      38.511  30.879  29.186  1.00  0.00     0.029 A 
ATOM     43  C   UNL A   1      38.788  31.238  30.574  1.00  0.00     0.049 A 
ATOM     44  H   UNL A   1      40.335  30.520  31.772  1.00  0.00     0.167 HD
ATOM     45  C   UNL A   1      43.441  28.698  34.291  1.00  0.00     0.037 A 
ATOM     46  C   UNL A   1      38.079  32.114  31.314  1.00  0.00     0.037 A 
ATOM     47  C   UNL A   1      42.790  29.671  35.130  1.00  0.00     0.049 A 
ATOM     48  C   UNL A   1      38.472  32.349  32.750  1.00  0.00     0.074 A 
ATOM     49  C   UNL A   1      43.106  30.036  36.427  1.00  0.00     0.029 A 
ATOM     50  N   UNL A   1      41.688  30.430  34.760  1.00  0.00    -0.354 N 
ATOM     51  N   UNL A   1      39.455  31.814  33.435  1.00  0.00    -0.248 NA
ATOM     52  C   UNL A   1      37.659  33.304  33.516  1.00  0.00     0.031 C 
ATOM     53  C   UNL A   1      42.154  30.962  36.864  1.00  0.00     0.029 A 
ATOM     54  C   UNL A   1      41.293  31.238  35.814  1.00  0.00     0.049 A 
ATOM     55  H   UNL A   1      41.252  30.398  33.878  1.00  0.00     0.167 HD
ATOM     56  C   UNL A   1      39.398  32.392  34.701  1.00  0.00     0.074 A 
ATOM     57  C   UNL A   1      38.292  33.326  34.680  1.00  0.00     0.031 C 
ATOM     58  C   UNL A   1      40.193  32.172  35.779  1.00  0.00     0.037 A 
BRANCH  45  59
ATOM     59  C   UNL A   1      44.598  27.917  34.859  1.00  0.00     0.058 A 
ATOM     60  C   UNL A   1      44.420  26.706  35.546  1.00  0.00     0.135 A 
ATOM     61  C   UNL A   1      45.914  28.381  34.688  1.00  0.00     0.135 A 
ATOM     62  F   UNL A   1      43.186  26.221  35.756  1.00  0.00    -0.206 F 
ATOM     63  C   UNL A   1      45.499  26.000  36.071  1.00  0.00     0.059 A 
ATOM     64  C   UNL A   1      47.011  27.674  35.173  1.00  0.00     0.059 A 
ATOM     65  F   UNL A   1      46.148  29.535  34.042  1.00  0.00    -0.206 F 
ATOM     66  C   UNL A   1      46.792  26.492  35.877  1.00  0.00     0.060 A 
BRANCH  66  67
ATOM     67  S   UNL A   1      48.178  25.562  36.565  1.00  0.00     0.124 S 
ATOM     68  O   UNL A   1      49.211  26.591  36.642  1.00  0.00    -0.237 OA
ATOM     69  O   UNL A   1      47.642  25.106  37.843  1.00  0.00    -0.237 OA
ATOM     70  O   UNL A   1      48.410  24.515  35.575  1.00  0.00    -0.744 OA
ENDBRANCH  66  67
ENDBRANCH  45  59
BRANCH  46  71
ATOM     71  C   UNL A   1      36.899  32.807  30.721  1.00  0.00     0.058 A 
ATOM     72  C   UNL A   1      35.597  32.316  30.899  1.00  0.00     0.135 A 
ATOM     73  C   UNL A   1      37.052  33.980  29.962  1.00  0.00     0.135 A 
ATOM     74  F   UNL A   1      35.396  31.190  31.601  1.00  0.00    -0.206 F 
ATOM     75  C   UNL A   1      34.493  32.953  30.341  1.00  0.00     0.059 A 
ATOM     76  C   UNL A   1      35.961  34.654  29.423  1.00  0.00     0.059 A 
ATOM     77  F   UNL A   1      38.274  34.497  29.761  1.00  0.00    -0.206 F 
ATOM     78  C   UNL A   1      34.685  34.127  29.611  1.00  0.00     0.060 A 
BRANCH  78  79
ATOM     79  S   UNL A   1      33.237  34.973  28.938  1.00  0.00     0.124 S 
ATOM     80  O   UNL A   1      33.837  36.170  28.360  1.00  0.00    -0.237 OA
ATOM     81  O   UNL A   1      32.727  33.991  27.987  1.00  0.00    -0.237 OA
ATOM     82  O   UNL A   1      32.400  35.193  30.114  1.00  0.00    -0.744 OA
ENDBRANCH  78  79
ENDBRANCH  46  71
BRANCH  58  83
ATOM     83  C   UNL A   1      39.933  32.991  37.016  1.00  0.00     0.058 A 
ATOM     84  C   UNL A   1      40.711  34.112  37.348  1.00  0.00     0.135 A 
ATOM     85  C   UNL A   1      38.849  32.679  37.855  1.00  0.00     0.135 A 
ATOM     86  F   UNL A   1      41.762  34.454  36.587  1.00  0.00    -0.206 F 
ATOM     87  C   UNL A   1      40.441  34.876  38.480  1.00  0.00     0.059 A 
ATOM     88  C   UNL A   1      38.537  33.450  38.970  1.00  0.00     0.059 A 
ATOM     89  F   UNL A   1      38.064  31.624  37.581  1.00  0.00    -0.206 F 
ATOM     90  C   UNL A   1      39.347  34.540  39.281  1.00  0.00     0.060 A 
BRANCH  90  91
ATOM     91  S   UNL A   1      38.987  35.563  40.724  1.00  0.00     0.124 S 
ATOM     92  O   UNL A   1      38.792  36.875  40.116  1.00  0.00    -0.237 OA
ATOM     93  O   UNL A   1      37.786  34.930  41.261  1.00  0.00    -0.237 OA
ATOM     94  O   UNL A   1      40.184  35.426  41.548  1.00  0.00    -0.744 OA
ENDBRANCH  90  91
ENDBRANCH  58  83
ENDBRANCH  32  33
ENDBRANCH  25  27
ENDBRANCH  24  25
ENDBRANCH  23  24
ENDBRANCH  22  23
ENDBRANCH  21  22
ENDBRANCH  20  21
ENDBRANCH   1  20
TORSDOF 24
ENDMDL
MODEL 2
REMARK VINA RESULT:      -9.0      1.111      2.007
REMARK SMILES CC(C)[C@](C)(CC(=O)NC#N)C(=O)OCCOCCOCCOC(=O)c1ccc(-c2c3nc(c(-c4c(F)cc(S(=O)(=O)[O-])cc4F)c4ccc([nH]4)c(-c4c(F)cc(S(=O)(=O)[O-])cc4F)c4nc(c(-c5c(F)cc(S(=O)(=O)[O-])cc5F)c5ccc2[nH]5)C=C4)C=C3)cc1
REMARK SMILES IDX 18 1 17 2 16 3 15 4 14 5 12 6 13 7 4 8 5 9 2 10 1 11 3 12
REMARK SMILES IDX 6 13 7 14 8 15 9 16 10 18 11 19 19 20 20 21 21 22 22 23
REMARK SMILES IDX 23 24 24 25 25 26 26 27 27 28 91 29 28 30 90 31 29 32 30 33
REMARK SMILES IDX 31 34 84 35 32 36 89 37 83 38 85 39 33 40 88 41 82 42 81 43
REMARK SMILES IDX 34 45 68 46 47 47 67 48 48 49 51 50 66 51 86 52 49 53 50 54
REMARK SMILES IDX 65 56 87 57 52 58 35 59 36 60 45 61 37 62 38 63 44 64 46 65
REMARK SMILES IDX 39 66 40 67 41 68 42 69 43 70 69 71 70 72 79 73 71 74 72 75
REMARK SMILES IDX 78 76 80 77 73 78 74 79 75 80 76 81 77 82 53 83 54 84 63 85
REMARK SMILES IDX 55 86 56 87 62 88 64 89 57 90 58 91 59 92 60 93 61 94
REMARK H PARENT 9 17 85 44 51 55
REMARK Flexibility Score: inf
ROOT
ATOM      1  C   UNL A   1      39.035  21.825  26.151  1.00  0.00     0.188 C 
ENDROOT
BRANCH   1   2
ATOM      2  O   UNL A   1      39.287  23.169  26.525  1.00  0.00    -0.376 OA
BRANCH   2   3
ATOM      3  C   UNL A   1      38.217  24.099  26.583  1.00  0.00     0.202 C 
BRANCH   3   4
ATOM      4  C   UNL A   1      36.793  23.699  26.119  1.00  0.00     0.261 C 
BRANCH   4   5
ATOM      5  O   UNL A   1      36.015  24.628  25.307  1.00  0.00    -0.463 OA
BRANCH   5   6
ATOM      6  C   UNL A   1      34.738  24.238  25.064  1.00  0.00     0.312 C 
ATOM      7  O   UNL A   1      33.799  24.674  25.727  1.00  0.00    -0.252 OA
BRANCH   6   8
ATOM      8  C   UNL A   1      34.507  23.198  23.904  1.00  0.00     0.076 C 
ATOM      9  C   UNL A   1      35.853  23.160  23.158  1.00  0.00     0.024 C 
BRANCH   8  10
ATOM     10  C   UNL A   1      33.367  23.893  23.023  1.00  0.00     0.000 C 
ATOM     11  C   UNL A   1      33.711  25.317  22.554  1.00  0.00     0.008 C 
ATOM     12  C   UNL A   1      32.919  23.114  21.773  1.00  0.00     0.008 C 
ENDBRANCH   8  10
BRANCH   8  13
ATOM     13  C   UNL A   1      34.023  21.740  24.265  1.00  0.00     0.119 C 
BRANCH  13  14
ATOM     14  C   UNL A   1      34.587  20.794  25.338  1.00  0.00     0.234 C 
ATOM     15  O   UNL A   1      35.427  19.943  25.026  1.00  0.00    -0.274 OA
ATOM     16  N   UNL A   1      34.325  20.915  26.664  1.00  0.00    -0.263 N 
ATOM     17  H   UNL A   1      34.814  20.240  27.188  1.00  0.00     0.182 HD
BRANCH  16  18
ATOM     18  C   UNL A   1      33.586  21.697  27.452  1.00  0.00     0.183 C 
ATOM     19  N   UNL A   1      32.922  22.317  28.174  1.00  0.00    -0.172 NA
ENDBRANCH  16  18
ENDBRANCH  13  14
ENDBRANCH   8  13
ENDBRANCH   6   8
ENDBRANCH   5   6
ENDBRANCH   4   5
ENDBRANCH   3   4
ENDBRANCH   2   3
ENDBRANCH   1   2
BRANCH   1  20
ATOM     20  C   UNL A   1      40.123  20.771  26.379  1.00  0.00     0.188 C 
BRANCH  20  21
ATOM     21  O   UNL A   1      40.895  20.938  27.538  1.00  0.00    -0.376 OA
BRANCH  21  22
ATOM     22  C   UNL A   1      42.257  21.263  27.387  1.00  0.00     0.202 C 
BRANCH  22  23
ATOM     23  C   UNL A   1      42.737  22.058  26.156  1.00  0.00     0.261 C 
BRANCH  23  24
ATOM     24  O   UNL A   1      42.227  23.394  25.973  1.00  0.00    -0.460 OA
BRANCH  24  25
ATOM     25  C   UNL A   1      43.114  24.414  26.063  1.00  0.00     0.338 C 
ATOM     26  O   UNL A   1      44.115  24.571  25.386  1.00  0.00    -0.246 OA
BRANCH  25  27
ATOM     27  C   UNL A   1      42.583  25.446  26.986  1.00  0.00     0.060 A 
ATOM     28  C   UNL A   1      43.064  26.761  26.897  1.00  0.00     0.016 A 
ATOM     29  C   UNL A   1      41.682  25.108  27.990  1.00  0.00     0.016 A 
ATOM     30  C   UNL A   1      42.689  27.729  27.827  1.00  0.00     0.010 A 
ATOM     31  C   UNL A   1      41.307  26.078  28.930  1.00  0.00     0.010 A 
ATOM     32  C   UNL A   1      41.835  27.384  28.877  1.00  0.00    -0.014 A 
BRANCH  32  33
ATOM     33  C   UNL A   1      41.607  28.334  29.999  1.00  0.00     0.031 A 
ATOM     34  C   UNL A   1      42.485  28.236  31.219  1.00  0.00     0.074 A 
ATOM     35  C   UNL A   1      40.652  29.280  29.933  1.00  0.00     0.049 A 
ATOM     36  N   UNL A   1      42.373  28.836  32.375  1.00  0.00    -0.248 NA
ATOM     37  C   UNL A   1      43.641  27.330  31.122  1.00  0.00     0.031 C 
ATOM     38  C   UNL A   1      39.793  29.534  28.777  1.00  0.00     0.029 A 
ATOM     39  N   UNL A   1      40.234  30.194  30.869  1.00  0.00    -0.354 N 
ATOM     40  C   UNL A   1      43.422  28.357  33.154  1.00  0.00     0.074 A 
ATOM     41  C   UNL A   1      44.144  27.398  32.346  1.00  0.00     0.031 C 
ATOM     42  C   UNL A   1      38.937  30.525  29.079  1.00  0.00     0.029 A 
ATOM     43  C   UNL A   1      39.143  30.930  30.467  1.00  0.00     0.049 A 
ATOM     44  H   UNL A   1      40.671  30.311  31.742  1.00  0.00     0.167 HD
ATOM     45  C   UNL A   1      43.750  28.690  34.425  1.00  0.00     0.037 A 
ATOM     46  C   UNL A   1      38.368  31.793  31.155  1.00  0.00     0.037 A 
ATOM     47  C   UNL A   1      43.026  29.653  35.213  1.00  0.00     0.049 A 
ATOM     48  C   UNL A   1      38.694  32.080  32.599  1.00  0.00     0.074 A 
ATOM     49  C   UNL A   1      43.274  30.064  36.511  1.00  0.00     0.029 A 
ATOM     50  N   UNL A   1      41.908  30.354  34.781  1.00  0.00    -0.354 N 
ATOM     51  N   UNL A   1      39.671  31.606  33.335  1.00  0.00    -0.248 NA
ATOM     52  C   UNL A   1      37.811  33.017  33.307  1.00  0.00     0.031 C 
ATOM     53  C   UNL A   1      42.267  30.959  36.886  1.00  0.00     0.029 A 
ATOM     54  C   UNL A   1      41.437  31.170  35.798  1.00  0.00     0.049 A 
ATOM     55  H   UNL A   1      41.508  30.282  33.884  1.00  0.00     0.167 HD
ATOM     56  C   UNL A   1      39.540  32.212  34.582  1.00  0.00     0.074 A 
ATOM     57  C   UNL A   1      38.397  33.096  34.494  1.00  0.00     0.031 C 
ATOM     58  C   UNL A   1      40.300  32.054  35.695  1.00  0.00     0.037 A 
BRANCH  45  59
ATOM     59  C   UNL A   1      44.917  27.974  35.058  1.00  0.00     0.058 A 
ATOM     60  C   UNL A   1      46.232  28.454  34.961  1.00  0.00     0.135 A 
ATOM     61  C   UNL A   1      44.706  26.797  35.796  1.00  0.00     0.135 A 
ATOM     62  F   UNL A   1      46.499  29.564  34.253  1.00  0.00    -0.206 F 
ATOM     63  C   UNL A   1      47.300  27.778  35.545  1.00  0.00     0.059 A 
ATOM     64  C   UNL A   1      45.753  26.124  36.419  1.00  0.00     0.059 A 
ATOM     65  F   UNL A   1      43.470  26.288  35.922  1.00  0.00    -0.206 F 
ATOM     66  C   UNL A   1      47.049  26.613  36.274  1.00  0.00     0.060 A 
BRANCH  66  67
ATOM     67  S   UNL A   1      48.446  25.751  37.024  1.00  0.00     0.124 S 
ATOM     68  O   UNL A   1      48.538  24.558  36.187  1.00  0.00    -0.237 OA
ATOM     69  O   UNL A   1      49.527  26.719  36.869  1.00  0.00    -0.237 OA
ATOM     70  O   UNL A   1      48.007  25.520  38.397  1.00  0.00    -0.744 OA
ENDBRANCH  66  67
ENDBRANCH  45  59
BRANCH  46  71
ATOM     71  C   UNL A   1      37.185  32.418  30.499  1.00  0.00     0.058 A 
ATOM     72  C   UNL A   1      35.895  31.893  30.666  1.00  0.00     0.135 A 
ATOM     73  C   UNL A   1      37.322  33.560  29.691  1.00  0.00     0.135 A 
ATOM     74  F   UNL A   1      35.710  30.795  31.414  1.00  0.00    -0.206 F 
ATOM     75  C   UNL A   1      34.786  32.467  30.049  1.00  0.00     0.059 A 
ATOM     76  C   UNL A   1      36.226  34.172  29.092  1.00  0.00     0.059 A 
ATOM     77  F   UNL A   1      38.532  34.107  29.499  1.00  0.00    -0.206 F 
ATOM     78  C   UNL A   1      34.962  33.612  29.270  1.00  0.00     0.060 A 
BRANCH  78  79
ATOM     79  S   UNL A   1      33.508  34.378  28.520  1.00  0.00     0.124 S 
ATOM     80  O   UNL A   1      32.986  33.287  27.707  1.00  0.00    -0.237 OA
ATOM     81  O   UNL A   1      32.716  34.737  29.692  1.00  0.00    -0.237 OA
ATOM     82  O   UNL A   1      34.065  35.506  27.779  1.00  0.00    -0.744 OA
ENDBRANCH  78  79
ENDBRANCH  46  71
BRANCH  58  83
ATOM     83  C   UNL A   1      39.957  32.891  36.900  1.00  0.00     0.058 A 
ATOM     84  C   UNL A   1      38.869  32.590  37.735  1.00  0.00     0.135 A 
ATOM     85  C   UNL A   1      40.769  33.983  37.256  1.00  0.00     0.135 A 
ATOM     86  F   UNL A   1      38.057  31.562  37.442  1.00  0.00    -0.206 F 
ATOM     87  C   UNL A   1      38.582  33.355  38.861  1.00  0.00     0.059 A 
ATOM     88  C   UNL A   1      40.523  34.739  38.397  1.00  0.00     0.059 A 
ATOM     89  F   UNL A   1      41.829  34.311  36.500  1.00  0.00    -0.206 F 
ATOM     90  C   UNL A   1      39.420  34.425  39.187  1.00  0.00     0.060 A 
BRANCH  90  91
ATOM     91  S   UNL A   1      39.056  35.385  40.672  1.00  0.00     0.124 S 
ATOM     92  O   UNL A   1      37.950  34.629  41.249  1.00  0.00    -0.237 OA
ATOM     93  O   UNL A   1      40.319  35.317  41.401  1.00  0.00    -0.237 OA
ATOM     94  O   UNL A   1      38.710  36.703  40.150  1.00  0.00    -0.744 OA
ENDBRANCH  90  91
ENDBRANCH  58  83
ENDBRANCH  32  33
ENDBRANCH  25  27
ENDBRANCH  24  25
ENDBRANCH  23  24
ENDBRANCH  22  23
ENDBRANCH  21  22
ENDBRANCH  20  21
ENDBRANCH   1  20
TORSDOF 24
ENDMDL
MODEL 3
REMARK VINA RESULT:      -9.0      1.660      2.563
REMARK SMILES CC(C)[C@](C)(CC(=O)NC#N)C(=O)OCCOCCOCCOC(=O)c1ccc(-c2c3nc(c(-c4c(F)cc(S(=O)(=O)[O-])cc4F)c4ccc([nH]4)c(-c4c(F)cc(S(=O)(=O)[O-])cc4F)c4nc(c(-c5c(F)cc(S(=O)(=O)[O-])cc5F)c5ccc2[nH]5)C=C4)C=C3)cc1
REMARK SMILES IDX 18 1 17 2 16 3 15 4 14 5 12 6 13 7 4 8 5 9 2 10 1 11 3 12
REMARK SMILES IDX 6 13 7 14 8 15 9 16 10 18 11 19 19 20 20 21 21 22 22 23
REMARK SMILES IDX 23 24 24 25 25 26 26 27 27 28 91 29 28 30 90 31 29 32 30 33
REMARK SMILES IDX 31 34 84 35 32 36 89 37 83 38 85 39 33 40 88 41 82 42 81 43
REMARK SMILES IDX 34 45 68 46 47 47 67 48 48 49 51 50 66 51 86 52 49 53 50 54
REMARK SMILES IDX 65 56 87 57 52 58 35 59 36 60 45 61 37 62 38 63 44 64 46 65
REMARK SMILES IDX 39 66 40 67 41 68 42 69 43 70 69 71 70 72 79 73 71 74 72 75
REMARK SMILES IDX 78 76 80 77 73 78 74 79 75 80 76 81 77 82 53 83 54 84 63 85
REMARK SMILES IDX 55 86 56 87 62 88 64 89 57 90 58 91 59 92 60 93 61 94
REMARK H PARENT 9 17 85 44 51 55
REMARK Flexibility Score: inf
ROOT
ATOM      1  C   UNL A   1      38.729  21.475  25.766  1.00  0.00     0.188 C 
ENDROOT
BRANCH   1   2
ATOM      2  O   UNL A   1      38.622  22.681  26.504  1.00  0.00    -0.376 OA
BRANCH   2   3
ATOM      3  C   UNL A   1      37.917  23.785  25.957  1.00  0.00     0.202 C 
BRANCH   3   4
ATOM      4  C   UNL A   1      36.902  23.584  24.804  1.00  0.00     0.261 C 
BRANCH   4   5
ATOM      5  O   UNL A   1      35.489  23.400  25.116  1.00  0.00    -0.463 OA
BRANCH   5   6
ATOM      6  C   UNL A   1      34.650  23.543  24.058  1.00  0.00     0.312 C 
ATOM      7  O   UNL A   1      34.847  22.946  23.002  1.00  0.00    -0.252 OA
BRANCH   6   8
ATOM      8  C   UNL A   1      33.420  24.510  24.235  1.00  0.00     0.076 C 
ATOM      9  C   UNL A   1      34.029  25.787  24.842  1.00  0.00     0.024 C 
BRANCH   8  10
ATOM     10  C   UNL A   1      32.506  23.734  25.295  1.00  0.00     0.000 C 
ATOM     11  C   UNL A   1      31.010  23.706  24.939  1.00  0.00     0.008 C 
ATOM     12  C   UNL A   1      32.916  22.280  25.593  1.00  0.00     0.008 C 
ENDBRANCH   8  10
BRANCH   8  13
ATOM     13  C   UNL A   1      32.527  24.854  22.981  1.00  0.00     0.119 C 
BRANCH  13  14
ATOM     14  C   UNL A   1      32.856  25.802  21.816  1.00  0.00     0.234 C 
ATOM     15  O   UNL A   1      33.255  25.338  20.742  1.00  0.00    -0.274 OA
ATOM     16  N   UNL A   1      32.606  27.135  21.833  1.00  0.00    -0.263 N 
ATOM     17  H   UNL A   1      32.849  27.556  20.977  1.00  0.00     0.182 HD
BRANCH  16  18
ATOM     18  C   UNL A   1      32.122  28.033  22.693  1.00  0.00     0.183 C 
ATOM     19  N   UNL A   1      31.770  28.835  23.454  1.00  0.00    -0.172 NA
ENDBRANCH  16  18
ENDBRANCH  13  14
ENDBRANCH   8  13
ENDBRANCH   6   8
ENDBRANCH   5   6
ENDBRANCH   4   5
ENDBRANCH   3   4
ENDBRANCH   2   3
ENDBRANCH   1   2
BRANCH   1  20
ATOM     20  C   UNL A   1      39.932  20.559  26.004  1.00  0.00     0.188 C 
BRANCH  20  21
ATOM     21  O   UNL A   1      40.530  20.661  27.269  1.00  0.00    -0.376 OA
BRANCH  21  22
ATOM     22  C   UNL A   1      41.795  21.276  27.358  1.00  0.00     0.202 C 
BRANCH  22  23
ATOM     23  C   UNL A   1      42.329  22.130  26.191  1.00  0.00     0.261 C 
BRANCH  23  24
ATOM     24  O   UNL A   1      41.719  23.416  25.958  1.00  0.00    -0.460 OA
BRANCH  24  25
ATOM     25  C   UNL A   1      42.542  24.489  25.886  1.00  0.00     0.338 C 
ATOM     26  O   UNL A   1      43.438  24.668  25.080  1.00  0.00    -0.246 OA
BRANCH  25  27
ATOM     27  C   UNL A   1      42.065  25.536  26.823  1.00  0.00     0.060 A 
ATOM     28  C   UNL A   1      42.651  26.810  26.784  1.00  0.00     0.016 A 
ATOM     29  C   UNL A   1      41.110  25.245  27.790  1.00  0.00     0.016 A 
ATOM     30  C   UNL A   1      42.325  27.781  27.729  1.00  0.00     0.010 A 
ATOM     31  C   UNL A   1      40.784  26.217  28.746  1.00  0.00     0.010 A 
ATOM     32  C   UNL A   1      41.414  27.478  28.744  1.00  0.00    -0.014 A 
BRANCH  32  33
ATOM     33  C   UNL A   1      41.228  28.414  29.885  1.00  0.00     0.031 A 
ATOM     34  C   UNL A   1      42.114  28.267  31.094  1.00  0.00     0.074 A 
ATOM     35  C   UNL A   1      40.302  29.390  29.846  1.00  0.00     0.049 A 
ATOM     36  N   UNL A   1      42.033  28.849  32.262  1.00  0.00    -0.248 NA
ATOM     37  C   UNL A   1      43.241  27.328  30.968  1.00  0.00     0.031 C 
ATOM     38  C   UNL A   1      39.439  29.692  28.705  1.00  0.00     0.029 A 
ATOM     39  N   UNL A   1      39.921  30.300  30.803  1.00  0.00    -0.354 N 
ATOM     40  C   UNL A   1      43.074  28.325  33.021  1.00  0.00     0.074 A 
ATOM     41  C   UNL A   1      43.757  27.359  32.188  1.00  0.00     0.031 C 
ATOM     42  C   UNL A   1      38.617  30.703  29.033  1.00  0.00     0.029 A 
ATOM     43  C   UNL A   1      38.850  31.076  30.426  1.00  0.00     0.049 A 
ATOM     44  H   UNL A   1      40.371  30.387  31.673  1.00  0.00     0.167 HD
ATOM     45  C   UNL A   1      43.425  28.624  34.294  1.00  0.00     0.037 A 
ATOM     46  C   UNL A   1      38.109  31.950  31.137  1.00  0.00     0.037 A 
ATOM     47  C   UNL A   1      42.739  29.595  35.106  1.00  0.00     0.049 A 
ATOM     48  C   UNL A   1      38.458  32.201  32.582  1.00  0.00     0.074 A 
ATOM     49  C   UNL A   1      43.013  29.974  36.409  1.00  0.00     0.029 A 
ATOM     50  N   UNL A   1      41.639  30.338  34.699  1.00  0.00    -0.354 N 
ATOM     51  N   UNL A   1      39.428  31.683  33.300  1.00  0.00    -0.248 NA
ATOM     52  C   UNL A   1      37.612  33.152  33.316  1.00  0.00     0.031 C 
ATOM     53  C   UNL A   1      42.038  30.893  36.811  1.00  0.00     0.029 A 
ATOM     54  C   UNL A   1      41.204  31.149  35.735  1.00  0.00     0.049 A 
ATOM     55  H   UNL A   1      41.228  30.294  33.805  1.00  0.00     0.167 HD
ATOM     56  C   UNL A   1      39.328  32.270  34.558  1.00  0.00     0.074 A 
ATOM     57  C   UNL A   1      38.212  33.191  34.498  1.00  0.00     0.031 C 
ATOM     58  C   UNL A   1      40.094  32.069  35.660  1.00  0.00     0.037 A 
BRANCH  45  59
ATOM     59  C   UNL A   1      44.575  27.862  34.901  1.00  0.00     0.058 A 
ATOM     60  C   UNL A   1      44.395  26.645  35.577  1.00  0.00     0.135 A 
ATOM     61  C   UNL A   1      45.888  28.350  34.781  1.00  0.00     0.135 A 
ATOM     62  F   UNL A   1      43.162  26.137  35.741  1.00  0.00    -0.206 F 
ATOM     63  C   UNL A   1      45.466  25.957  36.139  1.00  0.00     0.059 A 
ATOM     64  C   UNL A   1      46.979  27.661  35.303  1.00  0.00     0.059 A 
ATOM     65  F   UNL A   1      46.123  29.511  34.148  1.00  0.00    -0.206 F 
ATOM     66  C   UNL A   1      46.756  26.473  35.994  1.00  0.00     0.060 A 
BRANCH  66  67
ATOM     67  S   UNL A   1      48.133  25.566  36.728  1.00  0.00     0.124 S 
ATOM     68  O   UNL A   1      47.534  25.079  37.968  1.00  0.00    -0.237 OA
ATOM     69  O   UNL A   1      48.410  24.551  35.717  1.00  0.00    -0.237 OA
ATOM     70  O   UNL A   1      49.165  26.585  36.890  1.00  0.00    -0.744 OA
ENDBRANCH  66  67
ENDBRANCH  45  59
BRANCH  46  71
ATOM     71  C   UNL A   1      36.939  32.623  30.505  1.00  0.00     0.058 A 
ATOM     72  C   UNL A   1      35.629  32.172  30.726  1.00  0.00     0.135 A 
ATOM     73  C   UNL A   1      37.109  33.737  29.666  1.00  0.00     0.135 A 
ATOM     74  F   UNL A   1      35.412  31.101  31.506  1.00  0.00    -0.206 F 
ATOM     75  C   UNL A   1      34.533  32.790  30.132  1.00  0.00     0.059 A 
ATOM     76  C   UNL A   1      36.027  34.394  29.088  1.00  0.00     0.059 A 
ATOM     77  F   UNL A   1      38.339  34.215  29.421  1.00  0.00    -0.206 F 
ATOM     78  C   UNL A   1      34.743  33.907  29.320  1.00  0.00     0.060 A 
BRANCH  78  79
ATOM     79  S   UNL A   1      33.306  34.733  28.600  1.00  0.00     0.124 S 
ATOM     80  O   UNL A   1      33.928  35.853  27.904  1.00  0.00    -0.237 OA
ATOM     81  O   UNL A   1      32.747  33.685  27.752  1.00  0.00    -0.237 OA
ATOM     82  O   UNL A   1      32.500  35.084  29.766  1.00  0.00    -0.744 OA
ENDBRANCH  78  79
ENDBRANCH  46  71
BRANCH  58  83
ATOM     83  C   UNL A   1      39.789  32.894  36.883  1.00  0.00     0.058 A 
ATOM     84  C   UNL A   1      38.879  32.470  37.864  1.00  0.00     0.135 A 
ATOM     85  C   UNL A   1      40.465  34.108  37.103  1.00  0.00     0.135 A 
ATOM     86  F   UNL A   1      38.202  31.322  37.706  1.00  0.00    -0.206 F 
ATOM     87  C   UNL A   1      38.630  33.229  39.004  1.00  0.00     0.059 A 
ATOM     88  C   UNL A   1      40.259  34.865  38.251  1.00  0.00     0.059 A 
ATOM     89  F   UNL A   1      41.354  34.559  36.203  1.00  0.00    -0.206 F 
ATOM     90  C   UNL A   1      39.330  34.423  39.191  1.00  0.00     0.060 A 
BRANCH  90  91
ATOM     91  S   UNL A   1      39.024  35.378  40.691  1.00  0.00     0.124 S 
ATOM     92  O   UNL A   1      37.879  34.675  41.261  1.00  0.00    -0.237 OA
ATOM     93  O   UNL A   1      40.282  35.230  41.415  1.00  0.00    -0.237 OA
ATOM     94  O   UNL A   1      38.748  36.722  40.191  1.00  0.00    -0.744 OA
ENDBRANCH  90  91
ENDBRANCH  58  83
ENDBRANCH  32  33
ENDBRANCH  25  27
ENDBRANCH  24  25
ENDBRANCH  23  24
ENDBRANCH  22  23
ENDBRANCH  21  22
ENDBRANCH  20  21
ENDBRANCH   1  20
TORSDOF 24
ENDMDL
