MODEL 1
REMARK VINA RESULT:     -10.2      0.000      0.000
REMARK SMILES CC(C)[C@H](NC(=O)Cc1csc(-c2c(Cl)cccc2Cl)n1)C(=O)OCCOCCOCCOC(=O)c1ccc(-c2c3nc(c(-c4c(F)cc(S(=O)(=O)[O-])cc4F)c4ccc([nH]4)c(-c4c(F)cc(S(=O)(=O)[O-])cc4F)c4nc(c(-c5c(F)cc(S(=O)(=O)[O-])cc5F)c5ccc2[nH]5)C=C4)C=C3)cc1
REMARK SMILES IDX 28 1 27 2 26 3 25 4 24 5 22 6 23 7 4 8 2 9 1 10 3 11 5 12
REMARK SMILES IDX 6 13 7 15 8 16 9 17 10 18 21 19 11 20 12 21 13 22 14 23
REMARK SMILES IDX 19 24 15 25 16 26 18 27 20 28 17 29 29 30 30 31 31 32 32 33
REMARK SMILES IDX 33 34 34 35 35 36 36 37 37 38 101 39 38 40 100 41 39 42
REMARK SMILES IDX 40 43 41 44 94 45 42 46 99 47 93 48 95 49 43 50 98 51 92 52
REMARK SMILES IDX 91 53 44 55 78 56 57 57 77 58 58 59 61 60 76 61 96 62 59 63
REMARK SMILES IDX 60 64 75 66 97 67 62 68 45 69 46 70 55 71 47 72 48 73 54 74
REMARK SMILES IDX 56 75 49 76 50 77 51 78 52 79 53 80 79 81 80 82 89 83 81 84
REMARK SMILES IDX 82 85 88 86 90 87 83 88 84 89 85 90 86 91 87 92 63 93 64 94
REMARK SMILES IDX 73 95 65 96 66 97 72 98 74 99 67 100 68 101 69 102 70 103
REMARK SMILES IDX 71 104
REMARK H PARENT 5 14 95 54 61 65
REMARK Flexibility Score: inf
ROOT
ATOM      1  C   UNL A   1      33.337  32.810  27.953  1.00  0.00     0.188 C 
ENDROOT
BRANCH   1   2
ATOM      2  O   UNL A   1      33.761  31.452  27.931  1.00  0.00    -0.376 OA
BRANCH   2   3
ATOM      3  C   UNL A   1      33.322  30.623  26.865  1.00  0.00     0.202 C 
BRANCH   3   4
ATOM      4  C   UNL A   1      31.813  30.424  26.769  1.00  0.00     0.261 C 
BRANCH   4   5
ATOM      5  O   UNL A   1      31.457  29.234  26.034  1.00  0.00    -0.462 OA
BRANCH   5   6
ATOM      6  C   UNL A   1      31.588  28.067  26.718  1.00  0.00     0.328 C 
ATOM      7  O   UNL A   1      31.425  27.951  27.928  1.00  0.00    -0.250 OA
BRANCH   6   8
ATOM      8  C   UNL A   1      32.158  26.922  25.865  1.00  0.00     0.194 C 
BRANCH   8   9
ATOM      9  C   UNL A   1      33.685  27.079  25.619  1.00  0.00     0.017 C 
ATOM     10  C   UNL A   1      34.464  25.761  25.594  1.00  0.00     0.010 C 
ATOM     11  C   UNL A   1      33.987  27.883  24.350  1.00  0.00     0.010 C 
ENDBRANCH   8   9
BRANCH   8  12
ATOM     12  N   UNL A   1      31.444  26.559  24.643  1.00  0.00    -0.342 N 
ATOM     13  C   UNL A   1      31.141  25.304  24.186  1.00  0.00     0.226 C 
ATOM     14  H   UNL A   1      31.144  27.309  24.080  1.00  0.00     0.164 HD
ATOM     15  O   UNL A   1      31.038  25.177  22.964  1.00  0.00    -0.275 OA
BRANCH  13  16
ATOM     16  C   UNL A   1      30.752  24.191  25.139  1.00  0.00     0.157 C 
BRANCH  16  17
ATOM     17  C   UNL A   1      31.812  23.454  25.891  1.00  0.00     0.061 A 
ATOM     18  C   UNL A   1      31.829  23.102  27.221  1.00  0.00     0.091 A 
ATOM     19  N   UNL A   1      32.791  22.784  25.160  1.00  0.00    -0.240 NA
ATOM     20  S   UNL A   1      33.289  22.311  27.594  1.00  0.00    -0.122 S 
ATOM     21  C   UNL A   1      33.574  22.023  25.917  1.00  0.00     0.126 A 
BRANCH  21  22
ATOM     22  C   UNL A   1      34.564  21.024  25.400  1.00  0.00     0.048 A 
ATOM     23  C   UNL A   1      34.123  19.736  24.989  1.00  0.00     0.052 A 
ATOM     24  C   UNL A   1      35.972  21.224  25.369  1.00  0.00     0.052 A 
ATOM     25  Cl  UNL A   1      32.451  19.270  24.881  1.00  0.00    -0.084 Cl
ATOM     26  C   UNL A   1      35.023  18.721  24.614  1.00  0.00     0.021 A 
ATOM     27  C   UNL A   1      36.856  20.205  24.967  1.00  0.00     0.021 A 
ATOM     28  Cl  UNL A   1      36.803  22.673  25.844  1.00  0.00    -0.084 Cl
ATOM     29  C   UNL A   1      36.389  18.952  24.609  1.00  0.00     0.003 A 
ENDBRANCH  21  22
ENDBRANCH  16  17
ENDBRANCH  13  16
ENDBRANCH   8  12
ENDBRANCH   6   8
ENDBRANCH   5   6
ENDBRANCH   4   5
ENDBRANCH   3   4
ENDBRANCH   2   3
ENDBRANCH   1   2
BRANCH   1  30
ATOM     30  C   UNL A   1      33.971  33.753  28.992  1.00  0.00     0.188 C 
BRANCH  30  31
ATOM     31  O   UNL A   1      34.488  33.166  30.181  1.00  0.00    -0.376 OA
BRANCH  31  32
ATOM     32  C   UNL A   1      35.827  33.500  30.539  1.00  0.00     0.202 C 
BRANCH  32  33
ATOM     33  C   UNL A   1      36.348  32.739  31.755  1.00  0.00     0.261 C 
BRANCH  33  34
ATOM     34  O   UNL A   1      37.482  31.932  31.389  1.00  0.00    -0.460 OA
BRANCH  34  35
ATOM     35  C   UNL A   1      37.234  30.608  31.280  1.00  0.00     0.338 C 
ATOM     36  O   UNL A   1      36.218  30.015  31.608  1.00  0.00    -0.246 OA
BRANCH  35  37
ATOM     37  C   UNL A   1      38.347  29.955  30.578  1.00  0.00     0.060 A 
ATOM     38  C   UNL A   1      39.320  29.314  31.344  1.00  0.00     0.016 A 
ATOM     39  C   UNL A   1      38.515  30.111  29.203  1.00  0.00     0.016 A 
ATOM     40  C   UNL A   1      40.495  28.860  30.749  1.00  0.00     0.010 A 
ATOM     41  C   UNL A   1      39.698  29.660  28.607  1.00  0.00     0.010 A 
ATOM     42  C   UNL A   1      40.711  29.067  29.383  1.00  0.00    -0.014 A 
BRANCH  42  43
ATOM     43  C   UNL A   1      42.061  28.849  28.808  1.00  0.00     0.031 A 
ATOM     44  C   UNL A   1      42.382  27.502  28.221  1.00  0.00     0.074 A 
ATOM     45  C   UNL A   1      42.974  29.836  28.761  1.00  0.00     0.049 A 
ATOM     46  N   UNL A   1      43.528  27.027  27.809  1.00  0.00    -0.248 NA
ATOM     47  C   UNL A   1      41.256  26.562  28.083  1.00  0.00     0.031 C 
ATOM     48  C   UNL A   1      42.748  31.217  29.176  1.00  0.00     0.029 A 
ATOM     49  N   UNL A   1      44.273  29.825  28.317  1.00  0.00    -0.354 N 
ATOM     50  C   UNL A   1      43.277  25.711  27.437  1.00  0.00     0.074 A 
ATOM     51  C   UNL A   1      41.863  25.476  27.630  1.00  0.00     0.031 C 
ATOM     52  C   UNL A   1      43.861  31.932  28.931  1.00  0.00     0.029 A 
ATOM     53  C   UNL A   1      44.894  31.049  28.394  1.00  0.00     0.049 A 
ATOM     54  H   UNL A   1      44.718  29.016  27.976  1.00  0.00     0.167 HD
ATOM     55  C   UNL A   1      44.156  24.777  27.003  1.00  0.00     0.037 A 
ATOM     56  C   UNL A   1      46.152  31.406  28.068  1.00  0.00     0.037 A 
ATOM     57  C   UNL A   1      45.552  25.032  26.775  1.00  0.00     0.049 A 
ATOM     58  C   UNL A   1      47.114  30.353  27.577  1.00  0.00     0.074 A 
ATOM     59  C   UNL A   1      46.541  24.143  26.392  1.00  0.00     0.029 A 
ATOM     60  N   UNL A   1      46.154  26.275  26.894  1.00  0.00    -0.354 N 
ATOM     61  N   UNL A   1      46.889  29.088  27.312  1.00  0.00    -0.248 NA
ATOM     62  C   UNL A   1      48.508  30.772  27.366  1.00  0.00     0.031 C 
ATOM     63  C   UNL A   1      47.746  24.847  26.296  1.00  0.00     0.029 A 
ATOM     64  C   UNL A   1      47.500  26.180  26.583  1.00  0.00     0.049 A 
ATOM     65  H   UNL A   1      45.693  27.103  27.160  1.00  0.00     0.167 HD
ATOM     66  C   UNL A   1      48.112  28.561  26.909  1.00  0.00     0.074 A 
ATOM     67  C   UNL A   1      49.065  29.651  26.925  1.00  0.00     0.031 C 
ATOM     68  C   UNL A   1      48.425  27.284  26.578  1.00  0.00     0.037 A 
BRANCH  55  69
ATOM     69  C   UNL A   1      43.644  23.378  26.827  1.00  0.00     0.058 A 
ATOM     70  C   UNL A   1      43.287  22.568  27.914  1.00  0.00     0.135 A 
ATOM     71  C   UNL A   1      43.508  22.843  25.535  1.00  0.00     0.135 A 
ATOM     72  F   UNL A   1      43.417  23.027  29.169  1.00  0.00    -0.206 F 
ATOM     73  C   UNL A   1      42.836  21.264  27.729  1.00  0.00     0.059 A 
ATOM     74  C   UNL A   1      43.040  21.550  25.324  1.00  0.00     0.059 A 
ATOM     75  F   UNL A   1      43.841  23.577  24.461  1.00  0.00    -0.206 F 
ATOM     76  C   UNL A   1      42.723  20.762  26.429  1.00  0.00     0.060 A 
BRANCH  76  77
ATOM     77  S   UNL A   1      42.150  19.066  26.196  1.00  0.00     0.124 S 
ATOM     78  O   UNL A   1      42.375  18.499  27.521  1.00  0.00    -0.237 OA
ATOM     79  O   UNL A   1      40.753  19.255  25.816  1.00  0.00    -0.237 OA
ATOM     80  O   UNL A   1      43.018  18.557  25.139  1.00  0.00    -0.744 OA
ENDBRANCH  76  77
ENDBRANCH  55  69
BRANCH  56  81
ATOM     81  C   UNL A   1      46.586  32.826  28.178  1.00  0.00     0.058 A 
ATOM     82  C   UNL A   1      46.408  33.709  27.103  1.00  0.00     0.135 A 
ATOM     83  C   UNL A   1      47.196  33.325  29.339  1.00  0.00     0.135 A 
ATOM     84  F   UNL A   1      45.854  33.271  25.961  1.00  0.00    -0.206 F 
ATOM     85  C   UNL A   1      46.824  35.035  27.169  1.00  0.00     0.059 A 
ATOM     86  C   UNL A   1      47.601  34.653  29.438  1.00  0.00     0.059 A 
ATOM     87  F   UNL A   1      47.392  32.522  30.395  1.00  0.00    -0.206 F 
ATOM     88  C   UNL A   1      47.421  35.498  28.343  1.00  0.00     0.060 A 
BRANCH  88  89
ATOM     89  S   UNL A   1      47.929  37.228  28.444  1.00  0.00     0.124 S 
ATOM     90  O   UNL A   1      47.586  37.552  29.823  1.00  0.00    -0.237 OA
ATOM     91  O   UNL A   1      49.355  37.156  28.141  1.00  0.00    -0.237 OA
ATOM     92  O   UNL A   1      47.112  37.872  27.420  1.00  0.00    -0.744 OA
ENDBRANCH  88  89
ENDBRANCH  56  81
BRANCH  68  93
ATOM     93  C   UNL A   1      49.844  26.991  26.180  1.00  0.00     0.058 A 
ATOM     94  C   UNL A   1      50.791  26.555  27.119  1.00  0.00     0.135 A 
ATOM     95  C   UNL A   1      50.233  27.055  24.833  1.00  0.00     0.135 A 
ATOM     96  F   UNL A   1      50.468  26.480  28.419  1.00  0.00    -0.206 F 
ATOM     97  C   UNL A   1      52.081  26.202  26.737  1.00  0.00     0.059 A 
ATOM     98  C   UNL A   1      51.512  26.687  24.426  1.00  0.00     0.059 A 
ATOM     99  F   UNL A   1      49.359  27.455  23.896  1.00  0.00    -0.206 F 
ATOM    100  C   UNL A   1      52.431  26.266  25.386  1.00  0.00     0.060 A 
BRANCH 100 101
ATOM    101  S   UNL A   1      54.088  25.744  24.893  1.00  0.00     0.124 S 
ATOM    102  O   UNL A   1      54.194  26.325  23.559  1.00  0.00    -0.237 OA
ATOM    103  O   UNL A   1      54.928  26.353  25.920  1.00  0.00    -0.237 OA
ATOM    104  O   UNL A   1      54.011  24.287  24.941  1.00  0.00    -0.744 OA
ENDBRANCH 100 101
ENDBRANCH  68  93
ENDBRANCH  42  43
ENDBRANCH  35  37
ENDBRANCH  34  35
ENDBRANCH  33  34
ENDBRANCH  32  33
ENDBRANCH  31  32
ENDBRANCH  30  31
ENDBRANCH   1  30
TORSDOF 25
ENDMDL
MODEL 2
REMARK VINA RESULT:      -9.6      6.498     11.027
REMARK SMILES CC(C)[C@H](NC(=O)Cc1csc(-c2c(Cl)cccc2Cl)n1)C(=O)OCCOCCOCCOC(=O)c1ccc(-c2c3nc(c(-c4c(F)cc(S(=O)(=O)[O-])cc4F)c4ccc([nH]4)c(-c4c(F)cc(S(=O)(=O)[O-])cc4F)c4nc(c(-c5c(F)cc(S(=O)(=O)[O-])cc5F)c5ccc2[nH]5)C=C4)C=C3)cc1
REMARK SMILES IDX 28 1 27 2 26 3 25 4 24 5 22 6 23 7 4 8 2 9 1 10 3 11 5 12
REMARK SMILES IDX 6 13 7 15 8 16 9 17 10 18 21 19 11 20 12 21 13 22 14 23
REMARK SMILES IDX 19 24 15 25 16 26 18 27 20 28 17 29 29 30 30 31 31 32 32 33
REMARK SMILES IDX 33 34 34 35 35 36 36 37 37 38 101 39 38 40 100 41 39 42
REMARK SMILES IDX 40 43 41 44 94 45 42 46 99 47 93 48 95 49 43 50 98 51 92 52
REMARK SMILES IDX 91 53 44 55 78 56 57 57 77 58 58 59 61 60 76 61 96 62 59 63
REMARK SMILES IDX 60 64 75 66 97 67 62 68 45 69 46 70 55 71 47 72 48 73 54 74
REMARK SMILES IDX 56 75 49 76 50 77 51 78 52 79 53 80 79 81 80 82 89 83 81 84
REMARK SMILES IDX 82 85 88 86 90 87 83 88 84 89 85 90 86 91 87 92 63 93 64 94
REMARK SMILES IDX 73 95 65 96 66 97 72 98 74 99 67 100 68 101 69 102 70 103
REMARK SMILES IDX 71 104
REMARK H PARENT 5 14 95 54 61 65
REMARK Flexibility Score: inf
ROOT
ATOM      1  C   UNL A   1      35.116  30.799  27.805  1.00  0.00     0.188 C 
ENDROOT
BRANCH   1   2
ATOM      2  O   UNL A   1      33.715  30.555  27.722  1.00  0.00    -0.376 OA
BRANCH   2   3
ATOM      3  C   UNL A   1      33.156  30.245  26.454  1.00  0.00     0.202 C 
BRANCH   3   4
ATOM      4  C   UNL A   1      32.511  28.869  26.343  1.00  0.00     0.261 C 
BRANCH   4   5
ATOM      5  O   UNL A   1      31.550  28.793  25.268  1.00  0.00    -0.462 OA
BRANCH   5   6
ATOM      6  C   UNL A   1      32.077  28.807  24.016  1.00  0.00     0.328 C 
ATOM      7  O   UNL A   1      33.272  28.926  23.767  1.00  0.00    -0.250 OA
BRANCH   6   8
ATOM      8  C   UNL A   1      31.012  28.858  22.907  1.00  0.00     0.194 C 
BRANCH   8   9
ATOM      9  C   UNL A   1      29.612  29.248  23.458  1.00  0.00     0.017 C 
ATOM     10  C   UNL A   1      29.124  30.635  23.030  1.00  0.00     0.010 C 
ATOM     11  C   UNL A   1      28.545  28.199  23.123  1.00  0.00     0.010 C 
ENDBRANCH   8   9
BRANCH   8  12
ATOM     12  N   UNL A   1      30.938  27.733  21.978  1.00  0.00    -0.342 N 
ATOM     13  C   UNL A   1      31.566  26.520  22.074  1.00  0.00     0.226 C 
ATOM     14  H   UNL A   1      30.368  27.863  21.186  1.00  0.00     0.164 HD
ATOM     15  O   UNL A   1      31.817  25.948  21.011  1.00  0.00    -0.275 OA
BRANCH  13  16
ATOM     16  C   UNL A   1      31.750  25.832  23.412  1.00  0.00     0.157 C 
BRANCH  16  17
ATOM     17  C   UNL A   1      32.713  24.696  23.536  1.00  0.00     0.061 A 
ATOM     18  C   UNL A   1      34.010  24.722  23.997  1.00  0.00     0.091 A 
ATOM     19  N   UNL A   1      32.213  23.399  23.451  1.00  0.00    -0.240 NA
ATOM     20  S   UNL A   1      34.692  23.166  23.894  1.00  0.00    -0.122 S 
ATOM     21  C   UNL A   1      33.119  22.474  23.748  1.00  0.00     0.126 A 
BRANCH  21  22
ATOM     22  C   UNL A   1      32.827  21.019  23.956  1.00  0.00     0.048 A 
ATOM     23  C   UNL A   1      33.175  20.393  25.185  1.00  0.00     0.052 A 
ATOM     24  C   UNL A   1      32.298  20.151  22.960  1.00  0.00     0.052 A 
ATOM     25  Cl  UNL A   1      33.781  21.248  26.572  1.00  0.00    -0.084 Cl
ATOM     26  C   UNL A   1      33.037  19.007  25.385  1.00  0.00     0.021 A 
ATOM     27  C   UNL A   1      32.143  18.770  23.187  1.00  0.00     0.021 A 
ATOM     28  Cl  UNL A   1      31.819  20.617  21.357  1.00  0.00    -0.084 Cl
ATOM     29  C   UNL A   1      32.527  18.194  24.385  1.00  0.00     0.003 A 
ENDBRANCH  21  22
ENDBRANCH  16  17
ENDBRANCH  13  16
ENDBRANCH   8  12
ENDBRANCH   6   8
ENDBRANCH   5   6
ENDBRANCH   4   5
ENDBRANCH   3   4
ENDBRANCH   2   3
ENDBRANCH   1   2
BRANCH   1  30
ATOM     30  C   UNL A   1      35.585  32.204  28.222  1.00  0.00     0.188 C 
BRANCH  30  31
ATOM     31  O   UNL A   1      34.673  33.009  28.961  1.00  0.00    -0.376 OA
BRANCH  31  32
ATOM     32  C   UNL A   1      34.293  34.256  28.385  1.00  0.00     0.202 C 
BRANCH  32  33
ATOM     33  C   UNL A   1      33.074  34.895  29.044  1.00  0.00     0.261 C 
BRANCH  33  34
ATOM     34  O   UNL A   1      33.488  35.810  30.075  1.00  0.00    -0.460 OA
BRANCH  34  35
ATOM     35  C   UNL A   1      32.967  35.571  31.298  1.00  0.00     0.338 C 
ATOM     36  O   UNL A   1      31.809  35.731  31.655  1.00  0.00    -0.246 OA
BRANCH  35  37
ATOM     37  C   UNL A   1      33.989  34.957  32.156  1.00  0.00     0.060 A 
ATOM     38  C   UNL A   1      35.236  35.577  32.239  1.00  0.00     0.016 A 
ATOM     39  C   UNL A   1      33.776  33.710  32.741  1.00  0.00     0.016 A 
ATOM     40  C   UNL A   1      36.298  34.934  32.869  1.00  0.00     0.010 A 
ATOM     41  C   UNL A   1      34.846  33.061  33.368  1.00  0.00     0.010 A 
ATOM     42  C   UNL A   1      36.122  33.653  33.401  1.00  0.00    -0.014 A 
BRANCH  42  43
ATOM     43  C   UNL A   1      37.305  32.855  33.810  1.00  0.00     0.031 A 
ATOM     44  C   UNL A   1      37.888  33.086  35.177  1.00  0.00     0.074 A 
ATOM     45  C   UNL A   1      37.826  31.909  33.009  1.00  0.00     0.049 A 
ATOM     46  N   UNL A   1      39.000  32.631  35.693  1.00  0.00    -0.248 NA
ATOM     47  C   UNL A   1      37.113  33.951  36.082  1.00  0.00     0.031 C 
ATOM     48  C   UNL A   1      37.280  31.497  31.719  1.00  0.00     0.029 A 
ATOM     49  N   UNL A   1      38.926  31.106  33.181  1.00  0.00    -0.354 N 
ATOM     50  C   UNL A   1      39.096  33.215  36.951  1.00  0.00     0.074 A 
ATOM     51  C   UNL A   1      37.910  34.022  37.138  1.00  0.00     0.031 C 
ATOM     52  C   UNL A   1      38.026  30.489  31.233  1.00  0.00     0.029 A 
ATOM     53  C   UNL A   1      39.133  30.222  32.149  1.00  0.00     0.049 A 
ATOM     54  H   UNL A   1      39.512  31.157  33.971  1.00  0.00     0.167 HD
ATOM     55  C   UNL A   1      40.099  33.109  37.853  1.00  0.00     0.037 A 
ATOM     56  C   UNL A   1      40.107  29.306  31.971  1.00  0.00     0.037 A 
ATOM     57  C   UNL A   1      41.255  32.273  37.676  1.00  0.00     0.049 A 
ATOM     58  C   UNL A   1      41.212  29.198  32.992  1.00  0.00     0.074 A 
ATOM     59  C   UNL A   1      42.358  32.137  38.501  1.00  0.00     0.029 A 
ATOM     60  N   UNL A   1      41.448  31.416  36.604  1.00  0.00    -0.354 N 
ATOM     61  N   UNL A   1      41.340  29.819  34.140  1.00  0.00    -0.248 NA
ATOM     62  C   UNL A   1      42.317  28.279  32.681  1.00  0.00     0.031 C 
ATOM     63  C   UNL A   1      43.227  31.209  37.917  1.00  0.00     0.029 A 
ATOM     64  C   UNL A   1      42.647  30.740  36.749  1.00  0.00     0.049 A 
ATOM     65  H   UNL A   1      40.824  31.304  35.851  1.00  0.00     0.167 HD
ATOM     66  C   UNL A   1      42.541  29.373  34.683  1.00  0.00     0.074 A 
ATOM     67  C   UNL A   1      43.082  28.398  33.759  1.00  0.00     0.031 C 
ATOM     68  C   UNL A   1      43.153  29.752  35.831  1.00  0.00     0.037 A 
BRANCH  55  69
ATOM     69  C   UNL A   1      40.025  33.982  39.073  1.00  0.00     0.058 A 
ATOM     70  C   UNL A   1      40.602  35.259  39.116  1.00  0.00     0.135 A 
ATOM     71  C   UNL A   1      39.358  33.521  40.219  1.00  0.00     0.135 A 
ATOM     72  F   UNL A   1      41.268  35.736  38.052  1.00  0.00    -0.206 F 
ATOM     73  C   UNL A   1      40.542  36.042  40.266  1.00  0.00     0.059 A 
ATOM     74  C   UNL A   1      39.267  34.294  41.372  1.00  0.00     0.059 A 
ATOM     75  F   UNL A   1      38.793  32.303  40.229  1.00  0.00    -0.206 F 
ATOM     76  C   UNL A   1      39.877  35.547  41.391  1.00  0.00     0.060 A 
BRANCH  76  77
ATOM     77  S   UNL A   1      39.813  36.562  42.883  1.00  0.00     0.124 S 
ATOM     78  O   UNL A   1      41.111  36.275  43.484  1.00  0.00    -0.237 OA
ATOM     79  O   UNL A   1      39.648  37.907  42.342  1.00  0.00    -0.237 OA
ATOM     80  O   UNL A   1      38.658  36.034  43.602  1.00  0.00    -0.744 OA
ENDBRANCH  76  77
ENDBRANCH  55  69
BRANCH  56  81
ATOM     81  C   UNL A   1      40.087  28.405  30.788  1.00  0.00     0.058 A 
ATOM     82  C   UNL A   1      39.235  27.291  30.757  1.00  0.00     0.135 A 
ATOM     83  C   UNL A   1      40.921  28.620  29.680  1.00  0.00     0.135 A 
ATOM     84  F   UNL A   1      38.439  27.026  31.805  1.00  0.00    -0.206 F 
ATOM     85  C   UNL A   1      39.211  26.418  29.673  1.00  0.00     0.059 A 
ATOM     86  C   UNL A   1      40.900  27.774  28.575  1.00  0.00     0.059 A 
ATOM     87  F   UNL A   1      41.756  29.669  29.659  1.00  0.00    -0.206 F 
ATOM     88  C   UNL A   1      40.050  26.668  28.586  1.00  0.00     0.060 A 
BRANCH  88  89
ATOM     89  S   UNL A   1      39.995  25.556  27.164  1.00  0.00     0.124 S 
ATOM     90  O   UNL A   1      40.557  26.398  26.114  1.00  0.00    -0.237 OA
ATOM     91  O   UNL A   1      40.829  24.442  27.602  1.00  0.00    -0.237 OA
ATOM     92  O   UNL A   1      38.573  25.251  27.038  1.00  0.00    -0.744 OA
ENDBRANCH  88  89
ENDBRANCH  56  81
BRANCH  68  93
ATOM     93  C   UNL A   1      44.463  29.100  36.175  1.00  0.00     0.058 A 
ATOM     94  C   UNL A   1      44.514  27.899  36.898  1.00  0.00     0.135 A 
ATOM     95  C   UNL A   1      45.670  29.633  35.697  1.00  0.00     0.135 A 
ATOM     96  F   UNL A   1      43.387  27.351  37.378  1.00  0.00    -0.206 F 
ATOM     97  C   UNL A   1      45.721  27.251  37.143  1.00  0.00     0.059 A 
ATOM     98  C   UNL A   1      46.886  28.992  35.913  1.00  0.00     0.059 A 
ATOM     99  F   UNL A   1      45.671  30.775  34.992  1.00  0.00    -0.206 F 
ATOM    100  C   UNL A   1      46.902  27.803  36.642  1.00  0.00     0.060 A 
BRANCH 100 101
ATOM    101  S   UNL A   1      48.455  26.920  36.910  1.00  0.00     0.124 S 
ATOM    102  O   UNL A   1      49.276  27.954  37.530  1.00  0.00    -0.237 OA
ATOM    103  O   UNL A   1      48.046  25.825  37.785  1.00  0.00    -0.237 OA
ATOM    104  O   UNL A   1      48.854  26.521  35.564  1.00  0.00    -0.744 OA
ENDBRANCH 100 101
ENDBRANCH  68  93
ENDBRANCH  42  43
ENDBRANCH  35  37
ENDBRANCH  34  35
ENDBRANCH  33  34
ENDBRANCH  32  33
ENDBRANCH  31  32
ENDBRANCH  30  31
ENDBRANCH   1  30
TORSDOF 25
ENDMDL
MODEL 3
REMARK VINA RESULT:      -9.6      6.164     12.321
REMARK SMILES CC(C)[C@H](NC(=O)Cc1csc(-c2c(Cl)cccc2Cl)n1)C(=O)OCCOCCOCCOC(=O)c1ccc(-c2c3nc(c(-c4c(F)cc(S(=O)(=O)[O-])cc4F)c4ccc([nH]4)c(-c4c(F)cc(S(=O)(=O)[O-])cc4F)c4nc(c(-c5c(F)cc(S(=O)(=O)[O-])cc5F)c5ccc2[nH]5)C=C4)C=C3)cc1
REMARK SMILES IDX 28 1 27 2 26 3 25 4 24 5 22 6 23 7 4 8 2 9 1 10 3 11 5 12
REMARK SMILES IDX 6 13 7 15 8 16 9 17 10 18 21 19 11 20 12 21 13 22 14 23
REMARK SMILES IDX 19 24 15 25 16 26 18 27 20 28 17 29 29 30 30 31 31 32 32 33
REMARK SMILES IDX 33 34 34 35 35 36 36 37 37 38 101 39 38 40 100 41 39 42
REMARK SMILES IDX 40 43 41 44 94 45 42 46 99 47 93 48 95 49 43 50 98 51 92 52
REMARK SMILES IDX 91 53 44 55 78 56 57 57 77 58 58 59 61 60 76 61 96 62 59 63
REMARK SMILES IDX 60 64 75 66 97 67 62 68 45 69 46 70 55 71 47 72 48 73 54 74
REMARK SMILES IDX 56 75 49 76 50 77 51 78 52 79 53 80 79 81 80 82 89 83 81 84
REMARK SMILES IDX 82 85 88 86 90 87 83 88 84 89 85 90 86 91 87 92 63 93 64 94
REMARK SMILES IDX 73 95 65 96 66 97 72 98 74 99 67 100 68 101 69 102 70 103
REMARK SMILES IDX 71 104
REMARK H PARENT 5 14 95 54 61 65
REMARK Flexibility Score: inf
ROOT
ATOM      1  C   UNL A   1      39.921  21.910  26.381  1.00  0.00     0.188 C 
ENDROOT
BRANCH   1   2
ATOM      2  O   UNL A   1      38.708  21.758  25.652  1.00  0.00    -0.376 OA
BRANCH   2   3
ATOM      3  C   UNL A   1      37.723  22.776  25.758  1.00  0.00     0.202 C 
BRANCH   3   4
ATOM      4  C   UNL A   1      37.083  23.207  24.443  1.00  0.00     0.261 C 
BRANCH   4   5
ATOM      5  O   UNL A   1      36.340  22.141  23.813  1.00  0.00    -0.462 OA
BRANCH   5   6
ATOM      6  C   UNL A   1      35.022  22.397  23.604  1.00  0.00     0.328 C 
ATOM      7  O   UNL A   1      34.590  23.141  22.731  1.00  0.00    -0.250 OA
BRANCH   6   8
ATOM      8  C   UNL A   1      34.109  21.817  24.698  1.00  0.00     0.194 C 
BRANCH   8   9
ATOM      9  C   UNL A   1      33.628  20.379  24.359  1.00  0.00     0.017 C 
ATOM     10  C   UNL A   1      34.623  19.274  24.723  1.00  0.00     0.010 C 
ATOM     11  C   UNL A   1      32.259  20.065  24.972  1.00  0.00     0.010 C 
ENDBRANCH   8   9
BRANCH   8  12
ATOM     12  N   UNL A   1      33.017  22.654  25.191  1.00  0.00    -0.342 N 
ATOM     13  C   UNL A   1      33.101  23.759  25.996  1.00  0.00     0.226 C 
ATOM     14  H   UNL A   1      32.111  22.392  24.909  1.00  0.00     0.164 HD
ATOM     15  O   UNL A   1      32.122  23.990  26.711  1.00  0.00    -0.275 OA
BRANCH  13  16
ATOM     16  C   UNL A   1      34.240  24.749  25.860  1.00  0.00     0.157 C 
BRANCH  16  17
ATOM     17  C   UNL A   1      34.021  26.036  25.134  1.00  0.00     0.061 A 
ATOM     18  C   UNL A   1      33.805  26.234  23.789  1.00  0.00     0.091 A 
ATOM     19  N   UNL A   1      33.718  27.170  25.885  1.00  0.00    -0.240 NA
ATOM     20  S   UNL A   1      33.658  27.898  23.463  1.00  0.00    -0.122 S 
ATOM     21  C   UNL A   1      33.372  28.211  25.135  1.00  0.00     0.126 A 
BRANCH  21  22
ATOM     22  C   UNL A   1      32.787  29.489  25.655  1.00  0.00     0.048 A 
ATOM     23  C   UNL A   1      33.425  30.179  26.723  1.00  0.00     0.052 A 
ATOM     24  C   UNL A   1      31.552  30.047  25.223  1.00  0.00     0.052 A 
ATOM     25  Cl  UNL A   1      34.969  29.730  27.384  1.00  0.00    -0.084 Cl
ATOM     26  C   UNL A   1      32.852  31.311  27.330  1.00  0.00     0.021 A 
ATOM     27  C   UNL A   1      31.006  31.196  25.825  1.00  0.00     0.021 A 
ATOM     28  Cl  UNL A   1      30.533  29.409  23.969  1.00  0.00    -0.084 Cl
ATOM     29  C   UNL A   1      31.641  31.818  26.887  1.00  0.00     0.003 A 
ENDBRANCH  21  22
ENDBRANCH  16  17
ENDBRANCH  13  16
ENDBRANCH   8  12
ENDBRANCH   6   8
ENDBRANCH   5   6
ENDBRANCH   4   5
ENDBRANCH   3   4
ENDBRANCH   2   3
ENDBRANCH   1   2
BRANCH   1  30
ATOM     30  C   UNL A   1      40.813  20.670  26.571  1.00  0.00     0.188 C 
BRANCH  30  31
ATOM     31  O   UNL A   1      42.185  20.889  26.883  1.00  0.00    -0.376 OA
BRANCH  31  32
ATOM     32  C   UNL A   1      42.750  22.134  26.481  1.00  0.00     0.202 C 
BRANCH  32  33
ATOM     33  C   UNL A   1      43.034  23.085  27.640  1.00  0.00     0.261 C 
BRANCH  33  34
ATOM     34  O   UNL A   1      43.675  24.280  27.159  1.00  0.00    -0.460 OA
BRANCH  34  35
ATOM     35  C   UNL A   1      42.867  25.141  26.502  1.00  0.00     0.338 C 
ATOM     36  O   UNL A   1      42.554  25.110  25.321  1.00  0.00    -0.246 OA
BRANCH  35  37
ATOM     37  C   UNL A   1      42.290  26.099  27.454  1.00  0.00     0.060 A 
ATOM     38  C   UNL A   1      42.910  27.341  27.592  1.00  0.00     0.016 A 
ATOM     39  C   UNL A   1      41.258  25.722  28.311  1.00  0.00     0.016 A 
ATOM     40  C   UNL A   1      42.533  28.203  28.619  1.00  0.00     0.010 A 
ATOM     41  C   UNL A   1      40.884  26.586  29.347  1.00  0.00     0.010 A 
ATOM     42  C   UNL A   1      41.547  27.814  29.530  1.00  0.00    -0.014 A 
BRANCH  42  43
ATOM     43  C   UNL A   1      41.346  28.592  30.778  1.00  0.00     0.031 A 
ATOM     44  C   UNL A   1      40.208  29.573  30.837  1.00  0.00     0.074 A 
ATOM     45  C   UNL A   1      42.126  28.402  31.858  1.00  0.00     0.049 A 
ATOM     46  N   UNL A   1      39.930  30.469  31.747  1.00  0.00    -0.248 NA
ATOM     47  C   UNL A   1      39.255  29.538  29.715  1.00  0.00     0.031 C 
ATOM     48  C   UNL A   1      43.177  27.396  31.976  1.00  0.00     0.029 A 
ATOM     49  N   UNL A   1      42.132  29.041  33.072  1.00  0.00    -0.354 N 
ATOM     50  C   UNL A   1      38.819  31.156  31.271  1.00  0.00     0.074 A 
ATOM     51  C   UNL A   1      38.448  30.545  30.014  1.00  0.00     0.031 C 
ATOM     52  C   UNL A   1      43.702  27.460  33.213  1.00  0.00     0.029 A 
ATOM     53  C   UNL A   1      43.063  28.546  33.954  1.00  0.00     0.049 A 
ATOM     54  H   UNL A   1      41.526  29.785  33.293  1.00  0.00     0.167 HD
ATOM     55  C   UNL A   1      38.189  32.220  31.821  1.00  0.00     0.037 A 
ATOM     56  C   UNL A   1      43.360  28.930  35.211  1.00  0.00     0.037 A 
ATOM     57  C   UNL A   1      38.540  32.795  33.091  1.00  0.00     0.049 A 
ATOM     58  C   UNL A   1      42.640  30.112  35.810  1.00  0.00     0.074 A 
ATOM     59  C   UNL A   1      38.005  33.909  33.713  1.00  0.00     0.029 A 
ATOM     60  N   UNL A   1      39.510  32.287  33.942  1.00  0.00    -0.354 N 
ATOM     61  N   UNL A   1      41.648  30.813  35.314  1.00  0.00    -0.248 NA
ATOM     62  C   UNL A   1      43.098  30.571  37.130  1.00  0.00     0.031 C 
ATOM     63  C   UNL A   1      38.664  34.085  34.934  1.00  0.00     0.029 A 
ATOM     64  C   UNL A   1      39.583  33.060  35.088  1.00  0.00     0.049 A 
ATOM     65  H   UNL A   1      40.064  31.495  33.758  1.00  0.00     0.167 HD
ATOM     66  C   UNL A   1      41.369  31.797  36.258  1.00  0.00     0.074 A 
ATOM     67  C   UNL A   1      42.267  31.577  37.372  1.00  0.00     0.031 C 
ATOM     68  C   UNL A   1      40.465  32.806  36.199  1.00  0.00     0.037 A 
BRANCH  55  69
ATOM     69  C   UNL A   1      37.109  32.876  31.011  1.00  0.00     0.058 A 
ATOM     70  C   UNL A   1      35.749  32.595  31.206  1.00  0.00     0.135 A 
ATOM     71  C   UNL A   1      37.452  33.810  30.020  1.00  0.00     0.135 A 
ATOM     72  F   UNL A   1      35.372  31.694  32.128  1.00  0.00    -0.206 F 
ATOM     73  C   UNL A   1      34.766  33.198  30.427  1.00  0.00     0.059 A 
ATOM     74  C   UNL A   1      36.486  34.441  29.244  1.00  0.00     0.059 A 
ATOM     75  F   UNL A   1      38.741  34.111  29.792  1.00  0.00    -0.206 F 
ATOM     76  C   UNL A   1      35.145  34.115  29.443  1.00  0.00     0.060 A 
BRANCH  76  77
ATOM     77  S   UNL A   1      33.866  34.885  28.428  1.00  0.00     0.124 S 
ATOM     78  O   UNL A   1      34.169  36.302  28.607  1.00  0.00    -0.237 OA
ATOM     79  O   UNL A   1      34.144  34.339  27.103  1.00  0.00    -0.237 OA
ATOM     80  O   UNL A   1      32.624  34.427  29.042  1.00  0.00    -0.744 OA
ENDBRANCH  76  77
ENDBRANCH  55  69
BRANCH  56  81
ATOM     81  C   UNL A   1      44.378  28.191  36.006  1.00  0.00     0.058 A 
ATOM     82  C   UNL A   1      43.993  27.144  36.857  1.00  0.00     0.135 A 
ATOM     83  C   UNL A   1      45.742  28.517  35.949  1.00  0.00     0.135 A 
ATOM     84  F   UNL A   1      42.697  26.813  36.967  1.00  0.00    -0.206 F 
ATOM     85  C   UNL A   1      44.920  26.450  37.628  1.00  0.00     0.059 A 
ATOM     86  C   UNL A   1      46.690  27.824  36.694  1.00  0.00     0.059 A 
ATOM     87  F   UNL A   1      46.163  29.511  35.153  1.00  0.00    -0.206 F 
ATOM     88  C   UNL A   1      46.269  26.799  37.540  1.00  0.00     0.060 A 
BRANCH  88  89
ATOM     89  S   UNL A   1      47.477  25.875  38.514  1.00  0.00     0.124 S 
ATOM     90  O   UNL A   1      46.610  25.077  39.373  1.00  0.00    -0.237 OA
ATOM     91  O   UNL A   1      48.212  25.140  37.490  1.00  0.00    -0.237 OA
ATOM     92  O   UNL A   1      48.236  26.928  39.183  1.00  0.00    -0.744 OA
ENDBRANCH  88  89
ENDBRANCH  56  81
BRANCH  68  93
ATOM     93  C   UNL A   1      40.378  33.738  37.374  1.00  0.00     0.058 A 
ATOM     94  C   UNL A   1      41.164  34.899  37.446  1.00  0.00     0.135 A 
ATOM     95  C   UNL A   1      39.433  33.518  38.388  1.00  0.00     0.135 A 
ATOM     96  F   UNL A   1      42.082  35.153  36.502  1.00  0.00    -0.206 F 
ATOM     97  C   UNL A   1      41.021  35.805  38.492  1.00  0.00     0.059 A 
ATOM     98  C   UNL A   1      39.260  34.421  39.432  1.00  0.00     0.059 A 
ATOM     99  F   UNL A   1      38.651  32.427  38.356  1.00  0.00    -0.206 F 
ATOM    100  C   UNL A   1      40.063  35.561  39.478  1.00  0.00     0.060 A 
BRANCH 100 101
ATOM    101  S   UNL A   1      39.843  36.777  40.795  1.00  0.00     0.124 S 
ATOM    102  O   UNL A   1      39.841  35.928  41.981  1.00  0.00    -0.237 OA
ATOM    103  O   UNL A   1      41.013  37.634  40.630  1.00  0.00    -0.237 OA
ATOM    104  O   UNL A   1      38.566  37.404  40.467  1.00  0.00    -0.744 OA
ENDBRANCH 100 101
ENDBRANCH  68  93
ENDBRANCH  42  43
ENDBRANCH  35  37
ENDBRANCH  34  35
ENDBRANCH  33  34
ENDBRANCH  32  33
ENDBRANCH  31  32
ENDBRANCH  30  31
ENDBRANCH   1  30
TORSDOF 25
ENDMDL
