MODEL 1
REMARK VINA RESULT:     -11.1      0.000      0.000
REMARK SMILES COc1ccc(-n2ccnc2C[N@@H+]2CCn3nc(C(=O)OCCOCCOCCOC(=O)c4ccc(-c5c6nc(c(-c7c(F)cc(S(=O)(=O)[O-])cc7F)c7ccc([nH]7)c(-c7c(F)cc(S(=O)(=O)[O-])cc7F)c7nc(c(-c8c(F)cc(S(=O)(=O)[O-])cc8F)c8ccc5[nH]8)C=C7)C=C6)cc4)cc3C2)cc1
REMARK SMILES IDX 25 1 24 2 23 3 22 4 21 5 19 6 20 7 18 8 13 9 14 10 101 11
REMARK SMILES IDX 15 13 100 14 16 15 99 16 17 17 12 18 11 19 7 20 8 21 9 22
REMARK SMILES IDX 10 23 6 24 3 25 4 26 103 27 5 28 102 29 2 30 1 31 26 32
REMARK SMILES IDX 27 33 28 34 29 35 30 36 31 37 32 38 33 39 34 40 98 41 35 42
REMARK SMILES IDX 97 43 36 44 37 45 38 46 91 47 39 48 96 49 90 50 92 51 40 52
REMARK SMILES IDX 95 53 89 54 88 55 41 57 75 58 54 59 74 60 55 61 58 62 73 63
REMARK SMILES IDX 93 64 56 65 57 66 72 68 94 69 59 70 42 71 43 72 52 73 44 74
REMARK SMILES IDX 45 75 51 76 53 77 46 78 47 79 48 80 49 81 50 82 76 83 77 84
REMARK SMILES IDX 86 85 78 86 79 87 85 88 87 89 80 90 81 91 82 92 83 93 84 94
REMARK SMILES IDX 60 95 61 96 70 97 62 98 63 99 69 100 71 101 64 102 65 103
REMARK SMILES IDX 66 104 67 105 68 106
REMARK H PARENT 13 12 92 56 58 67
REMARK Flexibility Score: inf
ROOT
ATOM      1  C   UNL A   1      37.786  22.571  25.944  1.00  0.00     0.188 C 
ENDROOT
BRANCH   1   2
ATOM      2  O   UNL A   1      37.597  23.646  25.040  1.00  0.00    -0.376 OA
BRANCH   2   3
ATOM      3  C   UNL A   1      36.897  23.295  23.829  1.00  0.00     0.202 C 
BRANCH   3   4
ATOM      4  C   UNL A   1      35.520  23.961  23.654  1.00  0.00     0.261 C 
BRANCH   4   5
ATOM      5  O   UNL A   1      34.673  23.506  22.556  1.00  0.00    -0.458 OA
BRANCH   5   6
ATOM      6  C   UNL A   1      33.452  22.946  22.768  1.00  0.00     0.358 C 
ATOM      7  O   UNL A   1      32.472  23.204  22.066  1.00  0.00    -0.244 OA
BRANCH   6   8
ATOM      8  C   UNL A   1      33.413  21.931  23.871  1.00  0.00     0.170 A 
ATOM      9  N   UNL A   1      31.573  23.363  26.475  1.00  0.00    -0.322 N 
ATOM     10  C   UNL A   1      32.341  22.938  27.634  1.00  0.00     0.286 C 
ATOM     11  C   UNL A   1      30.999  22.167  25.788  1.00  0.00     0.319 C 
ATOM     12  H   UNL A   1      30.806  23.939  26.819  1.00  0.00     0.348 HD
ATOM     13  C   UNL A   1      33.367  21.832  27.343  1.00  0.00     0.206 C 
ATOM     14  C   UNL A   1      32.081  21.236  25.323  1.00  0.00     0.094 A 
ATOM     15  N   UNL A   1      33.312  21.399  25.943  1.00  0.00    -0.257 N 
ATOM     16  C   UNL A   1      32.464  20.880  24.029  1.00  0.00     0.067 A 
ATOM     17  N   UNL A   1      34.159  21.935  25.008  1.00  0.00    -0.165 NA
BRANCH   9  18
ATOM     18  C   UNL A   1      32.291  24.290  25.558  1.00  0.00     0.339 C 
BRANCH  18  19
ATOM     19  C   UNL A   1      31.682  25.539  24.852  1.00  0.00     0.168 A 
ATOM     20  N   UNL A   1      32.170  26.874  24.611  1.00  0.00    -0.299 N 
ATOM     21  C   UNL A   1      31.636  27.240  23.384  1.00  0.00     0.113 A 
ATOM     22  C   UNL A   1      30.796  26.241  22.994  1.00  0.00     0.132 A 
ATOM     23  N   UNL A   1      30.756  25.263  23.930  1.00  0.00    -0.236 NA
BRANCH  20  24
ATOM     24  C   UNL A   1      32.813  27.918  25.375  1.00  0.00     0.047 A 
ATOM     25  C   UNL A   1      33.896  29.954  27.036  1.00  0.00     0.119 A 
ATOM     26  C   UNL A   1      32.717  30.177  26.350  1.00  0.00     0.048 A 
ATOM     27  C   UNL A   1      34.463  28.678  27.012  1.00  0.00     0.048 A 
ATOM     28  C   UNL A   1      32.150  29.137  25.600  1.00  0.00     0.030 A 
ATOM     29  C   UNL A   1      33.926  27.660  26.183  1.00  0.00     0.030 A 
BRANCH  25  30
ATOM     30  O   UNL A   1      34.355  30.976  27.821  1.00  0.00    -0.497 OA
ATOM     31  C   UNL A   1      33.548  32.149  27.738  1.00  0.00     0.278 C 
ENDBRANCH  25  30
ENDBRANCH  20  24
ENDBRANCH  18  19
ENDBRANCH   9  18
ENDBRANCH   6   8
ENDBRANCH   5   6
ENDBRANCH   4   5
ENDBRANCH   3   4
ENDBRANCH   2   3
ENDBRANCH   1   2
BRANCH   1  32
ATOM     32  C   UNL A   1      38.855  21.503  25.745  1.00  0.00     0.188 C 
BRANCH  32  33
ATOM     33  O   UNL A   1      39.955  21.478  26.627  1.00  0.00    -0.376 OA
BRANCH  33  34
ATOM     34  C   UNL A   1      41.170  20.911  26.146  1.00  0.00     0.202 C 
BRANCH  34  35
ATOM     35  C   UNL A   1      42.434  21.767  26.219  1.00  0.00     0.261 C 
BRANCH  35  36
ATOM     36  O   UNL A   1      42.307  22.983  25.486  1.00  0.00    -0.460 OA
BRANCH  36  37
ATOM     37  C   UNL A   1      42.581  24.095  26.202  1.00  0.00     0.338 C 
ATOM     38  O   UNL A   1      43.682  24.503  26.533  1.00  0.00    -0.246 OA
BRANCH  37  39
ATOM     39  C   UNL A   1      41.333  24.797  26.547  1.00  0.00     0.060 A 
ATOM     40  C   UNL A   1      41.113  25.968  25.814  1.00  0.00     0.016 A 
ATOM     41  C   UNL A   1      40.828  24.608  27.836  1.00  0.00     0.016 A 
ATOM     42  C   UNL A   1      40.803  27.095  26.528  1.00  0.00     0.010 A 
ATOM     43  C   UNL A   1      40.527  25.736  28.551  1.00  0.00     0.010 A 
ATOM     44  C   UNL A   1      40.680  26.965  27.912  1.00  0.00    -0.014 A 
BRANCH  44  45
ATOM     45  C   UNL A   1      40.835  28.163  28.704  1.00  0.00     0.031 A 
ATOM     46  C   UNL A   1      42.006  28.947  28.297  1.00  0.00     0.074 A 
ATOM     47  C   UNL A   1      39.923  28.509  29.636  1.00  0.00     0.049 A 
ATOM     48  N   UNL A   1      43.140  29.054  28.904  1.00  0.00    -0.248 NA
ATOM     49  C   UNL A   1      41.991  29.503  26.935  1.00  0.00     0.031 C 
ATOM     50  C   UNL A   1      38.597  27.906  29.841  1.00  0.00     0.029 A 
ATOM     51  N   UNL A   1      39.928  29.542  30.524  1.00  0.00    -0.354 N 
ATOM     52  C   UNL A   1      43.853  29.958  28.129  1.00  0.00     0.074 A 
ATOM     53  C   UNL A   1      43.240  29.958  26.829  1.00  0.00     0.031 C 
ATOM     54  C   UNL A   1      37.846  28.729  30.608  1.00  0.00     0.029 A 
ATOM     55  C   UNL A   1      38.679  29.826  31.067  1.00  0.00     0.049 A 
ATOM     56  H   UNL A   1      40.742  30.043  30.760  1.00  0.00     0.167 HD
ATOM     57  C   UNL A   1      44.596  30.926  28.728  1.00  0.00     0.037 A 
ATOM     58  C   UNL A   1      38.349  30.928  31.785  1.00  0.00     0.037 A 
ATOM     59  C   UNL A   1      44.821  30.629  30.120  1.00  0.00     0.049 A 
ATOM     60  C   UNL A   1      39.607  31.487  32.345  1.00  0.00     0.074 A 
ATOM     61  C   UNL A   1      45.640  29.794  30.847  1.00  0.00     0.029 A 
ATOM     62  N   UNL A   1      43.804  31.029  30.948  1.00  0.00    -0.354 N 
ATOM     63  N   UNL A   1      40.355  30.848  33.205  1.00  0.00    -0.248 NA
ATOM     64  C   UNL A   1      40.250  32.617  31.681  1.00  0.00     0.031 C 
ATOM     65  C   UNL A   1      45.017  29.621  32.118  1.00  0.00     0.029 A 
ATOM     66  C   UNL A   1      43.844  30.369  32.149  1.00  0.00     0.049 A 
ATOM     67  H   UNL A   1      43.130  31.704  30.709  1.00  0.00     0.167 HD
ATOM     68  C   UNL A   1      41.646  31.227  32.888  1.00  0.00     0.074 A 
ATOM     69  C   UNL A   1      41.514  32.424  32.071  1.00  0.00     0.031 C 
ATOM     70  C   UNL A   1      42.688  30.358  33.019  1.00  0.00     0.037 A 
BRANCH  57  71
ATOM     71  C   UNL A   1      44.678  32.346  28.216  1.00  0.00     0.058 A 
ATOM     72  C   UNL A   1      45.885  32.801  27.654  1.00  0.00     0.135 A 
ATOM     73  C   UNL A   1      43.726  33.352  28.511  1.00  0.00     0.135 A 
ATOM     74  F   UNL A   1      46.867  31.935  27.358  1.00  0.00    -0.206 F 
ATOM     75  C   UNL A   1      46.143  34.157  27.443  1.00  0.00     0.059 A 
ATOM     76  C   UNL A   1      43.938  34.698  28.252  1.00  0.00     0.059 A 
ATOM     77  F   UNL A   1      42.585  33.100  29.161  1.00  0.00    -0.206 F 
ATOM     78  C   UNL A   1      45.164  35.097  27.755  1.00  0.00     0.060 A 
BRANCH  78  79
ATOM     79  S   UNL A   1      45.518  36.852  27.573  1.00  0.00     0.124 S 
ATOM     80  O   UNL A   1      44.262  37.346  27.021  1.00  0.00    -0.237 OA
ATOM     81  O   UNL A   1      45.813  37.244  28.948  1.00  0.00    -0.237 OA
ATOM     82  O   UNL A   1      46.660  36.872  26.665  1.00  0.00    -0.744 OA
ENDBRANCH  78  79
ENDBRANCH  57  71
BRANCH  58  83
ATOM     83  C   UNL A   1      37.084  31.706  31.707  1.00  0.00     0.058 A 
ATOM     84  C   UNL A   1      36.373  32.067  32.864  1.00  0.00     0.135 A 
ATOM     85  C   UNL A   1      36.701  32.353  30.514  1.00  0.00     0.135 A 
ATOM     86  F   UNL A   1      36.686  31.515  34.046  1.00  0.00    -0.206 F 
ATOM     87  C   UNL A   1      35.373  33.046  32.850  1.00  0.00     0.059 A 
ATOM     88  C   UNL A   1      35.703  33.326  30.473  1.00  0.00     0.059 A 
ATOM     89  F   UNL A   1      37.350  32.122  29.363  1.00  0.00    -0.206 F 
ATOM     90  C   UNL A   1      35.060  33.687  31.651  1.00  0.00     0.060 A 
BRANCH  90  91
ATOM     91  S   UNL A   1      33.894  35.069  31.657  1.00  0.00     0.124 S 
ATOM     92  O   UNL A   1      34.703  36.144  32.220  1.00  0.00    -0.237 OA
ATOM     93  O   UNL A   1      33.560  35.197  30.242  1.00  0.00    -0.237 OA
ATOM     94  O   UNL A   1      32.808  34.594  32.510  1.00  0.00    -0.744 OA
ENDBRANCH  90  91
ENDBRANCH  58  83
BRANCH  70  95
ATOM     95  C   UNL A   1      42.556  29.245  34.014  1.00  0.00     0.058 A 
ATOM     96  C   UNL A   1      42.719  29.386  35.402  1.00  0.00     0.135 A 
ATOM     97  C   UNL A   1      42.149  27.991  33.536  1.00  0.00     0.135 A 
ATOM     98  F   UNL A   1      43.042  30.572  35.937  1.00  0.00    -0.206 F 
ATOM     99  C   UNL A   1      42.500  28.317  36.274  1.00  0.00     0.059 A 
ATOM    100  C   UNL A   1      41.901  26.921  34.387  1.00  0.00     0.059 A 
ATOM    101  F   UNL A   1      41.937  27.811  32.221  1.00  0.00    -0.206 F 
ATOM    102  C   UNL A   1      42.085  27.088  35.757  1.00  0.00     0.060 A 
BRANCH 102 103
ATOM    103  S   UNL A   1      41.717  25.728  36.888  1.00  0.00     0.124 S 
ATOM    104  O   UNL A   1      40.558  26.235  37.614  1.00  0.00    -0.237 OA
ATOM    105  O   UNL A   1      41.460  24.619  35.975  1.00  0.00    -0.237 OA
ATOM    106  O   UNL A   1      42.940  25.601  37.677  1.00  0.00    -0.744 OA
ENDBRANCH 102 103
ENDBRANCH  70  95
ENDBRANCH  44  45
ENDBRANCH  37  39
ENDBRANCH  36  37
ENDBRANCH  35  36
ENDBRANCH  34  35
ENDBRANCH  33  34
ENDBRANCH  32  33
ENDBRANCH   1  32
TORSDOF 24
ENDMDL
MODEL 2
REMARK VINA RESULT:      -9.9      4.681     11.098
REMARK SMILES COc1ccc(-n2ccnc2C[N@@H+]2CCn3nc(C(=O)OCCOCCOCCOC(=O)c4ccc(-c5c6nc(c(-c7c(F)cc(S(=O)(=O)[O-])cc7F)c7ccc([nH]7)c(-c7c(F)cc(S(=O)(=O)[O-])cc7F)c7nc(c(-c8c(F)cc(S(=O)(=O)[O-])cc8F)c8ccc5[nH]8)C=C7)C=C6)cc4)cc3C2)cc1
REMARK SMILES IDX 25 1 24 2 23 3 22 4 21 5 19 6 20 7 18 8 13 9 14 10 101 11
REMARK SMILES IDX 15 13 100 14 16 15 99 16 17 17 12 18 11 19 7 20 8 21 9 22
REMARK SMILES IDX 10 23 6 24 3 25 4 26 103 27 5 28 102 29 2 30 1 31 26 32
REMARK SMILES IDX 27 33 28 34 29 35 30 36 31 37 32 38 33 39 34 40 98 41 35 42
REMARK SMILES IDX 97 43 36 44 37 45 38 46 91 47 39 48 96 49 90 50 92 51 40 52
REMARK SMILES IDX 95 53 89 54 88 55 41 57 75 58 54 59 74 60 55 61 58 62 73 63
REMARK SMILES IDX 93 64 56 65 57 66 72 68 94 69 59 70 42 71 43 72 52 73 44 74
REMARK SMILES IDX 45 75 51 76 53 77 46 78 47 79 48 80 49 81 50 82 76 83 77 84
REMARK SMILES IDX 86 85 78 86 79 87 85 88 87 89 80 90 81 91 82 92 83 93 84 94
REMARK SMILES IDX 60 95 61 96 70 97 62 98 63 99 69 100 71 101 64 102 65 103
REMARK SMILES IDX 66 104 67 105 68 106
REMARK H PARENT 13 12 92 56 58 67
REMARK Flexibility Score: inf
ROOT
ATOM      1  C   UNL A   1      40.821  26.673  28.261  1.00  0.00     0.188 C 
ENDROOT
BRANCH   1   2
ATOM      2  O   UNL A   1      40.133  27.779  28.823  1.00  0.00    -0.376 OA
BRANCH   2   3
ATOM      3  C   UNL A   1      40.102  28.953  27.987  1.00  0.00     0.202 C 
BRANCH   3   4
ATOM      4  C   UNL A   1      38.705  29.567  27.775  1.00  0.00     0.261 C 
BRANCH   4   5
ATOM      5  O   UNL A   1      38.195  30.476  28.795  1.00  0.00    -0.458 OA
BRANCH   5   6
ATOM      6  C   UNL A   1      37.722  30.030  29.990  1.00  0.00     0.358 C 
ATOM      7  O   UNL A   1      37.036  29.012  30.095  1.00  0.00    -0.244 OA
BRANCH   6   8
ATOM      8  C   UNL A   1      38.168  30.831  31.177  1.00  0.00     0.170 A 
ATOM      9  N   UNL A   1      35.584  33.075  31.890  1.00  0.00    -0.322 N 
ATOM     10  C   UNL A   1      36.333  34.280  32.211  1.00  0.00     0.286 C 
ATOM     11  C   UNL A   1      35.886  32.013  32.896  1.00  0.00     0.319 C 
ATOM     12  H   UNL A   1      34.595  33.311  31.954  1.00  0.00     0.348 HD
ATOM     13  C   UNL A   1      37.833  34.048  32.444  1.00  0.00     0.206 C 
ATOM     14  C   UNL A   1      37.348  31.673  32.905  1.00  0.00     0.094 A 
ATOM     15  N   UNL A   1      38.184  32.629  32.343  1.00  0.00    -0.257 N 
ATOM     16  C   UNL A   1      37.996  30.490  32.550  1.00  0.00     0.067 A 
ATOM     17  N   UNL A   1      38.651  32.102  31.166  1.00  0.00    -0.165 NA
BRANCH   9  18
ATOM     18  C   UNL A   1      35.718  32.616  30.481  1.00  0.00     0.339 C 
BRANCH  18  19
ATOM     19  C   UNL A   1      34.956  33.193  29.248  1.00  0.00     0.168 A 
ATOM     20  N   UNL A   1      34.001  32.632  28.326  1.00  0.00    -0.299 N 
ATOM     21  C   UNL A   1      33.149  33.678  28.004  1.00  0.00     0.113 A 
ATOM     22  C   UNL A   1      33.644  34.800  28.597  1.00  0.00     0.132 A 
ATOM     23  N   UNL A   1      34.787  34.517  29.268  1.00  0.00    -0.236 NA
BRANCH  20  24
ATOM     24  C   UNL A   1      33.876  31.428  27.537  1.00  0.00     0.047 A 
ATOM     25  C   UNL A   1      33.604  28.938  26.193  1.00  0.00     0.119 A 
ATOM     26  C   UNL A   1      34.724  29.189  26.963  1.00  0.00     0.048 A 
ATOM     27  C   UNL A   1      32.556  29.861  26.202  1.00  0.00     0.048 A 
ATOM     28  C   UNL A   1      34.809  30.387  27.687  1.00  0.00     0.030 A 
ATOM     29  C   UNL A   1      32.688  31.105  26.871  1.00  0.00     0.030 A 
BRANCH  25  30
ATOM     30  O   UNL A   1      33.538  27.717  25.580  1.00  0.00    -0.497 OA
ATOM     31  C   UNL A   1      33.091  26.679  26.452  1.00  0.00     0.278 C 
ENDBRANCH  25  30
ENDBRANCH  20  24
ENDBRANCH  18  19
ENDBRANCH   9  18
ENDBRANCH   6   8
ENDBRANCH   5   6
ENDBRANCH   4   5
ENDBRANCH   3   4
ENDBRANCH   2   3
ENDBRANCH   1   2
BRANCH   1  32
ATOM     32  C   UNL A   1      40.114  25.574  27.476  1.00  0.00     0.188 C 
BRANCH  32  33
ATOM     33  O   UNL A   1      40.283  24.237  27.888  1.00  0.00    -0.376 OA
BRANCH  33  34
ATOM     34  C   UNL A   1      39.581  23.232  27.164  1.00  0.00     0.202 C 
BRANCH  34  35
ATOM     35  C   UNL A   1      40.272  21.884  26.962  1.00  0.00     0.261 C 
BRANCH  35  36
ATOM     36  O   UNL A   1      41.693  21.995  26.990  1.00  0.00    -0.460 OA
BRANCH  36  37
ATOM     37  C   UNL A   1      42.311  21.509  25.892  1.00  0.00     0.338 C 
ATOM     38  O   UNL A   1      42.197  20.389  25.421  1.00  0.00    -0.246 OA
BRANCH  37  39
ATOM     39  C   UNL A   1      43.173  22.542  25.294  1.00  0.00     0.060 A 
ATOM     40  C   UNL A   1      44.535  22.225  25.296  1.00  0.00     0.016 A 
ATOM     41  C   UNL A   1      42.705  23.859  25.321  1.00  0.00     0.016 A 
ATOM     42  C   UNL A   1      45.390  23.174  25.788  1.00  0.00     0.010 A 
ATOM     43  C   UNL A   1      43.558  24.806  25.820  1.00  0.00     0.010 A 
ATOM     44  C   UNL A   1      44.837  24.391  26.190  1.00  0.00    -0.014 A 
BRANCH  44  45
ATOM     45  C   UNL A   1      45.600  25.186  27.123  1.00  0.00     0.031 A 
ATOM     46  C   UNL A   1      45.105  25.054  28.497  1.00  0.00     0.074 A 
ATOM     47  C   UNL A   1      46.688  25.879  26.727  1.00  0.00     0.049 A 
ATOM     48  N   UNL A   1      44.413  25.906  29.177  1.00  0.00    -0.248 NA
ATOM     49  C   UNL A   1      45.201  23.721  29.112  1.00  0.00     0.031 C 
ATOM     50  C   UNL A   1      47.375  25.777  25.430  1.00  0.00     0.029 A 
ATOM     51  N   UNL A   1      47.483  26.735  27.426  1.00  0.00    -0.354 N 
ATOM     52  C   UNL A   1      44.274  25.309  30.423  1.00  0.00     0.074 A 
ATOM     53  C   UNL A   1      44.500  23.902  30.231  1.00  0.00     0.031 C 
ATOM     54  C   UNL A   1      48.600  26.343  25.529  1.00  0.00     0.029 A 
ATOM     55  C   UNL A   1      48.718  26.973  26.831  1.00  0.00     0.049 A 
ATOM     56  H   UNL A   1      47.209  27.149  28.277  1.00  0.00     0.167 HD
ATOM     57  C   UNL A   1      44.408  26.055  31.551  1.00  0.00     0.037 A 
ATOM     58  C   UNL A   1      49.781  27.585  27.409  1.00  0.00     0.037 A 
ATOM     59  C   UNL A   1      44.315  27.463  31.263  1.00  0.00     0.049 A 
ATOM     60  C   UNL A   1      49.263  28.416  28.526  1.00  0.00     0.074 A 
ATOM     61  C   UNL A   1      43.311  28.367  30.994  1.00  0.00     0.029 A 
ATOM     62  N   UNL A   1      45.496  28.030  30.860  1.00  0.00    -0.354 N 
ATOM     63  N   UNL A   1      48.458  29.431  28.353  1.00  0.00    -0.248 NA
ATOM     64  C   UNL A   1      49.336  27.909  29.894  1.00  0.00     0.031 C 
ATOM     65  C   UNL A   1      43.923  29.461  30.314  1.00  0.00     0.029 A 
ATOM     66  C   UNL A   1      45.287  29.214  30.200  1.00  0.00     0.049 A 
ATOM     67  H   UNL A   1      46.383  27.637  31.023  1.00  0.00     0.167 HD
ATOM     68  C   UNL A   1      47.640  29.418  29.465  1.00  0.00     0.074 A 
ATOM     69  C   UNL A   1      48.321  28.582  30.443  1.00  0.00     0.031 C 
ATOM     70  C   UNL A   1      46.332  29.794  29.383  1.00  0.00     0.037 A 
BRANCH  57  71
ATOM     71  C   UNL A   1      45.119  25.563  32.792  1.00  0.00     0.058 A 
ATOM     72  C   UNL A   1      44.417  25.524  34.011  1.00  0.00     0.135 A 
ATOM     73  C   UNL A   1      46.522  25.403  32.892  1.00  0.00     0.135 A 
ATOM     74  F   UNL A   1      43.085  25.690  34.035  1.00  0.00    -0.206 F 
ATOM     75  C   UNL A   1      45.066  25.382  35.239  1.00  0.00     0.059 A 
ATOM     76  C   UNL A   1      47.180  25.198  34.095  1.00  0.00     0.059 A 
ATOM     77  F   UNL A   1      47.342  25.541  31.843  1.00  0.00    -0.206 F 
ATOM     78  C   UNL A   1      46.450  25.229  35.268  1.00  0.00     0.060 A 
BRANCH  78  79
ATOM     79  S   UNL A   1      47.307  25.136  36.848  1.00  0.00     0.124 S 
ATOM     80  O   UNL A   1      48.620  24.652  36.438  1.00  0.00    -0.237 OA
ATOM     81  O   UNL A   1      47.247  26.521  37.305  1.00  0.00    -0.237 OA
ATOM     82  O   UNL A   1      46.497  24.195  37.615  1.00  0.00    -0.744 OA
ENDBRANCH  78  79
ENDBRANCH  57  71
BRANCH  58  83
ATOM     83  C   UNL A   1      51.214  27.211  27.279  1.00  0.00     0.058 A 
ATOM     84  C   UNL A   1      51.658  25.905  27.548  1.00  0.00     0.135 A 
ATOM     85  C   UNL A   1      52.129  28.055  26.616  1.00  0.00     0.135 A 
ATOM     86  F   UNL A   1      50.845  25.029  28.158  1.00  0.00    -0.206 F 
ATOM     87  C   UNL A   1      52.916  25.446  27.141  1.00  0.00     0.059 A 
ATOM     88  C   UNL A   1      53.390  27.622  26.207  1.00  0.00     0.059 A 
ATOM     89  F   UNL A   1      51.787  29.303  26.263  1.00  0.00    -0.206 F 
ATOM     90  C   UNL A   1      53.768  26.308  26.450  1.00  0.00     0.060 A 
BRANCH  90  91
ATOM     91  S   UNL A   1      55.320  25.674  25.772  1.00  0.00     0.124 S 
ATOM     92  O   UNL A   1      55.730  26.760  24.890  1.00  0.00    -0.237 OA
ATOM     93  O   UNL A   1      56.128  25.489  26.973  1.00  0.00    -0.237 OA
ATOM     94  O   UNL A   1      54.918  24.441  25.099  1.00  0.00    -0.744 OA
ENDBRANCH  90  91
ENDBRANCH  58  83
BRANCH  70  95
ATOM     95  C   UNL A   1      45.939  30.741  28.290  1.00  0.00     0.058 A 
ATOM     96  C   UNL A   1      45.451  30.355  27.032  1.00  0.00     0.135 A 
ATOM     97  C   UNL A   1      45.972  32.113  28.578  1.00  0.00     0.135 A 
ATOM     98  F   UNL A   1      45.327  29.059  26.712  1.00  0.00    -0.206 F 
ATOM     99  C   UNL A   1      45.028  31.299  26.092  1.00  0.00     0.059 A 
ATOM    100  C   UNL A   1      45.533  33.068  27.668  1.00  0.00     0.059 A 
ATOM    101  F   UNL A   1      46.391  32.537  29.781  1.00  0.00    -0.206 F 
ATOM    102  C   UNL A   1      45.068  32.655  26.423  1.00  0.00     0.060 A 
BRANCH 102 103
ATOM    103  S   UNL A   1      44.442  33.874  25.246  1.00  0.00     0.124 S 
ATOM    104  O   UNL A   1      43.483  34.620  26.054  1.00  0.00    -0.237 OA
ATOM    105  O   UNL A   1      45.651  34.598  24.866  1.00  0.00    -0.237 OA
ATOM    106  O   UNL A   1      43.859  33.056  24.185  1.00  0.00    -0.744 OA
ENDBRANCH 102 103
ENDBRANCH  70  95
ENDBRANCH  44  45
ENDBRANCH  37  39
ENDBRANCH  36  37
ENDBRANCH  35  36
ENDBRANCH  34  35
ENDBRANCH  33  34
ENDBRANCH  32  33
ENDBRANCH   1  32
TORSDOF 24
ENDMDL
MODEL 3
REMARK VINA RESULT:      -9.7      4.215      7.328
REMARK SMILES COc1ccc(-n2ccnc2C[N@@H+]2CCn3nc(C(=O)OCCOCCOCCOC(=O)c4ccc(-c5c6nc(c(-c7c(F)cc(S(=O)(=O)[O-])cc7F)c7ccc([nH]7)c(-c7c(F)cc(S(=O)(=O)[O-])cc7F)c7nc(c(-c8c(F)cc(S(=O)(=O)[O-])cc8F)c8ccc5[nH]8)C=C7)C=C6)cc4)cc3C2)cc1
REMARK SMILES IDX 25 1 24 2 23 3 22 4 21 5 19 6 20 7 18 8 13 9 14 10 101 11
REMARK SMILES IDX 15 13 100 14 16 15 99 16 17 17 12 18 11 19 7 20 8 21 9 22
REMARK SMILES IDX 10 23 6 24 3 25 4 26 103 27 5 28 102 29 2 30 1 31 26 32
REMARK SMILES IDX 27 33 28 34 29 35 30 36 31 37 32 38 33 39 34 40 98 41 35 42
REMARK SMILES IDX 97 43 36 44 37 45 38 46 91 47 39 48 96 49 90 50 92 51 40 52
REMARK SMILES IDX 95 53 89 54 88 55 41 57 75 58 54 59 74 60 55 61 58 62 73 63
REMARK SMILES IDX 93 64 56 65 57 66 72 68 94 69 59 70 42 71 43 72 52 73 44 74
REMARK SMILES IDX 45 75 51 76 53 77 46 78 47 79 48 80 49 81 50 82 76 83 77 84
REMARK SMILES IDX 86 85 78 86 79 87 85 88 87 89 80 90 81 91 82 92 83 93 84 94
REMARK SMILES IDX 60 95 61 96 70 97 62 98 63 99 69 100 71 101 64 102 65 103
REMARK SMILES IDX 66 104 67 105 68 106
REMARK H PARENT 13 12 92 56 58 67
REMARK Flexibility Score: inf
ROOT
ATOM      1  C   UNL A   1      37.786  29.025  28.785  1.00  0.00     0.188 C 
ENDROOT
BRANCH   1   2
ATOM      2  O   UNL A   1      36.787  29.288  27.814  1.00  0.00    -0.376 OA
BRANCH   2   3
ATOM      3  C   UNL A   1      35.710  30.129  28.276  1.00  0.00     0.202 C 
BRANCH   3   4
ATOM      4  C   UNL A   1      34.360  29.910  27.567  1.00  0.00     0.261 C 
BRANCH   4   5
ATOM      5  O   UNL A   1      33.764  28.579  27.625  1.00  0.00    -0.458 OA
BRANCH   5   6
ATOM      6  C   UNL A   1      32.664  28.247  26.898  1.00  0.00     0.358 C 
ATOM      7  O   UNL A   1      31.758  27.543  27.347  1.00  0.00    -0.244 OA
BRANCH   6   8
ATOM      8  C   UNL A   1      32.604  28.871  25.535  1.00  0.00     0.170 A 
ATOM      9  N   UNL A   1      31.132  26.507  23.423  1.00  0.00    -0.322 N 
ATOM     10  C   UNL A   1      31.938  26.656  22.222  1.00  0.00     0.286 C 
ATOM     11  C   UNL A   1      30.384  27.773  23.685  1.00  0.00     0.319 C 
ATOM     12  H   UNL A   1      30.458  25.764  23.241  1.00  0.00     0.348 HD
ATOM     13  C   UNL A   1      32.816  27.916  22.202  1.00  0.00     0.206 C 
ATOM     14  C   UNL A   1      31.322  28.927  23.886  1.00  0.00     0.094 A 
ATOM     15  N   UNL A   1      32.608  28.739  23.397  1.00  0.00    -0.257 N 
ATOM     16  C   UNL A   1      31.564  29.700  25.022  1.00  0.00     0.067 A 
ATOM     17  N   UNL A   1      33.432  28.618  24.487  1.00  0.00    -0.165 NA
BRANCH   9  18
ATOM     18  C   UNL A   1      31.869  25.995  24.610  1.00  0.00     0.339 C 
BRANCH  18  19
ATOM     19  C   UNL A   1      31.681  24.598  25.278  1.00  0.00     0.168 A 
ATOM     20  N   UNL A   1      32.600  23.638  25.837  1.00  0.00    -0.299 N 
ATOM     21  C   UNL A   1      31.917  23.056  26.894  1.00  0.00     0.113 A 
ATOM     22  C   UNL A   1      30.647  23.548  26.876  1.00  0.00     0.132 A 
ATOM     23  N   UNL A   1      30.486  24.407  25.841  1.00  0.00    -0.236 NA
BRANCH  20  24
ATOM     24  C   UNL A   1      33.845  23.018  25.449  1.00  0.00     0.047 A 
ATOM     25  C   UNL A   1      36.388  21.875  24.894  1.00  0.00     0.119 A 
ATOM     26  C   UNL A   1      36.242  23.249  24.931  1.00  0.00     0.048 A 
ATOM     27  C   UNL A   1      35.312  21.069  25.270  1.00  0.00     0.048 A 
ATOM     28  C   UNL A   1      35.002  23.800  25.287  1.00  0.00     0.030 A 
ATOM     29  C   UNL A   1      34.041  21.636  25.547  1.00  0.00     0.030 A 
BRANCH  25  30
ATOM     30  O   UNL A   1      37.641  21.396  24.628  1.00  0.00    -0.497 OA
ATOM     31  C   UNL A   1      37.781  20.007  24.923  1.00  0.00     0.278 C 
ENDBRANCH  25  30
ENDBRANCH  20  24
ENDBRANCH  18  19
ENDBRANCH   9  18
ENDBRANCH   6   8
ENDBRANCH   5   6
ENDBRANCH   4   5
ENDBRANCH   3   4
ENDBRANCH   2   3
ENDBRANCH   1   2
BRANCH   1  32
ATOM     32  C   UNL A   1      39.218  28.651  28.416  1.00  0.00     0.188 C 
BRANCH  32  33
ATOM     33  O   UNL A   1      39.437  27.470  27.680  1.00  0.00    -0.376 OA
BRANCH  33  34
ATOM     34  C   UNL A   1      39.662  26.270  28.414  1.00  0.00     0.202 C 
BRANCH  34  35
ATOM     35  C   UNL A   1      39.541  24.943  27.666  1.00  0.00     0.261 C 
BRANCH  35  36
ATOM     36  O   UNL A   1      40.616  24.054  27.964  1.00  0.00    -0.460 OA
BRANCH  36  37
ATOM     37  C   UNL A   1      40.745  23.028  27.095  1.00  0.00     0.338 C 
ATOM     38  O   UNL A   1      39.901  22.193  26.815  1.00  0.00    -0.246 OA
BRANCH  37  39
ATOM     39  C   UNL A   1      42.086  23.042  26.488  1.00  0.00     0.060 A 
ATOM     40  C   UNL A   1      43.107  22.613  27.342  1.00  0.00     0.016 A 
ATOM     41  C   UNL A   1      42.306  23.945  25.444  1.00  0.00     0.016 A 
ATOM     42  C   UNL A   1      44.207  23.421  27.446  1.00  0.00     0.010 A 
ATOM     43  C   UNL A   1      43.402  24.758  25.554  1.00  0.00     0.010 A 
ATOM     44  C   UNL A   1      44.238  24.569  26.653  1.00  0.00    -0.014 A 
BRANCH  44  45
ATOM     45  C   UNL A   1      45.107  25.642  27.079  1.00  0.00     0.031 A 
ATOM     46  C   UNL A   1      46.486  25.452  26.621  1.00  0.00     0.074 A 
ATOM     47  C   UNL A   1      44.623  26.712  27.744  1.00  0.00     0.049 A 
ATOM     48  N   UNL A   1      47.509  25.080  27.314  1.00  0.00    -0.248 NA
ATOM     49  C   UNL A   1      46.709  25.463  25.166  1.00  0.00     0.031 C 
ATOM     50  C   UNL A   1      43.209  27.066  27.939  1.00  0.00     0.029 A 
ATOM     51  N   UNL A   1      45.280  27.774  28.290  1.00  0.00    -0.354 N 
ATOM     52  C   UNL A   1      48.563  25.127  26.411  1.00  0.00     0.074 A 
ATOM     53  C   UNL A   1      47.981  25.070  25.098  1.00  0.00     0.031 C 
ATOM     54  C   UNL A   1      43.121  28.357  28.332  1.00  0.00     0.029 A 
ATOM     55  C   UNL A   1      44.462  28.866  28.561  1.00  0.00     0.049 A 
ATOM     56  H   UNL A   1      46.247  27.768  28.476  1.00  0.00     0.167 HD
ATOM     57  C   UNL A   1      49.765  25.631  26.798  1.00  0.00     0.037 A 
ATOM     58  C   UNL A   1      44.876  30.116  28.881  1.00  0.00     0.037 A 
ATOM     59  C   UNL A   1      49.865  25.707  28.233  1.00  0.00     0.049 A 
ATOM     60  C   UNL A   1      46.257  30.005  29.415  1.00  0.00     0.074 A 
ATOM     61  C   UNL A   1      50.094  24.831  29.270  1.00  0.00     0.029 A 
ATOM     62  N   UNL A   1      49.321  26.845  28.770  1.00  0.00    -0.354 N 
ATOM     63  N   UNL A   1      46.552  29.359  30.513  1.00  0.00    -0.248 NA
ATOM     64  C   UNL A   1      47.392  30.298  28.544  1.00  0.00     0.031 C 
ATOM     65  C   UNL A   1      49.568  25.446  30.444  1.00  0.00     0.029 A 
ATOM     66  C   UNL A   1      49.048  26.691  30.105  1.00  0.00     0.049 A 
ATOM     67  H   UNL A   1      49.146  27.669  28.261  1.00  0.00     0.167 HD
ATOM     68  C   UNL A   1      47.801  28.820  30.272  1.00  0.00     0.074 A 
ATOM     69  C   UNL A   1      48.333  29.556  29.135  1.00  0.00     0.031 C 
ATOM     70  C   UNL A   1      48.155  27.607  30.783  1.00  0.00     0.037 A 
BRANCH  57  71
ATOM     71  C   UNL A   1      50.619  26.510  25.913  1.00  0.00     0.058 A 
ATOM     72  C   UNL A   1      50.124  27.767  25.517  1.00  0.00     0.135 A 
ATOM     73  C   UNL A   1      51.763  26.058  25.212  1.00  0.00     0.135 A 
ATOM     74  F   UNL A   1      49.028  28.280  26.098  1.00  0.00    -0.206 F 
ATOM     75  C   UNL A   1      50.697  28.497  24.474  1.00  0.00     0.059 A 
ATOM     76  C   UNL A   1      52.384  26.796  24.216  1.00  0.00     0.059 A 
ATOM     77  F   UNL A   1      52.278  24.835  25.381  1.00  0.00    -0.206 F 
ATOM     78  C   UNL A   1      51.822  27.996  23.824  1.00  0.00     0.060 A 
BRANCH  78  79
ATOM     79  S   UNL A   1      52.515  28.884  22.420  1.00  0.00     0.124 S 
ATOM     80  O   UNL A   1      52.354  27.905  21.351  1.00  0.00    -0.237 OA
ATOM     81  O   UNL A   1      51.651  30.059  22.351  1.00  0.00    -0.237 OA
ATOM     82  O   UNL A   1      53.889  29.148  22.835  1.00  0.00    -0.744 OA
ENDBRANCH  78  79
ENDBRANCH  57  71
BRANCH  58  83
ATOM     83  C   UNL A   1      44.291  31.403  28.418  1.00  0.00     0.058 A 
ATOM     84  C   UNL A   1      43.738  32.325  29.323  1.00  0.00     0.135 A 
ATOM     85  C   UNL A   1      44.519  31.876  27.109  1.00  0.00     0.135 A 
ATOM     86  F   UNL A   1      43.507  31.965  30.594  1.00  0.00    -0.206 F 
ATOM     87  C   UNL A   1      43.473  33.652  28.966  1.00  0.00     0.059 A 
ATOM     88  C   UNL A   1      44.256  33.191  26.728  1.00  0.00     0.059 A 
ATOM     89  F   UNL A   1      45.093  31.094  26.182  1.00  0.00    -0.206 F 
ATOM     90  C   UNL A   1      43.756  34.082  27.669  1.00  0.00     0.060 A 
BRANCH  90  91
ATOM     91  S   UNL A   1      43.577  35.832  27.251  1.00  0.00     0.124 S 
ATOM     92  O   UNL A   1      44.949  36.208  26.932  1.00  0.00    -0.237 OA
ATOM     93  O   UNL A   1      42.650  35.787  26.125  1.00  0.00    -0.237 OA
ATOM     94  O   UNL A   1      43.038  36.420  28.475  1.00  0.00    -0.744 OA
ENDBRANCH  90  91
ENDBRANCH  58  83
BRANCH  70  95
ATOM     95  C   UNL A   1      47.468  27.140  32.030  1.00  0.00     0.058 A 
ATOM     96  C   UNL A   1      47.765  27.591  33.326  1.00  0.00     0.135 A 
ATOM     97  C   UNL A   1      46.387  26.258  31.884  1.00  0.00     0.135 A 
ATOM     98  F   UNL A   1      48.741  28.486  33.533  1.00  0.00    -0.206 F 
ATOM     99  C   UNL A   1      47.025  27.168  34.433  1.00  0.00     0.059 A 
ATOM    100  C   UNL A   1      45.621  25.844  32.968  1.00  0.00     0.059 A 
ATOM    101  F   UNL A   1      46.033  25.827  30.663  1.00  0.00    -0.206 F 
ATOM    102  C   UNL A   1      45.950  26.297  34.242  1.00  0.00     0.060 A 
BRANCH 102 103
ATOM    103  S   UNL A   1      44.936  25.816  35.658  1.00  0.00     0.124 S 
ATOM    104  O   UNL A   1      45.802  24.868  36.350  1.00  0.00    -0.237 OA
ATOM    105  O   UNL A   1      44.716  27.089  36.337  1.00  0.00    -0.237 OA
ATOM    106  O   UNL A   1      43.744  25.236  35.042  1.00  0.00    -0.744 OA
ENDBRANCH 102 103
ENDBRANCH  70  95
ENDBRANCH  44  45
ENDBRANCH  37  39
ENDBRANCH  36  37
ENDBRANCH  35  36
ENDBRANCH  34  35
ENDBRANCH  33  34
ENDBRANCH  32  33
ENDBRANCH   1  32
TORSDOF 24
ENDMDL
