MODEL 1
REMARK VINA RESULT:     -10.8      0.000      0.000
REMARK SMILES C[C@H]1CC[C@@]2(CO)C(C(=O)OCCOCCOCCOC(=O)c3ccc(-c4c5nc(c(-c6c(F)cc(S(=O)(=O)[O-])cc6F)c6ccc([nH]6)c(-c6c(F)cc(S(=O)(=O)[O-])cc6F)c6nc(c(-c7c(F)cc(S(=O)(=O)[O-])cc7F)c7ccc4[nH]7)C=C6)C=C5)cc3)=C[C@@H](O)C[C@@H]2[C@@]1(C)CCc1ccoc1
REMARK SMILES IDX 15 1 14 2 13 3 12 4 11 5 9 6 10 7 8 8 1 9 2 10 3 11 94 12
REMARK SMILES IDX 4 13 93 14 95 15 5 16 92 17 90 18 89 19 96 20 97 21 98 22
REMARK SMILES IDX 99 23 102 24 100 25 101 26 6 27 7 28 91 30 16 32 17 33 18 34
REMARK SMILES IDX 19 35 20 36 21 37 22 38 23 39 24 40 88 41 25 42 87 43 26 44
REMARK SMILES IDX 27 45 28 46 81 47 29 48 86 49 80 50 82 51 30 52 85 53 79 54
REMARK SMILES IDX 78 55 31 57 65 58 44 59 64 60 45 61 48 62 63 63 83 64 46 65
REMARK SMILES IDX 47 66 62 68 84 69 49 70 32 71 33 72 42 73 34 74 35 75 41 76
REMARK SMILES IDX 43 77 36 78 37 79 38 80 39 81 40 82 66 83 67 84 76 85 68 86
REMARK SMILES IDX 69 87 75 88 77 89 70 90 71 91 72 92 73 93 74 94 50 95 51 96
REMARK SMILES IDX 60 97 52 98 53 99 59 100 61 101 54 102 55 103 56 104 57 105
REMARK SMILES IDX 58 106
REMARK H PARENT 7 29 91 31 82 56 48 67
REMARK Flexibility Score: inf
ROOT
ATOM      1  C   UNL A   1      31.803  28.756  23.688  1.00  0.00     0.188 C 
ENDROOT
BRANCH   1   2
ATOM      2  O   UNL A   1      30.897  27.856  23.064  1.00  0.00    -0.376 OA
BRANCH   2   3
ATOM      3  C   UNL A   1      31.398  27.125  21.960  1.00  0.00     0.202 C 
BRANCH   3   4
ATOM      4  C   UNL A   1      32.927  27.060  21.827  1.00  0.00     0.261 C 
BRANCH   4   5
ATOM      5  O   UNL A   1      33.592  26.245  22.805  1.00  0.00    -0.460 OA
BRANCH   5   6
ATOM      6  C   UNL A   1      33.132  24.970  22.860  1.00  0.00     0.334 C 
ATOM      7  O   UNL A   1      33.419  24.128  22.027  1.00  0.00    -0.247 OA
BRANCH   6   8
ATOM      8  C   UNL A   1      32.337  24.701  24.123  1.00  0.00     0.044 C 
ATOM      9  C   UNL A   1      36.419  23.155  23.884  1.00  0.00     0.008 C 
ATOM     10  C   UNL A   1      35.925  23.005  25.348  1.00  0.00    -0.008 C 
ATOM     11  C   UNL A   1      35.711  24.403  25.954  1.00  0.00     0.005 C 
ATOM     12  C   UNL A   1      34.688  22.026  25.537  1.00  0.00    -0.026 C 
ATOM     13  C   UNL A   1      34.375  25.094  25.671  1.00  0.00     0.015 C 
ATOM     14  C   UNL A   1      33.499  22.735  24.810  1.00  0.00     0.011 C 
ATOM     15  C   UNL A   1      34.382  21.833  27.034  1.00  0.00     0.012 C 
ATOM     16  C   UNL A   1      33.150  24.190  25.336  1.00  0.00     0.029 C 
ATOM     17  C   UNL A   1      32.202  21.901  24.539  1.00  0.00     0.041 C 
ATOM     18  C   UNL A   1      31.122  22.647  23.704  1.00  0.00     0.138 C 
ATOM     19  C   UNL A   1      31.114  24.139  23.939  1.00  0.00     0.016 C 
BRANCH  12  20
ATOM     20  C   UNL A   1      35.081  20.655  24.846  1.00  0.00     0.012 C 
BRANCH  20  21
ATOM     21  C   UNL A   1      34.450  19.322  25.272  1.00  0.00     0.039 C 
BRANCH  21  22
ATOM     22  C   UNL A   1      33.897  18.461  24.192  1.00  0.00    -0.010 A 
ATOM     23  C   UNL A   1      32.691  18.670  23.465  1.00  0.00     0.045 A 
ATOM     24  C   UNL A   1      34.369  17.238  23.759  1.00  0.00     0.198 A 
ATOM     25  C   UNL A   1      32.543  17.588  22.631  1.00  0.00     0.195 A 
ATOM     26  O   UNL A   1      33.570  16.718  22.797  1.00  0.00    -0.472 OA
ENDBRANCH  21  22
ENDBRANCH  20  21
ENDBRANCH  12  20
BRANCH  16  27
ATOM     27  C   UNL A   1      32.197  24.227  26.600  1.00  0.00     0.168 C 
BRANCH  27  28
ATOM     28  O   UNL A   1      31.711  25.520  26.928  1.00  0.00    -0.395 OA
ATOM     29  H   UNL A   1      32.356  25.974  27.494  1.00  0.00     0.210 HD
ENDBRANCH  27  28
ENDBRANCH  16  27
BRANCH  18  30
ATOM     30  O   UNL A   1      31.339  22.418  22.316  1.00  0.00    -0.389 OA
ATOM     31  H   UNL A   1      30.768  23.007  21.798  1.00  0.00     0.211 HD
ENDBRANCH  18  30
ENDBRANCH   6   8
ENDBRANCH   5   6
ENDBRANCH   4   5
ENDBRANCH   3   4
ENDBRANCH   2   3
ENDBRANCH   1   2
BRANCH   1  32
ATOM     32  C   UNL A   1      31.097  29.701  24.683  1.00  0.00     0.188 C 
BRANCH  32  33
ATOM     33  O   UNL A   1      31.869  30.430  25.621  1.00  0.00    -0.376 OA
BRANCH  33  34
ATOM     34  C   UNL A   1      32.024  29.829  26.898  1.00  0.00     0.202 C 
BRANCH  34  35
ATOM     35  C   UNL A   1      33.430  29.804  27.541  1.00  0.00     0.261 C 
BRANCH  35  36
ATOM     36  O   UNL A   1      34.170  31.052  27.542  1.00  0.00    -0.460 OA
BRANCH  36  37
ATOM     37  C   UNL A   1      34.839  31.370  28.686  1.00  0.00     0.338 C 
ATOM     38  O   UNL A   1      34.393  32.016  29.625  1.00  0.00    -0.246 OA
BRANCH  37  39
ATOM     39  C   UNL A   1      36.126  30.622  28.782  1.00  0.00     0.060 A 
ATOM     40  C   UNL A   1      36.641  30.289  30.051  1.00  0.00     0.016 A 
ATOM     41  C   UNL A   1      36.861  30.300  27.643  1.00  0.00     0.016 A 
ATOM     42  C   UNL A   1      37.880  29.646  30.185  1.00  0.00     0.010 A 
ATOM     43  C   UNL A   1      38.122  29.698  27.782  1.00  0.00     0.010 A 
ATOM     44  C   UNL A   1      38.654  29.387  29.051  1.00  0.00    -0.014 A 
BRANCH  44  45
ATOM     45  C   UNL A   1      40.085  28.983  29.164  1.00  0.00     0.031 A 
ATOM     46  C   UNL A   1      41.105  30.049  29.470  1.00  0.00     0.074 A 
ATOM     47  C   UNL A   1      40.498  27.720  28.949  1.00  0.00     0.049 A 
ATOM     48  N   UNL A   1      42.409  30.003  29.397  1.00  0.00    -0.248 NA
ATOM     49  C   UNL A   1      40.570  31.346  29.911  1.00  0.00     0.031 C 
ATOM     50  C   UNL A   1      39.630  26.570  28.718  1.00  0.00     0.029 A 
ATOM     51  N   UNL A   1      41.772  27.207  28.850  1.00  0.00    -0.354 N 
ATOM     52  C   UNL A   1      42.853  31.272  29.751  1.00  0.00     0.074 A 
ATOM     53  C   UNL A   1      41.675  32.066  30.031  1.00  0.00     0.031 C 
ATOM     54  C   UNL A   1      40.394  25.495  28.451  1.00  0.00     0.029 A 
ATOM     55  C   UNL A   1      41.804  25.892  28.444  1.00  0.00     0.049 A 
ATOM     56  H   UNL A   1      42.582  27.729  29.051  1.00  0.00     0.167 HD
ATOM     57  C   UNL A   1      44.124  31.737  29.829  1.00  0.00     0.037 A 
ATOM     58  C   UNL A   1      42.839  25.116  28.056  1.00  0.00     0.037 A 
ATOM     59  C   UNL A   1      45.295  30.949  29.545  1.00  0.00     0.049 A 
ATOM     60  C   UNL A   1      44.242  25.674  28.054  1.00  0.00     0.074 A 
ATOM     61  C   UNL A   1      46.624  31.329  29.614  1.00  0.00     0.029 A 
ATOM     62  N   UNL A   1      45.281  29.628  29.121  1.00  0.00    -0.354 N 
ATOM     63  N   UNL A   1      44.655  26.873  28.395  1.00  0.00    -0.248 NA
ATOM     64  C   UNL A   1      45.320  24.778  27.607  1.00  0.00     0.031 C 
ATOM     65  C   UNL A   1      47.410  30.259  29.175  1.00  0.00     0.029 A 
ATOM     66  C   UNL A   1      46.575  29.190  28.890  1.00  0.00     0.049 A 
ATOM     67  H   UNL A   1      44.469  29.083  29.003  1.00  0.00     0.167 HD
ATOM     68  C   UNL A   1      46.038  26.866  28.220  1.00  0.00     0.074 A 
ATOM     69  C   UNL A   1      46.394  25.543  27.756  1.00  0.00     0.031 C 
ATOM     70  C   UNL A   1      46.929  27.869  28.428  1.00  0.00     0.037 A 
BRANCH  57  71
ATOM     71  C   UNL A   1      44.308  33.186  30.190  1.00  0.00     0.058 A 
ATOM     72  C   UNL A   1      44.487  33.606  31.519  1.00  0.00     0.135 A 
ATOM     73  C   UNL A   1      44.311  34.171  29.188  1.00  0.00     0.135 A 
ATOM     74  F   UNL A   1      44.477  32.710  32.518  1.00  0.00    -0.206 F 
ATOM     75  C   UNL A   1      44.618  34.953  31.844  1.00  0.00     0.059 A 
ATOM     76  C   UNL A   1      44.474  35.520  29.487  1.00  0.00     0.059 A 
ATOM     77  F   UNL A   1      44.148  33.827  27.901  1.00  0.00    -0.206 F 
ATOM     78  C   UNL A   1      44.606  35.903  30.820  1.00  0.00     0.060 A 
BRANCH  78  79
ATOM     79  S   UNL A   1      44.750  37.647  31.261  1.00  0.00     0.124 S 
ATOM     80  O   UNL A   1      43.995  37.694  32.510  1.00  0.00    -0.237 OA
ATOM     81  O   UNL A   1      46.194  37.818  31.389  1.00  0.00    -0.237 OA
ATOM     82  O   UNL A   1      44.137  38.337  30.131  1.00  0.00    -0.744 OA
ENDBRANCH  78  79
ENDBRANCH  57  71
BRANCH  58  83
ATOM     83  C   UNL A   1      42.579  23.729  27.576  1.00  0.00     0.058 A 
ATOM     84  C   UNL A   1      42.316  23.461  26.225  1.00  0.00     0.135 A 
ATOM     85  C   UNL A   1      42.601  22.640  28.464  1.00  0.00     0.135 A 
ATOM     86  F   UNL A   1      42.257  24.468  25.341  1.00  0.00    -0.206 F 
ATOM     87  C   UNL A   1      42.089  22.164  25.770  1.00  0.00     0.059 A 
ATOM     88  C   UNL A   1      42.404  21.333  28.028  1.00  0.00     0.059 A 
ATOM     89  F   UNL A   1      42.843  22.842  29.769  1.00  0.00    -0.206 F 
ATOM     90  C   UNL A   1      42.145  21.106  26.678  1.00  0.00     0.060 A 
BRANCH  90  91
ATOM     91  S   UNL A   1      41.931  19.422  26.060  1.00  0.00     0.124 S 
ATOM     92  O   UNL A   1      40.513  19.412  25.717  1.00  0.00    -0.237 OA
ATOM     93  O   UNL A   1      42.860  19.389  24.935  1.00  0.00    -0.237 OA
ATOM     94  O   UNL A   1      42.309  18.594  27.201  1.00  0.00    -0.744 OA
ENDBRANCH  90  91
ENDBRANCH  58  83
BRANCH  70  95
ATOM     95  C   UNL A   1      48.388  27.585  28.183  1.00  0.00     0.058 A 
ATOM     96  C   UNL A   1      49.191  26.952  29.144  1.00  0.00     0.135 A 
ATOM     97  C   UNL A   1      48.969  27.871  26.935  1.00  0.00     0.135 A 
ATOM     98  F   UNL A   1      48.692  26.663  30.356  1.00  0.00    -0.206 F 
ATOM     99  C   UNL A   1      50.517  26.618  28.881  1.00  0.00     0.059 A 
ATOM    100  C   UNL A   1      50.285  27.521  26.641  1.00  0.00     0.059 A 
ATOM    101  F   UNL A   1      48.246  28.468  25.973  1.00  0.00    -0.206 F 
ATOM    102  C   UNL A   1      51.054  26.900  27.622  1.00  0.00     0.060 A 
BRANCH 102 103
ATOM    103  S   UNL A   1      52.756  26.405  27.275  1.00  0.00     0.124 S 
ATOM    104  O   UNL A   1      53.377  26.540  28.588  1.00  0.00    -0.237 OA
ATOM    105  O   UNL A   1      52.591  25.037  26.791  1.00  0.00    -0.237 OA
ATOM    106  O   UNL A   1      53.194  27.369  26.271  1.00  0.00    -0.744 OA
ENDBRANCH 102 103
ENDBRANCH  70  95
ENDBRANCH  44  45
ENDBRANCH  37  39
ENDBRANCH  36  37
ENDBRANCH  35  36
ENDBRANCH  34  35
ENDBRANCH  33  34
ENDBRANCH  32  33
ENDBRANCH   1  32
TORSDOF 26
ENDMDL
MODEL 2
REMARK VINA RESULT:     -10.5      2.690      8.731
REMARK SMILES C[C@H]1CC[C@@]2(CO)C(C(=O)OCCOCCOCCOC(=O)c3ccc(-c4c5nc(c(-c6c(F)cc(S(=O)(=O)[O-])cc6F)c6ccc([nH]6)c(-c6c(F)cc(S(=O)(=O)[O-])cc6F)c6nc(c(-c7c(F)cc(S(=O)(=O)[O-])cc7F)c7ccc4[nH]7)C=C6)C=C5)cc3)=C[C@@H](O)C[C@@H]2[C@@]1(C)CCc1ccoc1
REMARK SMILES IDX 15 1 14 2 13 3 12 4 11 5 9 6 10 7 8 8 1 9 2 10 3 11 94 12
REMARK SMILES IDX 4 13 93 14 95 15 5 16 92 17 90 18 89 19 96 20 97 21 98 22
REMARK SMILES IDX 99 23 102 24 100 25 101 26 6 27 7 28 91 30 16 32 17 33 18 34
REMARK SMILES IDX 19 35 20 36 21 37 22 38 23 39 24 40 88 41 25 42 87 43 26 44
REMARK SMILES IDX 27 45 28 46 81 47 29 48 86 49 80 50 82 51 30 52 85 53 79 54
REMARK SMILES IDX 78 55 31 57 65 58 44 59 64 60 45 61 48 62 63 63 83 64 46 65
REMARK SMILES IDX 47 66 62 68 84 69 49 70 32 71 33 72 42 73 34 74 35 75 41 76
REMARK SMILES IDX 43 77 36 78 37 79 38 80 39 81 40 82 66 83 67 84 76 85 68 86
REMARK SMILES IDX 69 87 75 88 77 89 70 90 71 91 72 92 73 93 74 94 50 95 51 96
REMARK SMILES IDX 60 97 52 98 53 99 59 100 61 101 54 102 55 103 56 104 57 105
REMARK SMILES IDX 58 106
REMARK H PARENT 7 29 91 31 82 56 48 67
REMARK Flexibility Score: inf
ROOT
ATOM      1  C   UNL A   1      35.070  20.988  25.112  1.00  0.00     0.188 C 
ENDROOT
BRANCH   1   2
ATOM      2  O   UNL A   1      33.923  20.462  25.766  1.00  0.00    -0.376 OA
BRANCH   2   3
ATOM      3  C   UNL A   1      32.779  20.252  24.959  1.00  0.00     0.202 C 
BRANCH   3   4
ATOM      4  C   UNL A   1      32.394  21.404  24.017  1.00  0.00     0.261 C 
BRANCH   4   5
ATOM      5  O   UNL A   1      32.137  22.661  24.662  1.00  0.00    -0.460 OA
BRANCH   5   6
ATOM      6  C   UNL A   1      31.932  23.688  23.801  1.00  0.00     0.334 C 
ATOM      7  O   UNL A   1      30.931  23.785  23.113  1.00  0.00    -0.247 OA
BRANCH   6   8
ATOM      8  C   UNL A   1      33.024  24.738  23.890  1.00  0.00     0.044 C 
ATOM      9  C   UNL A   1      28.900  25.978  24.642  1.00  0.00     0.008 C 
ATOM     10  C   UNL A   1      29.843  27.136  25.066  1.00  0.00    -0.008 C 
ATOM     11  C   UNL A   1      30.695  26.681  26.263  1.00  0.00     0.005 C 
ATOM     12  C   UNL A   1      30.688  27.775  23.882  1.00  0.00    -0.026 C 
ATOM     13  C   UNL A   1      31.964  25.881  25.958  1.00  0.00     0.015 C 
ATOM     14  C   UNL A   1      31.665  26.642  23.427  1.00  0.00     0.011 C 
ATOM     15  C   UNL A   1      31.466  29.005  24.383  1.00  0.00     0.012 C 
ATOM     16  C   UNL A   1      32.622  26.075  24.558  1.00  0.00     0.029 C 
ATOM     17  C   UNL A   1      32.431  26.831  22.075  1.00  0.00     0.041 C 
ATOM     18  C   UNL A   1      33.283  25.605  21.643  1.00  0.00     0.138 C 
ATOM     19  C   UNL A   1      33.844  24.828  22.811  1.00  0.00     0.016 C 
BRANCH  12  20
ATOM     20  C   UNL A   1      29.656  28.168  22.745  1.00  0.00     0.012 C 
BRANCH  20  21
ATOM     21  C   UNL A   1      28.338  28.889  23.060  1.00  0.00     0.039 C 
BRANCH  21  22
ATOM     22  C   UNL A   1      28.263  30.336  22.722  1.00  0.00    -0.010 A 
ATOM     23  C   UNL A   1      28.941  31.003  21.663  1.00  0.00     0.045 A 
ATOM     24  C   UNL A   1      27.626  31.338  23.428  1.00  0.00     0.198 A 
ATOM     25  C   UNL A   1      28.638  32.338  21.782  1.00  0.00     0.195 A 
ATOM     26  O   UNL A   1      27.827  32.546  22.849  1.00  0.00    -0.472 OA
ENDBRANCH  21  22
ENDBRANCH  20  21
ENDBRANCH  12  20
BRANCH  16  27
ATOM     27  C   UNL A   1      33.946  26.911  24.788  1.00  0.00     0.168 C 
BRANCH  27  28
ATOM     28  O   UNL A   1      34.066  27.473  26.086  1.00  0.00    -0.395 OA
ATOM     29  H   UNL A   1      34.164  26.761  26.738  1.00  0.00     0.210 HD
ENDBRANCH  27  28
ENDBRANCH  16  27
BRANCH  18  30
ATOM     30  O   UNL A   1      32.493  24.717  20.859  1.00  0.00    -0.389 OA
ATOM     31  H   UNL A   1      31.552  24.885  21.028  1.00  0.00     0.211 HD
ENDBRANCH  18  30
ENDBRANCH   6   8
ENDBRANCH   5   6
ENDBRANCH   4   5
ENDBRANCH   3   4
ENDBRANCH   2   3
ENDBRANCH   1   2
BRANCH   1  32
ATOM     32  C   UNL A   1      35.981  21.780  26.073  1.00  0.00     0.188 C 
BRANCH  32  33
ATOM     33  O   UNL A   1      37.191  22.335  25.590  1.00  0.00    -0.376 OA
BRANCH  33  34
ATOM     34  C   UNL A   1      38.257  21.419  25.389  1.00  0.00     0.202 C 
BRANCH  34  35
ATOM     35  C   UNL A   1      39.499  21.511  26.306  1.00  0.00     0.261 C 
BRANCH  35  36
ATOM     36  O   UNL A   1      40.151  20.261  26.650  1.00  0.00    -0.460 OA
BRANCH  36  37
ATOM     37  C   UNL A   1      41.403  20.062  26.149  1.00  0.00     0.338 C 
ATOM     38  O   UNL A   1      41.733  19.182  25.365  1.00  0.00    -0.246 OA
BRANCH  37  39
ATOM     39  C   UNL A   1      42.301  21.208  26.476  1.00  0.00     0.060 A 
ATOM     40  C   UNL A   1      42.594  21.495  27.824  1.00  0.00     0.016 A 
ATOM     41  C   UNL A   1      42.805  22.039  25.478  1.00  0.00     0.016 A 
ATOM     42  C   UNL A   1      43.379  22.603  28.176  1.00  0.00     0.010 A 
ATOM     43  C   UNL A   1      43.551  23.174  25.835  1.00  0.00     0.010 A 
ATOM     44  C   UNL A   1      43.825  23.480  27.184  1.00  0.00    -0.014 A 
BRANCH  44  45
ATOM     45  C   UNL A   1      44.400  24.812  27.529  1.00  0.00     0.031 A 
ATOM     46  C   UNL A   1      43.454  25.914  27.931  1.00  0.00     0.074 A 
ATOM     47  C   UNL A   1      45.717  25.076  27.439  1.00  0.00     0.049 A 
ATOM     48  N   UNL A   1      43.671  27.197  28.055  1.00  0.00    -0.248 NA
ATOM     49  C   UNL A   1      42.072  25.504  28.224  1.00  0.00     0.031 C 
ATOM     50  C   UNL A   1      46.760  24.101  27.138  1.00  0.00     0.029 A 
ATOM     51  N   UNL A   1      46.394  26.270  27.557  1.00  0.00    -0.354 N 
ATOM     52  C   UNL A   1      42.447  27.755  28.409  1.00  0.00     0.074 A 
ATOM     53  C   UNL A   1      41.493  26.669  28.472  1.00  0.00     0.031 C 
ATOM     54  C   UNL A   1      47.939  24.742  27.041  1.00  0.00     0.029 A 
ATOM     55  C   UNL A   1      47.726  26.180  27.224  1.00  0.00     0.049 A 
ATOM     56  H   UNL A   1      45.966  27.107  27.850  1.00  0.00     0.167 HD
ATOM     57  C   UNL A   1      42.144  29.054  28.653  1.00  0.00     0.037 A 
ATOM     58  C   UNL A   1      48.652  27.144  27.032  1.00  0.00     0.037 A 
ATOM     59  C   UNL A   1      43.091  30.135  28.585  1.00  0.00     0.049 A 
ATOM     60  C   UNL A   1      48.279  28.596  27.212  1.00  0.00     0.074 A 
ATOM     61  C   UNL A   1      42.880  31.481  28.832  1.00  0.00     0.029 A 
ATOM     62  N   UNL A   1      44.425  30.002  28.229  1.00  0.00    -0.354 N 
ATOM     63  N   UNL A   1      47.122  29.116  27.552  1.00  0.00    -0.248 NA
ATOM     64  C   UNL A   1      49.333  29.595  26.975  1.00  0.00     0.031 C 
ATOM     65  C   UNL A   1      44.069  32.167  28.567  1.00  0.00     0.029 A 
ATOM     66  C   UNL A   1      45.040  31.244  28.214  1.00  0.00     0.049 A 
ATOM     67  H   UNL A   1      44.870  29.148  28.017  1.00  0.00     0.167 HD
ATOM     68  C   UNL A   1      47.316  30.495  27.585  1.00  0.00     0.074 A 
ATOM     69  C   UNL A   1      48.703  30.730  27.245  1.00  0.00     0.031 C 
ATOM     70  C   UNL A   1      46.424  31.476  27.875  1.00  0.00     0.037 A 
BRANCH  57  71
ATOM     71  C   UNL A   1      40.708  29.380  28.966  1.00  0.00     0.058 A 
ATOM     72  C   UNL A   1      40.276  29.659  30.273  1.00  0.00     0.135 A 
ATOM     73  C   UNL A   1      39.750  29.421  27.939  1.00  0.00     0.135 A 
ATOM     74  F   UNL A   1      41.145  29.620  31.295  1.00  0.00    -0.206 F 
ATOM     75  C   UNL A   1      38.939  29.922  30.556  1.00  0.00     0.059 A 
ATOM     76  C   UNL A   1      38.415  29.714  28.194  1.00  0.00     0.059 A 
ATOM     77  F   UNL A   1      40.108  29.166  26.671  1.00  0.00    -0.206 F 
ATOM     78  C   UNL A   1      38.015  29.943  29.509  1.00  0.00     0.060 A 
BRANCH  78  79
ATOM     79  S   UNL A   1      36.280  30.260  29.896  1.00  0.00     0.124 S 
ATOM     80  O   UNL A   1      36.244  31.720  29.890  1.00  0.00    -0.237 OA
ATOM     81  O   UNL A   1      35.590  29.606  28.790  1.00  0.00    -0.237 OA
ATOM     82  O   UNL A   1      36.103  29.634  31.202  1.00  0.00    -0.744 OA
ENDBRANCH  78  79
ENDBRANCH  57  71
BRANCH  58  83
ATOM     83  C   UNL A   1      50.024  26.768  26.588  1.00  0.00     0.058 A 
ATOM     84  C   UNL A   1      51.020  26.418  27.511  1.00  0.00     0.135 A 
ATOM     85  C   UNL A   1      50.362  26.743  25.225  1.00  0.00     0.135 A 
ATOM     86  F   UNL A   1      50.758  26.452  28.826  1.00  0.00    -0.206 F 
ATOM     87  C   UNL A   1      52.299  26.051  27.100  1.00  0.00     0.059 A 
ATOM     88  C   UNL A   1      51.625  26.354  24.788  1.00  0.00     0.059 A 
ATOM     89  F   UNL A   1      49.448  27.074  24.299  1.00  0.00    -0.206 F 
ATOM     90  C   UNL A   1      52.589  26.012  25.735  1.00  0.00     0.060 A 
BRANCH  90  91
ATOM     91  S   UNL A   1      54.226  25.455  25.213  1.00  0.00     0.124 S 
ATOM     92  O   UNL A   1      55.081  26.053  26.233  1.00  0.00    -0.237 OA
ATOM     93  O   UNL A   1      54.086  24.004  25.266  1.00  0.00    -0.237 OA
ATOM     94  O   UNL A   1      54.360  26.016  23.871  1.00  0.00    -0.744 OA
ENDBRANCH  90  91
ENDBRANCH  58  83
BRANCH  70  95
ATOM     95  C   UNL A   1      46.907  32.903  27.863  1.00  0.00     0.058 A 
ATOM     96  C   UNL A   1      46.639  33.766  26.789  1.00  0.00     0.135 A 
ATOM     97  C   UNL A   1      47.569  33.441  28.980  1.00  0.00     0.135 A 
ATOM     98  F   UNL A   1      46.016  33.307  25.692  1.00  0.00    -0.206 F 
ATOM     99  C   UNL A   1      47.015  35.107  26.820  1.00  0.00     0.059 A 
ATOM    100  C   UNL A   1      47.930  34.784  29.044  1.00  0.00     0.059 A 
ATOM    101  F   UNL A   1      47.844  32.664  30.041  1.00  0.00    -0.206 F 
ATOM    102  C   UNL A   1      47.654  35.609  27.956  1.00  0.00     0.060 A 
BRANCH 102 103
ATOM    103  S   UNL A   1      48.080  37.364  28.006  1.00  0.00     0.124 S 
ATOM    104  O   UNL A   1      48.597  37.504  29.363  1.00  0.00    -0.237 OA
ATOM    105  O   UNL A   1      49.069  37.476  26.937  1.00  0.00    -0.237 OA
ATOM    106  O   UNL A   1      46.808  38.031  27.746  1.00  0.00    -0.744 OA
ENDBRANCH 102 103
ENDBRANCH  70  95
ENDBRANCH  44  45
ENDBRANCH  37  39
ENDBRANCH  36  37
ENDBRANCH  35  36
ENDBRANCH  34  35
ENDBRANCH  33  34
ENDBRANCH  32  33
ENDBRANCH   1  32
TORSDOF 26
ENDMDL
MODEL 3
REMARK VINA RESULT:     -10.3      4.569     10.560
REMARK SMILES C[C@H]1CC[C@@]2(CO)C(C(=O)OCCOCCOCCOC(=O)c3ccc(-c4c5nc(c(-c6c(F)cc(S(=O)(=O)[O-])cc6F)c6ccc([nH]6)c(-c6c(F)cc(S(=O)(=O)[O-])cc6F)c6nc(c(-c7c(F)cc(S(=O)(=O)[O-])cc7F)c7ccc4[nH]7)C=C6)C=C5)cc3)=C[C@@H](O)C[C@@H]2[C@@]1(C)CCc1ccoc1
REMARK SMILES IDX 15 1 14 2 13 3 12 4 11 5 9 6 10 7 8 8 1 9 2 10 3 11 94 12
REMARK SMILES IDX 4 13 93 14 95 15 5 16 92 17 90 18 89 19 96 20 97 21 98 22
REMARK SMILES IDX 99 23 102 24 100 25 101 26 6 27 7 28 91 30 16 32 17 33 18 34
REMARK SMILES IDX 19 35 20 36 21 37 22 38 23 39 24 40 88 41 25 42 87 43 26 44
REMARK SMILES IDX 27 45 28 46 81 47 29 48 86 49 80 50 82 51 30 52 85 53 79 54
REMARK SMILES IDX 78 55 31 57 65 58 44 59 64 60 45 61 48 62 63 63 83 64 46 65
REMARK SMILES IDX 47 66 62 68 84 69 49 70 32 71 33 72 42 73 34 74 35 75 41 76
REMARK SMILES IDX 43 77 36 78 37 79 38 80 39 81 40 82 66 83 67 84 76 85 68 86
REMARK SMILES IDX 69 87 75 88 77 89 70 90 71 91 72 92 73 93 74 94 50 95 51 96
REMARK SMILES IDX 60 97 52 98 53 99 59 100 61 101 54 102 55 103 56 104 57 105
REMARK SMILES IDX 58 106
REMARK H PARENT 7 29 91 31 82 56 48 67
REMARK Flexibility Score: inf
ROOT
ATOM      1  C   UNL A   1      34.903  21.736  26.521  1.00  0.00     0.188 C 
ENDROOT
BRANCH   1   2
ATOM      2  O   UNL A   1      33.498  21.839  26.344  1.00  0.00    -0.376 OA
BRANCH   2   3
ATOM      3  C   UNL A   1      32.729  22.043  27.516  1.00  0.00     0.202 C 
BRANCH   3   4
ATOM      4  C   UNL A   1      31.420  22.828  27.339  1.00  0.00     0.261 C 
BRANCH   4   5
ATOM      5  O   UNL A   1      31.563  24.256  27.306  1.00  0.00    -0.460 OA
BRANCH   5   6
ATOM      6  C   UNL A   1      31.037  24.835  26.198  1.00  0.00     0.334 C 
ATOM      7  O   UNL A   1      30.045  25.541  26.229  1.00  0.00    -0.247 OA
BRANCH   6   8
ATOM      8  C   UNL A   1      31.891  24.598  24.967  1.00  0.00     0.044 C 
ATOM      9  C   UNL A   1      31.837  28.610  26.702  1.00  0.00     0.008 C 
ATOM     10  C   UNL A   1      32.979  28.548  25.652  1.00  0.00    -0.008 C 
ATOM     11  C   UNL A   1      34.056  27.561  26.134  1.00  0.00     0.005 C 
ATOM     12  C   UNL A   1      32.497  28.294  24.159  1.00  0.00    -0.026 C 
ATOM     13  C   UNL A   1      33.830  26.076  25.842  1.00  0.00     0.015 C 
ATOM     14  C   UNL A   1      31.913  26.844  24.165  1.00  0.00     0.011 C 
ATOM     15  C   UNL A   1      33.686  28.405  23.187  1.00  0.00     0.012 C 
ATOM     16  C   UNL A   1      32.916  25.708  24.633  1.00  0.00     0.029 C 
ATOM     17  C   UNL A   1      31.071  26.386  22.928  1.00  0.00     0.041 C 
ATOM     18  C   UNL A   1      30.428  24.977  23.074  1.00  0.00     0.138 C 
ATOM     19  C   UNL A   1      31.255  24.030  23.910  1.00  0.00     0.016 C 
BRANCH  12  20
ATOM     20  C   UNL A   1      31.391  29.384  23.845  1.00  0.00     0.012 C 
BRANCH  20  21
ATOM     21  C   UNL A   1      30.737  29.501  22.460  1.00  0.00     0.039 C 
BRANCH  21  22
ATOM     22  C   UNL A   1      29.495  30.314  22.367  1.00  0.00    -0.010 A 
ATOM     23  C   UNL A   1      29.124  31.408  23.199  1.00  0.00     0.045 A 
ATOM     24  C   UNL A   1      28.405  30.103  21.545  1.00  0.00     0.198 A 
ATOM     25  C   UNL A   1      27.868  31.797  22.799  1.00  0.00     0.195 A 
ATOM     26  O   UNL A   1      27.430  31.012  21.783  1.00  0.00    -0.472 OA
ENDBRANCH  21  22
ENDBRANCH  20  21
ENDBRANCH  12  20
BRANCH  16  27
ATOM     27  C   UNL A   1      33.867  25.153  23.495  1.00  0.00     0.168 C 
BRANCH  27  28
ATOM     28  O   UNL A   1      34.665  24.046  23.887  1.00  0.00    -0.395 OA
ATOM     29  H   UNL A   1      35.579  24.187  23.594  1.00  0.00     0.210 HD
ENDBRANCH  27  28
ENDBRANCH  16  27
BRANCH  18  30
ATOM     30  O   UNL A   1      29.142  25.092  23.675  1.00  0.00    -0.389 OA
ATOM     31  H   UNL A   1      28.748  24.209  23.767  1.00  0.00     0.211 HD
ENDBRANCH  18  30
ENDBRANCH   6   8
ENDBRANCH   5   6
ENDBRANCH   4   5
ENDBRANCH   3   4
ENDBRANCH   2   3
ENDBRANCH   1   2
BRANCH   1  32
ATOM     32  C   UNL A   1      35.584  20.967  25.369  1.00  0.00     0.188 C 
BRANCH  32  33
ATOM     33  O   UNL A   1      36.568  21.616  24.582  1.00  0.00    -0.376 OA
BRANCH  33  34
ATOM     34  C   UNL A   1      37.895  21.570  25.086  1.00  0.00     0.202 C 
BRANCH  34  35
ATOM     35  C   UNL A   1      38.464  22.820  25.796  1.00  0.00     0.261 C 
BRANCH  35  36
ATOM     36  O   UNL A   1      39.431  22.588  26.852  1.00  0.00    -0.460 OA
BRANCH  36  37
ATOM     37  C   UNL A   1      40.638  23.210  26.731  1.00  0.00     0.338 C 
ATOM     38  O   UNL A   1      41.571  22.840  26.030  1.00  0.00    -0.246 OA
BRANCH  37  39
ATOM     39  C   UNL A   1      40.614  24.558  27.369  1.00  0.00     0.060 A 
ATOM     40  C   UNL A   1      41.714  25.423  27.202  1.00  0.00     0.016 A 
ATOM     41  C   UNL A   1      39.552  24.955  28.179  1.00  0.00     0.016 A 
ATOM     42  C   UNL A   1      41.759  26.671  27.841  1.00  0.00     0.010 A 
ATOM     43  C   UNL A   1      39.621  26.185  28.855  1.00  0.00     0.010 A 
ATOM     44  C   UNL A   1      40.732  27.042  28.711  1.00  0.00    -0.014 A 
BRANCH  44  45
ATOM     45  C   UNL A   1      40.877  28.208  29.629  1.00  0.00     0.031 A 
ATOM     46  C   UNL A   1      41.953  28.157  30.683  1.00  0.00     0.074 A 
ATOM     47  C   UNL A   1      40.051  29.271  29.584  1.00  0.00     0.049 A 
ATOM     48  N   UNL A   1      42.137  28.922  31.727  1.00  0.00    -0.248 NA
ATOM     49  C   UNL A   1      42.951  27.087  30.535  1.00  0.00     0.031 C 
ATOM     50  C   UNL A   1      39.016  29.499  28.581  1.00  0.00     0.029 A 
ATOM     51  N   UNL A   1      39.934  30.342  30.441  1.00  0.00    -0.354 N 
ATOM     52  C   UNL A   1      43.251  28.408  32.380  1.00  0.00     0.074 A 
ATOM     53  C   UNL A   1      43.695  27.262  31.616  1.00  0.00     0.031 C 
ATOM     54  C   UNL A   1      38.332  30.612  28.908  1.00  0.00     0.029 A 
ATOM     55  C   UNL A   1      38.849  31.145  30.170  1.00  0.00     0.049 A 
ATOM     56  H   UNL A   1      40.565  30.517  31.177  1.00  0.00     0.167 HD
ATOM     57  C   UNL A   1      43.847  28.846  33.517  1.00  0.00     0.037 A 
ATOM     58  C   UNL A   1      38.302  32.154  30.882  1.00  0.00     0.037 A 
ATOM     59  C   UNL A   1      43.402  29.982  34.281  1.00  0.00     0.049 A 
ATOM     60  C   UNL A   1      38.917  32.571  32.196  1.00  0.00     0.074 A 
ATOM     61  C   UNL A   1      43.952  30.511  35.435  1.00  0.00     0.029 A 
ATOM     62  N   UNL A   1      42.291  30.757  33.980  1.00  0.00    -0.354 N 
ATOM     63  N   UNL A   1      39.973  32.085  32.805  1.00  0.00    -0.248 NA
ATOM     64  C   UNL A   1      38.262  33.668  32.926  1.00  0.00     0.031 C 
ATOM     65  C   UNL A   1      43.141  31.566  35.866  1.00  0.00     0.029 A 
ATOM     66  C   UNL A   1      42.118  31.735  34.946  1.00  0.00     0.049 A 
ATOM     67  H   UNL A   1      41.710  30.629  33.194  1.00  0.00     0.167 HD
ATOM     68  C   UNL A   1      40.117  32.828  33.976  1.00  0.00     0.074 A 
ATOM     69  C   UNL A   1      39.049  33.804  33.985  1.00  0.00     0.031 C 
ATOM     70  C   UNL A   1      41.052  32.709  34.952  1.00  0.00     0.037 A 
BRANCH  57  71
ATOM     71  C   UNL A   1      45.019  28.054  34.031  1.00  0.00     0.058 A 
ATOM     72  C   UNL A   1      46.333  28.304  33.600  1.00  0.00     0.135 A 
ATOM     73  C   UNL A   1      44.825  27.033  34.976  1.00  0.00     0.135 A 
ATOM     74  F   UNL A   1      46.575  29.258  32.688  1.00  0.00    -0.206 F 
ATOM     75  C   UNL A   1      47.404  27.540  34.054  1.00  0.00     0.059 A 
ATOM     76  C   UNL A   1      45.885  26.279  35.468  1.00  0.00     0.059 A 
ATOM     77  F   UNL A   1      43.592  26.753  35.425  1.00  0.00    -0.206 F 
ATOM     78  C   UNL A   1      47.169  26.526  34.985  1.00  0.00     0.060 A 
BRANCH  78  79
ATOM     79  S   UNL A   1      48.565  25.528  35.543  1.00  0.00     0.124 S 
ATOM     80  O   UNL A   1      48.839  26.118  36.851  1.00  0.00    -0.237 OA
ATOM     81  O   UNL A   1      47.999  24.183  35.562  1.00  0.00    -0.237 OA
ATOM     82  O   UNL A   1      49.582  25.763  34.524  1.00  0.00    -0.744 OA
ENDBRANCH  78  79
ENDBRANCH  57  71
BRANCH  58  83
ATOM     83  C   UNL A   1      37.058  32.812  30.390  1.00  0.00     0.058 A 
ATOM     84  C   UNL A   1      37.104  33.840  29.438  1.00  0.00     0.135 A 
ATOM     85  C   UNL A   1      35.795  32.414  30.858  1.00  0.00     0.135 A 
ATOM     86  F   UNL A   1      38.286  34.276  28.978  1.00  0.00    -0.206 F 
ATOM     87  C   UNL A   1      35.943  34.447  28.963  1.00  0.00     0.059 A 
ATOM     88  C   UNL A   1      34.620  32.986  30.379  1.00  0.00     0.059 A 
ATOM     89  F   UNL A   1      35.695  31.436  31.774  1.00  0.00    -0.206 F 
ATOM     90  C   UNL A   1      34.705  34.005  29.433  1.00  0.00     0.060 A 
BRANCH  90  91
ATOM     91  S   UNL A   1      33.205  34.743  28.748  1.00  0.00     0.124 S 
ATOM     92  O   UNL A   1      32.446  35.044  29.957  1.00  0.00    -0.237 OA
ATOM     93  O   UNL A   1      33.735  35.894  28.024  1.00  0.00    -0.237 OA
ATOM     94  O   UNL A   1      32.660  33.680  27.909  1.00  0.00    -0.744 OA
ENDBRANCH  90  91
ENDBRANCH  58  83
BRANCH  70  95
ATOM     95  C   UNL A   1      40.994  33.667  36.114  1.00  0.00     0.058 A 
ATOM     96  C   UNL A   1      41.732  34.861  36.126  1.00  0.00     0.135 A 
ATOM     97  C   UNL A   1      40.119  33.431  37.189  1.00  0.00     0.135 A 
ATOM     98  F   UNL A   1      42.588  35.136  35.130  1.00  0.00    -0.206 F 
ATOM     99  C   UNL A   1      41.610  35.783  37.164  1.00  0.00     0.059 A 
ATOM    100  C   UNL A   1      39.962  34.351  38.223  1.00  0.00     0.059 A 
ATOM    101  F   UNL A   1      39.381  32.310  37.226  1.00  0.00    -0.206 F 
ATOM    102  C   UNL A   1      40.716  35.522  38.205  1.00  0.00     0.060 A 
BRANCH 102 103
ATOM    103  S   UNL A   1      40.524  36.755  39.511  1.00  0.00     0.124 S 
ATOM    104  O   UNL A   1      40.051  35.937  40.623  1.00  0.00    -0.237 OA
ATOM    105  O   UNL A   1      41.879  37.283  39.644  1.00  0.00    -0.237 OA
ATOM    106  O   UNL A   1      39.548  37.688  38.958  1.00  0.00    -0.744 OA
ENDBRANCH 102 103
ENDBRANCH  70  95
ENDBRANCH  44  45
ENDBRANCH  37  39
ENDBRANCH  36  37
ENDBRANCH  35  36
ENDBRANCH  34  35
ENDBRANCH  33  34
ENDBRANCH  32  33
ENDBRANCH   1  32
TORSDOF 26
ENDMDL
