MODEL 1
REMARK VINA RESULT:     -10.3      0.000      0.000
REMARK SMILES Cc1ccc2c(c1)C=C(C(=O)OCCOCCOCCOC(=O)c1ccc(-c3c4nc(c(-c5c(F)cc(S(=O)(=O)[O-])cc5F)c5ccc([nH]5)c(-c5c(F)cc(S(=O)(=O)[O-])cc5F)c5nc(c(-c6c(F)cc(S(=O)(=O)[O-])cc6F)c6ccc3[nH]6)C=C5)C=C4)cc1)[C@@H](C(F)(F)F)O2
REMARK SMILES IDX 17 1 16 2 15 3 14 4 13 5 12 6 10 7 11 8 9 9 1 10 2 11 3 12
REMARK SMILES IDX 7 13 4 14 6 15 5 16 8 17 95 18 90 19 91 20 92 21 93 22 94 23
REMARK SMILES IDX 18 24 19 25 20 26 21 27 22 28 23 29 24 30 25 31 89 32 26 33
REMARK SMILES IDX 88 34 27 35 28 36 29 37 82 38 30 39 87 40 81 41 83 42 31 43
REMARK SMILES IDX 86 44 80 45 79 46 32 48 66 49 45 50 65 51 46 52 49 53 64 54
REMARK SMILES IDX 84 55 47 56 48 57 63 59 85 60 50 61 33 62 34 63 43 64 35 65
REMARK SMILES IDX 36 66 42 67 44 68 37 69 38 70 39 71 40 72 41 73 67 74 68 75
REMARK SMILES IDX 77 76 69 77 70 78 76 79 78 80 71 81 72 82 73 83 74 84 75 85
REMARK SMILES IDX 51 86 52 87 61 88 53 89 54 90 60 91 62 92 55 93 56 94 57 95
REMARK SMILES IDX 58 96 59 97
REMARK H PARENT 83 47 49 58
REMARK Flexibility Score: inf
ROOT
ATOM      1  C   UNL A   1      33.143  28.992  23.269  1.00  0.00     0.188 C 
ENDROOT
BRANCH   1   2
ATOM      2  C   UNL A   1      33.628  27.777  22.450  1.00  0.00     0.188 C 
BRANCH   2   3
ATOM      3  O   UNL A   1      32.658  26.746  22.364  1.00  0.00    -0.376 OA
BRANCH   3   4
ATOM      4  C   UNL A   1      31.347  27.070  22.794  1.00  0.00     0.202 C 
BRANCH   4   5
ATOM      5  C   UNL A   1      30.888  26.399  24.096  1.00  0.00     0.261 C 
BRANCH   5   6
ATOM      6  O   UNL A   1      31.945  26.020  24.993  1.00  0.00    -0.460 OA
BRANCH   6   7
ATOM      7  C   UNL A   1      31.732  24.941  25.776  1.00  0.00     0.338 C 
ATOM      8  O   UNL A   1      30.777  24.761  26.513  1.00  0.00    -0.246 OA
BRANCH   7   9
ATOM      9  C   UNL A   1      32.797  23.948  25.507  1.00  0.00     0.087 C 
ATOM     10  C   UNL A   1      38.844  22.902  26.189  1.00  0.00     0.044 C 
ATOM     11  C   UNL A   1      37.433  22.615  25.767  1.00  0.00    -0.050 A 
ATOM     12  C   UNL A   1      37.115  21.424  25.104  1.00  0.00     0.007 A 
ATOM     13  C   UNL A   1      36.407  23.525  26.064  1.00  0.00     0.015 A 
ATOM     14  C   UNL A   1      35.795  21.154  24.738  1.00  0.00     0.047 A 
ATOM     15  C   UNL A   1      35.086  23.268  25.674  1.00  0.00     0.017 A 
ATOM     16  C   UNL A   1      34.784  22.072  25.023  1.00  0.00     0.128 A 
ATOM     17  C   UNL A   1      34.036  24.246  25.918  1.00  0.00     0.027 C 
ATOM     18  O   UNL A   1      33.528  21.718  24.626  1.00  0.00    -0.475 OA
ATOM     19  C   UNL A   1      32.430  22.645  24.839  1.00  0.00     0.316 C 
BRANCH  19  20
ATOM     20  C   UNL A   1      31.719  22.857  23.495  1.00  0.00     0.430 C 
ATOM     21  F   UNL A   1      32.367  23.776  22.736  1.00  0.00    -0.167 F 
ATOM     22  F   UNL A   1      31.672  21.722  22.758  1.00  0.00    -0.167 F 
ATOM     23  F   UNL A   1      30.448  23.289  23.651  1.00  0.00    -0.167 F 
ENDBRANCH  19  20
ENDBRANCH   7   9
ENDBRANCH   6   7
ENDBRANCH   5   6
ENDBRANCH   4   5
ENDBRANCH   3   4
ENDBRANCH   2   3
ENDBRANCH   1   2
BRANCH   1  24
ATOM     24  O   UNL A   1      33.429  29.062  24.661  1.00  0.00    -0.376 OA
BRANCH  24  25
ATOM     25  C   UNL A   1      32.761  30.039  25.452  1.00  0.00     0.202 C 
BRANCH  25  26
ATOM     26  C   UNL A   1      32.486  29.718  26.927  1.00  0.00     0.261 C 
BRANCH  26  27
ATOM     27  O   UNL A   1      33.663  29.403  27.689  1.00  0.00    -0.460 OA
BRANCH  27  28
ATOM     28  C   UNL A   1      34.422  30.463  28.068  1.00  0.00     0.338 C 
ATOM     29  O   UNL A   1      34.035  31.579  28.367  1.00  0.00    -0.246 OA
BRANCH  28  30
ATOM     30  C   UNL A   1      35.813  30.007  28.268  1.00  0.00     0.060 A 
ATOM     31  C   UNL A   1      36.733  30.017  27.218  1.00  0.00     0.016 A 
ATOM     32  C   UNL A   1      36.193  29.555  29.539  1.00  0.00     0.016 A 
ATOM     33  C   UNL A   1      38.043  29.587  27.449  1.00  0.00     0.010 A 
ATOM     34  C   UNL A   1      37.496  29.103  29.762  1.00  0.00     0.010 A 
ATOM     35  C   UNL A   1      38.434  29.132  28.721  1.00  0.00    -0.014 A 
BRANCH  35  36
ATOM     36  C   UNL A   1      39.861  28.836  28.995  1.00  0.00     0.031 A 
ATOM     37  C   UNL A   1      40.466  27.500  28.685  1.00  0.00     0.074 A 
ATOM     38  C   UNL A   1      40.614  29.811  29.538  1.00  0.00     0.049 A 
ATOM     39  N   UNL A   1      41.714  27.124  28.785  1.00  0.00    -0.248 NA
ATOM     40  C   UNL A   1      39.555  26.450  28.206  1.00  0.00     0.031 C 
ATOM     41  C   UNL A   1      40.122  31.139  29.909  1.00  0.00     0.029 A 
ATOM     42  N   UNL A   1      41.944  29.842  29.866  1.00  0.00    -0.354 N 
ATOM     43  C   UNL A   1      41.754  25.805  28.354  1.00  0.00     0.074 A 
ATOM     44  C   UNL A   1      40.389  25.430  28.038  1.00  0.00     0.031 C 
ATOM     45  C   UNL A   1      41.142  31.863  30.395  1.00  0.00     0.029 A 
ATOM     46  C   UNL A   1      42.353  31.048  30.383  1.00  0.00     0.049 A 
ATOM     47  H   UNL A   1      42.549  29.075  29.742  1.00  0.00     0.167 HD
ATOM     48  C   UNL A   1      42.831  24.994  28.217  1.00  0.00     0.037 A 
ATOM     49  C   UNL A   1      43.569  31.456  30.793  1.00  0.00     0.037 A 
ATOM     50  C   UNL A   1      44.183  25.373  28.557  1.00  0.00     0.049 A 
ATOM     51  C   UNL A   1      44.740  30.525  30.668  1.00  0.00     0.074 A 
ATOM     52  C   UNL A   1      45.345  24.630  28.419  1.00  0.00     0.029 A 
ATOM     53  N   UNL A   1      44.556  26.588  29.112  1.00  0.00    -0.354 N 
ATOM     54  N   UNL A   1      44.772  29.303  30.192  1.00  0.00    -0.248 NA
ATOM     55  C   UNL A   1      46.041  31.030  31.125  1.00  0.00     0.031 C 
ATOM     56  C   UNL A   1      46.410  25.377  28.935  1.00  0.00     0.029 A 
ATOM     57  C   UNL A   1      45.923  26.605  29.349  1.00  0.00     0.049 A 
ATOM     58  H   UNL A   1      43.940  27.331  29.309  1.00  0.00     0.167 HD
ATOM     59  C   UNL A   1      46.100  28.898  30.275  1.00  0.00     0.074 A 
ATOM     60  C   UNL A   1      46.841  30.012  30.832  1.00  0.00     0.031 C 
ATOM     61  C   UNL A   1      46.652  27.712  29.919  1.00  0.00     0.037 A 
BRANCH  48  62
ATOM     62  C   UNL A   1      42.608  23.613  27.665  1.00  0.00     0.058 A 
ATOM     63  C   UNL A   1      42.612  23.372  26.281  1.00  0.00     0.135 A 
ATOM     64  C   UNL A   1      42.474  22.507  28.521  1.00  0.00     0.135 A 
ATOM     65  F   UNL A   1      42.726  24.393  25.418  1.00  0.00    -0.206 F 
ATOM     66  C   UNL A   1      42.479  22.087  25.766  1.00  0.00     0.059 A 
ATOM     67  C   UNL A   1      42.362  21.210  28.027  1.00  0.00     0.059 A 
ATOM     68  F   UNL A   1      42.467  22.680  29.852  1.00  0.00    -0.206 F 
ATOM     69  C   UNL A   1      42.359  21.010  26.647  1.00  0.00     0.060 A 
BRANCH  69  70
ATOM     70  S   UNL A   1      42.214  19.348  25.958  1.00  0.00     0.124 S 
ATOM     71  O   UNL A   1      42.726  18.533  27.055  1.00  0.00    -0.237 OA
ATOM     72  O   UNL A   1      40.782  19.240  25.704  1.00  0.00    -0.237 OA
ATOM     73  O   UNL A   1      43.058  19.396  24.768  1.00  0.00    -0.744 OA
ENDBRANCH  69  70
ENDBRANCH  48  62
BRANCH  49  74
ATOM     74  C   UNL A   1      43.735  32.835  31.319  1.00  0.00     0.058 A 
ATOM     75  C   UNL A   1      43.900  33.922  30.449  1.00  0.00     0.135 A 
ATOM     76  C   UNL A   1      43.685  33.097  32.696  1.00  0.00     0.135 A 
ATOM     77  F   UNL A   1      43.957  33.718  29.124  1.00  0.00    -0.206 F 
ATOM     78  C   UNL A   1      44.013  35.223  30.926  1.00  0.00     0.059 A 
ATOM     79  C   UNL A   1      43.773  34.391  33.196  1.00  0.00     0.059 A 
ATOM     80  F   UNL A   1      43.511  32.090  33.566  1.00  0.00    -0.206 F 
ATOM     81  C   UNL A   1      43.943  35.448  32.302  1.00  0.00     0.060 A 
BRANCH  81  82
ATOM     82  S   UNL A   1      44.024  37.148  32.903  1.00  0.00     0.124 S 
ATOM     83  O   UNL A   1      45.301  37.149  33.608  1.00  0.00    -0.237 OA
ATOM     84  O   UNL A   1      43.980  37.913  31.661  1.00  0.00    -0.237 OA
ATOM     85  O   UNL A   1      42.838  37.264  33.746  1.00  0.00    -0.744 OA
ENDBRANCH  81  82
ENDBRANCH  49  74
BRANCH  61  86
ATOM     86  C   UNL A   1      48.135  27.556  30.118  1.00  0.00     0.058 A 
ATOM     87  C   UNL A   1      48.665  27.035  31.309  1.00  0.00     0.135 A 
ATOM     88  C   UNL A   1      49.035  27.894  29.093  1.00  0.00     0.135 A 
ATOM     89  F   UNL A   1      47.851  26.705  32.323  1.00  0.00    -0.206 F 
ATOM     90  C   UNL A   1      50.037  26.880  31.488  1.00  0.00     0.059 A 
ATOM     91  C   UNL A   1      50.408  27.721  29.240  1.00  0.00     0.059 A 
ATOM     92  F   UNL A   1      48.581  28.388  27.931  1.00  0.00    -0.206 F 
ATOM     93  C   UNL A   1      50.901  27.225  30.447  1.00  0.00     0.060 A 
BRANCH  93  94
ATOM     94  S   UNL A   1      52.676  26.994  30.685  1.00  0.00     0.124 S 
ATOM     95  O   UNL A   1      53.179  27.167  29.326  1.00  0.00    -0.237 OA
ATOM     96  O   UNL A   1      53.007  28.062  31.623  1.00  0.00    -0.237 OA
ATOM     97  O   UNL A   1      52.774  25.641  31.223  1.00  0.00    -0.744 OA
ENDBRANCH  93  94
ENDBRANCH  61  86
ENDBRANCH  35  36
ENDBRANCH  28  30
ENDBRANCH  27  28
ENDBRANCH  26  27
ENDBRANCH  25  26
ENDBRANCH  24  25
ENDBRANCH   1  24
TORSDOF 21
ENDMDL
MODEL 2
REMARK VINA RESULT:     -10.0      3.001      9.281
REMARK SMILES Cc1ccc2c(c1)C=C(C(=O)OCCOCCOCCOC(=O)c1ccc(-c3c4nc(c(-c5c(F)cc(S(=O)(=O)[O-])cc5F)c5ccc([nH]5)c(-c5c(F)cc(S(=O)(=O)[O-])cc5F)c5nc(c(-c6c(F)cc(S(=O)(=O)[O-])cc6F)c6ccc3[nH]6)C=C5)C=C4)cc1)[C@@H](C(F)(F)F)O2
REMARK SMILES IDX 17 1 16 2 15 3 14 4 13 5 12 6 10 7 11 8 9 9 1 10 2 11 3 12
REMARK SMILES IDX 7 13 4 14 6 15 5 16 8 17 95 18 90 19 91 20 92 21 93 22 94 23
REMARK SMILES IDX 18 24 19 25 20 26 21 27 22 28 23 29 24 30 25 31 89 32 26 33
REMARK SMILES IDX 88 34 27 35 28 36 29 37 82 38 30 39 87 40 81 41 83 42 31 43
REMARK SMILES IDX 86 44 80 45 79 46 32 48 66 49 45 50 65 51 46 52 49 53 64 54
REMARK SMILES IDX 84 55 47 56 48 57 63 59 85 60 50 61 33 62 34 63 43 64 35 65
REMARK SMILES IDX 36 66 42 67 44 68 37 69 38 70 39 71 40 72 41 73 67 74 68 75
REMARK SMILES IDX 77 76 69 77 70 78 76 79 78 80 71 81 72 82 73 83 74 84 75 85
REMARK SMILES IDX 51 86 52 87 61 88 53 89 54 90 60 91 62 92 55 93 56 94 57 95
REMARK SMILES IDX 58 96 59 97
REMARK H PARENT 83 47 49 58
REMARK Flexibility Score: inf
ROOT
ATOM      1  C   UNL A   1      34.958  32.675  28.032  1.00  0.00     0.188 C 
ENDROOT
BRANCH   1   2
ATOM      2  C   UNL A   1      34.686  31.188  27.725  1.00  0.00     0.188 C 
BRANCH   2   3
ATOM      3  O   UNL A   1      33.303  30.876  27.688  1.00  0.00    -0.376 OA
BRANCH   3   4
ATOM      4  C   UNL A   1      32.954  29.591  27.202  1.00  0.00     0.202 C 
BRANCH   4   5
ATOM      5  C   UNL A   1      34.063  28.839  26.453  1.00  0.00     0.261 C 
BRANCH   5   6
ATOM      6  O   UNL A   1      33.828  28.645  25.048  1.00  0.00    -0.460 OA
BRANCH   6   7
ATOM      7  C   UNL A   1      33.307  27.459  24.667  1.00  0.00     0.338 C 
ATOM      8  O   UNL A   1      33.862  26.375  24.725  1.00  0.00    -0.246 OA
BRANCH   7   9
ATOM      9  C   UNL A   1      31.896  27.670  24.272  1.00  0.00     0.087 C 
ATOM     10  C   UNL A   1      27.988  31.890  22.025  1.00  0.00     0.044 C 
ATOM     11  C   UNL A   1      28.422  30.556  22.557  1.00  0.00    -0.050 A 
ATOM     12  C   UNL A   1      27.501  29.512  22.700  1.00  0.00     0.007 A 
ATOM     13  C   UNL A   1      29.767  30.328  22.883  1.00  0.00     0.015 A 
ATOM     14  C   UNL A   1      27.919  28.266  23.171  1.00  0.00     0.047 A 
ATOM     15  C   UNL A   1      30.184  29.087  23.382  1.00  0.00     0.017 A 
ATOM     16  C   UNL A   1      29.255  28.053  23.509  1.00  0.00     0.128 A 
ATOM     17  C   UNL A   1      31.565  28.875  23.789  1.00  0.00     0.027 C 
ATOM     18  O   UNL A   1      29.565  26.803  23.960  1.00  0.00    -0.475 OA
ATOM     19  C   UNL A   1      30.926  26.520  24.383  1.00  0.00     0.316 C 
BRANCH  19  20
ATOM     20  C   UNL A   1      30.870  25.935  25.802  1.00  0.00     0.430 C 
ATOM     21  F   UNL A   1      31.526  26.729  26.685  1.00  0.00    -0.167 F 
ATOM     22  F   UNL A   1      29.600  25.827  26.259  1.00  0.00    -0.167 F 
ATOM     23  F   UNL A   1      31.431  24.708  25.872  1.00  0.00    -0.167 F 
ENDBRANCH  19  20
ENDBRANCH   7   9
ENDBRANCH   6   7
ENDBRANCH   5   6
ENDBRANCH   4   5
ENDBRANCH   3   4
ENDBRANCH   2   3
ENDBRANCH   1   2
BRANCH   1  24
ATOM     24  O   UNL A   1      34.198  33.336  29.038  1.00  0.00    -0.376 OA
BRANCH  24  25
ATOM     25  C   UNL A   1      34.872  33.854  30.180  1.00  0.00     0.202 C 
BRANCH  25  26
ATOM     26  C   UNL A   1      35.357  32.867  31.249  1.00  0.00     0.261 C 
BRANCH  26  27
ATOM     27  O   UNL A   1      36.646  32.291  30.976  1.00  0.00    -0.460 OA
BRANCH  27  28
ATOM     28  C   UNL A   1      36.793  30.985  31.317  1.00  0.00     0.338 C 
ATOM     29  O   UNL A   1      35.975  30.270  31.869  1.00  0.00    -0.246 OA
BRANCH  28  30
ATOM     30  C   UNL A   1      38.049  30.477  30.728  1.00  0.00     0.060 A 
ATOM     31  C   UNL A   1      38.238  30.452  29.344  1.00  0.00     0.016 A 
ATOM     32  C   UNL A   1      39.052  30.012  31.589  1.00  0.00     0.016 A 
ATOM     33  C   UNL A   1      39.445  29.973  28.826  1.00  0.00     0.010 A 
ATOM     34  C   UNL A   1      40.247  29.512  31.068  1.00  0.00     0.010 A 
ATOM     35  C   UNL A   1      40.458  29.504  29.682  1.00  0.00    -0.014 A 
BRANCH  35  36
ATOM     36  C   UNL A   1      41.789  29.156  29.133  1.00  0.00     0.031 A 
ATOM     37  C   UNL A   1      42.907  30.153  29.073  1.00  0.00     0.074 A 
ATOM     38  C   UNL A   1      41.976  27.902  28.679  1.00  0.00     0.049 A 
ATOM     39  N   UNL A   1      44.148  29.970  28.704  1.00  0.00    -0.248 NA
ATOM     40  C   UNL A   1      42.593  31.532  29.474  1.00  0.00     0.031 C 
ATOM     41  C   UNL A   1      40.950  26.858  28.660  1.00  0.00     0.029 A 
ATOM     42  N   UNL A   1      43.086  27.290  28.157  1.00  0.00    -0.354 N 
ATOM     43  C   UNL A   1      44.779  31.197  28.855  1.00  0.00     0.074 A 
ATOM     44  C   UNL A   1      43.765  32.133  29.304  1.00  0.00     0.031 C 
ATOM     45  C   UNL A   1      41.483  25.728  28.171  1.00  0.00     0.029 A 
ATOM     46  C   UNL A   1      42.882  25.972  27.829  1.00  0.00     0.049 A 
ATOM     47  H   UNL A   1      43.947  27.751  28.029  1.00  0.00     0.167 HD
ATOM     48  C   UNL A   1      46.084  31.506  28.656  1.00  0.00     0.037 A 
ATOM     49  C   UNL A   1      43.728  25.056  27.320  1.00  0.00     0.037 A 
ATOM     50  C   UNL A   1      47.078  30.570  28.187  1.00  0.00     0.049 A 
ATOM     51  C   UNL A   1      45.159  25.434  27.071  1.00  0.00     0.074 A 
ATOM     52  C   UNL A   1      48.434  30.782  27.990  1.00  0.00     0.029 A 
ATOM     53  N   UNL A   1      46.830  29.253  27.830  1.00  0.00    -0.354 N 
ATOM     54  N   UNL A   1      45.756  26.582  27.286  1.00  0.00    -0.248 NA
ATOM     55  C   UNL A   1      46.035  24.391  26.522  1.00  0.00     0.031 C 
ATOM     56  C   UNL A   1      48.993  29.610  27.469  1.00  0.00     0.029 A 
ATOM     57  C   UNL A   1      47.998  28.650  27.387  1.00  0.00     0.049 A 
ATOM     58  H   UNL A   1      45.952  28.810  27.884  1.00  0.00     0.167 HD
ATOM     59  C   UNL A   1      47.083  26.395  26.915  1.00  0.00     0.074 A 
ATOM     60  C   UNL A   1      47.203  25.018  26.478  1.00  0.00     0.031 C 
ATOM     61  C   UNL A   1      48.107  27.283  26.938  1.00  0.00     0.037 A 
BRANCH  48  62
ATOM     62  C   UNL A   1      46.528  32.911  28.954  1.00  0.00     0.058 A 
ATOM     63  C   UNL A   1      47.012  33.270  30.223  1.00  0.00     0.135 A 
ATOM     64  C   UNL A   1      46.554  33.889  27.945  1.00  0.00     0.135 A 
ATOM     65  F   UNL A   1      47.001  32.378  31.226  1.00  0.00    -0.206 F 
ATOM     66  C   UNL A   1      47.493  34.548  30.484  1.00  0.00     0.059 A 
ATOM     67  C   UNL A   1      47.052  35.168  28.179  1.00  0.00     0.059 A 
ATOM     68  F   UNL A   1      46.106  33.599  26.714  1.00  0.00    -0.206 F 
ATOM     69  C   UNL A   1      47.514  35.490  29.455  1.00  0.00     0.060 A 
BRANCH  69  70
ATOM     70  S   UNL A   1      48.167  37.136  29.808  1.00  0.00     0.124 S 
ATOM     71  O   UNL A   1      49.606  36.894  29.762  1.00  0.00    -0.237 OA
ATOM     72  O   UNL A   1      47.623  37.929  28.710  1.00  0.00    -0.237 OA
ATOM     73  O   UNL A   1      47.625  37.443  31.128  1.00  0.00    -0.744 OA
ENDBRANCH  69  70
ENDBRANCH  48  62
BRANCH  49  74
ATOM     74  C   UNL A   1      43.238  23.679  27.057  1.00  0.00     0.058 A 
ATOM     75  C   UNL A   1      42.950  23.255  25.752  1.00  0.00     0.135 A 
ATOM     76  C   UNL A   1      43.093  22.749  28.098  1.00  0.00     0.135 A 
ATOM     77  F   UNL A   1      43.072  24.111  24.726  1.00  0.00    -0.206 F 
ATOM     78  C   UNL A   1      42.532  21.956  25.486  1.00  0.00     0.059 A 
ATOM     79  C   UNL A   1      42.698  21.439  27.855  1.00  0.00     0.059 A 
ATOM     80  F   UNL A   1      43.373  23.105  29.361  1.00  0.00    -0.206 F 
ATOM     81  C   UNL A   1      42.414  21.053  26.545  1.00  0.00     0.060 A 
BRANCH  81  82
ATOM     82  S   UNL A   1      41.934  19.352  26.178  1.00  0.00     0.124 S 
ATOM     83  O   UNL A   1      42.757  19.061  25.010  1.00  0.00    -0.237 OA
ATOM     84  O   UNL A   1      42.304  18.660  27.409  1.00  0.00    -0.237 OA
ATOM     85  O   UNL A   1      40.499  19.453  25.930  1.00  0.00    -0.744 OA
ENDBRANCH  81  82
ENDBRANCH  49  74
BRANCH  61  86
ATOM     86  C   UNL A   1      49.454  26.794  26.479  1.00  0.00     0.058 A 
ATOM     87  C   UNL A   1      50.317  26.101  27.344  1.00  0.00     0.135 A 
ATOM     88  C   UNL A   1      49.872  26.984  25.152  1.00  0.00     0.135 A 
ATOM     89  F   UNL A   1      49.971  25.898  28.625  1.00  0.00    -0.206 F 
ATOM     90  C   UNL A   1      51.558  25.637  26.915  1.00  0.00     0.059 A 
ATOM     91  C   UNL A   1      51.096  26.506  24.694  1.00  0.00     0.059 A 
ATOM     92  F   UNL A   1      49.082  27.633  24.282  1.00  0.00    -0.206 F 
ATOM     93  C   UNL A   1      51.938  25.844  25.588  1.00  0.00     0.060 A 
BRANCH  93  94
ATOM     94  S   UNL A   1      53.540  25.216  25.041  1.00  0.00     0.124 S 
ATOM     95  O   UNL A   1      54.450  25.888  25.962  1.00  0.00    -0.237 OA
ATOM     96  O   UNL A   1      53.393  23.776  25.234  1.00  0.00    -0.237 OA
ATOM     97  O   UNL A   1      53.620  25.652  23.650  1.00  0.00    -0.744 OA
ENDBRANCH  93  94
ENDBRANCH  61  86
ENDBRANCH  35  36
ENDBRANCH  28  30
ENDBRANCH  27  28
ENDBRANCH  26  27
ENDBRANCH  25  26
ENDBRANCH  24  25
ENDBRANCH   1  24
TORSDOF 21
ENDMDL
MODEL 3
REMARK VINA RESULT:      -9.9      4.530      9.808
REMARK SMILES Cc1ccc2c(c1)C=C(C(=O)OCCOCCOCCOC(=O)c1ccc(-c3c4nc(c(-c5c(F)cc(S(=O)(=O)[O-])cc5F)c5ccc([nH]5)c(-c5c(F)cc(S(=O)(=O)[O-])cc5F)c5nc(c(-c6c(F)cc(S(=O)(=O)[O-])cc6F)c6ccc3[nH]6)C=C5)C=C4)cc1)[C@@H](C(F)(F)F)O2
REMARK SMILES IDX 17 1 16 2 15 3 14 4 13 5 12 6 10 7 11 8 9 9 1 10 2 11 3 12
REMARK SMILES IDX 7 13 4 14 6 15 5 16 8 17 95 18 90 19 91 20 92 21 93 22 94 23
REMARK SMILES IDX 18 24 19 25 20 26 21 27 22 28 23 29 24 30 25 31 89 32 26 33
REMARK SMILES IDX 88 34 27 35 28 36 29 37 82 38 30 39 87 40 81 41 83 42 31 43
REMARK SMILES IDX 86 44 80 45 79 46 32 48 66 49 45 50 65 51 46 52 49 53 64 54
REMARK SMILES IDX 84 55 47 56 48 57 63 59 85 60 50 61 33 62 34 63 43 64 35 65
REMARK SMILES IDX 36 66 42 67 44 68 37 69 38 70 39 71 40 72 41 73 67 74 68 75
REMARK SMILES IDX 77 76 69 77 70 78 76 79 78 80 71 81 72 82 73 83 74 84 75 85
REMARK SMILES IDX 51 86 52 87 61 88 53 89 54 90 60 91 62 92 55 93 56 94 57 95
REMARK SMILES IDX 58 96 59 97
REMARK H PARENT 83 47 49 58
REMARK Flexibility Score: inf
ROOT
ATOM      1  C   UNL A   1      40.228  20.699  26.125  1.00  0.00     0.188 C 
ENDROOT
BRANCH   1   2
ATOM      2  C   UNL A   1      39.114  21.758  26.261  1.00  0.00     0.188 C 
BRANCH   2   3
ATOM      3  O   UNL A   1      38.312  21.867  25.096  1.00  0.00    -0.376 OA
BRANCH   3   4
ATOM      4  C   UNL A   1      37.315  20.877  24.916  1.00  0.00     0.202 C 
BRANCH   4   5
ATOM      5  C   UNL A   1      35.901  21.265  25.370  1.00  0.00     0.261 C 
BRANCH   5   6
ATOM      6  O   UNL A   1      35.440  22.545  24.908  1.00  0.00    -0.460 OA
BRANCH   6   7
ATOM      7  C   UNL A   1      34.202  22.928  25.285  1.00  0.00     0.338 C 
ATOM      8  O   UNL A   1      33.413  22.271  25.945  1.00  0.00    -0.246 OA
BRANCH   7   9
ATOM      9  C   UNL A   1      33.995  24.332  24.865  1.00  0.00     0.087 C 
ATOM     10  C   UNL A   1      32.888  30.009  27.028  1.00  0.00     0.044 C 
ATOM     11  C   UNL A   1      33.131  28.949  25.994  1.00  0.00    -0.050 A 
ATOM     12  C   UNL A   1      33.146  29.272  24.632  1.00  0.00     0.007 A 
ATOM     13  C   UNL A   1      33.383  27.625  26.384  1.00  0.00     0.015 A 
ATOM     14  C   UNL A   1      33.398  28.285  23.678  1.00  0.00     0.047 A 
ATOM     15  C   UNL A   1      33.609  26.627  25.427  1.00  0.00     0.017 A 
ATOM     16  C   UNL A   1      33.631  26.967  24.074  1.00  0.00     0.128 A 
ATOM     17  C   UNL A   1      33.797  25.241  25.829  1.00  0.00     0.027 C 
ATOM     18  O   UNL A   1      33.867  26.076  23.069  1.00  0.00    -0.475 OA
ATOM     19  C   UNL A   1      34.065  24.674  23.397  1.00  0.00     0.316 C 
BRANCH  19  20
ATOM     20  C   UNL A   1      33.084  23.846  22.555  1.00  0.00     0.430 C 
ATOM     21  F   UNL A   1      33.525  22.572  22.399  1.00  0.00    -0.167 F 
ATOM     22  F   UNL A   1      31.864  23.757  23.135  1.00  0.00    -0.167 F 
ATOM     23  F   UNL A   1      32.907  24.363  21.319  1.00  0.00    -0.167 F 
ENDBRANCH  19  20
ENDBRANCH   7   9
ENDBRANCH   6   7
ENDBRANCH   5   6
ENDBRANCH   4   5
ENDBRANCH   3   4
ENDBRANCH   2   3
ENDBRANCH   1   2
BRANCH   1  24
ATOM     24  O   UNL A   1      41.515  21.088  25.656  1.00  0.00    -0.376 OA
BRANCH  24  25
ATOM     25  C   UNL A   1      42.501  21.484  26.603  1.00  0.00     0.202 C 
BRANCH  25  26
ATOM     26  C   UNL A   1      42.797  22.981  26.763  1.00  0.00     0.261 C 
BRANCH  26  27
ATOM     27  O   UNL A   1      41.796  23.842  26.194  1.00  0.00    -0.460 OA
BRANCH  27  28
ATOM     28  C   UNL A   1      42.206  25.099  25.886  1.00  0.00     0.338 C 
ATOM     29  O   UNL A   1      42.642  25.493  24.819  1.00  0.00    -0.246 OA
BRANCH  28  30
ATOM     30  C   UNL A   1      41.851  26.002  27.001  1.00  0.00     0.060 A 
ATOM     31  C   UNL A   1      40.765  25.727  27.835  1.00  0.00     0.016 A 
ATOM     32  C   UNL A   1      42.627  27.152  27.204  1.00  0.00     0.016 A 
ATOM     33  C   UNL A   1      40.468  26.600  28.885  1.00  0.00     0.010 A 
ATOM     34  C   UNL A   1      42.314  28.035  28.239  1.00  0.00     0.010 A 
ATOM     35  C   UNL A   1      41.242  27.756  29.097  1.00  0.00    -0.014 A 
BRANCH  35  36
ATOM     36  C   UNL A   1      41.020  28.583  30.307  1.00  0.00     0.031 A 
ATOM     37  C   UNL A   1      41.869  28.434  31.533  1.00  0.00     0.074 A 
ATOM     38  C   UNL A   1      40.023  29.486  30.280  1.00  0.00     0.049 A 
ATOM     39  N   UNL A   1      41.853  29.145  32.631  1.00  0.00    -0.248 NA
ATOM     40  C   UNL A   1      42.859  27.347  31.532  1.00  0.00     0.031 C 
ATOM     41  C   UNL A   1      39.115  29.696  29.151  1.00  0.00     0.029 A 
ATOM     42  N   UNL A   1      39.608  30.398  31.216  1.00  0.00    -0.354 N 
ATOM     43  C   UNL A   1      42.848  28.618  33.444  1.00  0.00     0.074 A 
ATOM     44  C   UNL A   1      43.416  27.491  32.729  1.00  0.00     0.031 C 
ATOM     45  C   UNL A   1      38.263  30.688  29.453  1.00  0.00     0.029 A 
ATOM     46  C   UNL A   1      38.555  31.173  30.798  1.00  0.00     0.049 A 
ATOM     47  H   UNL A   1      40.027  30.488  32.104  1.00  0.00     0.167 HD
ATOM     48  C   UNL A   1      43.258  29.049  34.662  1.00  0.00     0.037 A 
ATOM     49  C   UNL A   1      37.901  32.171  31.423  1.00  0.00     0.037 A 
ATOM     50  C   UNL A   1      42.669  30.159  35.373  1.00  0.00     0.049 A 
ATOM     51  C   UNL A   1      38.350  32.604  32.789  1.00  0.00     0.074 A 
ATOM     52  C   UNL A   1      43.042  30.692  36.597  1.00  0.00     0.029 A 
ATOM     53  N   UNL A   1      41.580  30.900  34.937  1.00  0.00    -0.354 N 
ATOM     54  N   UNL A   1      39.339  32.140  33.515  1.00  0.00    -0.248 NA
ATOM     55  C   UNL A   1      37.603  33.702  33.416  1.00  0.00     0.031 C 
ATOM     56  C   UNL A   1      42.149  31.720  36.922  1.00  0.00     0.029 A 
ATOM     57  C   UNL A   1      41.249  31.863  35.878  1.00  0.00     0.049 A 
ATOM     58  H   UNL A   1      41.109  30.761  34.083  1.00  0.00     0.167 HD
ATOM     59  C   UNL A   1      39.345  32.902  34.678  1.00  0.00     0.074 A 
ATOM     60  C   UNL A   1      38.270  33.867  34.550  1.00  0.00     0.031 C 
ATOM     61  C   UNL A   1      40.168  32.810  35.752  1.00  0.00     0.037 A 
BRANCH  48  62
ATOM     62  C   UNL A   1      44.410  28.333  35.311  1.00  0.00     0.058 A 
ATOM     63  C   UNL A   1      45.736  28.750  35.109  1.00  0.00     0.135 A 
ATOM     64  C   UNL A   1      44.189  27.276  36.210  1.00  0.00     0.135 A 
ATOM     65  F   UNL A   1      46.006  29.749  34.254  1.00  0.00    -0.206 F 
ATOM     66  C   UNL A   1      46.799  28.139  35.763  1.00  0.00     0.059 A 
ATOM     67  C   UNL A   1      45.237  26.664  36.892  1.00  0.00     0.059 A 
ATOM     68  F   UNL A   1      42.941  26.839  36.442  1.00  0.00    -0.206 F 
ATOM     69  C   UNL A   1      46.541  27.099  36.657  1.00  0.00     0.060 A 
BRANCH  69  70
ATOM     70  S   UNL A   1      47.934  26.336  37.517  1.00  0.00     0.124 S 
ATOM     71  O   UNL A   1      47.857  24.961  37.032  1.00  0.00    -0.237 OA
ATOM     72  O   UNL A   1      49.065  27.117  37.029  1.00  0.00    -0.237 OA
ATOM     73  O   UNL A   1      47.608  26.521  38.927  1.00  0.00    -0.744 OA
ENDBRANCH  69  70
ENDBRANCH  48  62
BRANCH  49  74
ATOM     74  C   UNL A   1      36.778  32.852  30.730  1.00  0.00     0.058 A 
ATOM     75  C   UNL A   1      35.447  32.570  31.067  1.00  0.00     0.135 A 
ATOM     76  C   UNL A   1      37.016  33.830  29.752  1.00  0.00     0.135 A 
ATOM     77  F   UNL A   1      35.173  31.639  31.994  1.00  0.00    -0.206 F 
ATOM     78  C   UNL A   1      34.388  33.231  30.456  1.00  0.00     0.059 A 
ATOM     79  C   UNL A   1      35.974  34.521  29.144  1.00  0.00     0.059 A 
ATOM     80  F   UNL A   1      38.274  34.147  29.409  1.00  0.00    -0.206 F 
ATOM     81  C   UNL A   1      34.662  34.209  29.499  1.00  0.00     0.060 A 
BRANCH  81  82
ATOM     82  S   UNL A   1      33.280  35.107  28.762  1.00  0.00     0.124 S 
ATOM     83  O   UNL A   1      33.968  36.192  28.074  1.00  0.00    -0.237 OA
ATOM     84  O   UNL A   1      32.677  34.089  27.908  1.00  0.00    -0.237 OA
ATOM     85  O   UNL A   1      32.479  35.499  29.918  1.00  0.00    -0.744 OA
ENDBRANCH  81  82
ENDBRANCH  49  74
BRANCH  61  86
ATOM     86  C   UNL A   1      39.943  33.783  36.878  1.00  0.00     0.058 A 
ATOM     87  C   UNL A   1      40.648  34.995  36.953  1.00  0.00     0.135 A 
ATOM     88  C   UNL A   1      38.985  33.519  37.871  1.00  0.00     0.135 A 
ATOM     89  F   UNL A   1      41.580  35.292  36.034  1.00  0.00    -0.206 F 
ATOM     90  C   UNL A   1      40.430  35.900  37.989  1.00  0.00     0.059 A 
ATOM     91  C   UNL A   1      38.732  34.421  38.900  1.00  0.00     0.059 A 
ATOM     92  F   UNL A   1      38.277  32.379  37.842  1.00  0.00    -0.206 F 
ATOM     93  C   UNL A   1      39.469  35.604  38.957  1.00  0.00     0.060 A 
BRANCH  93  94
ATOM     94  S   UNL A   1      39.180  36.799  40.279  1.00  0.00     0.124 S 
ATOM     95  O   UNL A   1      40.538  37.046  40.754  1.00  0.00    -0.237 OA
ATOM     96  O   UNL A   1      38.547  37.906  39.568  1.00  0.00    -0.237 OA
ATOM     97  O   UNL A   1      38.313  36.079  41.207  1.00  0.00    -0.744 OA
ENDBRANCH  93  94
ENDBRANCH  61  86
ENDBRANCH  35  36
ENDBRANCH  28  30
ENDBRANCH  27  28
ENDBRANCH  26  27
ENDBRANCH  25  26
ENDBRANCH  24  25
ENDBRANCH   1  24
TORSDOF 21
ENDMDL
