MODEL 1
REMARK VINA RESULT:     -13.1      0.000      0.000
REMARK SMILES CC[C@@H](C)[C@H](NC(=O)NCc1ccc(C)cc1)C(=O)OCCOCCOCCOC(=O)c1ccc(-c2c3nc(c(-c4c(F)cc(S(=O)(=O)[O-])cc4F)c4ccc([nH]4)c(-c4c(F)cc(S(=O)(=O)[O-])cc4F)c4nc(c(-c5c(F)cc(S(=O)(=O)[O-])cc5F)c5ccc2[nH]5)C=C4)C=C3)cc1
REMARK SMILES IDX 24 1 23 2 22 3 21 4 20 5 18 6 19 7 5 8 3 9 4 10 2 11 1 12
REMARK SMILES IDX 6 13 7 14 8 16 9 17 10 19 11 20 12 21 17 22 13 23 16 24
REMARK SMILES IDX 14 25 15 26 25 27 26 28 27 29 28 30 29 31 30 32 31 33 32 34
REMARK SMILES IDX 33 35 97 36 34 37 96 38 35 39 36 40 37 41 90 42 38 43 95 44
REMARK SMILES IDX 89 45 91 46 39 47 94 48 88 49 87 50 40 52 74 53 53 54 73 55
REMARK SMILES IDX 54 56 57 57 72 58 92 59 55 60 56 61 71 63 93 64 58 65 41 66
REMARK SMILES IDX 42 67 51 68 43 69 44 70 50 71 52 72 45 73 46 74 47 75 48 76
REMARK SMILES IDX 49 77 75 78 76 79 85 80 77 81 78 82 84 83 86 84 79 85 80 86
REMARK SMILES IDX 81 87 82 88 83 89 59 90 60 91 69 92 61 93 62 94 68 95 70 96
REMARK SMILES IDX 63 97 64 98 65 99 66 100 67 101
REMARK H PARENT 6 15 9 18 91 51 57 62
REMARK Flexibility Score: inf
ROOT
ATOM      1  C   UNL A   1      33.785  32.769  27.530  1.00  0.00     0.188 C 
ENDROOT
BRANCH   1   2
ATOM      2  O   UNL A   1      32.725  31.796  27.528  1.00  0.00    -0.376 OA
BRANCH   2   3
ATOM      3  C   UNL A   1      32.833  30.424  27.104  1.00  0.00     0.202 C 
BRANCH   3   4
ATOM      4  C   UNL A   1      31.755  29.063  27.084  1.00  0.00     0.261 C 
BRANCH   4   5
ATOM      5  O   UNL A   1      31.620  27.493  26.137  1.00  0.00    -0.462 OA
BRANCH   5   6
ATOM      6  C   UNL A   1      32.370  26.630  25.171  1.00  0.00     0.329 C 
ATOM      7  O   UNL A   1      33.465  26.882  24.649  1.00  0.00    -0.250 OA
BRANCH   6   8
ATOM      8  C   UNL A   1      32.002  25.169  24.817  1.00  0.00     0.196 C 
BRANCH   8   9
ATOM      9  C   UNL A   1      31.533  25.182  23.024  1.00  0.00     0.019 C 
ATOM     10  C   UNL A   1      30.609  23.700  23.247  1.00  0.00     0.010 C 
BRANCH   9  11
ATOM     11  C   UNL A   1      32.626  25.895  21.224  1.00  0.00     0.002 C 
ATOM     12  C   UNL A   1      32.560  25.535  19.536  1.00  0.00     0.004 C 
ENDBRANCH   9  11
ENDBRANCH   8   9
BRANCH   8  13
ATOM     13  N   UNL A   1      31.102  24.535  25.755  1.00  0.00    -0.324 N 
ATOM     14  C   UNL A   1      31.357  23.529  26.607  1.00  0.00     0.315 C 
ATOM     15  H   UNL A   1      30.182  24.886  25.769  1.00  0.00     0.166 HD
ATOM     16  O   UNL A   1      30.587  23.347  27.551  1.00  0.00    -0.249 OA
ATOM     17  N   UNL A   1      32.396  22.692  26.453  1.00  0.00    -0.334 N 
ATOM     18  H   UNL A   1      32.433  21.980  27.132  1.00  0.00     0.165 HD
BRANCH  17  19
ATOM     19  C   UNL A   1      33.468  22.626  25.489  1.00  0.00     0.153 C 
BRANCH  19  20
ATOM     20  C   UNL A   1      33.724  21.244  24.994  1.00  0.00    -0.029 A 
ATOM     21  C   UNL A   1      32.354  20.392  24.194  1.00  0.00     0.006 A 
ATOM     22  C   UNL A   1      35.306  20.395  25.269  1.00  0.00     0.006 A 
ATOM     23  C   UNL A   1      32.555  18.732  23.581  1.00  0.00     0.004 A 
ATOM     24  C   UNL A   1      35.505  18.709  24.646  1.00  0.00     0.004 A 
ATOM     25  C   UNL A   1      34.098  17.864  23.861  1.00  0.00    -0.051 A 
ATOM     26  C   UNL A   1      34.133  16.410  23.498  1.00  0.00     0.044 C 
ENDBRANCH  19  20
ENDBRANCH  17  19
ENDBRANCH   8  13
ENDBRANCH   6   8
ENDBRANCH   5   6
ENDBRANCH   4   5
ENDBRANCH   3   4
ENDBRANCH   2   3
ENDBRANCH   1   2
BRANCH   1  27
ATOM     27  C   UNL A   1      33.585  34.126  28.168  1.00  0.00     0.188 C 
BRANCH  27  28
ATOM     28  O   UNL A   1      33.260  33.931  29.525  1.00  0.00    -0.376 OA
BRANCH  28  29
ATOM     29  C   UNL A   1      34.139  34.464  30.477  1.00  0.00     0.202 C 
BRANCH  29  30
ATOM     30  C   UNL A   1      34.808  33.380  31.327  1.00  0.00     0.261 C 
BRANCH  30  31
ATOM     31  O   UNL A   1      35.279  32.237  30.562  1.00  0.00    -0.460 OA
BRANCH  31  32
ATOM     32  C   UNL A   1      36.420  32.347  29.777  1.00  0.00     0.338 C 
ATOM     33  O   UNL A   1      36.822  33.421  29.370  1.00  0.00    -0.246 OA
BRANCH  32  34
ATOM     34  C   UNL A   1      37.177  31.049  29.735  1.00  0.00     0.060 A 
ATOM     35  C   UNL A   1      37.484  30.104  30.730  1.00  0.00     0.016 A 
ATOM     36  C   UNL A   1      37.787  30.838  28.566  1.00  0.00     0.016 A 
ATOM     37  C   UNL A   1      38.629  29.166  30.648  1.00  0.00     0.010 A 
ATOM     38  C   UNL A   1      38.986  30.156  28.647  1.00  0.00     0.010 A 
ATOM     39  C   UNL A   1      39.566  29.232  29.615  1.00  0.00    -0.014 A 
BRANCH  39  40
ATOM     40  C   UNL A   1      41.128  28.340  29.493  1.00  0.00     0.031 A 
ATOM     41  C   UNL A   1      41.561  26.710  28.785  1.00  0.00     0.074 A 
ATOM     42  C   UNL A   1      42.207  28.864  30.113  1.00  0.00     0.049 A 
ATOM     43  N   UNL A   1      42.376  25.833  29.340  1.00  0.00    -0.248 NA
ATOM     44  C   UNL A   1      40.930  25.931  27.607  1.00  0.00     0.031 C 
ATOM     45  C   UNL A   1      43.596  28.423  30.012  1.00  0.00     0.029 A 
ATOM     46  N   UNL A   1      42.258  29.949  30.987  1.00  0.00    -0.354 N 
ATOM     47  C   UNL A   1      42.374  24.630  28.590  1.00  0.00     0.074 A 
ATOM     48  C   UNL A   1      41.353  24.695  27.636  1.00  0.00     0.031 C 
ATOM     49  C   UNL A   1      44.309  29.027  30.976  1.00  0.00     0.029 A 
ATOM     50  C   UNL A   1      43.367  29.748  31.812  1.00  0.00     0.049 A 
ATOM     51  H   UNL A   1      41.633  30.709  31.018  1.00  0.00     0.167 HD
ATOM     52  C   UNL A   1      43.343  23.680  28.605  1.00  0.00     0.037 A 
ATOM     53  C   UNL A   1      43.198  29.603  33.153  1.00  0.00     0.037 A 
ATOM     54  C   UNL A   1      44.354  24.118  29.515  1.00  0.00     0.049 A 
ATOM     55  C   UNL A   1      43.738  28.273  33.618  1.00  0.00     0.074 A 
ATOM     56  C   UNL A   1      45.423  24.975  29.328  1.00  0.00     0.029 A 
ATOM     57  N   UNL A   1      44.039  24.138  30.861  1.00  0.00    -0.354 N 
ATOM     58  N   UNL A   1      43.866  27.219  32.853  1.00  0.00    -0.248 NA
ATOM     59  C   UNL A   1      44.285  28.062  34.952  1.00  0.00     0.031 C 
ATOM     60  C   UNL A   1      45.731  25.547  30.586  1.00  0.00     0.029 A 
ATOM     61  C   UNL A   1      44.887  24.989  31.533  1.00  0.00     0.049 A 
ATOM     62  H   UNL A   1      43.313  23.618  31.278  1.00  0.00     0.167 HD
ATOM     63  C   UNL A   1      44.525  26.229  33.538  1.00  0.00     0.074 A 
ATOM     64  C   UNL A   1      44.768  26.812  34.844  1.00  0.00     0.031 C 
ATOM     65  C   UNL A   1      44.854  25.025  32.981  1.00  0.00     0.037 A 
BRANCH  52  66
ATOM     66  C   UNL A   1      43.472  22.675  27.458  1.00  0.00     0.058 A 
ATOM     67  C   UNL A   1      42.665  21.525  27.428  1.00  0.00     0.135 A 
ATOM     68  C   UNL A   1      44.470  22.721  26.449  1.00  0.00     0.135 A 
ATOM     69  F   UNL A   1      41.646  21.376  28.286  1.00  0.00    -0.206 F 
ATOM     70  C   UNL A   1      42.892  20.458  26.549  1.00  0.00     0.059 A 
ATOM     71  C   UNL A   1      44.761  21.636  25.603  1.00  0.00     0.059 A 
ATOM     72  F   UNL A   1      45.236  23.815  26.291  1.00  0.00    -0.206 F 
ATOM     73  C   UNL A   1      43.961  20.503  25.662  1.00  0.00     0.060 A 
BRANCH  73  74
ATOM     74  S   UNL A   1      44.288  19.063  24.617  1.00  0.00     0.124 S 
ATOM     75  O   UNL A   1      43.057  18.288  24.751  1.00  0.00    -0.237 OA
ATOM     76  O   UNL A   1      44.510  19.680  23.314  1.00  0.00    -0.237 OA
ATOM     77  O   UNL A   1      45.465  18.453  25.231  1.00  0.00    -0.744 OA
ENDBRANCH  73  74
ENDBRANCH  52  66
BRANCH  53  78
ATOM     78  C   UNL A   1      42.068  30.423  33.701  1.00  0.00     0.058 A 
ATOM     79  C   UNL A   1      42.303  31.810  33.874  1.00  0.00     0.135 A 
ATOM     80  C   UNL A   1      40.726  30.015  33.705  1.00  0.00     0.135 A 
ATOM     81  F   UNL A   1      43.563  32.279  33.888  1.00  0.00    -0.206 F 
ATOM     82  C   UNL A   1      41.278  32.751  33.904  1.00  0.00     0.059 A 
ATOM     83  C   UNL A   1      39.672  30.948  33.766  1.00  0.00     0.059 A 
ATOM     84  F   UNL A   1      40.412  28.723  33.528  1.00  0.00    -0.206 F 
ATOM     85  C   UNL A   1      39.961  32.316  33.813  1.00  0.00     0.060 A 
BRANCH  85  86
ATOM     86  S   UNL A   1      38.687  33.587  33.584  1.00  0.00     0.124 S 
ATOM     87  O   UNL A   1      39.257  34.729  34.288  1.00  0.00    -0.237 OA
ATOM     88  O   UNL A   1      38.650  33.706  32.126  1.00  0.00    -0.237 OA
ATOM     89  O   UNL A   1      37.507  32.988  34.198  1.00  0.00    -0.744 OA
ENDBRANCH  85  86
ENDBRANCH  53  78
BRANCH  65  90
ATOM     90  C   UNL A   1      45.266  23.752  33.702  1.00  0.00     0.058 A 
ATOM     91  C   UNL A   1      46.544  23.530  34.232  1.00  0.00     0.135 A 
ATOM     92  C   UNL A   1      44.300  22.757  34.035  1.00  0.00     0.135 A 
ATOM     93  F   UNL A   1      47.523  24.435  34.119  1.00  0.00    -0.206 F 
ATOM     94  C   UNL A   1      46.864  22.379  34.952  1.00  0.00     0.059 A 
ATOM     95  C   UNL A   1      44.576  21.653  34.830  1.00  0.00     0.059 A 
ATOM     96  F   UNL A   1      43.029  22.817  33.610  1.00  0.00    -0.206 F 
ATOM     97  C   UNL A   1      45.874  21.449  35.250  1.00  0.00     0.060 A 
BRANCH  97  98
ATOM     98  S   UNL A   1      46.286  19.988  36.209  1.00  0.00     0.124 S 
ATOM     99  O   UNL A   1      47.722  19.885  35.970  1.00  0.00    -0.237 OA
ATOM    100  O   UNL A   1      45.896  20.376  37.561  1.00  0.00    -0.237 OA
ATOM    101  O   UNL A   1      45.467  18.943  35.603  1.00  0.00    -0.744 OA
ENDBRANCH  97  98
ENDBRANCH  65  90
ENDBRANCH  39  40
ENDBRANCH  32  34
ENDBRANCH  31  32
ENDBRANCH  30  31
ENDBRANCH  29  30
ENDBRANCH  28  29
ENDBRANCH  27  28
ENDBRANCH   1  27
TORSDOF 25
ENDMDL
MODEL 2
REMARK VINA RESULT:     -11.6      2.008      2.965
REMARK SMILES CC[C@@H](C)[C@H](NC(=O)NCc1ccc(C)cc1)C(=O)OCCOCCOCCOC(=O)c1ccc(-c2c3nc(c(-c4c(F)cc(S(=O)(=O)[O-])cc4F)c4ccc([nH]4)c(-c4c(F)cc(S(=O)(=O)[O-])cc4F)c4nc(c(-c5c(F)cc(S(=O)(=O)[O-])cc5F)c5ccc2[nH]5)C=C4)C=C3)cc1
REMARK SMILES IDX 24 1 23 2 22 3 21 4 20 5 18 6 19 7 5 8 3 9 4 10 2 11 1 12
REMARK SMILES IDX 6 13 7 14 8 16 9 17 10 19 11 20 12 21 17 22 13 23 16 24
REMARK SMILES IDX 14 25 15 26 25 27 26 28 27 29 28 30 29 31 30 32 31 33 32 34
REMARK SMILES IDX 33 35 97 36 34 37 96 38 35 39 36 40 37 41 90 42 38 43 95 44
REMARK SMILES IDX 89 45 91 46 39 47 94 48 88 49 87 50 40 52 74 53 53 54 73 55
REMARK SMILES IDX 54 56 57 57 72 58 92 59 55 60 56 61 71 63 93 64 58 65 41 66
REMARK SMILES IDX 42 67 51 68 43 69 44 70 50 71 52 72 45 73 46 74 47 75 48 76
REMARK SMILES IDX 49 77 75 78 76 79 85 80 77 81 78 82 84 83 86 84 79 85 80 86
REMARK SMILES IDX 81 87 82 88 83 89 59 90 60 91 69 92 61 93 62 94 68 95 70 96
REMARK SMILES IDX 63 97 64 98 65 99 66 100 67 101
REMARK H PARENT 6 15 9 18 91 51 57 62
REMARK Flexibility Score: inf
ROOT
ATOM      1  C   UNL A   1      35.296  32.189  28.060  1.00  0.00     0.188 C 
ENDROOT
BRANCH   1   2
ATOM      2  O   UNL A   1      34.308  31.149  28.155  1.00  0.00    -0.376 OA
BRANCH   2   3
ATOM      3  C   UNL A   1      34.294  29.920  27.404  1.00  0.00     0.202 C 
BRANCH   3   4
ATOM      4  C   UNL A   1      33.096  28.711  27.061  1.00  0.00     0.261 C 
BRANCH   4   5
ATOM      5  O   UNL A   1      32.950  27.275  25.922  1.00  0.00    -0.462 OA
BRANCH   5   6
ATOM      6  C   UNL A   1      33.004  26.910  24.472  1.00  0.00     0.329 C 
ATOM      7  O   UNL A   1      33.117  27.689  23.516  1.00  0.00    -0.250 OA
BRANCH   6   8
ATOM      8  C   UNL A   1      33.140  25.468  23.925  1.00  0.00     0.196 C 
BRANCH   8   9
ATOM      9  C   UNL A   1      34.159  24.545  25.169  1.00  0.00     0.019 C 
ATOM     10  C   UNL A   1      35.346  24.166  23.925  1.00  0.00     0.010 C 
BRANCH   9  11
ATOM     11  C   UNL A   1      33.578  23.362  26.960  1.00  0.00     0.002 C 
ATOM     12  C   UNL A   1      34.180  21.938  27.728  1.00  0.00     0.004 C 
ENDBRANCH   9  11
ENDBRANCH   8   9
BRANCH   8  13
ATOM     13  N   UNL A   1      33.524  25.390  22.533  1.00  0.00    -0.324 N 
ATOM     14  C   UNL A   1      33.062  24.557  21.586  1.00  0.00     0.315 C 
ATOM     15  H   UNL A   1      34.215  26.028  22.244  1.00  0.00     0.166 HD
ATOM     16  O   UNL A   1      33.248  24.850  20.403  1.00  0.00    -0.249 OA
ATOM     17  N   UNL A   1      32.438  23.403  21.873  1.00  0.00    -0.334 N 
ATOM     18  H   UNL A   1      32.191  22.880  21.077  1.00  0.00     0.165 HD
BRANCH  17  19
ATOM     19  C   UNL A   1      32.059  22.776  23.116  1.00  0.00     0.153 C 
BRANCH  19  20
ATOM     20  C   UNL A   1      32.388  21.324  23.162  1.00  0.00    -0.029 A 
ATOM     21  C   UNL A   1      33.502  20.775  24.468  1.00  0.00     0.006 A 
ATOM     22  C   UNL A   1      31.793  20.156  21.906  1.00  0.00     0.006 A 
ATOM     23  C   UNL A   1      33.968  19.062  24.599  1.00  0.00     0.004 A 
ATOM     24  C   UNL A   1      32.270  18.417  22.041  1.00  0.00     0.004 A 
ATOM     25  C   UNL A   1      33.413  17.895  23.357  1.00  0.00    -0.051 A 
ATOM     26  C   UNL A   1      33.999  16.516  23.413  1.00  0.00     0.044 C 
ENDBRANCH  19  20
ENDBRANCH  17  19
ENDBRANCH   8  13
ENDBRANCH   6   8
ENDBRANCH   5   6
ENDBRANCH   4   5
ENDBRANCH   3   4
ENDBRANCH   2   3
ENDBRANCH   1   2
BRANCH   1  27
ATOM     27  C   UNL A   1      35.208  33.420  28.936  1.00  0.00     0.188 C 
BRANCH  27  28
ATOM     28  O   UNL A   1      34.679  33.034  30.183  1.00  0.00    -0.376 OA
BRANCH  28  29
ATOM     29  C   UNL A   1      34.453  34.048  31.124  1.00  0.00     0.202 C 
BRANCH  29  30
ATOM     30  C   UNL A   1      35.092  33.740  32.481  1.00  0.00     0.261 C 
BRANCH  30  31
ATOM     31  O   UNL A   1      36.158  32.754  32.422  1.00  0.00    -0.460 OA
BRANCH  31  32
ATOM     32  C   UNL A   1      37.422  33.120  31.979  1.00  0.00     0.338 C 
ATOM     33  O   UNL A   1      37.835  34.261  32.081  1.00  0.00    -0.246 OA
BRANCH  32  34
ATOM     34  C   UNL A   1      38.244  31.913  31.622  1.00  0.00     0.060 A 
ATOM     35  C   UNL A   1      38.323  30.627  32.185  1.00  0.00     0.016 A 
ATOM     36  C   UNL A   1      39.167  32.167  30.690  1.00  0.00     0.016 A 
ATOM     37  C   UNL A   1      39.505  29.742  32.048  1.00  0.00     0.010 A 
ATOM     38  C   UNL A   1      40.338  31.445  30.817  1.00  0.00     0.010 A 
ATOM     39  C   UNL A   1      40.686  30.173  31.440  1.00  0.00    -0.014 A 
BRANCH  39  40
ATOM     40  C   UNL A   1      42.275  29.322  31.405  1.00  0.00     0.031 A 
ATOM     41  C   UNL A   1      42.860  27.848  30.493  1.00  0.00     0.074 A 
ATOM     42  C   UNL A   1      43.229  29.728  32.268  1.00  0.00     0.049 A 
ATOM     43  N   UNL A   1      43.608  26.888  31.002  1.00  0.00    -0.248 NA
ATOM     44  C   UNL A   1      42.440  27.295  29.111  1.00  0.00     0.031 C 
ATOM     45  C   UNL A   1      44.631  29.316  32.307  1.00  0.00     0.029 A 
ATOM     46  N   UNL A   1      43.113  30.636  33.319  1.00  0.00    -0.354 N 
ATOM     47  C   UNL A   1      43.757  25.841  30.058  1.00  0.00     0.074 A 
ATOM     48  C   UNL A   1      42.892  26.075  28.984  1.00  0.00     0.031 C 
ATOM     49  C   UNL A   1      45.169  29.737  33.462  1.00  0.00     0.029 A 
ATOM     50  C   UNL A   1      44.089  30.292  34.258  1.00  0.00     0.049 A 
ATOM     51  H   UNL A   1      42.468  31.377  33.388  1.00  0.00     0.167 HD
ATOM     52  C   UNL A   1      44.741  24.907  30.053  1.00  0.00     0.037 A 
ATOM     53  C   UNL A   1      43.723  29.906  35.508  1.00  0.00     0.037 A 
ATOM     54  C   UNL A   1      45.588  25.174  31.173  1.00  0.00     0.049 A 
ATOM     55  C   UNL A   1      44.226  28.514  35.806  1.00  0.00     0.074 A 
ATOM     56  C   UNL A   1      46.645  26.054  31.311  1.00  0.00     0.029 A 
ATOM     57  N   UNL A   1      45.071  24.949  32.434  1.00  0.00    -0.354 N 
ATOM     58  N   UNL A   1      44.502  27.617  34.894  1.00  0.00    -0.248 NA
ATOM     59  C   UNL A   1      44.570  28.066  37.149  1.00  0.00     0.031 C 
ATOM     60  C   UNL A   1      46.741  26.389  32.683  1.00  0.00     0.029 A 
ATOM     61  C   UNL A   1      45.780  25.667  33.372  1.00  0.00     0.049 A 
ATOM     62  H   UNL A   1      44.306  24.361  32.634  1.00  0.00     0.167 HD
ATOM     63  C   UNL A   1      45.079  26.522  35.485  1.00  0.00     0.074 A 
ATOM     64  C   UNL A   1      45.102  26.858  36.896  1.00  0.00     0.031 C 
ATOM     65  C   UNL A   1      45.526  25.439  34.780  1.00  0.00     0.037 A 
BRANCH  52  66
ATOM     66  C   UNL A   1      45.074  24.127  28.779  1.00  0.00     0.058 A 
ATOM     67  C   UNL A   1      46.168  24.504  27.982  1.00  0.00     0.135 A 
ATOM     68  C   UNL A   1      44.268  23.098  28.224  1.00  0.00     0.135 A 
ATOM     69  F   UNL A   1      47.047  25.421  28.408  1.00  0.00    -0.206 F 
ATOM     70  C   UNL A   1      46.387  23.991  26.697  1.00  0.00     0.059 A 
ATOM     71  C   UNL A   1      44.425  22.619  26.912  1.00  0.00     0.059 A 
ATOM     72  F   UNL A   1      43.256  22.563  28.931  1.00  0.00    -0.206 F 
ATOM     73  C   UNL A   1      45.494  23.075  26.152  1.00  0.00     0.060 A 
BRANCH  73  74
ATOM     74  S   UNL A   1      45.748  22.516  24.450  1.00  0.00     0.124 S 
ATOM     75  O   UNL A   1      44.386  22.229  24.005  1.00  0.00    -0.237 OA
ATOM     76  O   UNL A   1      46.382  23.679  23.842  1.00  0.00    -0.237 OA
ATOM     77  O   UNL A   1      46.603  21.341  24.599  1.00  0.00    -0.744 OA
ENDBRANCH  73  74
ENDBRANCH  52  66
BRANCH  53  78
ATOM     78  C   UNL A   1      42.498  30.610  36.011  1.00  0.00     0.058 A 
ATOM     79  C   UNL A   1      42.670  31.925  36.510  1.00  0.00     0.135 A 
ATOM     80  C   UNL A   1      41.185  30.231  35.697  1.00  0.00     0.135 A 
ATOM     81  F   UNL A   1      43.897  32.361  36.841  1.00  0.00    -0.206 F 
ATOM     82  C   UNL A   1      41.635  32.855  36.558  1.00  0.00     0.059 A 
ATOM     83  C   UNL A   1      40.116  31.146  35.768  1.00  0.00     0.059 A 
ATOM     84  F   UNL A   1      40.934  29.011  35.201  1.00  0.00    -0.206 F 
ATOM     85  C   UNL A   1      40.363  32.470  36.152  1.00  0.00     0.060 A 
BRANCH  85  86
ATOM     86  S   UNL A   1      39.121  33.781  35.977  1.00  0.00     0.124 S 
ATOM     87  O   UNL A   1      39.738  34.664  34.995  1.00  0.00    -0.237 OA
ATOM     88  O   UNL A   1      37.963  33.025  35.500  1.00  0.00    -0.237 OA
ATOM     89  O   UNL A   1      39.012  34.316  37.330  1.00  0.00    -0.744 OA
ENDBRANCH  85  86
ENDBRANCH  53  78
BRANCH  65  90
ATOM     90  C   UNL A   1      45.862  24.058  35.317  1.00  0.00     0.058 A 
ATOM     91  C   UNL A   1      47.088  23.723  35.907  1.00  0.00     0.135 A 
ATOM     92  C   UNL A   1      44.861  23.045  35.403  1.00  0.00     0.135 A 
ATOM     93  F   UNL A   1      48.082  24.611  36.023  1.00  0.00    -0.206 F 
ATOM     94  C   UNL A   1      47.334  22.465  36.456  1.00  0.00     0.059 A 
ATOM     95  C   UNL A   1      45.057  21.822  36.029  1.00  0.00     0.059 A 
ATOM     96  F   UNL A   1      43.631  23.203  34.891  1.00  0.00    -0.206 F 
ATOM     97  C   UNL A   1      46.313  21.523  36.516  1.00  0.00     0.060 A 
BRANCH  97  98
ATOM     98  S   UNL A   1      46.626  19.917  37.257  1.00  0.00     0.124 S 
ATOM     99  O   UNL A   1      48.084  19.855  37.196  1.00  0.00    -0.237 OA
ATOM    100  O   UNL A   1      46.054  20.066  38.591  1.00  0.00    -0.237 OA
ATOM    101  O   UNL A   1      45.917  18.994  36.378  1.00  0.00    -0.744 OA
ENDBRANCH  97  98
ENDBRANCH  65  90
ENDBRANCH  39  40
ENDBRANCH  32  34
ENDBRANCH  31  32
ENDBRANCH  30  31
ENDBRANCH  29  30
ENDBRANCH  28  29
ENDBRANCH  27  28
ENDBRANCH   1  27
TORSDOF 25
ENDMDL
MODEL 3
REMARK VINA RESULT:     -11.6      5.420      9.378
REMARK SMILES CC[C@@H](C)[C@H](NC(=O)NCc1ccc(C)cc1)C(=O)OCCOCCOCCOC(=O)c1ccc(-c2c3nc(c(-c4c(F)cc(S(=O)(=O)[O-])cc4F)c4ccc([nH]4)c(-c4c(F)cc(S(=O)(=O)[O-])cc4F)c4nc(c(-c5c(F)cc(S(=O)(=O)[O-])cc5F)c5ccc2[nH]5)C=C4)C=C3)cc1
REMARK SMILES IDX 24 1 23 2 22 3 21 4 20 5 18 6 19 7 5 8 3 9 4 10 2 11 1 12
REMARK SMILES IDX 6 13 7 14 8 16 9 17 10 19 11 20 12 21 17 22 13 23 16 24
REMARK SMILES IDX 14 25 15 26 25 27 26 28 27 29 28 30 29 31 30 32 31 33 32 34
REMARK SMILES IDX 33 35 97 36 34 37 96 38 35 39 36 40 37 41 90 42 38 43 95 44
REMARK SMILES IDX 89 45 91 46 39 47 94 48 88 49 87 50 40 52 74 53 53 54 73 55
REMARK SMILES IDX 54 56 57 57 72 58 92 59 55 60 56 61 71 63 93 64 58 65 41 66
REMARK SMILES IDX 42 67 51 68 43 69 44 70 50 71 52 72 45 73 46 74 47 75 48 76
REMARK SMILES IDX 49 77 75 78 76 79 85 80 77 81 78 82 84 83 86 84 79 85 80 86
REMARK SMILES IDX 81 87 82 88 83 89 59 90 60 91 69 92 61 93 62 94 68 95 70 96
REMARK SMILES IDX 63 97 64 98 65 99 66 100 67 101
REMARK H PARENT 6 15 9 18 91 51 57 62
REMARK Flexibility Score: inf
ROOT
ATOM      1  C   UNL A   1      34.718  31.990  28.051  1.00  0.00     0.188 C 
ENDROOT
BRANCH   1   2
ATOM      2  O   UNL A   1      33.887  30.817  28.005  1.00  0.00    -0.376 OA
BRANCH   2   3
ATOM      3  C   UNL A   1      33.066  30.401  26.897  1.00  0.00     0.202 C 
BRANCH   3   4
ATOM      4  C   UNL A   1      31.798  29.234  26.686  1.00  0.00     0.261 C 
BRANCH   4   5
ATOM      5  O   UNL A   1      31.668  27.399  26.712  1.00  0.00    -0.462 OA
BRANCH   5   6
ATOM      6  C   UNL A   1      32.206  26.170  26.049  1.00  0.00     0.329 C 
ATOM      7  O   UNL A   1      33.348  25.705  26.166  1.00  0.00    -0.250 OA
BRANCH   6   8
ATOM      8  C   UNL A   1      31.355  25.144  25.261  1.00  0.00     0.196 C 
BRANCH   8   9
ATOM      9  C   UNL A   1      30.675  26.062  23.800  1.00  0.00     0.019 C 
ATOM     10  C   UNL A   1      31.659  25.082  22.718  1.00  0.00     0.010 C 
BRANCH   9  11
ATOM     11  C   UNL A   1      30.012  28.171  23.568  1.00  0.00     0.002 C 
ATOM     12  C   UNL A   1      29.906  29.277  22.246  1.00  0.00     0.004 C 
ENDBRANCH   9  11
ENDBRANCH   8   9
BRANCH   8  13
ATOM     13  N   UNL A   1      30.438  24.378  26.074  1.00  0.00    -0.324 N 
ATOM     14  C   UNL A   1      30.676  23.249  26.762  1.00  0.00     0.315 C 
ATOM     15  H   UNL A   1      29.520  24.728  26.130  1.00  0.00     0.166 HD
ATOM     16  O   UNL A   1      29.890  22.926  27.654  1.00  0.00    -0.249 OA
ATOM     17  N   UNL A   1      31.714  22.439  26.494  1.00  0.00    -0.334 N 
ATOM     18  H   UNL A   1      31.737  21.630  27.054  1.00  0.00     0.165 HD
BRANCH  17  19
ATOM     19  C   UNL A   1      32.801  22.518  25.548  1.00  0.00     0.153 C 
BRANCH  19  20
ATOM     20  C   UNL A   1      33.266  21.182  25.081  1.00  0.00    -0.029 A 
ATOM     21  C   UNL A   1      32.020  20.064  24.415  1.00  0.00     0.006 A 
ATOM     22  C   UNL A   1      34.990  20.640  25.262  1.00  0.00     0.006 A 
ATOM     23  C   UNL A   1      32.473  18.440  23.844  1.00  0.00     0.004 A 
ATOM     24  C   UNL A   1      35.446  18.989  24.682  1.00  0.00     0.004 A 
ATOM     25  C   UNL A   1      34.163  17.873  24.035  1.00  0.00    -0.051 A 
ATOM     26  C   UNL A   1      34.434  16.433  23.719  1.00  0.00     0.044 C 
ENDBRANCH  19  20
ENDBRANCH  17  19
ENDBRANCH   8  13
ENDBRANCH   6   8
ENDBRANCH   5   6
ENDBRANCH   4   5
ENDBRANCH   3   4
ENDBRANCH   2   3
ENDBRANCH   1   2
BRANCH   1  27
ATOM     27  C   UNL A   1      34.485  33.060  29.095  1.00  0.00     0.188 C 
BRANCH  27  28
ATOM     28  O   UNL A   1      35.673  33.216  29.836  1.00  0.00    -0.376 OA
BRANCH  28  29
ATOM     29  C   UNL A   1      36.287  32.051  30.315  1.00  0.00     0.202 C 
BRANCH  29  30
ATOM     30  C   UNL A   1      37.776  31.988  29.962  1.00  0.00     0.261 C 
BRANCH  30  31
ATOM     31  O   UNL A   1      38.059  31.287  28.721  1.00  0.00    -0.460 OA
BRANCH  31  32
ATOM     32  C   UNL A   1      38.014  29.899  28.678  1.00  0.00     0.338 C 
ATOM     33  O   UNL A   1      37.054  29.298  28.233  1.00  0.00    -0.246 OA
BRANCH  32  34
ATOM     34  C   UNL A   1      39.355  29.302  29.001  1.00  0.00     0.060 A 
ATOM     35  C   UNL A   1      39.978  28.990  30.223  1.00  0.00     0.016 A 
ATOM     36  C   UNL A   1      40.146  29.185  27.931  1.00  0.00     0.016 A 
ATOM     37  C   UNL A   1      41.447  28.885  30.392  1.00  0.00     0.010 A 
ATOM     38  C   UNL A   1      41.495  29.353  28.182  1.00  0.00     0.010 A 
ATOM     39  C   UNL A   1      42.336  29.205  29.365  1.00  0.00    -0.014 A 
BRANCH  39  40
ATOM     40  C   UNL A   1      44.128  29.363  29.473  1.00  0.00     0.031 A 
ATOM     41  C   UNL A   1      45.279  30.691  28.965  1.00  0.00     0.074 A 
ATOM     42  C   UNL A   1      44.833  28.295  29.903  1.00  0.00     0.049 A 
ATOM     43  N   UNL A   1      46.440  30.502  28.368  1.00  0.00    -0.248 NA
ATOM     44  C   UNL A   1      45.067  32.221  28.883  1.00  0.00     0.031 C 
ATOM     45  C   UNL A   1      46.254  28.238  30.236  1.00  0.00     0.029 A 
ATOM     46  N   UNL A   1      44.378  26.998  30.139  1.00  0.00    -0.354 N 
ATOM     47  C   UNL A   1      47.000  31.751  27.997  1.00  0.00     0.074 A 
ATOM     48  C   UNL A   1      46.044  32.751  28.196  1.00  0.00     0.031 C 
ATOM     49  C   UNL A   1      46.615  26.952  30.362  1.00  0.00     0.029 A 
ATOM     50  C   UNL A   1      45.473  26.150  29.961  1.00  0.00     0.049 A 
ATOM     51  H   UNL A   1      43.462  26.731  30.381  1.00  0.00     0.167 HD
ATOM     52  C   UNL A   1      48.311  31.990  27.739  1.00  0.00     0.037 A 
ATOM     53  C   UNL A   1      45.450  25.205  28.985  1.00  0.00     0.037 A 
ATOM     54  C   UNL A   1      49.011  30.756  27.907  1.00  0.00     0.049 A 
ATOM     55  C   UNL A   1      46.591  25.407  28.018  1.00  0.00     0.074 A 
ATOM     56  C   UNL A   1      49.512  30.153  29.046  1.00  0.00     0.029 A 
ATOM     57  N   UNL A   1      48.778  29.758  26.979  1.00  0.00    -0.354 N 
ATOM     58  N   UNL A   1      47.191  26.551  27.812  1.00  0.00    -0.248 NA
ATOM     59  C   UNL A   1      47.222  24.311  27.296  1.00  0.00     0.031 C 
ATOM     60  C   UNL A   1      49.547  28.758  28.806  1.00  0.00     0.029 A 
ATOM     61  C   UNL A   1      49.124  28.533  27.506  1.00  0.00     0.049 A 
ATOM     62  H   UNL A   1      48.418  29.902  26.074  1.00  0.00     0.167 HD
ATOM     63  C   UNL A   1      48.277  26.362  26.995  1.00  0.00     0.074 A 
ATOM     64  C   UNL A   1      48.252  24.941  26.706  1.00  0.00     0.031 C 
ATOM     65  C   UNL A   1      49.134  27.368  26.644  1.00  0.00     0.037 A 
BRANCH  52  66
ATOM     66  C   UNL A   1      48.873  33.412  27.797  1.00  0.00     0.058 A 
ATOM     67  C   UNL A   1      49.279  33.966  29.023  1.00  0.00     0.135 A 
ATOM     68  C   UNL A   1      48.896  34.320  26.705  1.00  0.00     0.135 A 
ATOM     69  F   UNL A   1      49.362  33.210  30.126  1.00  0.00    -0.206 F 
ATOM     70  C   UNL A   1      49.577  35.325  29.185  1.00  0.00     0.059 A 
ATOM     71  C   UNL A   1      49.123  35.699  26.854  1.00  0.00     0.059 A 
ATOM     72  F   UNL A   1      48.641  33.895  25.455  1.00  0.00    -0.206 F 
ATOM     73  C   UNL A   1      49.464  36.194  28.106  1.00  0.00     0.060 A 
BRANCH  73  74
ATOM     74  S   UNL A   1      49.751  37.961  28.375  1.00  0.00     0.124 S 
ATOM     75  O   UNL A   1      48.394  38.486  28.506  1.00  0.00    -0.237 OA
ATOM     76  O   UNL A   1      50.549  37.954  29.595  1.00  0.00    -0.237 OA
ATOM     77  O   UNL A   1      50.455  38.381  27.166  1.00  0.00    -0.744 OA
ENDBRANCH  73  74
ENDBRANCH  52  66
BRANCH  53  78
ATOM     78  C   UNL A   1      44.085  24.630  28.748  1.00  0.00     0.058 A 
ATOM     79  C   UNL A   1      43.480  24.900  27.496  1.00  0.00     0.135 A 
ATOM     80  C   UNL A   1      43.532  23.576  29.490  1.00  0.00     0.135 A 
ATOM     81  F   UNL A   1      43.947  25.900  26.727  1.00  0.00    -0.206 F 
ATOM     82  C   UNL A   1      42.490  24.091  26.945  1.00  0.00     0.059 A 
ATOM     83  C   UNL A   1      42.508  22.763  28.966  1.00  0.00     0.059 A 
ATOM     84  F   UNL A   1      44.055  23.239  30.678  1.00  0.00    -0.206 F 
ATOM     85  C   UNL A   1      42.031  22.999  27.672  1.00  0.00     0.060 A 
BRANCH  85  86
ATOM     86  S   UNL A   1      40.946  21.830  26.807  1.00  0.00     0.124 S 
ATOM     87  O   UNL A   1      40.753  20.787  27.806  1.00  0.00    -0.237 OA
ATOM     88  O   UNL A   1      39.775  22.662  26.535  1.00  0.00    -0.237 OA
ATOM     89  O   UNL A   1      41.735  21.450  25.639  1.00  0.00    -0.744 OA
ENDBRANCH  85  86
ENDBRANCH  53  78
BRANCH  65  90
ATOM     90  C   UNL A   1      50.145  27.369  25.510  1.00  0.00     0.058 A 
ATOM     91  C   UNL A   1      51.525  27.204  25.690  1.00  0.00     0.135 A 
ATOM     92  C   UNL A   1      49.716  27.372  24.150  1.00  0.00     0.135 A 
ATOM     93  F   UNL A   1      52.066  27.052  26.904  1.00  0.00    -0.206 F 
ATOM     94  C   UNL A   1      52.415  27.137  24.618  1.00  0.00     0.059 A 
ATOM     95  C   UNL A   1      50.576  27.211  23.072  1.00  0.00     0.059 A 
ATOM     96  F   UNL A   1      48.429  27.518  23.801  1.00  0.00    -0.206 F 
ATOM     97  C   UNL A   1      51.932  27.137  23.314  1.00  0.00     0.060 A 
BRANCH  97  98
ATOM     98  S   UNL A   1      53.081  27.013  21.940  1.00  0.00     0.124 S 
ATOM     99  O   UNL A   1      52.466  25.952  21.149  1.00  0.00    -0.237 OA
ATOM    100  O   UNL A   1      53.026  28.350  21.358  1.00  0.00    -0.237 OA
ATOM    101  O   UNL A   1      54.345  26.670  22.585  1.00  0.00    -0.744 OA
ENDBRANCH  97  98
ENDBRANCH  65  90
ENDBRANCH  39  40
ENDBRANCH  32  34
ENDBRANCH  31  32
ENDBRANCH  30  31
ENDBRANCH  29  30
ENDBRANCH  28  29
ENDBRANCH  27  28
ENDBRANCH   1  27
TORSDOF 25
ENDMDL
