MODEL 1
REMARK VINA RESULT:      -8.7      0.000      0.000
REMARK SMILES CCOC(=O)c1c(S(=O)(=O)N2CCC[C@@H](C(=O)OCCOCCOCCOC(=O)c3ccc(-c4c5nc(c(-c6c(F)cc(S(=O)(=O)[O-])cc6F)c6ccc([nH]6)c(-c6c(F)cc(S(=O)(=O)[O-])cc6F)c6nc(c(-c7c(F)cc(S(=O)(=O)[O-])cc7F)c7ccc4[nH]7)C=C6)C=C5)cc3)C2)c(C)n(C)c1C
REMARK SMILES IDX 22 1 21 2 20 3 19 4 18 5 16 6 17 7 15 8 11 9 12 10 96 11
REMARK SMILES IDX 13 12 14 13 8 14 9 15 10 16 7 17 6 18 101 19 97 20 99 21
REMARK SMILES IDX 102 22 98 23 100 24 4 25 5 26 3 27 2 28 1 29 23 30 24 31
REMARK SMILES IDX 25 32 26 33 27 34 28 35 29 36 30 37 31 38 95 39 32 40 94 41
REMARK SMILES IDX 33 42 34 43 35 44 88 45 36 46 93 47 87 48 89 49 37 50 92 51
REMARK SMILES IDX 86 52 85 53 38 55 72 56 51 57 71 58 52 59 55 60 70 61 90 62
REMARK SMILES IDX 53 63 54 64 69 66 91 67 56 68 39 69 40 70 49 71 41 72 42 73
REMARK SMILES IDX 48 74 50 75 43 76 44 77 45 78 46 79 47 80 73 81 74 82 83 83
REMARK SMILES IDX 75 84 76 85 82 86 84 87 77 88 78 89 79 90 80 91 81 92 57 93
REMARK SMILES IDX 58 94 67 95 59 96 60 97 66 98 68 99 61 100 62 101 63 102
REMARK SMILES IDX 64 103 65 104
REMARK H PARENT 89 54 55 65
REMARK Flexibility Score: inf
ROOT
ATOM      1  C   UNL A   1      46.302  26.119  32.751  1.00  0.00     0.188 C 
ENDROOT
BRANCH   1   2
ATOM      2  O   UNL A   1      47.016  26.497  31.589  1.00  0.00    -0.376 OA
BRANCH   2   3
ATOM      3  C   UNL A   1      47.281  25.441  30.671  1.00  0.00     0.202 C 
BRANCH   3   4
ATOM      4  C   UNL A   1      48.178  25.805  29.477  1.00  0.00     0.261 C 
BRANCH   4   5
ATOM      5  O   UNL A   1      48.360  24.756  28.506  1.00  0.00    -0.463 OA
BRANCH   5   6
ATOM      6  C   UNL A   1      48.927  25.099  27.326  1.00  0.00     0.310 C 
ATOM      7  O   UNL A   1      50.120  25.328  27.186  1.00  0.00    -0.252 OA
BRANCH   6   8
ATOM      8  C   UNL A   1      47.896  25.156  26.209  1.00  0.00     0.114 C 
ATOM      9  N   UNL A   1      45.373  24.880  26.186  1.00  0.00    -0.197 NA
ATOM     10  C   UNL A   1      45.197  26.069  25.340  1.00  0.00     0.102 C 
ATOM     11  C   UNL A   1      46.661  24.492  26.780  1.00  0.00     0.117 C 
ATOM     12  C   UNL A   1      46.481  26.562  24.710  1.00  0.00     0.018 C 
ATOM     13  C   UNL A   1      47.623  26.571  25.707  1.00  0.00     0.018 C 
BRANCH   9  14
ATOM     14  S   UNL A   1      44.039  24.397  27.091  1.00  0.00     0.245 S 
ATOM     15  O   UNL A   1      42.942  25.240  26.656  1.00  0.00    -0.207 OA
ATOM     16  O   UNL A   1      44.408  24.321  28.490  1.00  0.00    -0.207 OA
BRANCH  14  17
ATOM     17  C   UNL A   1      43.456  22.787  26.722  1.00  0.00     0.118 A 
ATOM     18  C   UNL A   1      43.874  21.822  25.740  1.00  0.00     0.101 A 
ATOM     19  C   UNL A   1      43.073  20.690  25.943  1.00  0.00     0.030 A 
ATOM     20  C   UNL A   1      42.380  22.238  27.419  1.00  0.00     0.035 A 
ATOM     21  N   UNL A   1      42.173  20.967  26.946  1.00  0.00    -0.350 N 
ATOM     22  C   UNL A   1      43.138  19.348  25.283  1.00  0.00     0.065 C 
ATOM     23  C   UNL A   1      41.555  22.862  28.501  1.00  0.00     0.066 C 
ATOM     24  C   UNL A   1      41.179  20.053  27.471  1.00  0.00     0.149 C 
BRANCH  18  25
ATOM     25  C   UNL A   1      44.954  21.815  24.751  1.00  0.00     0.341 C 
ATOM     26  O   UNL A   1      44.861  22.345  23.655  1.00  0.00    -0.246 OA
BRANCH  25  27
ATOM     27  O   UNL A   1      46.121  21.312  25.263  1.00  0.00    -0.462 OA
BRANCH  27  28
ATOM     28  C   UNL A   1      46.655  20.123  24.649  1.00  0.00     0.230 C 
ATOM     29  C   UNL A   1      46.594  18.918  25.565  1.00  0.00     0.049 C 
ENDBRANCH  27  28
ENDBRANCH  25  27
ENDBRANCH  18  25
ENDBRANCH  14  17
ENDBRANCH   9  14
ENDBRANCH   6   8
ENDBRANCH   5   6
ENDBRANCH   4   5
ENDBRANCH   3   4
ENDBRANCH   2   3
ENDBRANCH   1   2
BRANCH   1  30
ATOM     30  C   UNL A   1      45.167  25.091  32.531  1.00  0.00     0.188 C 
BRANCH  30  31
ATOM     31  O   UNL A   1      44.935  24.025  33.444  1.00  0.00    -0.376 OA
BRANCH  31  32
ATOM     32  C   UNL A   1      43.677  23.370  33.511  1.00  0.00     0.202 C 
BRANCH  32  33
ATOM     33  C   UNL A   1      42.868  23.460  34.797  1.00  0.00     0.261 C 
BRANCH  33  34
ATOM     34  O   UNL A   1      43.083  24.687  35.476  1.00  0.00    -0.460 OA
BRANCH  34  35
ATOM     35  C   UNL A   1      42.107  25.602  35.303  1.00  0.00     0.338 C 
ATOM     36  O   UNL A   1      40.903  25.414  35.360  1.00  0.00    -0.246 OA
BRANCH  35  37
ATOM     37  C   UNL A   1      42.714  26.902  34.989  1.00  0.00     0.060 A 
ATOM     38  C   UNL A   1      42.944  27.734  36.084  1.00  0.00     0.016 A 
ATOM     39  C   UNL A   1      42.718  27.376  33.668  1.00  0.00     0.016 A 
ATOM     40  C   UNL A   1      42.799  29.082  35.887  1.00  0.00     0.010 A 
ATOM     41  C   UNL A   1      42.577  28.726  33.470  1.00  0.00     0.010 A 
ATOM     42  C   UNL A   1      42.466  29.525  34.603  1.00  0.00    -0.014 A 
BRANCH  42  43
ATOM     43  C   UNL A   1      41.785  30.796  34.528  1.00  0.00     0.031 A 
ATOM     44  C   UNL A   1      42.657  31.973  34.586  1.00  0.00     0.074 A 
ATOM     45  C   UNL A   1      40.443  30.861  34.437  1.00  0.00     0.049 A 
ATOM     46  N   UNL A   1      42.779  32.810  35.560  1.00  0.00    -0.248 NA
ATOM     47  C   UNL A   1      43.613  32.155  33.489  1.00  0.00     0.031 C 
ATOM     48  C   UNL A   1      39.489  29.787  34.146  1.00  0.00     0.029 A 
ATOM     49  N   UNL A   1      39.657  31.965  34.497  1.00  0.00    -0.354 N 
ATOM     50  C   UNL A   1      43.701  33.747  35.124  1.00  0.00     0.074 A 
ATOM     51  C   UNL A   1      44.296  33.214  33.922  1.00  0.00     0.031 C 
ATOM     52  C   UNL A   1      38.297  30.337  33.822  1.00  0.00     0.029 A 
ATOM     53  C   UNL A   1      38.379  31.778  34.000  1.00  0.00     0.049 A 
ATOM     54  H   UNL A   1      39.969  32.825  34.861  1.00  0.00     0.167 HD
ATOM     55  C   UNL A   1      43.765  34.994  35.661  1.00  0.00     0.037 A 
ATOM     56  C   UNL A   1      37.515  32.763  33.654  1.00  0.00     0.037 A 
ATOM     57  C   UNL A   1      43.029  35.101  36.891  1.00  0.00     0.049 A 
ATOM     58  C   UNL A   1      37.929  33.989  34.396  1.00  0.00     0.074 A 
ATOM     59  C   UNL A   1      43.129  34.498  38.131  1.00  0.00     0.029 A 
ATOM     60  N   UNL A   1      41.776  35.666  36.846  1.00  0.00    -0.354 N 
ATOM     61  N   UNL A   1      37.843  34.115  35.693  1.00  0.00    -0.248 NA
ATOM     62  C   UNL A   1      38.865  34.904  33.754  1.00  0.00     0.031 C 
ATOM     63  C   UNL A   1      41.787  34.342  38.582  1.00  0.00     0.029 A 
ATOM     64  C   UNL A   1      40.945  34.879  37.606  1.00  0.00     0.049 A 
ATOM     65  H   UNL A   1      41.521  36.483  36.359  1.00  0.00     0.167 HD
ATOM     66  C   UNL A   1      38.988  34.807  36.069  1.00  0.00     0.074 A 
ATOM     67  C   UNL A   1      39.524  35.353  34.826  1.00  0.00     0.031 C 
ATOM     68  C   UNL A   1      39.550  34.636  37.303  1.00  0.00     0.037 A 
BRANCH  55  69
ATOM     69  C   UNL A   1      44.236  36.185  34.889  1.00  0.00     0.058 A 
ATOM     70  C   UNL A   1      43.484  36.665  33.804  1.00  0.00     0.135 A 
ATOM     71  C   UNL A   1      45.537  36.717  35.034  1.00  0.00     0.135 A 
ATOM     72  F   UNL A   1      42.246  36.198  33.574  1.00  0.00    -0.206 F 
ATOM     73  C   UNL A   1      44.007  37.583  32.895  1.00  0.00     0.059 A 
ATOM     74  C   UNL A   1      46.056  37.675  34.176  1.00  0.00     0.059 A 
ATOM     75  F   UNL A   1      46.392  36.253  35.958  1.00  0.00    -0.206 F 
ATOM     76  C   UNL A   1      45.299  38.069  33.084  1.00  0.00     0.060 A 
BRANCH  76  77
ATOM     77  S   UNL A   1      46.025  39.156  31.846  1.00  0.00     0.124 S 
ATOM     78  O   UNL A   1      45.991  40.440  32.537  1.00  0.00    -0.237 OA
ATOM     79  O   UNL A   1      47.345  38.566  31.657  1.00  0.00    -0.237 OA
ATOM     80  O   UNL A   1      45.117  39.025  30.712  1.00  0.00    -0.744 OA
ENDBRANCH  76  77
ENDBRANCH  55  69
BRANCH  56  81
ATOM     81  C   UNL A   1      36.634  32.775  32.455  1.00  0.00     0.058 A 
ATOM     82  C   UNL A   1      35.250  32.988  32.568  1.00  0.00     0.135 A 
ATOM     83  C   UNL A   1      37.161  32.825  31.145  1.00  0.00     0.135 A 
ATOM     84  F   UNL A   1      34.664  32.990  33.776  1.00  0.00    -0.206 F 
ATOM     85  C   UNL A   1      34.445  33.268  31.457  1.00  0.00     0.059 A 
ATOM     86  C   UNL A   1      36.378  33.082  30.025  1.00  0.00     0.059 A 
ATOM     87  F   UNL A   1      38.478  32.720  30.915  1.00  0.00    -0.206 F 
ATOM     88  C   UNL A   1      35.023  33.328  30.188  1.00  0.00     0.060 A 
BRANCH  88  89
ATOM     89  S   UNL A   1      34.032  33.858  28.773  1.00  0.00     0.124 S 
ATOM     90  O   UNL A   1      32.849  34.411  29.423  1.00  0.00    -0.237 OA
ATOM     91  O   UNL A   1      34.915  34.821  28.123  1.00  0.00    -0.237 OA
ATOM     92  O   UNL A   1      33.815  32.619  28.028  1.00  0.00    -0.744 OA
ENDBRANCH  88  89
ENDBRANCH  56  81
BRANCH  68  93
ATOM     93  C   UNL A   1      38.752  33.890  38.342  1.00  0.00     0.058 A 
ATOM     94  C   UNL A   1      38.471  32.514  38.265  1.00  0.00     0.135 A 
ATOM     95  C   UNL A   1      38.392  34.550  39.526  1.00  0.00     0.135 A 
ATOM     96  F   UNL A   1      38.886  31.785  37.221  1.00  0.00    -0.206 F 
ATOM     97  C   UNL A   1      37.817  31.836  39.294  1.00  0.00     0.059 A 
ATOM     98  C   UNL A   1      37.766  33.886  40.580  1.00  0.00     0.059 A 
ATOM     99  F   UNL A   1      38.699  35.847  39.692  1.00  0.00    -0.206 F 
ATOM    100  C   UNL A   1      37.466  32.532  40.449  1.00  0.00     0.060 A 
BRANCH 100 101
ATOM    101  S   UNL A   1      36.693  31.633  41.812  1.00  0.00     0.124 S 
ATOM    102  O   UNL A   1      35.363  31.357  41.281  1.00  0.00    -0.237 OA
ATOM    103  O   UNL A   1      37.566  30.473  41.968  1.00  0.00    -0.237 OA
ATOM    104  O   UNL A   1      36.739  32.587  42.918  1.00  0.00    -0.744 OA
ENDBRANCH 100 101
ENDBRANCH  68  93
ENDBRANCH  42  43
ENDBRANCH  35  37
ENDBRANCH  34  35
ENDBRANCH  33  34
ENDBRANCH  32  33
ENDBRANCH  31  32
ENDBRANCH  30  31
ENDBRANCH   1  30
TORSDOF 25
ENDMDL
MODEL 2
REMARK VINA RESULT:      -8.4      8.433     14.907
REMARK SMILES CCOC(=O)c1c(S(=O)(=O)N2CCC[C@@H](C(=O)OCCOCCOCCOC(=O)c3ccc(-c4c5nc(c(-c6c(F)cc(S(=O)(=O)[O-])cc6F)c6ccc([nH]6)c(-c6c(F)cc(S(=O)(=O)[O-])cc6F)c6nc(c(-c7c(F)cc(S(=O)(=O)[O-])cc7F)c7ccc4[nH]7)C=C6)C=C5)cc3)C2)c(C)n(C)c1C
REMARK SMILES IDX 22 1 21 2 20 3 19 4 18 5 16 6 17 7 15 8 11 9 12 10 96 11
REMARK SMILES IDX 13 12 14 13 8 14 9 15 10 16 7 17 6 18 101 19 97 20 99 21
REMARK SMILES IDX 102 22 98 23 100 24 4 25 5 26 3 27 2 28 1 29 23 30 24 31
REMARK SMILES IDX 25 32 26 33 27 34 28 35 29 36 30 37 31 38 95 39 32 40 94 41
REMARK SMILES IDX 33 42 34 43 35 44 88 45 36 46 93 47 87 48 89 49 37 50 92 51
REMARK SMILES IDX 86 52 85 53 38 55 72 56 51 57 71 58 52 59 55 60 70 61 90 62
REMARK SMILES IDX 53 63 54 64 69 66 91 67 56 68 39 69 40 70 49 71 41 72 42 73
REMARK SMILES IDX 48 74 50 75 43 76 44 77 45 78 46 79 47 80 73 81 74 82 83 83
REMARK SMILES IDX 75 84 76 85 82 86 84 87 77 88 78 89 79 90 80 91 81 92 57 93
REMARK SMILES IDX 58 94 67 95 59 96 60 97 66 98 68 99 61 100 62 101 63 102
REMARK SMILES IDX 64 103 65 104
REMARK H PARENT 89 54 55 65
REMARK Flexibility Score: inf
ROOT
ATOM      1  C   UNL A   1      47.671  38.949  26.504  1.00  0.00     0.188 C 
ENDROOT
BRANCH   1   2
ATOM      2  O   UNL A   1      47.429  40.260  26.030  1.00  0.00    -0.376 OA
BRANCH   2   3
ATOM      3  C   UNL A   1      46.821  40.338  24.745  1.00  0.00     0.202 C 
BRANCH   3   4
ATOM      4  C   UNL A   1      46.723  41.746  24.138  1.00  0.00     0.261 C 
BRANCH   4   5
ATOM      5  O   UNL A   1      45.420  42.110  23.642  1.00  0.00    -0.463 OA
BRANCH   5   6
ATOM      6  C   UNL A   1      44.800  43.153  24.242  1.00  0.00     0.310 C 
ATOM      7  O   UNL A   1      45.228  43.717  25.238  1.00  0.00    -0.252 OA
BRANCH   6   8
ATOM      8  C   UNL A   1      43.517  43.529  23.516  1.00  0.00     0.114 C 
ATOM      9  N   UNL A   1      42.915  43.669  21.054  1.00  0.00    -0.197 NA
ATOM     10  C   UNL A   1      41.654  42.947  21.265  1.00  0.00     0.102 C 
ATOM     11  C   UNL A   1      43.943  43.828  22.094  1.00  0.00     0.117 C 
ATOM     12  C   UNL A   1      41.258  42.829  22.720  1.00  0.00     0.018 C 
ATOM     13  C   UNL A   1      42.440  42.450  23.591  1.00  0.00     0.018 C 
BRANCH   9  14
ATOM     14  S   UNL A   1      43.534  43.659  19.489  1.00  0.00     0.245 S 
ATOM     15  O   UNL A   1      42.643  42.815  18.719  1.00  0.00    -0.207 OA
ATOM     16  O   UNL A   1      44.958  43.390  19.536  1.00  0.00    -0.207 OA
BRANCH  14  17
ATOM     17  C   UNL A   1      43.426  45.195  18.654  1.00  0.00     0.118 A 
ATOM     18  C   UNL A   1      44.361  46.283  18.533  1.00  0.00     0.101 A 
ATOM     19  C   UNL A   1      43.745  47.231  17.705  1.00  0.00     0.030 A 
ATOM     20  C   UNL A   1      42.267  45.558  17.970  1.00  0.00     0.035 A 
ATOM     21  N   UNL A   1      42.484  46.783  17.390  1.00  0.00    -0.350 N 
ATOM     22  C   UNL A   1      44.293  48.510  17.152  1.00  0.00     0.065 C 
ATOM     23  C   UNL A   1      40.983  44.799  17.843  1.00  0.00     0.066 C 
ATOM     24  C   UNL A   1      41.528  47.463  16.539  1.00  0.00     0.149 C 
BRANCH  18  25
ATOM     25  C   UNL A   1      45.734  46.471  19.005  1.00  0.00     0.341 C 
ATOM     26  O   UNL A   1      46.702  45.953  18.471  1.00  0.00    -0.246 OA
BRANCH  25  27
ATOM     27  O   UNL A   1      45.818  47.425  19.985  1.00  0.00    -0.462 OA
BRANCH  27  28
ATOM     28  C   UNL A   1      47.054  48.160  20.089  1.00  0.00     0.230 C 
ATOM     29  C   UNL A   1      46.945  49.561  19.525  1.00  0.00     0.049 C 
ENDBRANCH  27  28
ENDBRANCH  25  27
ENDBRANCH  18  25
ENDBRANCH  14  17
ENDBRANCH   9  14
ENDBRANCH   6   8
ENDBRANCH   5   6
ENDBRANCH   4   5
ENDBRANCH   3   4
ENDBRANCH   2   3
ENDBRANCH   1   2
BRANCH   1  30
ATOM     30  C   UNL A   1      47.773  37.855  25.415  1.00  0.00     0.188 C 
BRANCH  30  31
ATOM     31  O   UNL A   1      47.884  36.477  25.746  1.00  0.00    -0.376 OA
BRANCH  31  32
ATOM     32  C   UNL A   1      49.096  35.763  25.548  1.00  0.00     0.202 C 
BRANCH  32  33
ATOM     33  C   UNL A   1      49.114  34.261  25.792  1.00  0.00     0.261 C 
BRANCH  33  34
ATOM     34  O   UNL A   1      48.445  33.909  26.992  1.00  0.00    -0.460 OA
BRANCH  34  35
ATOM     35  C   UNL A   1      47.377  33.104  26.823  1.00  0.00     0.338 C 
ATOM     36  O   UNL A   1      47.310  32.105  26.126  1.00  0.00    -0.246 OA
BRANCH  35  37
ATOM     37  C   UNL A   1      46.245  33.635  27.595  1.00  0.00     0.060 A 
ATOM     38  C   UNL A   1      46.556  34.089  28.875  1.00  0.00     0.016 A 
ATOM     39  C   UNL A   1      44.929  33.365  27.190  1.00  0.00     0.016 A 
ATOM     40  C   UNL A   1      45.611  33.909  29.851  1.00  0.00     0.010 A 
ATOM     41  C   UNL A   1      43.981  33.188  28.165  1.00  0.00     0.010 A 
ATOM     42  C   UNL A   1      44.397  33.317  29.486  1.00  0.00    -0.014 A 
BRANCH  42  43
ATOM     43  C   UNL A   1      43.682  32.637  30.539  1.00  0.00     0.031 A 
ATOM     44  C   UNL A   1      43.967  31.203  30.658  1.00  0.00     0.074 A 
ATOM     45  C   UNL A   1      42.805  33.293  31.322  1.00  0.00     0.049 A 
ATOM     46  N   UNL A   1      43.187  30.222  30.355  1.00  0.00    -0.248 NA
ATOM     47  C   UNL A   1      45.336  30.818  31.017  1.00  0.00     0.031 C 
ATOM     48  C   UNL A   1      42.599  34.738  31.458  1.00  0.00     0.029 A 
ATOM     49  N   UNL A   1      41.965  32.772  32.250  1.00  0.00    -0.354 N 
ATOM     50  C   UNL A   1      43.902  29.076  30.665  1.00  0.00     0.074 A 
ATOM     51  C   UNL A   1      45.261  29.492  30.914  1.00  0.00     0.031 C 
ATOM     52  C   UNL A   1      41.872  34.973  32.574  1.00  0.00     0.029 A 
ATOM     53  C   UNL A   1      41.470  33.700  33.150  1.00  0.00     0.049 A 
ATOM     54  H   UNL A   1      41.728  31.817  32.281  1.00  0.00     0.167 HD
ATOM     55  C   UNL A   1      43.286  27.889  30.903  1.00  0.00     0.037 A 
ATOM     56  C   UNL A   1      40.881  33.411  34.336  1.00  0.00     0.037 A 
ATOM     57  C   UNL A   1      41.909  27.891  30.488  1.00  0.00     0.049 A 
ATOM     58  C   UNL A   1      40.371  32.013  34.244  1.00  0.00     0.074 A 
ATOM     59  C   UNL A   1      41.269  28.047  29.273  1.00  0.00     0.029 A 
ATOM     60  N   UNL A   1      40.946  28.079  31.450  1.00  0.00    -0.354 N 
ATOM     61  N   UNL A   1      39.391  31.649  33.459  1.00  0.00    -0.248 NA
ATOM     62  C   UNL A   1      41.242  30.928  34.677  1.00  0.00     0.031 C 
ATOM     63  C   UNL A   1      40.071  28.760  29.569  1.00  0.00     0.029 A 
ATOM     64  C   UNL A   1      40.036  28.977  30.948  1.00  0.00     0.049 A 
ATOM     65  H   UNL A   1      40.913  27.649  32.335  1.00  0.00     0.167 HD
ATOM     66  C   UNL A   1      39.760  30.402  32.970  1.00  0.00     0.074 A 
ATOM     67  C   UNL A   1      40.854  29.967  33.833  1.00  0.00     0.031 C 
ATOM     68  C   UNL A   1      39.340  29.966  31.745  1.00  0.00     0.037 A 
BRANCH  55  69
ATOM     69  C   UNL A   1      43.861  26.844  31.805  1.00  0.00     0.058 A 
ATOM     70  C   UNL A   1      44.165  25.568  31.303  1.00  0.00     0.135 A 
ATOM     71  C   UNL A   1      43.890  26.987  33.211  1.00  0.00     0.135 A 
ATOM     72  F   UNL A   1      44.139  25.333  29.981  1.00  0.00    -0.206 F 
ATOM     73  C   UNL A   1      44.438  24.492  32.145  1.00  0.00     0.059 A 
ATOM     74  C   UNL A   1      44.216  25.945  34.065  1.00  0.00     0.059 A 
ATOM     75  F   UNL A   1      43.504  28.122  33.813  1.00  0.00    -0.206 F 
ATOM     76  C   UNL A   1      44.446  24.690  33.524  1.00  0.00     0.060 A 
BRANCH  76  77
ATOM     77  S   UNL A   1      44.672  23.279  34.619  1.00  0.00     0.124 S 
ATOM     78  O   UNL A   1      45.500  23.861  35.669  1.00  0.00    -0.237 OA
ATOM     79  O   UNL A   1      43.299  22.957  34.990  1.00  0.00    -0.237 OA
ATOM     80  O   UNL A   1      45.332  22.296  33.766  1.00  0.00    -0.744 OA
ENDBRANCH  76  77
ENDBRANCH  55  69
BRANCH  56  81
ATOM     81  C   UNL A   1      41.095  34.135  35.619  1.00  0.00     0.058 A 
ATOM     82  C   UNL A   1      42.235  33.905  36.406  1.00  0.00     0.135 A 
ATOM     83  C   UNL A   1      40.309  35.251  35.983  1.00  0.00     0.135 A 
ATOM     84  F   UNL A   1      43.061  32.887  36.117  1.00  0.00    -0.206 F 
ATOM     85  C   UNL A   1      42.593  34.749  37.465  1.00  0.00     0.059 A 
ATOM     86  C   UNL A   1      40.633  36.092  37.042  1.00  0.00     0.059 A 
ATOM     87  F   UNL A   1      39.242  35.623  35.260  1.00  0.00    -0.206 F 
ATOM     88  C   UNL A   1      41.792  35.851  37.766  1.00  0.00     0.060 A 
BRANCH  88  89
ATOM     89  S   UNL A   1      42.332  37.042  39.012  1.00  0.00     0.124 S 
ATOM     90  O   UNL A   1      43.128  36.206  39.904  1.00  0.00    -0.237 OA
ATOM     91  O   UNL A   1      43.074  38.010  38.211  1.00  0.00    -0.237 OA
ATOM     92  O   UNL A   1      41.077  37.538  39.574  1.00  0.00    -0.744 OA
ENDBRANCH  88  89
ENDBRANCH  56  81
BRANCH  68  93
ATOM     93  C   UNL A   1      38.252  30.748  31.055  1.00  0.00     0.058 A 
ATOM     94  C   UNL A   1      38.495  31.889  30.269  1.00  0.00     0.135 A 
ATOM     95  C   UNL A   1      36.943  30.243  31.059  1.00  0.00     0.135 A 
ATOM     96  F   UNL A   1      39.737  32.365  30.115  1.00  0.00    -0.206 F 
ATOM     97  C   UNL A   1      37.476  32.529  29.562  1.00  0.00     0.059 A 
ATOM     98  C   UNL A   1      35.916  30.847  30.337  1.00  0.00     0.059 A 
ATOM     99  F   UNL A   1      36.662  29.114  31.731  1.00  0.00    -0.206 F 
ATOM    100  C   UNL A   1      36.188  32.001  29.603  1.00  0.00     0.060 A 
BRANCH 100 101
ATOM    101  S   UNL A   1      34.888  32.784  28.622  1.00  0.00     0.124 S 
ATOM    102  O   UNL A   1      34.247  33.654  29.602  1.00  0.00    -0.237 OA
ATOM    103  O   UNL A   1      35.644  33.461  27.572  1.00  0.00    -0.237 OA
ATOM    104  O   UNL A   1      34.081  31.655  28.165  1.00  0.00    -0.744 OA
ENDBRANCH 100 101
ENDBRANCH  68  93
ENDBRANCH  42  43
ENDBRANCH  35  37
ENDBRANCH  34  35
ENDBRANCH  33  34
ENDBRANCH  32  33
ENDBRANCH  31  32
ENDBRANCH  30  31
ENDBRANCH   1  30
TORSDOF 25
ENDMDL
MODEL 3
REMARK VINA RESULT:      -8.4      8.207     14.247
REMARK SMILES CCOC(=O)c1c(S(=O)(=O)N2CCC[C@@H](C(=O)OCCOCCOCCOC(=O)c3ccc(-c4c5nc(c(-c6c(F)cc(S(=O)(=O)[O-])cc6F)c6ccc([nH]6)c(-c6c(F)cc(S(=O)(=O)[O-])cc6F)c6nc(c(-c7c(F)cc(S(=O)(=O)[O-])cc7F)c7ccc4[nH]7)C=C6)C=C5)cc3)C2)c(C)n(C)c1C
REMARK SMILES IDX 22 1 21 2 20 3 19 4 18 5 16 6 17 7 15 8 11 9 12 10 96 11
REMARK SMILES IDX 13 12 14 13 8 14 9 15 10 16 7 17 6 18 101 19 97 20 99 21
REMARK SMILES IDX 102 22 98 23 100 24 4 25 5 26 3 27 2 28 1 29 23 30 24 31
REMARK SMILES IDX 25 32 26 33 27 34 28 35 29 36 30 37 31 38 95 39 32 40 94 41
REMARK SMILES IDX 33 42 34 43 35 44 88 45 36 46 93 47 87 48 89 49 37 50 92 51
REMARK SMILES IDX 86 52 85 53 38 55 72 56 51 57 71 58 52 59 55 60 70 61 90 62
REMARK SMILES IDX 53 63 54 64 69 66 91 67 56 68 39 69 40 70 49 71 41 72 42 73
REMARK SMILES IDX 48 74 50 75 43 76 44 77 45 78 46 79 47 80 73 81 74 82 83 83
REMARK SMILES IDX 75 84 76 85 82 86 84 87 77 88 78 89 79 90 80 91 81 92 57 93
REMARK SMILES IDX 58 94 67 95 59 96 60 97 66 98 68 99 61 100 62 101 63 102
REMARK SMILES IDX 64 103 65 104
REMARK H PARENT 89 54 55 65
REMARK Flexibility Score: inf
ROOT
ATOM      1  C   UNL A   1      46.571  18.102  39.540  1.00  0.00     0.188 C 
ENDROOT
BRANCH   1   2
ATOM      2  O   UNL A   1      46.871  18.919  40.656  1.00  0.00    -0.376 OA
BRANCH   2   3
ATOM      3  C   UNL A   1      45.764  19.227  41.498  1.00  0.00     0.202 C 
BRANCH   3   4
ATOM      4  C   UNL A   1      45.972  18.960  42.997  1.00  0.00     0.261 C 
BRANCH   4   5
ATOM      5  O   UNL A   1      45.460  17.700  43.471  1.00  0.00    -0.463 OA
BRANCH   5   6
ATOM      6  C   UNL A   1      46.332  16.667  43.542  1.00  0.00     0.310 C 
ATOM      7  O   UNL A   1      46.966  16.244  42.585  1.00  0.00    -0.252 OA
BRANCH   6   8
ATOM      8  C   UNL A   1      46.423  16.112  44.956  1.00  0.00     0.114 C 
ATOM      9  N   UNL A   1      44.928  14.548  46.285  1.00  0.00    -0.197 NA
ATOM     10  C   UNL A   1      46.076  13.754  46.744  1.00  0.00     0.102 C 
ATOM     11  C   UNL A   1      45.030  15.608  45.269  1.00  0.00     0.117 C 
ATOM     12  C   UNL A   1      47.412  14.421  46.501  1.00  0.00     0.018 C 
ATOM     13  C   UNL A   1      47.487  15.031  45.115  1.00  0.00     0.018 C 
BRANCH   9  14
ATOM     14  S   UNL A   1      43.427  13.789  46.321  1.00  0.00     0.245 S 
ATOM     15  O   UNL A   1      42.449  14.855  46.406  1.00  0.00    -0.207 OA
ATOM     16  O   UNL A   1      43.451  12.722  47.301  1.00  0.00    -0.207 OA
BRANCH  14  17
ATOM     17  C   UNL A   1      42.985  12.980  44.831  1.00  0.00     0.118 A 
ATOM     18  C   UNL A   1      42.312  13.455  43.650  1.00  0.00     0.101 A 
ATOM     19  C   UNL A   1      42.278  12.372  42.763  1.00  0.00     0.030 A 
ATOM     20  C   UNL A   1      43.256  11.625  44.644  1.00  0.00     0.035 A 
ATOM     21  N   UNL A   1      42.836  11.279  43.385  1.00  0.00    -0.350 N 
ATOM     22  C   UNL A   1      41.795  12.318  41.347  1.00  0.00     0.065 C 
ATOM     23  C   UNL A   1      43.890  10.662  45.598  1.00  0.00     0.066 C 
ATOM     24  C   UNL A   1      43.008   9.964  42.800  1.00  0.00     0.149 C 
BRANCH  18  25
ATOM     25  C   UNL A   1      41.816  14.774  43.253  1.00  0.00     0.341 C 
ATOM     26  O   UNL A   1      40.641  15.098  43.333  1.00  0.00    -0.246 OA
BRANCH  25  27
ATOM     27  O   UNL A   1      42.832  15.643  42.958  1.00  0.00    -0.462 OA
BRANCH  27  28
ATOM     28  C   UNL A   1      43.373  15.602  41.623  1.00  0.00     0.230 C 
ATOM     29  C   UNL A   1      42.313  15.813  40.561  1.00  0.00     0.049 C 
ENDBRANCH  27  28
ENDBRANCH  25  27
ENDBRANCH  18  25
ENDBRANCH  14  17
ENDBRANCH   9  14
ENDBRANCH   6   8
ENDBRANCH   5   6
ENDBRANCH   4   5
ENDBRANCH   3   4
ENDBRANCH   2   3
ENDBRANCH   1   2
BRANCH   1  30
ATOM     30  C   UNL A   1      46.449  18.841  38.187  1.00  0.00     0.188 C 
BRANCH  30  31
ATOM     31  O   UNL A   1      46.957  20.157  38.004  1.00  0.00    -0.376 OA
BRANCH  31  32
ATOM     32  C   UNL A   1      46.350  21.064  37.095  1.00  0.00     0.202 C 
BRANCH  32  33
ATOM     33  C   UNL A   1      46.718  22.539  37.171  1.00  0.00     0.261 C 
BRANCH  33  34
ATOM     34  O   UNL A   1      45.657  23.374  36.734  1.00  0.00    -0.460 OA
BRANCH  34  35
ATOM     35  C   UNL A   1      46.022  24.327  35.852  1.00  0.00     0.338 C 
ATOM     36  O   UNL A   1      47.133  24.511  35.383  1.00  0.00    -0.246 OA
BRANCH  35  37
ATOM     37  C   UNL A   1      44.859  25.171  35.546  1.00  0.00     0.060 A 
ATOM     38  C   UNL A   1      43.999  24.672  34.569  1.00  0.00     0.016 A 
ATOM     39  C   UNL A   1      44.838  26.514  35.955  1.00  0.00     0.016 A 
ATOM     40  C   UNL A   1      43.392  25.583  33.745  1.00  0.00     0.010 A 
ATOM     41  C   UNL A   1      44.227  27.426  35.132  1.00  0.00     0.010 A 
ATOM     42  C   UNL A   1      43.651  26.940  33.963  1.00  0.00    -0.014 A 
BRANCH  42  43
ATOM     43  C   UNL A   1      43.497  27.806  32.819  1.00  0.00     0.031 A 
ATOM     44  C   UNL A   1      42.129  28.277  32.576  1.00  0.00     0.074 A 
ATOM     45  C   UNL A   1      44.546  28.119  32.036  1.00  0.00     0.049 A 
ATOM     46  N   UNL A   1      41.337  27.923  31.623  1.00  0.00    -0.248 NA
ATOM     47  C   UNL A   1      41.523  29.133  33.601  1.00  0.00     0.031 C 
ATOM     48  C   UNL A   1      45.975  27.908  32.288  1.00  0.00     0.029 A 
ATOM     49  N   UNL A   1      44.537  28.799  30.862  1.00  0.00    -0.354 N 
ATOM     50  C   UNL A   1      40.179  28.659  31.817  1.00  0.00     0.074 A 
ATOM     51  C   UNL A   1      40.284  29.260  33.125  1.00  0.00     0.031 C 
ATOM     52  C   UNL A   1      46.689  28.657  31.418  1.00  0.00     0.029 A 
ATOM     53  C   UNL A   1      45.773  29.296  30.486  1.00  0.00     0.049 A 
ATOM     54  H   UNL A   1      43.722  28.928  30.326  1.00  0.00     0.167 HD
ATOM     55  C   UNL A   1      39.303  28.898  30.806  1.00  0.00     0.037 A 
ATOM     56  C   UNL A   1      45.985  30.255  29.552  1.00  0.00     0.037 A 
ATOM     57  C   UNL A   1      39.542  28.061  29.662  1.00  0.00     0.049 A 
ATOM     58  C   UNL A   1      44.796  30.262  28.652  1.00  0.00     0.074 A 
ATOM     59  C   UNL A   1      39.513  26.697  29.443  1.00  0.00     0.029 A 
ATOM     60  N   UNL A   1      40.230  28.599  28.601  1.00  0.00    -0.354 N 
ATOM     61  N   UNL A   1      44.492  29.281  27.844  1.00  0.00    -0.248 NA
ATOM     62  C   UNL A   1      43.689  31.152  28.976  1.00  0.00     0.031 C 
ATOM     63  C   UNL A   1      40.562  26.443  28.513  1.00  0.00     0.029 A 
ATOM     64  C   UNL A   1      41.155  27.667  28.198  1.00  0.00     0.049 A 
ATOM     65  H   UNL A   1      40.087  29.488  28.202  1.00  0.00     0.167 HD
ATOM     66  C   UNL A   1      43.107  29.182  27.895  1.00  0.00     0.074 A 
ATOM     67  C   UNL A   1      42.664  30.422  28.525  1.00  0.00     0.031 C 
ATOM     68  C   UNL A   1      42.470  27.991  27.685  1.00  0.00     0.037 A 
BRANCH  55  69
ATOM     69  C   UNL A   1      38.439  30.118  30.754  1.00  0.00     0.058 A 
ATOM     70  C   UNL A   1      37.066  30.022  31.035  1.00  0.00     0.135 A 
ATOM     71  C   UNL A   1      38.879  31.337  30.191  1.00  0.00     0.135 A 
ATOM     72  F   UNL A   1      36.553  28.892  31.549  1.00  0.00    -0.206 F 
ATOM     73  C   UNL A   1      36.180  31.055  30.736  1.00  0.00     0.059 A 
ATOM     74  C   UNL A   1      38.025  32.400  29.940  1.00  0.00     0.059 A 
ATOM     75  F   UNL A   1      40.142  31.506  29.771  1.00  0.00    -0.206 F 
ATOM     76  C   UNL A   1      36.670  32.233  30.175  1.00  0.00     0.060 A 
BRANCH  76  77
ATOM     77  S   UNL A   1      35.516  33.519  29.671  1.00  0.00     0.124 S 
ATOM     78  O   UNL A   1      34.326  32.733  29.367  1.00  0.00    -0.237 OA
ATOM     79  O   UNL A   1      35.445  34.352  30.866  1.00  0.00    -0.237 OA
ATOM     80  O   UNL A   1      36.178  34.133  28.524  1.00  0.00    -0.744 OA
ENDBRANCH  76  77
ENDBRANCH  55  69
BRANCH  56  81
ATOM     81  C   UNL A   1      46.957  31.377  29.653  1.00  0.00     0.058 A 
ATOM     82  C   UNL A   1      46.807  32.388  30.618  1.00  0.00     0.135 A 
ATOM     83  C   UNL A   1      48.194  31.354  28.971  1.00  0.00     0.135 A 
ATOM     84  F   UNL A   1      45.678  32.469  31.340  1.00  0.00    -0.206 F 
ATOM     85  C   UNL A   1      47.832  33.296  30.912  1.00  0.00     0.059 A 
ATOM     86  C   UNL A   1      49.218  32.258  29.232  1.00  0.00     0.059 A 
ATOM     87  F   UNL A   1      48.489  30.390  28.088  1.00  0.00    -0.206 F 
ATOM     88  C   UNL A   1      49.042  33.213  30.223  1.00  0.00     0.060 A 
BRANCH  88  89
ATOM     89  S   UNL A   1      50.429  34.263  30.710  1.00  0.00     0.124 S 
ATOM     90  O   UNL A   1      51.574  33.433  30.356  1.00  0.00    -0.237 OA
ATOM     91  O   UNL A   1      50.220  35.450  29.888  1.00  0.00    -0.237 OA
ATOM     92  O   UNL A   1      50.218  34.459  32.144  1.00  0.00    -0.744 OA
ENDBRANCH  88  89
ENDBRANCH  56  81
BRANCH  68  93
ATOM     93  C   UNL A   1      43.281  26.848  27.131  1.00  0.00     0.058 A 
ATOM     94  C   UNL A   1      43.975  25.926  27.935  1.00  0.00     0.135 A 
ATOM     95  C   UNL A   1      43.232  26.584  25.754  1.00  0.00     0.135 A 
ATOM     96  F   UNL A   1      43.971  26.039  29.269  1.00  0.00    -0.206 F 
ATOM     97  C   UNL A   1      44.632  24.821  27.392  1.00  0.00     0.059 A 
ATOM     98  C   UNL A   1      43.855  25.470  25.193  1.00  0.00     0.059 A 
ATOM     99  F   UNL A   1      42.524  27.386  24.941  1.00  0.00    -0.206 F 
ATOM    100  C   UNL A   1      44.568  24.602  26.018  1.00  0.00     0.060 A 
BRANCH 100 101
ATOM    101  S   UNL A   1      45.350  23.126  25.329  1.00  0.00     0.124 S 
ATOM    102  O   UNL A   1      46.575  23.034  26.117  1.00  0.00    -0.237 OA
ATOM    103  O   UNL A   1      44.355  22.088  25.580  1.00  0.00    -0.237 OA
ATOM    104  O   UNL A   1      45.538  23.468  23.920  1.00  0.00    -0.744 OA
ENDBRANCH 100 101
ENDBRANCH  68  93
ENDBRANCH  42  43
ENDBRANCH  35  37
ENDBRANCH  34  35
ENDBRANCH  33  34
ENDBRANCH  32  33
ENDBRANCH  31  32
ENDBRANCH  30  31
ENDBRANCH   1  30
TORSDOF 25
ENDMDL
