MODEL 1
REMARK VINA RESULT:      -9.9      0.000      0.000
REMARK SMILES CC[N@@H+](C)Cc1cc2c(cc1Cl)C=C(C(=O)OCCOCCOCCOC(=O)c1ccc(-c3c4nc(c(-c5c(F)cc(S(=O)(=O)[O-])cc5F)c5ccc([nH]5)c(-c5c(F)cc(S(=O)(=O)[O-])cc5F)c5nc(c(-c6c(F)cc(S(=O)(=O)[O-])cc6F)c6ccc3[nH]6)C=C5)C=C4)cc1)[C@@H](C(F)(F)F)O2
REMARK SMILES IDX 21 1 20 2 19 3 18 4 17 5 15 6 16 7 14 8 6 9 7 10 11 11 8 12
REMARK SMILES IDX 10 13 12 14 9 15 100 16 13 17 95 18 5 19 3 20 4 21 2 23 1 24
REMARK SMILES IDX 96 25 97 26 98 27 99 28 22 29 23 30 24 31 25 32 26 33 27 34
REMARK SMILES IDX 28 35 29 36 30 37 94 38 31 39 93 40 32 41 33 42 34 43 87 44
REMARK SMILES IDX 35 45 92 46 86 47 88 48 36 49 91 50 85 51 84 52 37 54 71 55
REMARK SMILES IDX 50 56 70 57 51 58 54 59 69 60 89 61 52 62 53 63 68 65 90 66
REMARK SMILES IDX 55 67 38 68 39 69 48 70 40 71 41 72 47 73 49 74 42 75 43 76
REMARK SMILES IDX 44 77 45 78 46 79 72 80 73 81 82 82 74 83 75 84 81 85 83 86
REMARK SMILES IDX 76 87 77 88 78 89 79 90 80 91 56 92 57 93 66 94 58 95 59 96
REMARK SMILES IDX 65 97 67 98 60 99 61 100 62 101 63 102 64 103
REMARK H PARENT 3 22 88 53 54 64
REMARK Flexibility Score: inf
ROOT
ATOM      1  C   UNL A   1      34.416  31.526  28.005  1.00  0.00     0.188 C 
ENDROOT
BRANCH   1   2
ATOM      2  O   UNL A   1      33.233  31.281  27.262  1.00  0.00    -0.376 OA
BRANCH   2   3
ATOM      3  C   UNL A   1      32.931  29.934  26.948  1.00  0.00     0.202 C 
BRANCH   3   4
ATOM      4  C   UNL A   1      33.396  29.420  25.577  1.00  0.00     0.261 C 
BRANCH   4   5
ATOM      5  O   UNL A   1      32.391  28.751  24.800  1.00  0.00    -0.460 OA
BRANCH   5   6
ATOM      6  C   UNL A   1      32.814  28.008  23.757  1.00  0.00     0.338 C 
ATOM      7  O   UNL A   1      33.165  28.420  22.666  1.00  0.00    -0.246 OA
BRANCH   6   8
ATOM      8  C   UNL A   1      32.904  26.599  24.198  1.00  0.00     0.087 C 
ATOM      9  C   UNL A   1      34.233  21.818  24.930  1.00  0.00     0.029 A 
ATOM     10  C   UNL A   1      33.089  22.580  25.224  1.00  0.00     0.058 A 
ATOM     11  C   UNL A   1      35.400  22.504  24.559  1.00  0.00     0.050 A 
ATOM     12  C   UNL A   1      33.058  23.954  24.988  1.00  0.00     0.128 A 
ATOM     13  C   UNL A   1      35.374  23.887  24.339  1.00  0.00     0.033 A 
ATOM     14  Cl  UNL A   1      36.911  21.700  24.324  1.00  0.00    -0.084 Cl
ATOM     15  C   UNL A   1      34.186  24.603  24.494  1.00  0.00     0.019 A 
ATOM     16  O   UNL A   1      31.868  24.571  25.238  1.00  0.00    -0.475 OA
ATOM     17  C   UNL A   1      34.095  25.996  24.088  1.00  0.00     0.027 C 
ATOM     18  C   UNL A   1      31.682  25.941  24.791  1.00  0.00     0.316 C 
BRANCH   9  19
ATOM     19  C   UNL A   1      34.119  20.304  24.930  1.00  0.00     0.300 C 
BRANCH  19  20
ATOM     20  N   UNL A   1      32.776  19.752  24.629  1.00  0.00    -0.334 N 
ATOM     21  C   UNL A   1      32.551  18.462  25.285  1.00  0.00     0.333 C 
ATOM     22  H   UNL A   1      32.147  20.453  25.021  1.00  0.00     0.348 HD
BRANCH  20  23
ATOM     23  C   UNL A   1      32.420  19.667  23.207  1.00  0.00     0.258 C 
ATOM     24  C   UNL A   1      32.404  18.239  22.674  1.00  0.00     0.071 C 
ENDBRANCH  20  23
ENDBRANCH  19  20
ENDBRANCH   9  19
BRANCH  18  25
ATOM     25  C   UNL A   1      30.474  25.976  23.844  1.00  0.00     0.430 C 
ATOM     26  F   UNL A   1      30.866  25.916  22.547  1.00  0.00    -0.167 F 
ATOM     27  F   UNL A   1      29.645  24.923  24.042  1.00  0.00    -0.167 F 
ATOM     28  F   UNL A   1      29.742  27.103  23.991  1.00  0.00    -0.167 F 
ENDBRANCH  18  25
ENDBRANCH   6   8
ENDBRANCH   5   6
ENDBRANCH   4   5
ENDBRANCH   3   4
ENDBRANCH   2   3
ENDBRANCH   1   2
BRANCH   1  29
ATOM     29  C   UNL A   1      34.343  32.826  28.832  1.00  0.00     0.188 C 
BRANCH  29  30
ATOM     30  O   UNL A   1      34.050  32.761  30.225  1.00  0.00    -0.376 OA
BRANCH  30  31
ATOM     31  C   UNL A   1      35.113  32.523  31.141  1.00  0.00     0.202 C 
BRANCH  31  32
ATOM     32  C   UNL A   1      35.811  31.156  31.119  1.00  0.00     0.261 C 
BRANCH  32  33
ATOM     33  O   UNL A   1      36.656  30.899  32.253  1.00  0.00    -0.460 OA
BRANCH  33  34
ATOM     34  C   UNL A   1      37.749  31.697  32.361  1.00  0.00     0.338 C 
ATOM     35  O   UNL A   1      37.869  32.689  33.059  1.00  0.00    -0.246 OA
BRANCH  34  36
ATOM     36  C   UNL A   1      38.885  31.069  31.652  1.00  0.00     0.060 A 
ATOM     37  C   UNL A   1      39.094  31.280  30.288  1.00  0.00     0.016 A 
ATOM     38  C   UNL A   1      39.763  30.260  32.387  1.00  0.00     0.016 A 
ATOM     39  C   UNL A   1      40.207  30.701  29.668  1.00  0.00     0.010 A 
ATOM     40  C   UNL A   1      40.862  29.669  31.762  1.00  0.00     0.010 A 
ATOM     41  C   UNL A   1      41.104  29.905  30.403  1.00  0.00    -0.014 A 
BRANCH  41  42
ATOM     42  C   UNL A   1      42.380  29.466  29.786  1.00  0.00     0.031 A 
ATOM     43  C   UNL A   1      43.586  30.354  29.735  1.00  0.00     0.074 A 
ATOM     44  C   UNL A   1      42.430  28.227  29.258  1.00  0.00     0.049 A 
ATOM     45  N   UNL A   1      44.794  30.070  29.322  1.00  0.00    -0.248 NA
ATOM     46  C   UNL A   1      43.416  31.737  30.199  1.00  0.00     0.031 C 
ATOM     47  C   UNL A   1      41.304  27.291  29.214  1.00  0.00     0.029 A 
ATOM     48  N   UNL A   1      43.460  27.540  28.669  1.00  0.00    -0.354 N 
ATOM     49  C   UNL A   1      45.543  31.224  29.505  1.00  0.00     0.074 A 
ATOM     50  C   UNL A   1      44.636  32.232  30.018  1.00  0.00     0.031 C 
ATOM     51  C   UNL A   1      41.713  26.142  28.654  1.00  0.00     0.029 A 
ATOM     52  C   UNL A   1      43.120  26.265  28.287  1.00  0.00     0.049 A 
ATOM     53  H   UNL A   1      44.356  27.924  28.532  1.00  0.00     0.167 HD
ATOM     54  C   UNL A   1      46.867  31.414  29.284  1.00  0.00     0.037 A 
ATOM     55  C   UNL A   1      43.862  25.296  27.718  1.00  0.00     0.037 A 
ATOM     56  C   UNL A   1      47.756  30.409  28.753  1.00  0.00     0.049 A 
ATOM     57  C   UNL A   1      45.318  25.544  27.447  1.00  0.00     0.074 A 
ATOM     58  C   UNL A   1      49.121  30.496  28.536  1.00  0.00     0.029 A 
ATOM     59  N   UNL A   1      47.371  29.140  28.340  1.00  0.00    -0.354 N 
ATOM     60  N   UNL A   1      46.030  26.615  27.704  1.00  0.00    -0.248 NA
ATOM     61  C   UNL A   1      46.073  24.453  26.817  1.00  0.00     0.031 C 
ATOM     62  C   UNL A   1      49.552  29.300  27.950  1.00  0.00     0.029 A 
ATOM     63  C   UNL A   1      48.465  28.448  27.843  1.00  0.00     0.049 A 
ATOM     64  H   UNL A   1      46.454  28.785  28.392  1.00  0.00     0.167 HD
ATOM     65  C   UNL A   1      47.321  26.321  27.284  1.00  0.00     0.074 A 
ATOM     66  C   UNL A   1      47.296  24.966  26.770  1.00  0.00     0.031 C 
ATOM     67  C   UNL A   1      48.428  27.104  27.322  1.00  0.00     0.037 A 
BRANCH  54  68
ATOM     68  C   UNL A   1      47.454  32.754  29.633  1.00  0.00     0.058 A 
ATOM     69  C   UNL A   1      47.494  33.796  28.693  1.00  0.00     0.135 A 
ATOM     70  C   UNL A   1      47.901  33.030  30.935  1.00  0.00     0.135 A 
ATOM     71  F   UNL A   1      47.087  33.584  27.432  1.00  0.00    -0.206 F 
ATOM     72  C   UNL A   1      47.970  35.059  29.027  1.00  0.00     0.059 A 
ATOM     73  C   UNL A   1      48.361  34.293  31.298  1.00  0.00     0.059 A 
ATOM     74  F   UNL A   1      47.882  32.070  31.874  1.00  0.00    -0.206 F 
ATOM     75  C   UNL A   1      48.399  35.300  30.334  1.00  0.00     0.060 A 
BRANCH  75  76
ATOM     76  S   UNL A   1      48.994  36.953  30.751  1.00  0.00     0.124 S 
ATOM     77  O   UNL A   1      49.100  36.865  32.205  1.00  0.00    -0.237 OA
ATOM     78  O   UNL A   1      50.260  37.020  30.029  1.00  0.00    -0.237 OA
ATOM     79  O   UNL A   1      47.941  37.831  30.252  1.00  0.00    -0.744 OA
ENDBRANCH  75  76
ENDBRANCH  54  68
BRANCH  55  80
ATOM     80  C   UNL A   1      43.236  23.984  27.413  1.00  0.00     0.058 A 
ATOM     81  C   UNL A   1      42.811  23.677  26.113  1.00  0.00     0.135 A 
ATOM     82  C   UNL A   1      43.094  22.998  28.401  1.00  0.00     0.135 A 
ATOM     83  F   UNL A   1      42.925  24.589  25.136  1.00  0.00    -0.206 F 
ATOM     84  C   UNL A   1      42.262  22.438  25.802  1.00  0.00     0.059 A 
ATOM     85  C   UNL A   1      42.569  21.743  28.111  1.00  0.00     0.059 A 
ATOM     86  F   UNL A   1      43.504  23.240  29.657  1.00  0.00    -0.206 F 
ATOM     87  C   UNL A   1      42.151  21.475  26.808  1.00  0.00     0.060 A 
BRANCH  87  88
ATOM     88  S   UNL A   1      41.493  19.849  26.376  1.00  0.00     0.124 S 
ATOM     89  O   UNL A   1      42.280  19.518  25.194  1.00  0.00    -0.237 OA
ATOM     90  O   UNL A   1      41.786  19.074  27.577  1.00  0.00    -0.237 OA
ATOM     91  O   UNL A   1      40.076  20.113  26.139  1.00  0.00    -0.744 OA
ENDBRANCH  87  88
ENDBRANCH  55  80
BRANCH  67  92
ATOM     92  C   UNL A   1      49.709  26.519  26.793  1.00  0.00     0.058 A 
ATOM     93  C   UNL A   1      50.023  26.559  25.426  1.00  0.00     0.135 A 
ATOM     94  C   UNL A   1      50.659  25.965  27.667  1.00  0.00     0.135 A 
ATOM     95  F   UNL A   1      49.146  27.068  24.546  1.00  0.00    -0.206 F 
ATOM     96  C   UNL A   1      51.227  26.057  24.941  1.00  0.00     0.059 A 
ATOM     97  C   UNL A   1      51.879  25.480  27.207  1.00  0.00     0.059 A 
ATOM     98  F   UNL A   1      50.411  25.908  28.985  1.00  0.00    -0.206 F 
ATOM     99  C   UNL A   1      52.151  25.523  25.840  1.00  0.00     0.060 A 
BRANCH  99 100
ATOM    100  S   UNL A   1      53.727  24.917  25.200  1.00  0.00     0.124 S 
ATOM    101  O   UNL A   1      53.881  25.716  23.990  1.00  0.00    -0.237 OA
ATOM    102  O   UNL A   1      54.647  25.232  26.288  1.00  0.00    -0.237 OA
ATOM    103  O   UNL A   1      53.483  23.493  24.986  1.00  0.00    -0.744 OA
ENDBRANCH  99 100
ENDBRANCH  67  92
ENDBRANCH  41  42
ENDBRANCH  34  36
ENDBRANCH  33  34
ENDBRANCH  32  33
ENDBRANCH  31  32
ENDBRANCH  30  31
ENDBRANCH  29  30
ENDBRANCH   1  29
TORSDOF 24
ENDMDL
MODEL 2
REMARK VINA RESULT:      -9.2      0.939      7.952
REMARK SMILES CC[N@@H+](C)Cc1cc2c(cc1Cl)C=C(C(=O)OCCOCCOCCOC(=O)c1ccc(-c3c4nc(c(-c5c(F)cc(S(=O)(=O)[O-])cc5F)c5ccc([nH]5)c(-c5c(F)cc(S(=O)(=O)[O-])cc5F)c5nc(c(-c6c(F)cc(S(=O)(=O)[O-])cc6F)c6ccc3[nH]6)C=C5)C=C4)cc1)[C@@H](C(F)(F)F)O2
REMARK SMILES IDX 21 1 20 2 19 3 18 4 17 5 15 6 16 7 14 8 6 9 7 10 11 11 8 12
REMARK SMILES IDX 10 13 12 14 9 15 100 16 13 17 95 18 5 19 3 20 4 21 2 23 1 24
REMARK SMILES IDX 96 25 97 26 98 27 99 28 22 29 23 30 24 31 25 32 26 33 27 34
REMARK SMILES IDX 28 35 29 36 30 37 94 38 31 39 93 40 32 41 33 42 34 43 87 44
REMARK SMILES IDX 35 45 92 46 86 47 88 48 36 49 91 50 85 51 84 52 37 54 71 55
REMARK SMILES IDX 50 56 70 57 51 58 54 59 69 60 89 61 52 62 53 63 68 65 90 66
REMARK SMILES IDX 55 67 38 68 39 69 48 70 40 71 41 72 47 73 49 74 42 75 43 76
REMARK SMILES IDX 44 77 45 78 46 79 72 80 73 81 82 82 74 83 75 84 81 85 83 86
REMARK SMILES IDX 76 87 77 88 78 89 79 90 80 91 56 92 57 93 66 94 58 95 59 96
REMARK SMILES IDX 65 97 67 98 60 99 61 100 62 101 63 102 64 103
REMARK H PARENT 3 22 88 53 54 64
REMARK Flexibility Score: inf
ROOT
ATOM      1  C   UNL A   1      34.660  31.529  28.287  1.00  0.00     0.188 C 
ENDROOT
BRANCH   1   2
ATOM      2  O   UNL A   1      33.456  31.300  27.576  1.00  0.00    -0.376 OA
BRANCH   2   3
ATOM      3  C   UNL A   1      33.215  29.982  27.115  1.00  0.00     0.202 C 
BRANCH   3   4
ATOM      4  C   UNL A   1      33.280  29.755  25.598  1.00  0.00     0.261 C 
BRANCH   4   5
ATOM      5  O   UNL A   1      32.265  28.893  25.063  1.00  0.00    -0.460 OA
BRANCH   5   6
ATOM      6  C   UNL A   1      32.588  28.164  23.975  1.00  0.00     0.338 C 
ATOM      7  O   UNL A   1      32.816  28.589  22.857  1.00  0.00    -0.246 OA
BRANCH   6   8
ATOM      8  C   UNL A   1      32.749  26.754  24.393  1.00  0.00     0.087 C 
ATOM      9  C   UNL A   1      34.295  22.024  25.021  1.00  0.00     0.029 A 
ATOM     10  C   UNL A   1      33.127  22.733  25.356  1.00  0.00     0.058 A 
ATOM     11  C   UNL A   1      35.422  22.764  24.631  1.00  0.00     0.050 A 
ATOM     12  C   UNL A   1      33.033  24.107  25.141  1.00  0.00     0.128 A 
ATOM     13  C   UNL A   1      35.333  24.147  24.433  1.00  0.00     0.033 A 
ATOM     14  Cl  UNL A   1      36.959  22.027  24.348  1.00  0.00    -0.084 Cl
ATOM     15  C   UNL A   1      34.120  24.810  24.628  1.00  0.00     0.019 A 
ATOM     16  O   UNL A   1      31.825  24.670  25.429  1.00  0.00    -0.475 OA
ATOM     17  C   UNL A   1      33.960  26.203  24.245  1.00  0.00     0.027 C 
ATOM     18  C   UNL A   1      31.571  26.037  25.006  1.00  0.00     0.316 C 
BRANCH   9  19
ATOM     19  C   UNL A   1      34.244  20.507  25.002  1.00  0.00     0.300 C 
BRANCH  19  20
ATOM     20  N   UNL A   1      32.906  19.902  24.799  1.00  0.00    -0.334 N 
ATOM     21  C   UNL A   1      32.790  18.591  25.443  1.00  0.00     0.333 C 
ATOM     22  H   UNL A   1      32.282  20.567  25.256  1.00  0.00     0.348 HD
BRANCH  20  23
ATOM     23  C   UNL A   1      32.438  19.828  23.409  1.00  0.00     0.258 C 
ATOM     24  C   UNL A   1      32.326  18.401  22.886  1.00  0.00     0.071 C 
ENDBRANCH  20  23
ENDBRANCH  19  20
ENDBRANCH   9  19
BRANCH  18  25
ATOM     25  C   UNL A   1      30.339  26.034  24.091  1.00  0.00     0.430 C 
ATOM     26  F   UNL A   1      29.619  27.175  24.234  1.00  0.00    -0.167 F 
ATOM     27  F   UNL A   1      30.680  25.958  22.783  1.00  0.00    -0.167 F 
ATOM     28  F   UNL A   1      29.508  25.000  24.355  1.00  0.00    -0.167 F 
ENDBRANCH  18  25
ENDBRANCH   6   8
ENDBRANCH   5   6
ENDBRANCH   4   5
ENDBRANCH   3   4
ENDBRANCH   2   3
ENDBRANCH   1   2
BRANCH   1  29
ATOM     29  C   UNL A   1      34.533  32.660  29.330  1.00  0.00     0.188 C 
BRANCH  29  30
ATOM     30  O   UNL A   1      34.285  32.338  30.694  1.00  0.00    -0.376 OA
BRANCH  30  31
ATOM     31  C   UNL A   1      35.362  31.868  31.498  1.00  0.00     0.202 C 
BRANCH  31  32
ATOM     32  C   UNL A   1      36.137  30.626  31.037  1.00  0.00     0.261 C 
BRANCH  32  33
ATOM     33  O   UNL A   1      36.941  30.011  32.058  1.00  0.00    -0.460 OA
BRANCH  33  34
ATOM     34  C   UNL A   1      37.873  30.814  32.633  1.00  0.00     0.338 C 
ATOM     35  O   UNL A   1      37.729  31.522  33.615  1.00  0.00    -0.246 OA
BRANCH  34  36
ATOM     36  C   UNL A   1      39.190  30.556  32.012  1.00  0.00     0.060 A 
ATOM     37  C   UNL A   1      40.205  29.901  32.710  1.00  0.00     0.016 A 
ATOM     38  C   UNL A   1      39.395  30.975  30.690  1.00  0.00     0.016 A 
ATOM     39  C   UNL A   1      41.420  29.638  32.068  1.00  0.00     0.010 A 
ATOM     40  C   UNL A   1      40.615  30.729  30.057  1.00  0.00     0.010 A 
ATOM     41  C   UNL A   1      41.628  30.037  30.735  1.00  0.00    -0.014 A 
BRANCH  41  42
ATOM     42  C   UNL A   1      42.835  29.579  30.005  1.00  0.00     0.031 A 
ATOM     43  C   UNL A   1      42.930  28.209  29.404  1.00  0.00     0.074 A 
ATOM     44  C   UNL A   1      43.867  30.438  29.894  1.00  0.00     0.049 A 
ATOM     45  N   UNL A   1      43.876  27.709  28.653  1.00  0.00    -0.248 NA
ATOM     46  C   UNL A   1      41.827  27.280  29.686  1.00  0.00     0.031 C 
ATOM     47  C   UNL A   1      43.902  31.783  30.475  1.00  0.00     0.029 A 
ATOM     48  N   UNL A   1      45.074  30.318  29.256  1.00  0.00    -0.354 N 
ATOM     49  C   UNL A   1      43.475  26.417  28.341  1.00  0.00     0.074 A 
ATOM     50  C   UNL A   1      42.220  26.193  29.031  1.00  0.00     0.031 C 
ATOM     51  C   UNL A   1      45.060  32.373  30.142  1.00  0.00     0.029 A 
ATOM     52  C   UNL A   1      45.853  31.446  29.340  1.00  0.00     0.049 A 
ATOM     53  H   UNL A   1      45.355  29.502  28.782  1.00  0.00     0.167 HD
ATOM     54  C   UNL A   1      44.089  25.516  27.536  1.00  0.00     0.037 A 
ATOM     55  C   UNL A   1      47.066  31.713  28.819  1.00  0.00     0.037 A 
ATOM     56  C   UNL A   1      45.349  25.743  26.871  1.00  0.00     0.049 A 
ATOM     57  C   UNL A   1      47.744  30.682  27.963  1.00  0.00     0.074 A 
ATOM     58  C   UNL A   1      46.027  24.904  26.002  1.00  0.00     0.029 A 
ATOM     59  N   UNL A   1      46.131  26.882  27.010  1.00  0.00    -0.354 N 
ATOM     60  N   UNL A   1      47.311  29.495  27.609  1.00  0.00    -0.248 NA
ATOM     61  C   UNL A   1      49.068  31.026  27.429  1.00  0.00     0.031 C 
ATOM     62  C   UNL A   1      47.237  25.514  25.653  1.00  0.00     0.029 A 
ATOM     63  C   UNL A   1      47.295  26.755  26.268  1.00  0.00     0.049 A 
ATOM     64  H   UNL A   1      45.893  27.665  27.557  1.00  0.00     0.167 HD
ATOM     65  C   UNL A   1      48.302  28.958  26.796  1.00  0.00     0.074 A 
ATOM     66  C   UNL A   1      49.350  29.955  26.699  1.00  0.00     0.031 C 
ATOM     67  C   UNL A   1      48.338  27.747  26.186  1.00  0.00     0.037 A 
BRANCH  54  68
ATOM     68  C   UNL A   1      43.403  24.196  27.305  1.00  0.00     0.058 A 
ATOM     69  C   UNL A   1      42.668  23.956  26.134  1.00  0.00     0.135 A 
ATOM     70  C   UNL A   1      43.550  23.137  28.215  1.00  0.00     0.135 A 
ATOM     71  F   UNL A   1      42.489  24.936  25.235  1.00  0.00    -0.206 F 
ATOM     72  C   UNL A   1      42.090  22.716  25.879  1.00  0.00     0.059 A 
ATOM     73  C   UNL A   1      43.000  21.882  27.970  1.00  0.00     0.059 A 
ATOM     74  F   UNL A   1      44.247  23.313  29.350  1.00  0.00    -0.206 F 
ATOM     75  C   UNL A   1      42.264  21.683  26.803  1.00  0.00     0.060 A 
BRANCH  75  76
ATOM     76  S   UNL A   1      41.523  20.077  26.443  1.00  0.00     0.124 S 
ATOM     77  O   UNL A   1      42.302  19.650  25.284  1.00  0.00    -0.237 OA
ATOM     78  O   UNL A   1      41.768  19.338  27.677  1.00  0.00    -0.237 OA
ATOM     79  O   UNL A   1      40.126  20.398  26.174  1.00  0.00    -0.744 OA
ENDBRANCH  75  76
ENDBRANCH  54  68
BRANCH  55  80
ATOM     80  C   UNL A   1      47.688  33.039  29.061  1.00  0.00     0.058 A 
ATOM     81  C   UNL A   1      48.553  33.238  30.147  1.00  0.00     0.135 A 
ATOM     82  C   UNL A   1      47.468  34.117  28.190  1.00  0.00     0.135 A 
ATOM     83  F   UNL A   1      48.791  32.237  31.008  1.00  0.00    -0.206 F 
ATOM     84  C   UNL A   1      49.176  34.462  30.364  1.00  0.00     0.059 A 
ATOM     85  C   UNL A   1      48.097  35.344  28.373  1.00  0.00     0.059 A 
ATOM     86  F   UNL A   1      46.662  33.968  27.127  1.00  0.00    -0.206 F 
ATOM     87  C   UNL A   1      48.946  35.507  29.467  1.00  0.00     0.060 A 
BRANCH  87  88
ATOM     88  S   UNL A   1      49.810  37.072  29.727  1.00  0.00     0.124 S 
ATOM     89  O   UNL A   1      50.112  37.009  31.152  1.00  0.00    -0.237 OA
ATOM     90  O   UNL A   1      50.950  36.942  28.825  1.00  0.00    -0.237 OA
ATOM     91  O   UNL A   1      48.821  38.071  29.333  1.00  0.00    -0.744 OA
ENDBRANCH  87  88
ENDBRANCH  55  80
BRANCH  67  92
ATOM     92  C   UNL A   1      49.551  27.426  25.355  1.00  0.00     0.058 A 
ATOM     93  C   UNL A   1      49.547  27.590  23.961  1.00  0.00     0.135 A 
ATOM     94  C   UNL A   1      50.745  27.006  25.962  1.00  0.00     0.135 A 
ATOM     95  F   UNL A   1      48.428  27.980  23.329  1.00  0.00    -0.206 F 
ATOM     96  C   UNL A   1      50.681  27.334  23.196  1.00  0.00     0.059 A 
ATOM     97  C   UNL A   1      51.897  26.768  25.219  1.00  0.00     0.059 A 
ATOM     98  F   UNL A   1      50.804  26.839  27.293  1.00  0.00    -0.206 F 
ATOM     99  C   UNL A   1      51.854  26.929  23.835  1.00  0.00     0.060 A 
BRANCH  99 100
ATOM    100  S   UNL A   1      53.329  26.644  22.832  1.00  0.00     0.124 S 
ATOM    101  O   UNL A   1      53.671  28.001  22.420  1.00  0.00    -0.237 OA
ATOM    102  O   UNL A   1      54.240  26.024  23.789  1.00  0.00    -0.237 OA
ATOM    103  O   UNL A   1      52.853  25.765  21.768  1.00  0.00    -0.744 OA
ENDBRANCH  99 100
ENDBRANCH  67  92
ENDBRANCH  41  42
ENDBRANCH  34  36
ENDBRANCH  33  34
ENDBRANCH  32  33
ENDBRANCH  31  32
ENDBRANCH  30  31
ENDBRANCH  29  30
ENDBRANCH   1  29
TORSDOF 24
ENDMDL
MODEL 3
REMARK VINA RESULT:      -8.8      8.451     13.824
REMARK SMILES CC[N@@H+](C)Cc1cc2c(cc1Cl)C=C(C(=O)OCCOCCOCCOC(=O)c1ccc(-c3c4nc(c(-c5c(F)cc(S(=O)(=O)[O-])cc5F)c5ccc([nH]5)c(-c5c(F)cc(S(=O)(=O)[O-])cc5F)c5nc(c(-c6c(F)cc(S(=O)(=O)[O-])cc6F)c6ccc3[nH]6)C=C5)C=C4)cc1)[C@@H](C(F)(F)F)O2
REMARK SMILES IDX 21 1 20 2 19 3 18 4 17 5 15 6 16 7 14 8 6 9 7 10 11 11 8 12
REMARK SMILES IDX 10 13 12 14 9 15 100 16 13 17 95 18 5 19 3 20 4 21 2 23 1 24
REMARK SMILES IDX 96 25 97 26 98 27 99 28 22 29 23 30 24 31 25 32 26 33 27 34
REMARK SMILES IDX 28 35 29 36 30 37 94 38 31 39 93 40 32 41 33 42 34 43 87 44
REMARK SMILES IDX 35 45 92 46 86 47 88 48 36 49 91 50 85 51 84 52 37 54 71 55
REMARK SMILES IDX 50 56 70 57 51 58 54 59 69 60 89 61 52 62 53 63 68 65 90 66
REMARK SMILES IDX 55 67 38 68 39 69 48 70 40 71 41 72 47 73 49 74 42 75 43 76
REMARK SMILES IDX 44 77 45 78 46 79 72 80 73 81 82 82 74 83 75 84 81 85 83 86
REMARK SMILES IDX 76 87 77 88 78 89 79 90 80 91 56 92 57 93 66 94 58 95 59 96
REMARK SMILES IDX 65 97 67 98 60 99 61 100 62 101 63 102 64 103
REMARK H PARENT 3 22 88 53 54 64
REMARK Flexibility Score: inf
ROOT
ATOM      1  C   UNL A   1      46.882  39.856  27.250  1.00  0.00     0.188 C 
ENDROOT
BRANCH   1   2
ATOM      2  O   UNL A   1      46.850  40.085  25.851  1.00  0.00    -0.376 OA
BRANCH   2   3
ATOM      3  C   UNL A   1      46.456  41.372  25.413  1.00  0.00     0.202 C 
BRANCH   3   4
ATOM      4  C   UNL A   1      45.044  41.503  24.823  1.00  0.00     0.261 C 
BRANCH   4   5
ATOM      5  O   UNL A   1      44.969  42.168  23.554  1.00  0.00    -0.460 OA
BRANCH   5   6
ATOM      6  C   UNL A   1      44.137  43.226  23.462  1.00  0.00     0.338 C 
ATOM      7  O   UNL A   1      43.389  43.639  24.329  1.00  0.00    -0.246 OA
BRANCH   6   8
ATOM      8  C   UNL A   1      44.375  43.891  22.162  1.00  0.00     0.087 C 
ATOM      9  C   UNL A   1      45.297  47.181  18.491  1.00  0.00     0.029 A 
ATOM     10  C   UNL A   1      44.832  45.855  18.533  1.00  0.00     0.058 A 
ATOM     11  C   UNL A   1      45.874  47.711  19.656  1.00  0.00     0.050 A 
ATOM     12  C   UNL A   1      44.782  45.148  19.733  1.00  0.00     0.128 A 
ATOM     13  C   UNL A   1      45.840  46.994  20.858  1.00  0.00     0.033 A 
ATOM     14  Cl  UNL A   1      46.624  49.267  19.692  1.00  0.00    -0.084 Cl
ATOM     15  C   UNL A   1      45.238  45.735  20.910  1.00  0.00     0.019 A 
ATOM     16  O   UNL A   1      44.238  43.900  19.663  1.00  0.00    -0.475 OA
ATOM     17  C   UNL A   1      45.024  45.062  22.181  1.00  0.00     0.027 C 
ATOM     18  C   UNL A   1      43.928  43.199  20.897  1.00  0.00     0.316 C 
BRANCH   9  19
ATOM     19  C   UNL A   1      45.062  47.995  17.231  1.00  0.00     0.300 C 
BRANCH  19  20
ATOM     20  N   UNL A   1      43.949  48.973  17.286  1.00  0.00    -0.334 N 
ATOM     21  C   UNL A   1      42.682  48.390  16.836  1.00  0.00     0.333 C 
ATOM     22  H   UNL A   1      43.891  49.199  18.279  1.00  0.00     0.348 HD
BRANCH  20  23
ATOM     23  C   UNL A   1      44.185  50.255  16.611  1.00  0.00     0.258 C 
ATOM     24  C   UNL A   1      45.629  50.731  16.708  1.00  0.00     0.071 C 
ENDBRANCH  20  23
ENDBRANCH  19  20
ENDBRANCH   9  19
BRANCH  18  25
ATOM     25  C   UNL A   1      42.428  42.874  20.900  1.00  0.00     0.430 C 
ATOM     26  F   UNL A   1      41.946  42.774  19.636  1.00  0.00    -0.167 F 
ATOM     27  F   UNL A   1      42.168  41.689  21.503  1.00  0.00    -0.167 F 
ATOM     28  F   UNL A   1      41.700  43.820  21.533  1.00  0.00    -0.167 F 
ENDBRANCH  18  25
ENDBRANCH   6   8
ENDBRANCH   5   6
ENDBRANCH   4   5
ENDBRANCH   3   4
ENDBRANCH   2   3
ENDBRANCH   1   2
BRANCH   1  29
ATOM     29  C   UNL A   1      45.797  38.863  27.718  1.00  0.00     0.188 C 
BRANCH  29  30
ATOM     30  O   UNL A   1      44.782  38.448  26.810  1.00  0.00    -0.376 OA
BRANCH  30  31
ATOM     31  C   UNL A   1      43.484  39.023  26.918  1.00  0.00     0.202 C 
BRANCH  31  32
ATOM     32  C   UNL A   1      42.435  38.318  27.788  1.00  0.00     0.261 C 
BRANCH  32  33
ATOM     33  O   UNL A   1      41.860  37.142  27.194  1.00  0.00    -0.460 OA
BRANCH  33  34
ATOM     34  C   UNL A   1      41.813  36.045  27.993  1.00  0.00     0.338 C 
ATOM     35  O   UNL A   1      40.931  35.746  28.779  1.00  0.00    -0.246 OA
BRANCH  34  36
ATOM     36  C   UNL A   1      42.912  35.125  27.626  1.00  0.00     0.060 A 
ATOM     37  C   UNL A   1      43.299  34.953  26.296  1.00  0.00     0.016 A 
ATOM     38  C   UNL A   1      43.572  34.435  28.652  1.00  0.00     0.016 A 
ATOM     39  C   UNL A   1      44.373  34.106  25.999  1.00  0.00     0.010 A 
ATOM     40  C   UNL A   1      44.631  33.576  28.352  1.00  0.00     0.010 A 
ATOM     41  C   UNL A   1      45.054  33.425  27.025  1.00  0.00    -0.014 A 
BRANCH  41  42
ATOM     42  C   UNL A   1      46.308  32.694  26.721  1.00  0.00     0.031 A 
ATOM     43  C   UNL A   1      47.614  33.402  26.522  1.00  0.00     0.074 A 
ATOM     44  C   UNL A   1      46.246  31.352  26.622  1.00  0.00     0.049 A 
ATOM     45  N   UNL A   1      48.805  32.890  26.355  1.00  0.00    -0.248 NA
ATOM     46  C   UNL A   1      47.579  34.871  26.503  1.00  0.00     0.031 C 
ATOM     47  C   UNL A   1      45.021  30.559  26.755  1.00  0.00     0.029 A 
ATOM     48  N   UNL A   1      47.225  30.419  26.396  1.00  0.00    -0.354 N 
ATOM     49  C   UNL A   1      49.673  33.967  26.242  1.00  0.00     0.074 A 
ATOM     50  C   UNL A   1      48.860  35.166  26.308  1.00  0.00     0.031 C 
ATOM     51  C   UNL A   1      45.327  29.258  26.636  1.00  0.00     0.029 A 
ATOM     52  C   UNL A   1      46.762  29.126  26.404  1.00  0.00     0.049 A 
ATOM     53  H   UNL A   1      48.169  30.654  26.243  1.00  0.00     0.167 HD
ATOM     54  C   UNL A   1      51.023  33.953  26.118  1.00  0.00     0.037 A 
ATOM     55  C   UNL A   1      47.420  27.960  26.256  1.00  0.00     0.037 A 
ATOM     56  C   UNL A   1      51.820  32.753  26.032  1.00  0.00     0.049 A 
ATOM     57  C   UNL A   1      48.912  27.972  26.079  1.00  0.00     0.074 A 
ATOM     58  C   UNL A   1      53.198  32.639  25.948  1.00  0.00     0.029 A 
ATOM     59  N   UNL A   1      51.315  31.460  26.004  1.00  0.00    -0.354 N 
ATOM     60  N   UNL A   1      49.728  28.998  26.059  1.00  0.00    -0.248 NA
ATOM     61  C   UNL A   1      49.573  26.671  25.914  1.00  0.00     0.031 C 
ATOM     62  C   UNL A   1      53.522  31.284  25.822  1.00  0.00     0.029 A 
ATOM     63  C   UNL A   1      52.350  30.546  25.874  1.00  0.00     0.049 A 
ATOM     64  H   UNL A   1      50.361  31.226  26.066  1.00  0.00     0.167 HD
ATOM     65  C   UNL A   1      51.001  28.467  25.897  1.00  0.00     0.074 A 
ATOM     66  C   UNL A   1      50.849  27.027  25.839  1.00  0.00     0.031 C 
ATOM     67  C   UNL A   1      52.189  29.115  25.805  1.00  0.00     0.037 A 
BRANCH  54  68
ATOM     68  C   UNL A   1      51.742  35.274  26.085  1.00  0.00     0.058 A 
ATOM     69  C   UNL A   1      52.355  35.796  27.235  1.00  0.00     0.135 A 
ATOM     70  C   UNL A   1      51.894  35.984  24.884  1.00  0.00     0.135 A 
ATOM     71  F   UNL A   1      52.233  35.162  28.412  1.00  0.00    -0.206 F 
ATOM     72  C   UNL A   1      53.081  36.981  27.199  1.00  0.00     0.059 A 
ATOM     73  C   UNL A   1      52.636  37.161  24.818  1.00  0.00     0.059 A 
ATOM     74  F   UNL A   1      51.331  35.528  23.753  1.00  0.00    -0.206 F 
ATOM     75  C   UNL A   1      53.219  37.656  25.984  1.00  0.00     0.060 A 
BRANCH  75  76
ATOM     76  S   UNL A   1      54.183  39.183  25.954  1.00  0.00     0.124 S 
ATOM     77  O   UNL A   1      53.609  39.911  27.083  1.00  0.00    -0.237 OA
ATOM     78  O   UNL A   1      55.545  38.694  26.144  1.00  0.00    -0.237 OA
ATOM     79  O   UNL A   1      53.897  39.742  24.638  1.00  0.00    -0.744 OA
ENDBRANCH  75  76
ENDBRANCH  54  68
BRANCH  55  80
ATOM     80  C   UNL A   1      46.664  26.683  26.317  1.00  0.00     0.058 A 
ATOM     81  C   UNL A   1      46.345  26.098  27.550  1.00  0.00     0.135 A 
ATOM     82  C   UNL A   1      46.209  26.050  25.150  1.00  0.00     0.135 A 
ATOM     83  F   UNL A   1      46.760  26.666  28.692  1.00  0.00    -0.206 F 
ATOM     84  C   UNL A   1      45.602  24.925  27.625  1.00  0.00     0.059 A 
ATOM     85  C   UNL A   1      45.447  24.888  25.200  1.00  0.00     0.059 A 
ATOM     86  F   UNL A   1      46.476  26.584  23.948  1.00  0.00    -0.206 F 
ATOM     87  C   UNL A   1      45.153  24.330  26.444  1.00  0.00     0.060 A 
BRANCH  87  88
ATOM     88  S   UNL A   1      44.137  22.841  26.560  1.00  0.00     0.124 S 
ATOM     89  O   UNL A   1      43.787  22.833  27.975  1.00  0.00    -0.237 OA
ATOM     90  O   UNL A   1      43.050  23.142  25.634  1.00  0.00    -0.237 OA
ATOM     91  O   UNL A   1      45.044  21.782  26.127  1.00  0.00    -0.744 OA
ENDBRANCH  87  88
ENDBRANCH  55  80
BRANCH  67  92
ATOM     92  C   UNL A   1      53.425  28.276  25.631  1.00  0.00     0.058 A 
ATOM     93  C   UNL A   1      54.139  27.786  26.736  1.00  0.00     0.135 A 
ATOM     94  C   UNL A   1      53.869  27.909  24.350  1.00  0.00     0.135 A 
ATOM     95  F   UNL A   1      53.764  28.115  27.983  1.00  0.00    -0.206 F 
ATOM     96  C   UNL A   1      55.257  26.973  26.577  1.00  0.00     0.059 A 
ATOM     97  C   UNL A   1      54.970  27.078  24.168  1.00  0.00     0.059 A 
ATOM     98  F   UNL A   1      53.218  28.346  23.260  1.00  0.00    -0.206 F 
ATOM     99  C   UNL A   1      55.663  26.620  25.288  1.00  0.00     0.060 A 
BRANCH  99 100
ATOM    100  S   UNL A   1      57.090  25.530  25.101  1.00  0.00     0.124 S 
ATOM    101  O   UNL A   1      57.576  25.906  23.778  1.00  0.00    -0.237 OA
ATOM    102  O   UNL A   1      57.934  25.926  26.223  1.00  0.00    -0.237 OA
ATOM    103  O   UNL A   1      56.512  24.192  25.200  1.00  0.00    -0.744 OA
ENDBRANCH  99 100
ENDBRANCH  67  92
ENDBRANCH  41  42
ENDBRANCH  34  36
ENDBRANCH  33  34
ENDBRANCH  32  33
ENDBRANCH  31  32
ENDBRANCH  30  31
ENDBRANCH  29  30
ENDBRANCH   1  29
TORSDOF 24
ENDMDL
