MODEL 1
REMARK VINA RESULT:     -10.8      0.000      0.000
REMARK SMILES Cc1coc2cc3c(cc12)[C@@H](C)[C@H](CCC(=O)N[C@@H](Cc1c[nH]c2ccccc12)C(=O)OCCOCCOCCOC(=O)c1ccc(-c2c4nc(c(-c5c(F)cc(S(=O)(=O)[O-])cc5F)c5ccc([nH]5)c(-c5c(F)cc(S(=O)(=O)[O-])cc5F)c5nc(c(-c6c(F)cc(S(=O)(=O)[O-])cc6F)c6ccc2[nH]6)C=C5)C=C4)cc1)C(=O)O3
REMARK SMILES IDX 36 1 35 2 34 3 33 4 32 5 30 6 31 7 19 8 18 9 16 10 17 11
REMARK SMILES IDX 15 13 14 14 13 15 1 16 2 17 3 18 10 19 4 20 5 21 9 22 6 23
REMARK SMILES IDX 8 24 7 25 11 26 112 27 12 28 110 29 111 30 20 31 21 32 22 33
REMARK SMILES IDX 29 34 23 35 24 36 28 37 25 39 27 40 26 41 37 42 38 43 39 44
REMARK SMILES IDX 40 45 41 46 42 47 43 48 44 49 45 50 109 51 46 52 108 53
REMARK SMILES IDX 47 54 48 55 49 56 102 57 50 58 107 59 101 60 103 61 51 62
REMARK SMILES IDX 106 63 100 64 99 65 52 67 86 68 65 69 85 70 66 71 69 72
REMARK SMILES IDX 84 73 104 74 67 75 68 76 83 78 105 79 70 80 53 81 54 82
REMARK SMILES IDX 63 83 55 84 56 85 62 86 64 87 57 88 58 89 59 90 60 91 61 92
REMARK SMILES IDX 87 93 88 94 97 95 89 96 90 97 96 98 98 99 91 100 92 101
REMARK SMILES IDX 93 102 94 103 95 104 71 105 72 106 81 107 73 108 74 109
REMARK SMILES IDX 80 110 82 111 75 112 76 113 77 114 78 115 79 116
REMARK H PARENT 18 12 23 38 103 66 69 77
REMARK Flexibility Score: inf
ROOT
ATOM      1  C   UNL A   1      48.237  31.585  26.884  1.00  0.00     0.188 C 
ENDROOT
BRANCH   1   2
ATOM      2  O   UNL A   1      48.655  30.298  27.310  1.00  0.00    -0.376 OA
BRANCH   2   3
ATOM      3  C   UNL A   1      47.591  29.347  27.396  1.00  0.00     0.202 C 
BRANCH   3   4
ATOM      4  C   UNL A   1      48.003  27.917  27.027  1.00  0.00     0.261 C 
BRANCH   4   5
ATOM      5  O   UNL A   1      48.111  27.702  25.586  1.00  0.00    -0.462 OA
BRANCH   5   6
ATOM      6  C   UNL A   1      46.935  27.802  24.912  1.00  0.00     0.329 C 
ATOM      7  O   UNL A   1      46.568  28.861  24.401  1.00  0.00    -0.250 OA
BRANCH   6   8
ATOM      8  C   UNL A   1      45.839  26.500  25.020  1.00  0.00     0.196 C 
BRANCH   8   9
ATOM      9  N   UNL A   1      46.078  24.478  25.082  1.00  0.00    -0.342 N 
ATOM     10  C   UNL A   1      45.874  23.125  25.402  1.00  0.00     0.220 C 
ATOM     11  O   UNL A   1      46.600  22.307  24.830  1.00  0.00    -0.275 OA
ATOM     12  H   UNL A   1      46.861  24.389  24.493  1.00  0.00     0.164 HD
BRANCH  10  13
ATOM     13  C   UNL A   1      44.733  22.625  26.232  1.00  0.00     0.101 C 
BRANCH  13  14
ATOM     14  C   UNL A   1      43.771  21.871  25.391  1.00  0.00     0.026 C 
BRANCH  14  15
ATOM     15  C   UNL A   1      42.850  21.130  26.337  1.00  0.00     0.107 C 
ATOM     16  C   UNL A   1      35.654  23.934  26.004  1.00  0.00     0.048 C 
ATOM     17  C   UNL A   1      36.076  22.643  25.418  1.00  0.00    -0.005 A 
ATOM     18  C   UNL A   1      35.336  21.763  24.662  1.00  0.00     0.199 A 
ATOM     19  C   UNL A   1      37.367  22.052  25.568  1.00  0.00     0.024 A 
ATOM     20  O   UNL A   1      36.035  20.633  24.406  1.00  0.00    -0.464 OA
ATOM     21  C   UNL A   1      37.255  20.760  25.009  1.00  0.00     0.137 A 
ATOM     22  C   UNL A   1      38.562  22.569  26.135  1.00  0.00     0.020 A 
ATOM     23  C   UNL A   1      38.182  19.713  25.023  1.00  0.00     0.095 A 
ATOM     24  C   UNL A   1      39.585  21.663  26.230  1.00  0.00    -0.001 A 
ATOM     25  C   UNL A   1      39.258  20.091  25.784  1.00  0.00     0.138 A 
ATOM     26  C   UNL A   1      41.307  22.321  26.591  1.00  0.00     0.034 C 
ATOM     27  O   UNL A   1      40.672  18.960  25.622  1.00  0.00    -0.426 OA
ATOM     28  C   UNL A   1      41.452  23.146  27.873  1.00  0.00     0.014 C 
ATOM     29  C   UNL A   1      42.431  19.266  25.826  1.00  0.00     0.314 C 
ATOM     30  O   UNL A   1      43.171  18.283  25.779  1.00  0.00    -0.251 OA
ENDBRANCH  14  15
ENDBRANCH  13  14
ENDBRANCH  10  13
ENDBRANCH   8   9
BRANCH   8  31
ATOM     31  C   UNL A   1      44.641  27.480  25.665  1.00  0.00     0.074 C 
BRANCH  31  32
ATOM     32  C   UNL A   1      44.372  27.774  27.125  1.00  0.00    -0.020 A 
ATOM     33  C   UNL A   1      44.671  26.797  28.067  1.00  0.00     0.087 A 
ATOM     34  C   UNL A   1      43.991  28.931  27.885  1.00  0.00     0.003 A 
ATOM     35  N   UNL A   1      44.743  27.380  29.293  1.00  0.00    -0.361 N 
ATOM     36  C   UNL A   1      44.452  28.714  29.187  1.00  0.00     0.046 A 
ATOM     37  C   UNL A   1      43.392  30.181  27.638  1.00  0.00     0.010 A 
ATOM     38  H   UNL A   1      44.971  26.914  30.130  1.00  0.00     0.166 HD
ATOM     39  C   UNL A   1      44.567  29.735  30.136  1.00  0.00     0.026 A 
ATOM     40  C   UNL A   1      43.490  31.219  28.568  1.00  0.00     0.001 A 
ATOM     41  C   UNL A   1      44.124  31.010  29.782  1.00  0.00     0.002 A 
ENDBRANCH  31  32
ENDBRANCH   8  31
ENDBRANCH   6   8
ENDBRANCH   5   6
ENDBRANCH   4   5
ENDBRANCH   3   4
ENDBRANCH   2   3
ENDBRANCH   1   2
BRANCH   1  42
ATOM     42  C   UNL A   1      49.332  32.629  27.012  1.00  0.00     0.188 C 
BRANCH  42  43
ATOM     43  O   UNL A   1      49.177  33.681  27.963  1.00  0.00    -0.376 OA
BRANCH  43  44
ATOM     44  C   UNL A   1      47.956  34.403  27.747  1.00  0.00     0.202 C 
BRANCH  44  45
ATOM     45  C   UNL A   1      48.077  35.946  27.718  1.00  0.00     0.261 C 
BRANCH  45  46
ATOM     46  O   UNL A   1      47.540  36.549  28.920  1.00  0.00    -0.460 OA
BRANCH  46  47
ATOM     47  C   UNL A   1      46.269  37.011  28.804  1.00  0.00     0.338 C 
ATOM     48  O   UNL A   1      45.846  37.651  27.853  1.00  0.00    -0.246 OA
BRANCH  47  49
ATOM     49  C   UNL A   1      45.384  36.368  29.829  1.00  0.00     0.060 A 
ATOM     50  C   UNL A   1      45.775  35.342  30.714  1.00  0.00     0.016 A 
ATOM     51  C   UNL A   1      44.034  36.685  29.730  1.00  0.00     0.016 A 
ATOM     52  C   UNL A   1      44.805  34.559  31.395  1.00  0.00     0.010 A 
ATOM     53  C   UNL A   1      43.090  35.920  30.415  1.00  0.00     0.010 A 
ATOM     54  C   UNL A   1      43.441  34.809  31.216  1.00  0.00    -0.014 A 
BRANCH  54  55
ATOM     55  C   UNL A   1      42.315  34.094  31.879  1.00  0.00     0.031 A 
ATOM     56  C   UNL A   1      42.531  33.900  33.320  1.00  0.00     0.074 A 
ATOM     57  C   UNL A   1      41.099  33.657  31.442  1.00  0.00     0.049 A 
ATOM     58  N   UNL A   1      42.794  32.744  33.839  1.00  0.00    -0.248 NA
ATOM     59  C   UNL A   1      42.547  35.019  34.264  1.00  0.00     0.031 C 
ATOM     60  C   UNL A   1      40.637  33.454  30.073  1.00  0.00     0.029 A 
ATOM     61  N   UNL A   1      39.945  33.370  32.181  1.00  0.00    -0.354 N 
ATOM     62  C   UNL A   1      42.723  32.950  35.194  1.00  0.00     0.074 A 
ATOM     63  C   UNL A   1      42.806  34.377  35.404  1.00  0.00     0.031 C 
ATOM     64  C   UNL A   1      39.298  33.231  30.063  1.00  0.00     0.029 A 
ATOM     65  C   UNL A   1      38.771  33.322  31.425  1.00  0.00     0.049 A 
ATOM     66  H   UNL A   1      39.960  33.214  33.154  1.00  0.00     0.167 HD
ATOM     67  C   UNL A   1      42.263  31.980  36.022  1.00  0.00     0.037 A 
ATOM     68  C   UNL A   1      37.492  32.969  31.734  1.00  0.00     0.037 A 
ATOM     69  C   UNL A   1      42.130  30.688  35.395  1.00  0.00     0.049 A 
ATOM     70  C   UNL A   1      37.553  31.846  32.673  1.00  0.00     0.074 A 
ATOM     71  C   UNL A   1      42.963  29.851  34.677  1.00  0.00     0.029 A 
ATOM     72  N   UNL A   1      40.853  30.228  35.188  1.00  0.00    -0.354 N 
ATOM     73  N   UNL A   1      37.870  30.645  32.294  1.00  0.00    -0.248 NA
ATOM     74  C   UNL A   1      37.493  32.059  34.113  1.00  0.00     0.031 C 
ATOM     75  C   UNL A   1      42.127  29.077  33.820  1.00  0.00     0.029 A 
ATOM     76  C   UNL A   1      40.812  29.471  34.039  1.00  0.00     0.049 A 
ATOM     77  H   UNL A   1      40.083  30.412  35.773  1.00  0.00     0.167 HD
ATOM     78  C   UNL A   1      38.520  30.128  33.394  1.00  0.00     0.074 A 
ATOM     79  C   UNL A   1      38.065  30.925  34.520  1.00  0.00     0.031 C 
ATOM     80  C   UNL A   1      39.642  29.383  33.198  1.00  0.00     0.037 A 
BRANCH  67  81
ATOM     81  C   UNL A   1      41.590  32.349  37.301  1.00  0.00     0.058 A 
ATOM     82  C   UNL A   1      40.343  32.979  37.288  1.00  0.00     0.135 A 
ATOM     83  C   UNL A   1      42.228  32.212  38.556  1.00  0.00     0.135 A 
ATOM     84  F   UNL A   1      39.715  33.216  36.126  1.00  0.00    -0.206 F 
ATOM     85  C   UNL A   1      39.731  33.401  38.465  1.00  0.00     0.059 A 
ATOM     86  C   UNL A   1      41.612  32.566  39.745  1.00  0.00     0.059 A 
ATOM     87  F   UNL A   1      43.493  31.772  38.649  1.00  0.00    -0.206 F 
ATOM     88  C   UNL A   1      40.367  33.175  39.687  1.00  0.00     0.060 A 
BRANCH  88  89
ATOM     89  S   UNL A   1      39.563  33.692  41.213  1.00  0.00     0.124 S 
ATOM     90  O   UNL A   1      40.576  34.571  41.784  1.00  0.00    -0.237 OA
ATOM     91  O   UNL A   1      38.353  34.344  40.721  1.00  0.00    -0.237 OA
ATOM     92  O   UNL A   1      39.345  32.430  41.913  1.00  0.00    -0.744 OA
ENDBRANCH  88  89
ENDBRANCH  67  81
BRANCH  68  93
ATOM     93  C   UNL A   1      36.297  33.859  31.759  1.00  0.00     0.058 A 
ATOM     94  C   UNL A   1      35.223  33.670  30.873  1.00  0.00     0.135 A 
ATOM     95  C   UNL A   1      36.112  34.827  32.761  1.00  0.00     0.135 A 
ATOM     96  F   UNL A   1      35.286  32.710  29.939  1.00  0.00    -0.206 F 
ATOM     97  C   UNL A   1      34.059  34.451  30.925  1.00  0.00     0.059 A 
ATOM     98  C   UNL A   1      34.961  35.623  32.835  1.00  0.00     0.059 A 
ATOM     99  F   UNL A   1      37.057  35.009  33.696  1.00  0.00    -0.206 F 
ATOM    100  C   UNL A   1      33.944  35.442  31.899  1.00  0.00     0.060 A 
BRANCH 100 101
ATOM    101  S   UNL A   1      32.531  36.578  31.900  1.00  0.00     0.124 S 
ATOM    102  O   UNL A   1      33.028  37.732  32.644  1.00  0.00    -0.237 OA
ATOM    103  O   UNL A   1      32.309  36.791  30.475  1.00  0.00    -0.237 OA
ATOM    104  O   UNL A   1      31.508  35.798  32.594  1.00  0.00    -0.744 OA
ENDBRANCH 100 101
ENDBRANCH  68  93
BRANCH  80 105
ATOM    105  C   UNL A   1      39.728  28.747  31.839  1.00  0.00     0.058 A 
ATOM    106  C   UNL A   1      39.017  27.585  31.493  1.00  0.00     0.135 A 
ATOM    107  C   UNL A   1      40.583  29.293  30.876  1.00  0.00     0.135 A 
ATOM    108  F   UNL A   1      38.146  27.043  32.355  1.00  0.00    -0.206 F 
ATOM    109  C   UNL A   1      39.161  26.977  30.245  1.00  0.00     0.059 A 
ATOM    110  C   UNL A   1      40.723  28.720  29.613  1.00  0.00     0.059 A 
ATOM    111  F   UNL A   1      41.273  30.412  31.148  1.00  0.00    -0.206 F 
ATOM    112  C   UNL A   1      40.017  27.555  29.309  1.00  0.00     0.060 A 
BRANCH 112 113
ATOM    113  S   UNL A   1      40.134  26.862  27.642  1.00  0.00     0.124 S 
ATOM    114  O   UNL A   1      39.815  28.014  26.804  1.00  0.00    -0.237 OA
ATOM    115  O   UNL A   1      41.514  26.391  27.570  1.00  0.00    -0.237 OA
ATOM    116  O   UNL A   1      39.129  25.802  27.660  1.00  0.00    -0.744 OA
ENDBRANCH 112 113
ENDBRANCH  80 105
ENDBRANCH  54  55
ENDBRANCH  47  49
ENDBRANCH  46  47
ENDBRANCH  45  46
ENDBRANCH  44  45
ENDBRANCH  43  44
ENDBRANCH  42  43
ENDBRANCH   1  42
TORSDOF 26
ENDMDL
MODEL 2
REMARK VINA RESULT:     -10.4      4.365     10.329
REMARK SMILES Cc1coc2cc3c(cc12)[C@@H](C)[C@H](CCC(=O)N[C@@H](Cc1c[nH]c2ccccc12)C(=O)OCCOCCOCCOC(=O)c1ccc(-c2c4nc(c(-c5c(F)cc(S(=O)(=O)[O-])cc5F)c5ccc([nH]5)c(-c5c(F)cc(S(=O)(=O)[O-])cc5F)c5nc(c(-c6c(F)cc(S(=O)(=O)[O-])cc6F)c6ccc2[nH]6)C=C5)C=C4)cc1)C(=O)O3
REMARK SMILES IDX 36 1 35 2 34 3 33 4 32 5 30 6 31 7 19 8 18 9 16 10 17 11
REMARK SMILES IDX 15 13 14 14 13 15 1 16 2 17 3 18 10 19 4 20 5 21 9 22 6 23
REMARK SMILES IDX 8 24 7 25 11 26 112 27 12 28 110 29 111 30 20 31 21 32 22 33
REMARK SMILES IDX 29 34 23 35 24 36 28 37 25 39 27 40 26 41 37 42 38 43 39 44
REMARK SMILES IDX 40 45 41 46 42 47 43 48 44 49 45 50 109 51 46 52 108 53
REMARK SMILES IDX 47 54 48 55 49 56 102 57 50 58 107 59 101 60 103 61 51 62
REMARK SMILES IDX 106 63 100 64 99 65 52 67 86 68 65 69 85 70 66 71 69 72
REMARK SMILES IDX 84 73 104 74 67 75 68 76 83 78 105 79 70 80 53 81 54 82
REMARK SMILES IDX 63 83 55 84 56 85 62 86 64 87 57 88 58 89 59 90 60 91 61 92
REMARK SMILES IDX 87 93 88 94 97 95 89 96 90 97 96 98 98 99 91 100 92 101
REMARK SMILES IDX 93 102 94 103 95 104 71 105 72 106 81 107 73 108 74 109
REMARK SMILES IDX 80 110 82 111 75 112 76 113 77 114 78 115 79 116
REMARK H PARENT 18 12 23 38 103 66 69 77
REMARK Flexibility Score: inf
ROOT
ATOM      1  C   UNL A   1      33.010  27.849  25.534  1.00  0.00     0.188 C 
ENDROOT
BRANCH   1   2
ATOM      2  O   UNL A   1      33.629  26.996  26.483  1.00  0.00    -0.376 OA
BRANCH   2   3
ATOM      3  C   UNL A   1      33.932  25.694  25.976  1.00  0.00     0.202 C 
BRANCH   3   4
ATOM      4  C   UNL A   1      33.120  24.568  26.628  1.00  0.00     0.261 C 
BRANCH   4   5
ATOM      5  O   UNL A   1      31.689  24.854  26.695  1.00  0.00    -0.462 OA
BRANCH   5   6
ATOM      6  C   UNL A   1      30.888  23.786  26.437  1.00  0.00     0.329 C 
ATOM      7  O   UNL A   1      29.955  23.481  27.180  1.00  0.00    -0.250 OA
BRANCH   6   8
ATOM      8  C   UNL A   1      31.369  22.705  25.209  1.00  0.00     0.196 C 
BRANCH   8   9
ATOM      9  N   UNL A   1      31.914  20.742  25.215  1.00  0.00    -0.342 N 
ATOM     10  C   UNL A   1      32.693  19.579  25.094  1.00  0.00     0.220 C 
ATOM     11  O   UNL A   1      32.153  18.517  25.419  1.00  0.00    -0.275 OA
ATOM     12  H   UNL A   1      31.057  20.337  25.480  1.00  0.00     0.164 HD
BRANCH  10  13
ATOM     13  C   UNL A   1      34.157  19.582  24.781  1.00  0.00     0.101 C 
BRANCH  13  14
ATOM     14  C   UNL A   1      34.846  20.657  25.536  1.00  0.00     0.026 C 
BRANCH  14  15
ATOM     15  C   UNL A   1      36.141  20.943  24.806  1.00  0.00     0.107 C 
ATOM     16  C   UNL A   1      39.585  27.276  27.597  1.00  0.00     0.048 C 
ATOM     17  C   UNL A   1      40.045  25.893  27.852  1.00  0.00    -0.005 A 
ATOM     18  C   UNL A   1      41.072  25.468  28.662  1.00  0.00     0.199 A 
ATOM     19  C   UNL A   1      39.497  24.718  27.254  1.00  0.00     0.024 A 
ATOM     20  O   UNL A   1      41.264  24.134  28.546  1.00  0.00    -0.464 OA
ATOM     21  C   UNL A   1      40.357  23.666  27.639  1.00  0.00     0.137 A 
ATOM     22  C   UNL A   1      38.346  24.545  26.441  1.00  0.00     0.020 A 
ATOM     23  C   UNL A   1      40.360  22.334  27.212  1.00  0.00     0.095 A 
ATOM     24  C   UNL A   1      38.196  23.282  25.929  1.00  0.00    -0.001 A 
ATOM     25  C   UNL A   1      39.415  22.185  26.231  1.00  0.00     0.138 A 
ATOM     26  C   UNL A   1      36.534  22.833  25.177  1.00  0.00     0.034 C 
ATOM     27  O   UNL A   1      39.089  20.445  25.819  1.00  0.00    -0.426 OA
ATOM     28  C   UNL A   1      36.052  23.731  24.035  1.00  0.00     0.014 C 
ATOM     29  C   UNL A   1      37.611  19.667  25.157  1.00  0.00     0.314 C 
ATOM     30  O   UNL A   1      37.704  18.478  24.851  1.00  0.00    -0.251 OA
ENDBRANCH  14  15
ENDBRANCH  13  14
ENDBRANCH  10  13
ENDBRANCH   8   9
BRANCH   8  31
ATOM     31  C   UNL A   1      30.641  23.634  24.018  1.00  0.00     0.074 C 
BRANCH  31  32
ATOM     32  C   UNL A   1      31.008  25.037  23.584  1.00  0.00    -0.020 A 
ATOM     33  C   UNL A   1      32.214  25.235  22.922  1.00  0.00     0.087 A 
ATOM     34  C   UNL A   1      30.337  26.305  23.540  1.00  0.00     0.003 A 
ATOM     35  N   UNL A   1      32.168  26.433  22.281  1.00  0.00    -0.361 N 
ATOM     36  C   UNL A   1      30.975  27.052  22.545  1.00  0.00     0.046 A 
ATOM     37  C   UNL A   1      29.215  26.905  24.144  1.00  0.00     0.010 A 
ATOM     38  H   UNL A   1      32.884  26.800  21.713  1.00  0.00     0.166 HD
ATOM     39  C   UNL A   1      30.417  28.202  21.978  1.00  0.00     0.026 A 
ATOM     40  C   UNL A   1      28.638  28.055  23.600  1.00  0.00     0.001 A 
ATOM     41  C   UNL A   1      29.204  28.662  22.491  1.00  0.00     0.002 A 
ENDBRANCH  31  32
ENDBRANCH   8  31
ENDBRANCH   6   8
ENDBRANCH   5   6
ENDBRANCH   4   5
ENDBRANCH   3   4
ENDBRANCH   2   3
ENDBRANCH   1   2
BRANCH   1  42
ATOM     42  C   UNL A   1      31.785  28.553  26.088  1.00  0.00     0.188 C 
BRANCH  42  43
ATOM     43  O   UNL A   1      31.355  29.772  25.485  1.00  0.00    -0.376 OA
BRANCH  43  44
ATOM     44  C   UNL A   1      32.102  30.891  25.982  1.00  0.00     0.202 C 
BRANCH  44  45
ATOM     45  C   UNL A   1      32.823  30.678  27.334  1.00  0.00     0.261 C 
BRANCH  45  46
ATOM     46  O   UNL A   1      34.258  30.818  27.205  1.00  0.00    -0.460 OA
BRANCH  46  47
ATOM     47  C   UNL A   1      34.783  31.901  27.834  1.00  0.00     0.338 C 
ATOM     48  O   UNL A   1      34.151  32.902  28.138  1.00  0.00    -0.246 OA
BRANCH  47  49
ATOM     49  C   UNL A   1      36.139  31.577  28.386  1.00  0.00     0.060 A 
ATOM     50  C   UNL A   1      36.602  30.284  28.702  1.00  0.00     0.016 A 
ATOM     51  C   UNL A   1      36.888  32.674  28.796  1.00  0.00     0.016 A 
ATOM     52  C   UNL A   1      37.741  30.102  29.533  1.00  0.00     0.010 A 
ATOM     53  C   UNL A   1      38.014  32.484  29.599  1.00  0.00     0.010 A 
ATOM     54  C   UNL A   1      38.437  31.207  30.033  1.00  0.00    -0.014 A 
BRANCH  54  55
ATOM     55  C   UNL A   1      39.656  31.172  30.888  1.00  0.00     0.031 A 
ATOM     56  C   UNL A   1      39.505  31.945  32.129  1.00  0.00     0.074 A 
ATOM     57  C   UNL A   1      40.844  30.509  30.795  1.00  0.00     0.049 A 
ATOM     58  N   UNL A   1      40.113  33.070  32.332  1.00  0.00    -0.248 NA
ATOM     59  C   UNL A   1      38.587  31.539  33.195  1.00  0.00     0.031 C 
ATOM     60  C   UNL A   1      41.443  29.863  29.633  1.00  0.00     0.029 A 
ATOM     61  N   UNL A   1      41.764  30.197  31.804  1.00  0.00    -0.354 N 
ATOM     62  C   UNL A   1      39.876  33.358  33.652  1.00  0.00     0.074 A 
ATOM     63  C   UNL A   1      38.763  32.535  34.065  1.00  0.00     0.031 C 
ATOM     64  C   UNL A   1      42.517  29.125  30.013  1.00  0.00     0.029 A 
ATOM     65  C   UNL A   1      42.672  29.191  31.466  1.00  0.00     0.049 A 
ATOM     66  H   UNL A   1      41.769  30.649  32.679  1.00  0.00     0.167 HD
ATOM     67  C   UNL A   1      40.810  33.989  34.405  1.00  0.00     0.037 A 
ATOM     68  C   UNL A   1      43.769  28.691  32.103  1.00  0.00     0.037 A 
ATOM     69  C   UNL A   1      41.901  34.544  33.643  1.00  0.00     0.049 A 
ATOM     70  C   UNL A   1      44.448  29.806  32.766  1.00  0.00     0.074 A 
ATOM     71  C   UNL A   1      42.014  35.401  32.565  1.00  0.00     0.029 A 
ATOM     72  N   UNL A   1      43.125  33.936  33.779  1.00  0.00    -0.354 N 
ATOM     73  N   UNL A   1      45.142  30.683  32.107  1.00  0.00    -0.248 NA
ATOM     74  C   UNL A   1      44.190  30.126  34.164  1.00  0.00     0.031 C 
ATOM     75  C   UNL A   1      43.231  35.066  31.901  1.00  0.00     0.029 A 
ATOM     76  C   UNL A   1      43.817  34.013  32.592  1.00  0.00     0.049 A 
ATOM     77  H   UNL A   1      43.456  33.509  34.602  1.00  0.00     0.167 HD
ATOM     78  C   UNL A   1      44.965  31.839  32.836  1.00  0.00     0.074 A 
ATOM     79  C   UNL A   1      44.583  31.401  34.167  1.00  0.00     0.031 C 
ATOM     80  C   UNL A   1      44.761  33.007  32.168  1.00  0.00     0.037 A 
BRANCH  67  81
ATOM     81  C   UNL A   1      40.871  33.745  35.876  1.00  0.00     0.058 A 
ATOM     82  C   UNL A   1      41.319  32.517  36.370  1.00  0.00     0.135 A 
ATOM     83  C   UNL A   1      40.360  34.668  36.816  1.00  0.00     0.135 A 
ATOM     84  F   UNL A   1      41.743  31.560  35.530  1.00  0.00    -0.206 F 
ATOM     85  C   UNL A   1      41.313  32.239  37.734  1.00  0.00     0.059 A 
ATOM     86  C   UNL A   1      40.403  34.440  38.182  1.00  0.00     0.059 A 
ATOM     87  F   UNL A   1      39.759  35.803  36.422  1.00  0.00    -0.206 F 
ATOM     88  C   UNL A   1      40.869  33.213  38.630  1.00  0.00     0.060 A 
BRANCH  88  89
ATOM     89  S   UNL A   1      40.890  32.867  40.397  1.00  0.00     0.124 S 
ATOM     90  O   UNL A   1      41.909  31.826  40.470  1.00  0.00    -0.237 OA
ATOM     91  O   UNL A   1      41.255  34.162  40.963  1.00  0.00    -0.237 OA
ATOM     92  O   UNL A   1      39.521  32.438  40.664  1.00  0.00    -0.744 OA
ENDBRANCH  88  89
ENDBRANCH  67  81
BRANCH  68  93
ATOM     93  C   UNL A   1      43.933  27.318  32.660  1.00  0.00     0.058 A 
ATOM     94  C   UNL A   1      45.005  26.494  32.276  1.00  0.00     0.135 A 
ATOM     95  C   UNL A   1      43.124  26.838  33.703  1.00  0.00     0.135 A 
ATOM     96  F   UNL A   1      45.873  26.915  31.344  1.00  0.00    -0.206 F 
ATOM     97  C   UNL A   1      45.219  25.228  32.840  1.00  0.00     0.059 A 
ATOM     98  C   UNL A   1      43.312  25.575  34.282  1.00  0.00     0.059 A 
ATOM     99  F   UNL A   1      42.130  27.601  34.183  1.00  0.00    -0.206 F 
ATOM    100  C   UNL A   1      44.353  24.766  33.830  1.00  0.00     0.060 A 
BRANCH 100 101
ATOM    101  S   UNL A   1      44.496  23.075  34.468  1.00  0.00     0.124 S 
ATOM    102  O   UNL A   1      44.343  23.246  35.910  1.00  0.00    -0.237 OA
ATOM    103  O   UNL A   1      43.396  22.399  33.791  1.00  0.00    -0.237 OA
ATOM    104  O   UNL A   1      45.839  22.694  34.037  1.00  0.00    -0.744 OA
ENDBRANCH 100 101
ENDBRANCH  68  93
BRANCH  80 105
ATOM    105  C   UNL A   1      45.301  33.015  30.765  1.00  0.00     0.058 A 
ATOM    106  C   UNL A   1      44.511  32.717  29.641  1.00  0.00     0.135 A 
ATOM    107  C   UNL A   1      46.657  33.283  30.550  1.00  0.00     0.135 A 
ATOM    108  F   UNL A   1      43.196  32.499  29.776  1.00  0.00    -0.206 F 
ATOM    109  C   UNL A   1      45.050  32.670  28.354  1.00  0.00     0.059 A 
ATOM    110  C   UNL A   1      47.212  33.269  29.271  1.00  0.00     0.059 A 
ATOM    111  F   UNL A   1      47.453  33.590  31.587  1.00  0.00    -0.206 F 
ATOM    112  C   UNL A   1      46.403  32.950  28.178  1.00  0.00     0.060 A 
BRANCH 112 113
ATOM    113  S   UNL A   1      47.105  33.017  26.513  1.00  0.00     0.124 S 
ATOM    114  O   UNL A   1      46.064  33.715  25.765  1.00  0.00    -0.237 OA
ATOM    115  O   UNL A   1      48.350  33.756  26.703  1.00  0.00    -0.237 OA
ATOM    116  O   UNL A   1      47.280  31.606  26.177  1.00  0.00    -0.744 OA
ENDBRANCH 112 113
ENDBRANCH  80 105
ENDBRANCH  54  55
ENDBRANCH  47  49
ENDBRANCH  46  47
ENDBRANCH  45  46
ENDBRANCH  44  45
ENDBRANCH  43  44
ENDBRANCH  42  43
ENDBRANCH   1  42
TORSDOF 26
ENDMDL
MODEL 3
REMARK VINA RESULT:     -10.3      4.370     10.110
REMARK SMILES Cc1coc2cc3c(cc12)[C@@H](C)[C@H](CCC(=O)N[C@@H](Cc1c[nH]c2ccccc12)C(=O)OCCOCCOCCOC(=O)c1ccc(-c2c4nc(c(-c5c(F)cc(S(=O)(=O)[O-])cc5F)c5ccc([nH]5)c(-c5c(F)cc(S(=O)(=O)[O-])cc5F)c5nc(c(-c6c(F)cc(S(=O)(=O)[O-])cc6F)c6ccc2[nH]6)C=C5)C=C4)cc1)C(=O)O3
REMARK SMILES IDX 36 1 35 2 34 3 33 4 32 5 30 6 31 7 19 8 18 9 16 10 17 11
REMARK SMILES IDX 15 13 14 14 13 15 1 16 2 17 3 18 10 19 4 20 5 21 9 22 6 23
REMARK SMILES IDX 8 24 7 25 11 26 112 27 12 28 110 29 111 30 20 31 21 32 22 33
REMARK SMILES IDX 29 34 23 35 24 36 28 37 25 39 27 40 26 41 37 42 38 43 39 44
REMARK SMILES IDX 40 45 41 46 42 47 43 48 44 49 45 50 109 51 46 52 108 53
REMARK SMILES IDX 47 54 48 55 49 56 102 57 50 58 107 59 101 60 103 61 51 62
REMARK SMILES IDX 106 63 100 64 99 65 52 67 86 68 65 69 85 70 66 71 69 72
REMARK SMILES IDX 84 73 104 74 67 75 68 76 83 78 105 79 70 80 53 81 54 82
REMARK SMILES IDX 63 83 55 84 56 85 62 86 64 87 57 88 58 89 59 90 60 91 61 92
REMARK SMILES IDX 87 93 88 94 97 95 89 96 90 97 96 98 98 99 91 100 92 101
REMARK SMILES IDX 93 102 94 103 95 104 71 105 72 106 81 107 73 108 74 109
REMARK SMILES IDX 80 110 82 111 75 112 76 113 77 114 78 115 79 116
REMARK H PARENT 18 12 23 38 103 66 69 77
REMARK Flexibility Score: inf
ROOT
ATOM      1  C   UNL A   1      32.915  27.975  25.560  1.00  0.00     0.188 C 
ENDROOT
BRANCH   1   2
ATOM      2  O   UNL A   1      33.326  27.009  26.514  1.00  0.00    -0.376 OA
BRANCH   2   3
ATOM      3  C   UNL A   1      33.744  25.770  25.935  1.00  0.00     0.202 C 
BRANCH   3   4
ATOM      4  C   UNL A   1      33.052  24.539  26.532  1.00  0.00     0.261 C 
BRANCH   4   5
ATOM      5  O   UNL A   1      31.639  24.760  26.830  1.00  0.00    -0.462 OA
BRANCH   5   6
ATOM      6  C   UNL A   1      30.822  23.730  26.485  1.00  0.00     0.329 C 
ATOM      7  O   UNL A   1      29.830  23.437  27.153  1.00  0.00    -0.250 OA
BRANCH   6   8
ATOM      8  C   UNL A   1      31.348  22.670  25.258  1.00  0.00     0.196 C 
BRANCH   8   9
ATOM      9  N   UNL A   1      31.922  20.715  25.256  1.00  0.00    -0.342 N 
ATOM     10  C   UNL A   1      32.722  19.565  25.146  1.00  0.00     0.220 C 
ATOM     11  O   UNL A   1      32.187  18.491  25.438  1.00  0.00    -0.275 OA
ATOM     12  H   UNL A   1      31.063  20.294  25.486  1.00  0.00     0.164 HD
BRANCH  10  13
ATOM     13  C   UNL A   1      34.196  19.594  24.884  1.00  0.00     0.101 C 
BRANCH  13  14
ATOM     14  C   UNL A   1      34.819  20.762  25.554  1.00  0.00     0.026 C 
BRANCH  14  15
ATOM     15  C   UNL A   1      36.106  21.056  24.812  1.00  0.00     0.107 C 
ATOM     16  C   UNL A   1      39.612  27.323  27.674  1.00  0.00     0.048 C 
ATOM     17  C   UNL A   1      40.070  25.933  27.898  1.00  0.00    -0.005 A 
ATOM     18  C   UNL A   1      41.106  25.489  28.687  1.00  0.00     0.199 A 
ATOM     19  C   UNL A   1      39.509  24.772  27.286  1.00  0.00     0.024 A 
ATOM     20  O   UNL A   1      41.290  24.157  28.544  1.00  0.00    -0.464 OA
ATOM     21  C   UNL A   1      40.369  23.709  27.640  1.00  0.00     0.137 A 
ATOM     22  C   UNL A   1      38.347  24.618  26.484  1.00  0.00     0.020 A 
ATOM     23  C   UNL A   1      40.361  22.386  27.189  1.00  0.00     0.095 A 
ATOM     24  C   UNL A   1      38.185  23.366  25.951  1.00  0.00    -0.001 A 
ATOM     25  C   UNL A   1      39.403  22.258  26.217  1.00  0.00     0.138 A 
ATOM     26  C   UNL A   1      36.512  22.937  25.213  1.00  0.00     0.034 C 
ATOM     27  O   UNL A   1      39.064  20.527  25.778  1.00  0.00    -0.426 OA
ATOM     28  C   UNL A   1      36.019  23.858  24.094  1.00  0.00     0.014 C 
ATOM     29  C   UNL A   1      37.574  19.767  25.120  1.00  0.00     0.314 C 
ATOM     30  O   UNL A   1      37.658  18.584  24.792  1.00  0.00    -0.251 OA
ENDBRANCH  14  15
ENDBRANCH  13  14
ENDBRANCH  10  13
ENDBRANCH   8   9
BRANCH   8  31
ATOM     31  C   UNL A   1      30.636  23.601  24.059  1.00  0.00     0.074 C 
BRANCH  31  32
ATOM     32  C   UNL A   1      31.048  24.981  23.590  1.00  0.00    -0.020 A 
ATOM     33  C   UNL A   1      32.223  25.112  22.860  1.00  0.00     0.087 A 
ATOM     34  C   UNL A   1      30.440  26.280  23.569  1.00  0.00     0.003 A 
ATOM     35  N   UNL A   1      32.202  26.305  22.210  1.00  0.00    -0.361 N 
ATOM     36  C   UNL A   1      31.058  26.985  22.532  1.00  0.00     0.046 A 
ATOM     37  C   UNL A   1      29.385  26.941  24.228  1.00  0.00     0.010 A 
ATOM     38  H   UNL A   1      32.902  26.631  21.599  1.00  0.00     0.166 HD
ATOM     39  C   UNL A   1      30.528  28.158  21.984  1.00  0.00     0.026 A 
ATOM     40  C   UNL A   1      28.836  28.114  23.704  1.00  0.00     0.001 A 
ATOM     41  C   UNL A   1      29.369  28.682  22.559  1.00  0.00     0.002 A 
ENDBRANCH  31  32
ENDBRANCH   8  31
ENDBRANCH   6   8
ENDBRANCH   5   6
ENDBRANCH   4   5
ENDBRANCH   3   4
ENDBRANCH   2   3
ENDBRANCH   1   2
BRANCH   1  42
ATOM     42  C   UNL A   1      31.799  28.867  26.072  1.00  0.00     0.188 C 
BRANCH  42  43
ATOM     43  O   UNL A   1      31.517  30.085  25.385  1.00  0.00    -0.376 OA
BRANCH  43  44
ATOM     44  C   UNL A   1      31.842  31.226  26.192  1.00  0.00     0.202 C 
BRANCH  44  45
ATOM     45  C   UNL A   1      32.570  30.929  27.524  1.00  0.00     0.261 C 
BRANCH  45  46
ATOM     46  O   UNL A   1      33.860  31.584  27.589  1.00  0.00    -0.460 OA
BRANCH  46  47
ATOM     47  C   UNL A   1      34.912  30.749  27.790  1.00  0.00     0.338 C 
ATOM     48  O   UNL A   1      35.231  29.840  27.038  1.00  0.00    -0.246 OA
BRANCH  47  49
ATOM     49  C   UNL A   1      35.804  31.284  28.869  1.00  0.00     0.060 A 
ATOM     50  C   UNL A   1      36.002  32.649  29.159  1.00  0.00     0.016 A 
ATOM     51  C   UNL A   1      36.637  30.346  29.468  1.00  0.00     0.016 A 
ATOM     52  C   UNL A   1      37.109  33.074  29.944  1.00  0.00     0.010 A 
ATOM     53  C   UNL A   1      37.712  30.773  30.249  1.00  0.00     0.010 A 
ATOM     54  C   UNL A   1      38.009  32.138  30.462  1.00  0.00    -0.014 A 
BRANCH  54  55
ATOM     55  C   UNL A   1      39.193  32.429  31.318  1.00  0.00     0.031 A 
ATOM     56  C   UNL A   1      40.260  33.138  30.597  1.00  0.00     0.074 A 
ATOM     57  C   UNL A   1      39.455  32.245  32.644  1.00  0.00     0.049 A 
ATOM     58  N   UNL A   1      41.376  32.575  30.266  1.00  0.00    -0.248 NA
ATOM     59  C   UNL A   1      40.099  34.515  30.124  1.00  0.00     0.031 C 
ATOM     60  C   UNL A   1      38.769  31.385  33.602  1.00  0.00     0.029 A 
ATOM     61  N   UNL A   1      40.392  32.893  33.458  1.00  0.00    -0.354 N 
ATOM     62  C   UNL A   1      42.159  33.602  29.805  1.00  0.00     0.074 A 
ATOM     63  C   UNL A   1      41.272  34.706  29.518  1.00  0.00     0.031 C 
ATOM     64  C   UNL A   1      39.192  31.663  34.862  1.00  0.00     0.029 A 
ATOM     65  C   UNL A   1      40.153  32.765  34.828  1.00  0.00     0.049 A 
ATOM     66  H   UNL A   1      41.156  33.398  33.094  1.00  0.00     0.167 HD
ATOM     67  C   UNL A   1      43.499  33.602  30.009  1.00  0.00     0.037 A 
ATOM     68  C   UNL A   1      40.873  33.135  35.925  1.00  0.00     0.037 A 
ATOM     69  C   UNL A   1      44.020  32.345  30.486  1.00  0.00     0.049 A 
ATOM     70  C   UNL A   1      42.291  32.926  35.621  1.00  0.00     0.074 A 
ATOM     71  C   UNL A   1      43.960  31.030  30.064  1.00  0.00     0.029 A 
ATOM     72  N   UNL A   1      44.465  32.311  31.785  1.00  0.00    -0.354 N 
ATOM     73  N   UNL A   1      42.822  31.743  35.582  1.00  0.00    -0.248 NA
ATOM     74  C   UNL A   1      43.124  34.011  35.117  1.00  0.00     0.031 C 
ATOM     75  C   UNL A   1      44.100  30.219  31.229  1.00  0.00     0.029 A 
ATOM     76  C   UNL A   1      44.235  31.065  32.323  1.00  0.00     0.049 A 
ATOM     77  H   UNL A   1      44.886  33.064  32.258  1.00  0.00     0.167 HD
ATOM     78  C   UNL A   1      43.799  31.867  34.618  1.00  0.00     0.074 A 
ATOM     79  C   UNL A   1      44.087  33.289  34.542  1.00  0.00     0.031 C 
ATOM     80  C   UNL A   1      43.967  30.854  33.726  1.00  0.00     0.037 A 
BRANCH  67  81
ATOM     81  C   UNL A   1      44.238  34.894  30.115  1.00  0.00     0.058 A 
ATOM     82  C   UNL A   1      44.007  35.753  31.193  1.00  0.00     0.135 A 
ATOM     83  C   UNL A   1      45.082  35.368  29.086  1.00  0.00     0.135 A 
ATOM     84  F   UNL A   1      43.153  35.404  32.168  1.00  0.00    -0.206 F 
ATOM     85  C   UNL A   1      44.626  36.997  31.275  1.00  0.00     0.059 A 
ATOM     86  C   UNL A   1      45.760  36.573  29.175  1.00  0.00     0.059 A 
ATOM     87  F   UNL A   1      45.232  34.685  27.939  1.00  0.00    -0.206 F 
ATOM     88  C   UNL A   1      45.512  37.388  30.270  1.00  0.00     0.060 A 
BRANCH  88  89
ATOM     89  S   UNL A   1      46.339  38.983  30.389  1.00  0.00     0.124 S 
ATOM     90  O   UNL A   1      47.140  38.798  31.594  1.00  0.00    -0.237 OA
ATOM     91  O   UNL A   1      47.077  39.046  29.132  1.00  0.00    -0.237 OA
ATOM     92  O   UNL A   1      45.227  39.922  30.501  1.00  0.00    -0.744 OA
ENDBRANCH  88  89
ENDBRANCH  67  81
BRANCH  68  93
ATOM     93  C   UNL A   1      40.500  34.165  36.936  1.00  0.00     0.058 A 
ATOM     94  C   UNL A   1      40.206  35.487  36.561  1.00  0.00     0.135 A 
ATOM     95  C   UNL A   1      40.273  33.837  38.283  1.00  0.00     0.135 A 
ATOM     96  F   UNL A   1      40.316  35.859  35.277  1.00  0.00    -0.206 F 
ATOM     97  C   UNL A   1      39.784  36.455  37.485  1.00  0.00     0.059 A 
ATOM     98  C   UNL A   1      39.856  34.784  39.228  1.00  0.00     0.059 A 
ATOM     99  F   UNL A   1      40.451  32.575  38.702  1.00  0.00    -0.206 F 
ATOM    100  C   UNL A   1      39.632  36.099  38.824  1.00  0.00     0.060 A 
BRANCH 100 101
ATOM    101  S   UNL A   1      39.247  37.354  40.076  1.00  0.00     0.124 S 
ATOM    102  O   UNL A   1      38.656  36.575  41.160  1.00  0.00    -0.237 OA
ATOM    103  O   UNL A   1      40.560  37.925  40.349  1.00  0.00    -0.237 OA
ATOM    104  O   UNL A   1      38.310  38.222  39.365  1.00  0.00    -0.744 OA
ENDBRANCH 100 101
ENDBRANCH  68  93
BRANCH  80 105
ATOM    105  C   UNL A   1      43.484  29.517  34.214  1.00  0.00     0.058 A 
ATOM    106  C   UNL A   1      42.191  29.031  33.955  1.00  0.00     0.135 A 
ATOM    107  C   UNL A   1      44.327  28.726  35.002  1.00  0.00     0.135 A 
ATOM    108  F   UNL A   1      41.354  29.719  33.167  1.00  0.00    -0.206 F 
ATOM    109  C   UNL A   1      41.744  27.814  34.472  1.00  0.00     0.059 A 
ATOM    110  C   UNL A   1      43.913  27.495  35.507  1.00  0.00     0.059 A 
ATOM    111  F   UNL A   1      45.578  29.135  35.266  1.00  0.00    -0.206 F 
ATOM    112  C   UNL A   1      42.616  27.050  35.247  1.00  0.00     0.060 A 
BRANCH 112 113
ATOM    113  S   UNL A   1      42.110  25.414  35.829  1.00  0.00     0.124 S 
ATOM    114  O   UNL A   1      40.662  25.454  35.653  1.00  0.00    -0.237 OA
ATOM    115  O   UNL A   1      42.830  24.505  34.942  1.00  0.00    -0.237 OA
ATOM    116  O   UNL A   1      42.574  25.405  37.215  1.00  0.00    -0.744 OA
ENDBRANCH 112 113
ENDBRANCH  80 105
ENDBRANCH  54  55
ENDBRANCH  47  49
ENDBRANCH  46  47
ENDBRANCH  45  46
ENDBRANCH  44  45
ENDBRANCH  43  44
ENDBRANCH  42  43
ENDBRANCH   1  42
TORSDOF 26
ENDMDL
