MODEL 1
REMARK VINA RESULT:     -10.4      0.000      0.000
REMARK SMILES Cc1cn2c(=O)cc(CSc3ccccc3C(=O)OCCOCCOCCOC(=O)c3ccc(-c4c5nc(c(-c6c(F)cc(S(=O)(=O)[O-])cc6F)c6ccc([nH]6)c(-c6c(F)cc(S(=O)(=O)[O-])cc6F)c6nc(c(-c7c(F)cc(S(=O)(=O)[O-])cc7F)c7ccc4[nH]7)C=C6)C=C5)cc3)nc2s1
REMARK SMILES IDX 23 1 22 2 21 3 20 4 19 5 17 6 18 7 16 8 11 9 12 10 13 11
REMARK SMILES IDX 15 12 14 13 10 14 9 15 8 16 1 17 2 18 3 19 99 20 4 21 98 22
REMARK SMILES IDX 5 23 97 24 6 25 7 26 24 27 25 28 26 29 27 30 28 31 29 32
REMARK SMILES IDX 30 33 31 34 32 35 96 36 33 37 95 38 34 39 35 40 36 41 89 42
REMARK SMILES IDX 37 43 94 44 88 45 90 46 38 47 93 48 87 49 86 50 39 52 73 53
REMARK SMILES IDX 52 54 72 55 53 56 56 57 71 58 91 59 54 60 55 61 70 63 92 64
REMARK SMILES IDX 57 65 40 66 41 67 50 68 42 69 43 70 49 71 51 72 44 73 45 74
REMARK SMILES IDX 46 75 47 76 48 77 74 78 75 79 84 80 76 81 77 82 83 83 85 84
REMARK SMILES IDX 78 85 79 86 80 87 81 88 82 89 58 90 59 91 68 92 60 93 61 94
REMARK SMILES IDX 67 95 69 96 62 97 63 98 64 99 65 100 66 101
REMARK H PARENT 90 51 56 62
REMARK Flexibility Score: inf
ROOT
ATOM      1  C   UNL A   1      34.559  31.751  27.664  1.00  0.00     0.188 C 
ENDROOT
BRANCH   1   2
ATOM      2  O   UNL A   1      33.308  31.097  27.824  1.00  0.00    -0.376 OA
BRANCH   2   3
ATOM      3  C   UNL A   1      33.046  29.910  27.092  1.00  0.00     0.202 C 
BRANCH   3   4
ATOM      4  C   UNL A   1      32.601  30.051  25.624  1.00  0.00     0.261 C 
BRANCH   4   5
ATOM      5  O   UNL A   1      32.246  28.815  24.968  1.00  0.00    -0.460 OA
BRANCH   5   6
ATOM      6  C   UNL A   1      31.930  28.901  23.654  1.00  0.00     0.339 C 
ATOM      7  O   UNL A   1      32.724  28.911  22.723  1.00  0.00    -0.246 OA
BRANCH   6   8
ATOM      8  C   UNL A   1      30.469  28.754  23.422  1.00  0.00     0.073 A 
ATOM      9  C   UNL A   1      29.767  27.541  23.292  1.00  0.00     0.022 A 
ATOM     10  C   UNL A   1      28.361  27.587  23.224  1.00  0.00     0.016 A 
ATOM     11  C   UNL A   1      27.668  28.800  23.230  1.00  0.00     0.001 A 
ATOM     12  C   UNL A   1      29.758  29.973  23.407  1.00  0.00     0.017 A 
ATOM     13  C   UNL A   1      28.368  29.996  23.304  1.00  0.00     0.001 A 
BRANCH   9  14
ATOM     14  S   UNL A   1      30.474  25.902  23.368  1.00  0.00    -0.119 SA
BRANCH  14  15
ATOM     15  C   UNL A   1      30.714  25.670  25.162  1.00  0.00     0.131 C 
BRANCH  15  16
ATOM     16  C   UNL A   1      31.800  24.693  25.585  1.00  0.00     0.059 A 
ATOM     17  C   UNL A   1      36.453  20.683  25.047  1.00  0.00     0.058 C 
ATOM     18  C   UNL A   1      35.319  21.630  25.203  1.00  0.00     0.022 A 
ATOM     19  C   UNL A   1      34.502  21.706  26.261  1.00  0.00     0.111 A 
ATOM     20  S   UNL A   1      34.896  22.824  23.992  1.00  0.00    -0.102 S 
ATOM     21  N   UNL A   1      33.552  22.695  26.162  1.00  0.00    -0.258 N 
ATOM     22  C   UNL A   1      33.577  23.418  24.991  1.00  0.00     0.197 A 
ATOM     23  C   UNL A   1      32.666  23.012  27.152  1.00  0.00     0.258 A 
ATOM     24  N   UNL A   1      32.781  24.384  24.661  1.00  0.00    -0.224 NA
ATOM     25  O   UNL A   1      32.625  22.526  28.275  1.00  0.00    -0.269 OA
ATOM     26  C   UNL A   1      31.716  24.071  26.774  1.00  0.00     0.097 A 
ENDBRANCH  15  16
ENDBRANCH  14  15
ENDBRANCH   9  14
ENDBRANCH   6   8
ENDBRANCH   5   6
ENDBRANCH   4   5
ENDBRANCH   3   4
ENDBRANCH   2   3
ENDBRANCH   1   2
BRANCH   1  27
ATOM     27  C   UNL A   1      34.765  33.216  28.099  1.00  0.00     0.188 C 
BRANCH  27  28
ATOM     28  O   UNL A   1      34.025  33.639  29.238  1.00  0.00    -0.376 OA
BRANCH  28  29
ATOM     29  C   UNL A   1      34.724  34.196  30.346  1.00  0.00     0.202 C 
BRANCH  29  30
ATOM     30  C   UNL A   1      34.766  33.251  31.544  1.00  0.00     0.261 C 
BRANCH  30  31
ATOM     31  O   UNL A   1      34.914  31.898  31.140  1.00  0.00    -0.460 OA
BRANCH  31  32
ATOM     32  C   UNL A   1      36.017  31.303  31.627  1.00  0.00     0.338 C 
ATOM     33  O   UNL A   1      36.327  31.187  32.809  1.00  0.00    -0.246 OA
BRANCH  32  34
ATOM     34  C   UNL A   1      36.797  30.763  30.517  1.00  0.00     0.060 A 
ATOM     35  C   UNL A   1      36.877  29.371  30.459  1.00  0.00     0.016 A 
ATOM     36  C   UNL A   1      37.725  31.612  29.900  1.00  0.00     0.016 A 
ATOM     37  C   UNL A   1      38.092  28.840  30.125  1.00  0.00     0.010 A 
ATOM     38  C   UNL A   1      38.950  31.083  29.597  1.00  0.00     0.010 A 
ATOM     39  C   UNL A   1      39.138  29.730  29.857  1.00  0.00    -0.014 A 
BRANCH  39  40
ATOM     40  C   UNL A   1      40.468  29.222  30.057  1.00  0.00     0.031 A 
ATOM     41  C   UNL A   1      40.910  29.209  31.451  1.00  0.00     0.074 A 
ATOM     42  C   UNL A   1      41.222  28.805  29.025  1.00  0.00     0.049 A 
ATOM     43  N   UNL A   1      41.746  30.011  32.015  1.00  0.00    -0.248 NA
ATOM     44  C   UNL A   1      40.222  28.286  32.358  1.00  0.00     0.031 C 
ATOM     45  C   UNL A   1      40.823  28.498  27.648  1.00  0.00     0.029 A 
ATOM     46  N   UNL A   1      42.540  28.492  29.044  1.00  0.00    -0.354 N 
ATOM     47  C   UNL A   1      41.850  29.561  33.321  1.00  0.00     0.074 A 
ATOM     48  C   UNL A   1      40.772  28.624  33.523  1.00  0.00     0.031 C 
ATOM     49  C   UNL A   1      41.835  27.841  27.034  1.00  0.00     0.029 A 
ATOM     50  C   UNL A   1      42.983  27.808  27.926  1.00  0.00     0.049 A 
ATOM     51  H   UNL A   1      43.135  28.730  29.793  1.00  0.00     0.167 HD
ATOM     52  C   UNL A   1      42.950  29.812  34.076  1.00  0.00     0.037 A 
ATOM     53  C   UNL A   1      44.180  27.182  27.816  1.00  0.00     0.037 A 
ATOM     54  C   UNL A   1      43.764  30.864  33.528  1.00  0.00     0.049 A 
ATOM     55  C   UNL A   1      45.092  27.793  28.825  1.00  0.00     0.074 A 
ATOM     56  C   UNL A   1      43.547  32.198  33.238  1.00  0.00     0.029 A 
ATOM     57  N   UNL A   1      44.899  30.515  32.835  1.00  0.00    -0.354 N 
ATOM     58  N   UNL A   1      45.526  29.023  28.770  1.00  0.00    -0.248 NA
ATOM     59  C   UNL A   1      45.173  27.170  30.141  1.00  0.00     0.031 C 
ATOM     60  C   UNL A   1      44.281  32.450  32.042  1.00  0.00     0.029 A 
ATOM     61  C   UNL A   1      44.923  31.264  31.683  1.00  0.00     0.049 A 
ATOM     62  H   UNL A   1      45.571  29.851  33.114  1.00  0.00     0.167 HD
ATOM     63  C   UNL A   1      45.554  29.460  30.089  1.00  0.00     0.074 A 
ATOM     64  C   UNL A   1      45.419  28.249  30.891  1.00  0.00     0.031 C 
ATOM     65  C   UNL A   1      45.408  30.782  30.406  1.00  0.00     0.037 A 
BRANCH  52  66
ATOM     66  C   UNL A   1      43.425  28.860  35.131  1.00  0.00     0.058 A 
ATOM     67  C   UNL A   1      43.666  29.320  36.435  1.00  0.00     0.135 A 
ATOM     68  C   UNL A   1      43.880  27.554  34.835  1.00  0.00     0.135 A 
ATOM     69  F   UNL A   1      43.297  30.559  36.799  1.00  0.00    -0.206 F 
ATOM     70  C   UNL A   1      44.350  28.548  37.373  1.00  0.00     0.059 A 
ATOM     71  C   UNL A   1      44.504  26.744  35.771  1.00  0.00     0.059 A 
ATOM     72  F   UNL A   1      43.826  27.048  33.596  1.00  0.00    -0.206 F 
ATOM     73  C   UNL A   1      44.775  27.267  37.024  1.00  0.00     0.060 A 
BRANCH  73  74
ATOM     74  S   UNL A   1      45.772  26.319  38.185  1.00  0.00     0.124 S 
ATOM     75  O   UNL A   1      46.776  27.304  38.569  1.00  0.00    -0.237 OA
ATOM     76  O   UNL A   1      44.794  25.967  39.209  1.00  0.00    -0.237 OA
ATOM     77  O   UNL A   1      46.255  25.202  37.378  1.00  0.00    -0.744 OA
ENDBRANCH  73  74
ENDBRANCH  52  66
BRANCH  53  78
ATOM     78  C   UNL A   1      44.427  25.856  27.197  1.00  0.00     0.058 A 
ATOM     79  C   UNL A   1      43.931  24.681  27.783  1.00  0.00     0.135 A 
ATOM     80  C   UNL A   1      44.915  25.738  25.878  1.00  0.00     0.135 A 
ATOM     81  F   UNL A   1      43.423  24.709  29.025  1.00  0.00    -0.206 F 
ATOM     82  C   UNL A   1      43.877  23.469  27.087  1.00  0.00     0.059 A 
ATOM     83  C   UNL A   1      44.885  24.539  25.171  1.00  0.00     0.059 A 
ATOM     84  F   UNL A   1      45.351  26.808  25.197  1.00  0.00    -0.206 F 
ATOM     85  C   UNL A   1      44.338  23.414  25.772  1.00  0.00     0.060 A 
BRANCH  85  86
ATOM     86  S   UNL A   1      44.112  21.900  24.813  1.00  0.00     0.124 S 
ATOM     87  O   UNL A   1      44.167  22.398  23.444  1.00  0.00    -0.237 OA
ATOM     88  O   UNL A   1      45.247  21.091  25.246  1.00  0.00    -0.237 OA
ATOM     89  O   UNL A   1      42.804  21.415  25.248  1.00  0.00    -0.744 OA
ENDBRANCH  85  86
ENDBRANCH  53  78
BRANCH  65  90
ATOM     90  C   UNL A   1      45.499  31.787  29.285  1.00  0.00     0.058 A 
ATOM     91  C   UNL A   1      46.706  32.362  28.847  1.00  0.00     0.135 A 
ATOM     92  C   UNL A   1      44.348  32.076  28.537  1.00  0.00     0.135 A 
ATOM     93  F   UNL A   1      47.868  32.050  29.436  1.00  0.00    -0.206 F 
ATOM     94  C   UNL A   1      46.758  33.225  27.750  1.00  0.00     0.059 A 
ATOM     95  C   UNL A   1      44.380  32.910  27.420  1.00  0.00     0.059 A 
ATOM     96  F   UNL A   1      43.175  31.504  28.860  1.00  0.00    -0.206 F 
ATOM     97  C   UNL A   1      45.587  33.495  27.041  1.00  0.00     0.060 A 
BRANCH  97  98
ATOM     98  S   UNL A   1      45.671  34.555  25.581  1.00  0.00     0.124 S 
ATOM     99  O   UNL A   1      47.087  34.493  25.234  1.00  0.00    -0.237 OA
ATOM    100  O   UNL A   1      44.762  33.892  24.650  1.00  0.00    -0.237 OA
ATOM    101  O   UNL A   1      45.206  35.850  26.072  1.00  0.00    -0.744 OA
ENDBRANCH  97  98
ENDBRANCH  65  90
ENDBRANCH  39  40
ENDBRANCH  32  34
ENDBRANCH  31  32
ENDBRANCH  30  31
ENDBRANCH  29  30
ENDBRANCH  28  29
ENDBRANCH  27  28
ENDBRANCH   1  27
TORSDOF 23
ENDMDL
MODEL 2
REMARK VINA RESULT:     -10.3      1.412      2.138
REMARK SMILES Cc1cn2c(=O)cc(CSc3ccccc3C(=O)OCCOCCOCCOC(=O)c3ccc(-c4c5nc(c(-c6c(F)cc(S(=O)(=O)[O-])cc6F)c6ccc([nH]6)c(-c6c(F)cc(S(=O)(=O)[O-])cc6F)c6nc(c(-c7c(F)cc(S(=O)(=O)[O-])cc7F)c7ccc4[nH]7)C=C6)C=C5)cc3)nc2s1
REMARK SMILES IDX 23 1 22 2 21 3 20 4 19 5 17 6 18 7 16 8 11 9 12 10 13 11
REMARK SMILES IDX 15 12 14 13 10 14 9 15 8 16 1 17 2 18 3 19 99 20 4 21 98 22
REMARK SMILES IDX 5 23 97 24 6 25 7 26 24 27 25 28 26 29 27 30 28 31 29 32
REMARK SMILES IDX 30 33 31 34 32 35 96 36 33 37 95 38 34 39 35 40 36 41 89 42
REMARK SMILES IDX 37 43 94 44 88 45 90 46 38 47 93 48 87 49 86 50 39 52 73 53
REMARK SMILES IDX 52 54 72 55 53 56 56 57 71 58 91 59 54 60 55 61 70 63 92 64
REMARK SMILES IDX 57 65 40 66 41 67 50 68 42 69 43 70 49 71 51 72 44 73 45 74
REMARK SMILES IDX 46 75 47 76 48 77 74 78 75 79 84 80 76 81 77 82 83 83 85 84
REMARK SMILES IDX 78 85 79 86 80 87 81 88 82 89 58 90 59 91 68 92 60 93 61 94
REMARK SMILES IDX 67 95 69 96 62 97 63 98 64 99 65 100 66 101
REMARK H PARENT 90 51 56 62
REMARK Flexibility Score: inf
ROOT
ATOM      1  C   UNL A   1      33.737  29.611  27.308  1.00  0.00     0.188 C 
ENDROOT
BRANCH   1   2
ATOM      2  O   UNL A   1      34.096  28.365  26.728  1.00  0.00    -0.376 OA
BRANCH   2   3
ATOM      3  C   UNL A   1      33.337  27.860  25.641  1.00  0.00     0.202 C 
BRANCH   3   4
ATOM      4  C   UNL A   1      34.024  27.757  24.267  1.00  0.00     0.261 C 
BRANCH   4   5
ATOM      5  O   UNL A   1      33.833  26.503  23.577  1.00  0.00    -0.460 OA
BRANCH   5   6
ATOM      6  C   UNL A   1      33.071  26.542  22.457  1.00  0.00     0.339 C 
ATOM      7  O   UNL A   1      33.460  26.336  21.316  1.00  0.00    -0.246 OA
BRANCH   6   8
ATOM      8  C   UNL A   1      31.622  26.644  22.773  1.00  0.00     0.073 A 
ATOM      9  C   UNL A   1      30.790  25.593  23.202  1.00  0.00     0.022 A 
ATOM     10  C   UNL A   1      29.475  25.901  23.599  1.00  0.00     0.016 A 
ATOM     11  C   UNL A   1      28.975  27.204  23.525  1.00  0.00     0.001 A 
ATOM     12  C   UNL A   1      31.099  27.951  22.685  1.00  0.00     0.017 A 
ATOM     13  C   UNL A   1      29.783  28.228  23.051  1.00  0.00     0.001 A 
BRANCH   9  14
ATOM     14  S   UNL A   1      31.285  23.894  23.455  1.00  0.00    -0.119 SA
BRANCH  14  15
ATOM     15  C   UNL A   1      32.071  23.964  25.101  1.00  0.00     0.131 C 
BRANCH  15  16
ATOM     16  C   UNL A   1      33.333  23.139  25.290  1.00  0.00     0.059 A 
ATOM     17  C   UNL A   1      39.336  21.877  25.921  1.00  0.00     0.058 C 
ATOM     18  C   UNL A   1      37.886  22.152  25.750  1.00  0.00     0.022 A 
ATOM     19  C   UNL A   1      36.965  21.270  25.340  1.00  0.00     0.111 A 
ATOM     20  S   UNL A   1      37.161  23.711  26.090  1.00  0.00    -0.102 S 
ATOM     21  N   UNL A   1      35.688  21.778  25.299  1.00  0.00    -0.258 N 
ATOM     22  C   UNL A   1      35.570  23.103  25.654  1.00  0.00     0.197 A 
ATOM     23  C   UNL A   1      34.578  21.043  24.992  1.00  0.00     0.258 A 
ATOM     24  N   UNL A   1      34.482  23.803  25.681  1.00  0.00    -0.224 NA
ATOM     25  O   UNL A   1      34.540  19.838  24.779  1.00  0.00    -0.269 OA
ATOM     26  C   UNL A   1      33.337  21.835  24.963  1.00  0.00     0.097 A 
ENDBRANCH  15  16
ENDBRANCH  14  15
ENDBRANCH   9  14
ENDBRANCH   6   8
ENDBRANCH   5   6
ENDBRANCH   4   5
ENDBRANCH   3   4
ENDBRANCH   2   3
ENDBRANCH   1   2
BRANCH   1  27
ATOM     27  C   UNL A   1      34.668  30.838  27.224  1.00  0.00     0.188 C 
BRANCH  27  28
ATOM     28  O   UNL A   1      34.112  32.073  27.659  1.00  0.00    -0.376 OA
BRANCH  28  29
ATOM     29  C   UNL A   1      33.992  32.321  29.055  1.00  0.00     0.202 C 
BRANCH  29  30
ATOM     30  C   UNL A   1      35.283  32.859  29.666  1.00  0.00     0.261 C 
BRANCH  30  31
ATOM     31  O   UNL A   1      35.380  32.545  31.047  1.00  0.00    -0.460 OA
BRANCH  31  32
ATOM     32  C   UNL A   1      35.991  31.373  31.296  1.00  0.00     0.338 C 
ATOM     33  O   UNL A   1      35.915  30.711  32.328  1.00  0.00    -0.246 OA
BRANCH  32  34
ATOM     34  C   UNL A   1      36.750  30.970  30.116  1.00  0.00     0.060 A 
ATOM     35  C   UNL A   1      36.672  29.617  29.784  1.00  0.00     0.016 A 
ATOM     36  C   UNL A   1      37.795  31.805  29.699  1.00  0.00     0.016 A 
ATOM     37  C   UNL A   1      37.832  29.019  29.374  1.00  0.00     0.010 A 
ATOM     38  C   UNL A   1      38.963  31.201  29.319  1.00  0.00     0.010 A 
ATOM     39  C   UNL A   1      38.983  29.811  29.308  1.00  0.00    -0.014 A 
BRANCH  39  40
ATOM     40  C   UNL A   1      40.237  29.117  29.428  1.00  0.00     0.031 A 
ATOM     41  C   UNL A   1      40.703  28.938  30.803  1.00  0.00     0.074 A 
ATOM     42  C   UNL A   1      40.905  28.685  28.344  1.00  0.00     0.049 A 
ATOM     43  N   UNL A   1      41.651  29.575  31.398  1.00  0.00    -0.248 NA
ATOM     44  C   UNL A   1      39.916  28.046  31.660  1.00  0.00     0.031 C 
ATOM     45  C   UNL A   1      40.439  28.540  26.962  1.00  0.00     0.029 A 
ATOM     46  N   UNL A   1      42.169  28.198  28.299  1.00  0.00    -0.354 N 
ATOM     47  C   UNL A   1      41.721  29.015  32.663  1.00  0.00     0.074 A 
ATOM     48  C   UNL A   1      40.531  28.217  32.829  1.00  0.00     0.031 C 
ATOM     49  C   UNL A   1      41.339  27.805  26.270  1.00  0.00     0.029 A 
ATOM     50  C   UNL A   1      42.492  27.550  27.120  1.00  0.00     0.049 A 
ATOM     51  H   UNL A   1      42.806  28.297  29.044  1.00  0.00     0.167 HD
ATOM     52  C   UNL A   1      42.861  29.059  33.399  1.00  0.00     0.037 A 
ATOM     53  C   UNL A   1      43.590  26.782  26.927  1.00  0.00     0.037 A 
ATOM     54  C   UNL A   1      43.797  30.033  32.904  1.00  0.00     0.049 A 
ATOM     55  C   UNL A   1      44.598  27.185  27.948  1.00  0.00     0.074 A 
ATOM     56  C   UNL A   1      43.756  31.403  32.721  1.00  0.00     0.029 A 
ATOM     57  N   UNL A   1      44.860  29.590  32.153  1.00  0.00    -0.354 N 
ATOM     58  N   UNL A   1      45.193  28.348  27.971  1.00  0.00    -0.248 NA
ATOM     59  C   UNL A   1      44.622  26.458  29.211  1.00  0.00     0.031 C 
ATOM     60  C   UNL A   1      44.492  31.646  31.524  1.00  0.00     0.029 A 
ATOM     61  C   UNL A   1      44.960  30.417  31.059  1.00  0.00     0.049 A 
ATOM     62  H   UNL A   1      45.442  28.824  32.360  1.00  0.00     0.167 HD
ATOM     63  C   UNL A   1      45.308  28.674  29.317  1.00  0.00     0.074 A 
ATOM     64  C   UNL A   1      45.028  27.433  30.031  1.00  0.00     0.031 C 
ATOM     65  C   UNL A   1      45.348  29.974  29.735  1.00  0.00     0.037 A 
BRANCH  52  66
ATOM     66  C   UNL A   1      43.226  27.974  34.366  1.00  0.00     0.058 A 
ATOM     67  C   UNL A   1      43.207  28.227  35.746  1.00  0.00     0.135 A 
ATOM     68  C   UNL A   1      43.827  26.759  33.961  1.00  0.00     0.135 A 
ATOM     69  F   UNL A   1      42.685  29.368  36.222  1.00  0.00    -0.206 F 
ATOM     70  C   UNL A   1      43.783  27.348  36.662  1.00  0.00     0.059 A 
ATOM     71  C   UNL A   1      44.347  25.840  34.859  1.00  0.00     0.059 A 
ATOM     72  F   UNL A   1      44.022  26.459  32.670  1.00  0.00    -0.206 F 
ATOM     73  C   UNL A   1      44.361  26.165  36.206  1.00  0.00     0.060 A 
BRANCH  73  74
ATOM     74  S   UNL A   1      45.219  25.093  37.368  1.00  0.00     0.124 S 
ATOM     75  O   UNL A   1      44.551  25.435  38.618  1.00  0.00    -0.237 OA
ATOM     76  O   UNL A   1      44.934  23.768  36.829  1.00  0.00    -0.237 OA
ATOM     77  O   UNL A   1      46.611  25.522  37.256  1.00  0.00    -0.744 OA
ENDBRANCH  73  74
ENDBRANCH  52  66
BRANCH  53  78
ATOM     78  C   UNL A   1      43.643  25.487  26.204  1.00  0.00     0.058 A 
ATOM     79  C   UNL A   1      44.670  25.212  25.286  1.00  0.00     0.135 A 
ATOM     80  C   UNL A   1      42.851  24.388  26.600  1.00  0.00     0.135 A 
ATOM     81  F   UNL A   1      45.488  26.194  24.877  1.00  0.00    -0.206 F 
ATOM     82  C   UNL A   1      44.928  23.917  24.824  1.00  0.00     0.059 A 
ATOM     83  C   UNL A   1      43.079  23.093  26.143  1.00  0.00     0.059 A 
ATOM     84  F   UNL A   1      41.886  24.520  27.522  1.00  0.00    -0.206 F 
ATOM     85  C   UNL A   1      44.138  22.860  25.276  1.00  0.00     0.060 A 
BRANCH  85  86
ATOM     86  S   UNL A   1      44.574  21.167  24.820  1.00  0.00     0.124 S 
ATOM     87  O   UNL A   1      45.867  21.002  25.473  1.00  0.00    -0.237 OA
ATOM     88  O   UNL A   1      43.468  20.403  25.388  1.00  0.00    -0.237 OA
ATOM     89  O   UNL A   1      44.613  21.208  23.360  1.00  0.00    -0.744 OA
ENDBRANCH  85  86
ENDBRANCH  53  78
BRANCH  65  90
ATOM     90  C   UNL A   1      45.550  31.043  28.688  1.00  0.00     0.058 A 
ATOM     91  C   UNL A   1      44.499  31.650  27.979  1.00  0.00     0.135 A 
ATOM     92  C   UNL A   1      46.837  31.567  28.494  1.00  0.00     0.135 A 
ATOM     93  F   UNL A   1      43.228  31.285  28.190  1.00  0.00    -0.206 F 
ATOM     94  C   UNL A   1      44.722  32.694  27.079  1.00  0.00     0.059 A 
ATOM     95  C   UNL A   1      47.080  32.629  27.624  1.00  0.00     0.059 A 
ATOM     96  F   UNL A   1      47.875  31.079  29.193  1.00  0.00    -0.206 F 
ATOM     97  C   UNL A   1      46.018  33.179  26.907  1.00  0.00     0.060 A 
BRANCH  97  98
ATOM     98  S   UNL A   1      46.292  34.576  25.795  1.00  0.00     0.124 S 
ATOM     99  O   UNL A   1      47.672  34.366  25.368  1.00  0.00    -0.237 OA
ATOM    100  O   UNL A   1      45.274  34.374  24.767  1.00  0.00    -0.237 OA
ATOM    101  O   UNL A   1      46.075  35.741  26.650  1.00  0.00    -0.744 OA
ENDBRANCH  97  98
ENDBRANCH  65  90
ENDBRANCH  39  40
ENDBRANCH  32  34
ENDBRANCH  31  32
ENDBRANCH  30  31
ENDBRANCH  29  30
ENDBRANCH  28  29
ENDBRANCH  27  28
ENDBRANCH   1  27
TORSDOF 23
ENDMDL
MODEL 3
REMARK VINA RESULT:     -10.2      2.185      3.199
REMARK SMILES Cc1cn2c(=O)cc(CSc3ccccc3C(=O)OCCOCCOCCOC(=O)c3ccc(-c4c5nc(c(-c6c(F)cc(S(=O)(=O)[O-])cc6F)c6ccc([nH]6)c(-c6c(F)cc(S(=O)(=O)[O-])cc6F)c6nc(c(-c7c(F)cc(S(=O)(=O)[O-])cc7F)c7ccc4[nH]7)C=C6)C=C5)cc3)nc2s1
REMARK SMILES IDX 23 1 22 2 21 3 20 4 19 5 17 6 18 7 16 8 11 9 12 10 13 11
REMARK SMILES IDX 15 12 14 13 10 14 9 15 8 16 1 17 2 18 3 19 99 20 4 21 98 22
REMARK SMILES IDX 5 23 97 24 6 25 7 26 24 27 25 28 26 29 27 30 28 31 29 32
REMARK SMILES IDX 30 33 31 34 32 35 96 36 33 37 95 38 34 39 35 40 36 41 89 42
REMARK SMILES IDX 37 43 94 44 88 45 90 46 38 47 93 48 87 49 86 50 39 52 73 53
REMARK SMILES IDX 52 54 72 55 53 56 56 57 71 58 91 59 54 60 55 61 70 63 92 64
REMARK SMILES IDX 57 65 40 66 41 67 50 68 42 69 43 70 49 71 51 72 44 73 45 74
REMARK SMILES IDX 46 75 47 76 48 77 74 78 75 79 84 80 76 81 77 82 83 83 85 84
REMARK SMILES IDX 78 85 79 86 80 87 81 88 82 89 58 90 59 91 68 92 60 93 61 94
REMARK SMILES IDX 67 95 69 96 62 97 63 98 64 99 65 100 66 101
REMARK H PARENT 90 51 56 62
REMARK Flexibility Score: inf
ROOT
ATOM      1  C   UNL A   1      32.124  30.442  26.877  1.00  0.00     0.188 C 
ENDROOT
BRANCH   1   2
ATOM      2  O   UNL A   1      32.544  29.844  25.659  1.00  0.00    -0.376 OA
BRANCH   2   3
ATOM      3  C   UNL A   1      33.471  28.769  25.696  1.00  0.00     0.202 C 
BRANCH   3   4
ATOM      4  C   UNL A   1      34.063  28.282  24.360  1.00  0.00     0.261 C 
BRANCH   4   5
ATOM      5  O   UNL A   1      33.471  27.077  23.829  1.00  0.00    -0.460 OA
BRANCH   5   6
ATOM      6  C   UNL A   1      32.894  27.178  22.607  1.00  0.00     0.339 C 
ATOM      7  O   UNL A   1      33.352  26.746  21.559  1.00  0.00    -0.246 OA
BRANCH   6   8
ATOM      8  C   UNL A   1      31.499  27.685  22.691  1.00  0.00     0.073 A 
ATOM      9  C   UNL A   1      30.365  26.937  23.061  1.00  0.00     0.022 A 
ATOM     10  C   UNL A   1      29.143  27.616  23.230  1.00  0.00     0.016 A 
ATOM     11  C   UNL A   1      29.029  28.987  22.989  1.00  0.00     0.001 A 
ATOM     12  C   UNL A   1      31.366  29.065  22.432  1.00  0.00     0.017 A 
ATOM     13  C   UNL A   1      30.139  29.711  22.573  1.00  0.00     0.001 A 
BRANCH   9  14
ATOM     14  S   UNL A   1      30.344  25.206  23.505  1.00  0.00    -0.119 SA
BRANCH  14  15
ATOM     15  C   UNL A   1      30.833  25.255  25.263  1.00  0.00     0.131 C 
BRANCH  15  16
ATOM     16  C   UNL A   1      31.983  24.350  25.677  1.00  0.00     0.059 A 
ATOM     17  C   UNL A   1      36.849  20.607  25.098  1.00  0.00     0.058 C 
ATOM     18  C   UNL A   1      35.665  21.490  25.265  1.00  0.00     0.022 A 
ATOM     19  C   UNL A   1      34.869  21.537  26.340  1.00  0.00     0.111 A 
ATOM     20  S   UNL A   1      35.147  22.635  24.044  1.00  0.00    -0.102 S 
ATOM     21  N   UNL A   1      33.861  22.468  26.246  1.00  0.00    -0.258 N 
ATOM     22  C   UNL A   1      33.818  23.170  25.063  1.00  0.00     0.197 A 
ATOM     23  C   UNL A   1      32.980  22.751  27.251  1.00  0.00     0.258 A 
ATOM     24  N   UNL A   1      32.960  24.082  24.735  1.00  0.00    -0.224 NA
ATOM     25  O   UNL A   1      32.993  22.284  28.383  1.00  0.00    -0.269 OA
ATOM     26  C   UNL A   1      31.962  23.746  26.878  1.00  0.00     0.097 A 
ENDBRANCH  15  16
ENDBRANCH  14  15
ENDBRANCH   9  14
ENDBRANCH   6   8
ENDBRANCH   5   6
ENDBRANCH   4   5
ENDBRANCH   3   4
ENDBRANCH   2   3
ENDBRANCH   1   2
BRANCH   1  27
ATOM     27  C   UNL A   1      32.532  31.880  27.253  1.00  0.00     0.188 C 
BRANCH  27  28
ATOM     28  O   UNL A   1      33.894  32.067  27.621  1.00  0.00    -0.376 OA
BRANCH  28  29
ATOM     29  C   UNL A   1      34.259  33.241  28.338  1.00  0.00     0.202 C 
BRANCH  29  30
ATOM     30  C   UNL A   1      34.896  32.925  29.688  1.00  0.00     0.261 C 
BRANCH  30  31
ATOM     31  O   UNL A   1      34.023  33.232  30.765  1.00  0.00    -0.460 OA
BRANCH  31  32
ATOM     32  C   UNL A   1      34.380  34.325  31.461  1.00  0.00     0.338 C 
ATOM     33  O   UNL A   1      33.968  35.469  31.292  1.00  0.00    -0.246 OA
BRANCH  32  34
ATOM     34  C   UNL A   1      35.326  33.939  32.503  1.00  0.00     0.060 A 
ATOM     35  C   UNL A   1      36.511  34.674  32.544  1.00  0.00     0.016 A 
ATOM     36  C   UNL A   1      35.199  32.657  33.055  1.00  0.00     0.016 A 
ATOM     37  C   UNL A   1      37.661  33.973  32.779  1.00  0.00     0.010 A 
ATOM     38  C   UNL A   1      36.351  31.948  33.259  1.00  0.00     0.010 A 
ATOM     39  C   UNL A   1      37.550  32.592  32.974  1.00  0.00    -0.014 A 
BRANCH  39  40
ATOM     40  C   UNL A   1      38.720  31.813  32.669  1.00  0.00     0.031 A 
ATOM     41  C   UNL A   1      39.606  31.579  33.809  1.00  0.00     0.074 A 
ATOM     42  C   UNL A   1      38.956  31.357  31.427  1.00  0.00     0.049 A 
ATOM     43  N   UNL A   1      40.741  32.140  34.048  1.00  0.00    -0.248 NA
ATOM     44  C   UNL A   1      39.093  30.727  34.886  1.00  0.00     0.031 C 
ATOM     45  C   UNL A   1      38.044  31.269  30.281  1.00  0.00     0.029 A 
ATOM     46  N   UNL A   1      40.094  30.788  30.963  1.00  0.00    -0.354 N 
ATOM     47  C   UNL A   1      41.191  31.555  35.219  1.00  0.00     0.074 A 
ATOM     48  C   UNL A   1      40.074  30.835  35.780  1.00  0.00     0.031 C 
ATOM     49  C   UNL A   1      38.608  30.487  29.332  1.00  0.00     0.029 A 
ATOM     50  C   UNL A   1      39.958  30.141  29.748  1.00  0.00     0.049 A 
ATOM     51  H   UNL A   1      40.950  30.831  31.450  1.00  0.00     0.167 HD
ATOM     52  C   UNL A   1      42.512  31.509  35.531  1.00  0.00     0.037 A 
ATOM     53  C   UNL A   1      40.873  29.304  29.201  1.00  0.00     0.037 A 
ATOM     54  C   UNL A   1      43.294  32.427  34.745  1.00  0.00     0.049 A 
ATOM     55  C   UNL A   1      42.190  29.622  29.823  1.00  0.00     0.074 A 
ATOM     56  C   UNL A   1      43.288  33.799  34.578  1.00  0.00     0.029 A 
ATOM     57  N   UNL A   1      44.010  31.928  33.683  1.00  0.00    -0.354 N 
ATOM     58  N   UNL A   1      42.837  30.741  29.639  1.00  0.00    -0.248 NA
ATOM     59  C   UNL A   1      42.585  28.872  31.009  1.00  0.00     0.031 C 
ATOM     60  C   UNL A   1      43.596  34.015  33.203  1.00  0.00     0.029 A 
ATOM     61  C   UNL A   1      43.795  32.765  32.614  1.00  0.00     0.049 A 
ATOM     62  H   UNL A   1      44.574  31.121  33.687  1.00  0.00     0.167 HD
ATOM     63  C   UNL A   1      43.418  31.035  30.866  1.00  0.00     0.074 A 
ATOM     64  C   UNL A   1      43.308  29.802  31.639  1.00  0.00     0.031 C 
ATOM     65  C   UNL A   1      43.685  32.322  31.240  1.00  0.00     0.037 A 
BRANCH  52  66
ATOM     66  C   UNL A   1      43.105  30.385  36.325  1.00  0.00     0.058 A 
ATOM     67  C   UNL A   1      43.894  30.661  37.451  1.00  0.00     0.135 A 
ATOM     68  C   UNL A   1      43.114  29.047  35.867  1.00  0.00     0.135 A 
ATOM     69  F   UNL A   1      43.972  31.909  37.940  1.00  0.00    -0.206 F 
ATOM     70  C   UNL A   1      44.674  29.679  38.061  1.00  0.00     0.059 A 
ATOM     71  C   UNL A   1      43.830  28.041  36.497  1.00  0.00     0.059 A 
ATOM     72  F   UNL A   1      42.506  28.681  34.731  1.00  0.00    -0.206 F 
ATOM     73  C   UNL A   1      44.643  28.376  37.566  1.00  0.00     0.060 A 
BRANCH  73  74
ATOM     74  S   UNL A   1      45.746  27.138  38.266  1.00  0.00     0.124 S 
ATOM     75  O   UNL A   1      46.593  27.960  39.121  1.00  0.00    -0.237 OA
ATOM     76  O   UNL A   1      44.812  26.251  38.951  1.00  0.00    -0.237 OA
ATOM     77  O   UNL A   1      46.396  26.565  37.090  1.00  0.00    -0.744 OA
ENDBRANCH  73  74
ENDBRANCH  52  66
BRANCH  53  78
ATOM     78  C   UNL A   1      40.591  28.022  28.510  1.00  0.00     0.058 A 
ATOM     79  C   UNL A   1      41.342  27.622  27.392  1.00  0.00     0.135 A 
ATOM     80  C   UNL A   1      39.768  27.035  29.093  1.00  0.00     0.135 A 
ATOM     81  F   UNL A   1      42.171  28.491  26.793  1.00  0.00    -0.206 F 
ATOM     82  C   UNL A   1      41.316  26.310  26.909  1.00  0.00     0.059 A 
ATOM     83  C   UNL A   1      39.715  25.726  28.622  1.00  0.00     0.059 A 
ATOM     84  F   UNL A   1      39.059  27.285  30.204  1.00  0.00    -0.206 F 
ATOM     85  C   UNL A   1      40.513  25.363  27.545  1.00  0.00     0.060 A 
BRANCH  85  86
ATOM     86  S   UNL A   1      40.608  23.632  27.037  1.00  0.00     0.124 S 
ATOM     87  O   UNL A   1      39.207  23.315  26.783  1.00  0.00    -0.237 OA
ATOM     88  O   UNL A   1      41.470  23.706  25.861  1.00  0.00    -0.237 OA
ATOM     89  O   UNL A   1      41.198  22.969  28.197  1.00  0.00    -0.744 OA
ENDBRANCH  85  86
ENDBRANCH  53  78
BRANCH  65  90
ATOM     90  C   UNL A   1      43.598  33.393  30.180  1.00  0.00     0.058 A 
ATOM     91  C   UNL A   1      44.656  33.724  29.314  1.00  0.00     0.135 A 
ATOM     92  C   UNL A   1      42.362  34.010  29.940  1.00  0.00     0.135 A 
ATOM     93  F   UNL A   1      45.837  33.098  29.404  1.00  0.00    -0.206 F 
ATOM     94  C   UNL A   1      44.508  34.663  28.292  1.00  0.00     0.059 A 
ATOM     95  C   UNL A   1      42.181  34.928  28.906  1.00  0.00     0.059 A 
ATOM     96  F   UNL A   1      41.292  33.687  30.686  1.00  0.00    -0.206 F 
ATOM     97  C   UNL A   1      43.264  35.262  28.094  1.00  0.00     0.060 A 
BRANCH  97  98
ATOM     98  S   UNL A   1      43.057  36.423  26.725  1.00  0.00     0.124 S 
ATOM     99  O   UNL A   1      42.886  35.529  25.584  1.00  0.00    -0.237 OA
ATOM    100  O   UNL A   1      41.871  37.178  27.121  1.00  0.00    -0.237 OA
ATOM    101  O   UNL A   1      44.301  37.189  26.736  1.00  0.00    -0.744 OA
ENDBRANCH  97  98
ENDBRANCH  65  90
ENDBRANCH  39  40
ENDBRANCH  32  34
ENDBRANCH  31  32
ENDBRANCH  30  31
ENDBRANCH  29  30
ENDBRANCH  28  29
ENDBRANCH  27  28
ENDBRANCH   1  27
TORSDOF 23
ENDMDL
