MODEL 1
REMARK VINA RESULT:     -10.7      0.000      0.000
REMARK SMILES CN1C(=O)C[C@@H](C(=O)OCCOCCOCCOC(=O)c2ccc(-c3c4nc(c(-c5c(F)cc(S(=O)(=O)[O-])cc5F)c5ccc([nH]5)c(-c5c(F)cc(S(=O)(=O)[O-])cc5F)c5nc(c(-c6c(F)cc(S(=O)(=O)[O-])cc6F)c6ccc3[nH]6)C=C5)C=C4)cc2)C12CCN(c1ccc(Cl)cn1)CC2
REMARK SMILES IDX 14 1 13 2 12 3 11 4 10 5 9 6 7 7 8 8 6 9 1 10 2 11 3 12
REMARK SMILES IDX 87 13 4 14 5 15 88 16 99 17 89 18 98 19 90 20 91 21 92 22
REMARK SMILES IDX 97 23 93 24 96 25 94 26 95 27 15 28 16 29 17 30 18 31 19 32
REMARK SMILES IDX 20 33 21 34 22 35 86 36 23 37 85 38 24 39 25 40 26 41 79 42
REMARK SMILES IDX 27 43 84 44 78 45 80 46 28 47 83 48 77 49 76 50 29 52 63 53
REMARK SMILES IDX 42 54 62 55 43 56 46 57 61 58 81 59 44 60 45 61 60 63 82 64
REMARK SMILES IDX 47 65 30 66 31 67 40 68 32 69 33 70 39 71 41 72 34 73 35 74
REMARK SMILES IDX 36 75 37 76 38 77 64 78 65 79 74 80 66 81 67 82 73 83 75 84
REMARK SMILES IDX 68 85 69 86 70 87 71 88 72 89 48 90 49 91 58 92 50 93 51 94
REMARK SMILES IDX 57 95 59 96 52 97 53 98 54 99 55 100 56 101
REMARK H PARENT 80 51 46 62
REMARK Flexibility Score: inf
ROOT
ATOM      1  C   UNL A   1      35.373  33.269  28.011  1.00  0.00     0.188 C 
ENDROOT
BRANCH   1   2
ATOM      2  C   UNL A   1      34.475  32.044  28.109  1.00  0.00     0.188 C 
BRANCH   2   3
ATOM      3  O   UNL A   1      35.075  30.759  28.162  1.00  0.00    -0.376 OA
BRANCH   3   4
ATOM      4  C   UNL A   1      34.471  29.673  27.477  1.00  0.00     0.202 C 
BRANCH   4   5
ATOM      5  C   UNL A   1      33.404  30.003  26.416  1.00  0.00     0.261 C 
BRANCH   5   6
ATOM      6  O   UNL A   1      32.461  28.953  26.053  1.00  0.00    -0.463 OA
BRANCH   6   7
ATOM      7  C   UNL A   1      31.641  29.254  25.016  1.00  0.00     0.311 C 
ATOM      8  O   UNL A   1      30.945  30.267  24.991  1.00  0.00    -0.252 OA
BRANCH   7   9
ATOM      9  C   UNL A   1      31.504  28.232  23.884  1.00  0.00     0.134 C 
ATOM     10  C   UNL A   1      28.228  26.478  23.898  1.00  0.00     0.147 C 
ATOM     11  N   UNL A   1      29.406  27.256  23.558  1.00  0.00    -0.339 N 
ATOM     12  C   UNL A   1      29.333  28.486  22.921  1.00  0.00     0.223 C 
ATOM     13  C   UNL A   1      30.784  26.845  23.871  1.00  0.00     0.060 C 
ATOM     14  O   UNL A   1      28.332  29.042  22.529  1.00  0.00    -0.275 OA
ATOM     15  C   UNL A   1      30.740  29.012  22.788  1.00  0.00     0.118 C 
ATOM     16  C   UNL A   1      30.798  25.938  25.110  1.00  0.00     0.051 C 
ATOM     17  C   UNL A   1      31.377  25.993  22.671  1.00  0.00     0.051 C 
ATOM     18  C   UNL A   1      32.145  25.301  25.353  1.00  0.00     0.120 C 
ATOM     19  C   UNL A   1      32.707  25.262  22.984  1.00  0.00     0.120 C 
ATOM     20  N   UNL A   1      32.526  24.491  24.207  1.00  0.00    -0.356 N 
BRANCH  20  21
ATOM     21  C   UNL A   1      33.435  23.467  24.500  1.00  0.00     0.128 A 
ATOM     22  C   UNL A   1      34.659  23.799  25.096  1.00  0.00     0.048 A 
ATOM     23  N   UNL A   1      33.166  22.191  24.154  1.00  0.00    -0.238 NA
ATOM     24  C   UNL A   1      35.649  22.835  25.279  1.00  0.00     0.026 A 
ATOM     25  C   UNL A   1      34.146  21.257  24.349  1.00  0.00     0.134 A 
ATOM     26  C   UNL A   1      35.394  21.535  24.886  1.00  0.00     0.059 A 
ATOM     27  Cl  UNL A   1      36.600  20.331  25.065  1.00  0.00    -0.083 Cl
ENDBRANCH  20  21
ENDBRANCH   7   9
ENDBRANCH   6   7
ENDBRANCH   5   6
ENDBRANCH   4   5
ENDBRANCH   3   4
ENDBRANCH   2   3
ENDBRANCH   1   2
BRANCH   1  28
ATOM     28  O   UNL A   1      35.920  33.708  29.239  1.00  0.00    -0.376 OA
BRANCH  28  29
ATOM     29  C   UNL A   1      35.049  33.557  30.351  1.00  0.00     0.202 C 
BRANCH  29  30
ATOM     30  C   UNL A   1      35.804  32.883  31.501  1.00  0.00     0.261 C 
BRANCH  30  31
ATOM     31  O   UNL A   1      36.516  31.683  31.121  1.00  0.00    -0.460 OA
BRANCH  31  32
ATOM     32  C   UNL A   1      37.508  31.300  31.959  1.00  0.00     0.338 C 
ATOM     33  O   UNL A   1      37.478  31.356  33.177  1.00  0.00    -0.246 OA
BRANCH  32  34
ATOM     34  C   UNL A   1      38.569  30.612  31.193  1.00  0.00     0.060 A 
ATOM     35  C   UNL A   1      39.635  30.041  31.890  1.00  0.00     0.016 A 
ATOM     36  C   UNL A   1      38.594  30.629  29.804  1.00  0.00     0.016 A 
ATOM     37  C   UNL A   1      40.760  29.560  31.232  1.00  0.00     0.010 A 
ATOM     38  C   UNL A   1      39.716  30.119  29.132  1.00  0.00     0.010 A 
ATOM     39  C   UNL A   1      40.832  29.627  29.841  1.00  0.00    -0.014 A 
BRANCH  39  40
ATOM     40  C   UNL A   1      42.126  29.340  29.163  1.00  0.00     0.031 A 
ATOM     41  C   UNL A   1      42.381  27.954  28.625  1.00  0.00     0.074 A 
ATOM     42  C   UNL A   1      43.036  30.311  28.947  1.00  0.00     0.049 A 
ATOM     43  N   UNL A   1      43.458  27.458  28.073  1.00  0.00    -0.248 NA
ATOM     44  C   UNL A   1      41.263  27.002  28.710  1.00  0.00     0.031 C 
ATOM     45  C   UNL A   1      42.877  31.721  29.310  1.00  0.00     0.029 A 
ATOM     46  N   UNL A   1      44.282  30.255  28.370  1.00  0.00    -0.354 N 
ATOM     47  C   UNL A   1      43.152  26.137  27.764  1.00  0.00     0.074 A 
ATOM     48  C   UNL A   1      41.796  25.901  28.202  1.00  0.00     0.031 C 
ATOM     49  C   UNL A   1      43.985  32.392  28.952  1.00  0.00     0.029 A 
ATOM     50  C   UNL A   1      44.959  31.451  28.406  1.00  0.00     0.049 A 
ATOM     51  H   UNL A   1      44.654  29.437  27.969  1.00  0.00     0.167 HD
ATOM     52  C   UNL A   1      43.933  25.199  27.175  1.00  0.00     0.037 A 
ATOM     53  C   UNL A   1      46.235  31.748  28.086  1.00  0.00     0.037 A 
ATOM     54  C   UNL A   1      45.294  25.427  26.769  1.00  0.00     0.049 A 
ATOM     55  C   UNL A   1      47.136  30.655  27.575  1.00  0.00     0.074 A 
ATOM     56  C   UNL A   1      46.185  24.532  26.206  1.00  0.00     0.029 A 
ATOM     57  N   UNL A   1      45.965  26.633  26.897  1.00  0.00    -0.354 N 
ATOM     58  N   UNL A   1      46.849  29.399  27.323  1.00  0.00    -0.248 NA
ATOM     59  C   UNL A   1      48.537  31.014  27.316  1.00  0.00     0.031 C 
ATOM     60  C   UNL A   1      47.417  25.178  26.057  1.00  0.00     0.029 A 
ATOM     61  C   UNL A   1      47.272  26.496  26.460  1.00  0.00     0.049 A 
ATOM     62  H   UNL A   1      45.571  27.465  27.247  1.00  0.00     0.167 HD
ATOM     63  C   UNL A   1      48.026  28.828  26.850  1.00  0.00     0.074 A 
ATOM     64  C   UNL A   1      49.026  29.875  26.843  1.00  0.00     0.031 C 
ATOM     65  C   UNL A   1      48.256  27.550  26.454  1.00  0.00     0.037 A 
BRANCH  52  66
ATOM     66  C   UNL A   1      43.351  23.822  27.008  1.00  0.00     0.058 A 
ATOM     67  C   UNL A   1      43.206  22.934  28.087  1.00  0.00     0.135 A 
ATOM     68  C   UNL A   1      42.926  23.386  25.741  1.00  0.00     0.135 A 
ATOM     69  F   UNL A   1      43.618  23.290  29.314  1.00  0.00    -0.206 F 
ATOM     70  C   UNL A   1      42.685  21.656  27.911  1.00  0.00     0.059 A 
ATOM     71  C   UNL A   1      42.377  22.123  25.548  1.00  0.00     0.059 A 
ATOM     72  F   UNL A   1      43.050  24.191  24.673  1.00  0.00    -0.206 F 
ATOM     73  C   UNL A   1      42.274  21.258  26.636  1.00  0.00     0.060 A 
BRANCH  73  74
ATOM     74  S   UNL A   1      41.608  19.595  26.420  1.00  0.00     0.124 S 
ATOM     75  O   UNL A   1      42.039  18.945  27.655  1.00  0.00    -0.237 OA
ATOM     76  O   UNL A   1      40.174  19.846  26.305  1.00  0.00    -0.237 OA
ATOM     77  O   UNL A   1      42.258  19.120  25.203  1.00  0.00    -0.744 OA
ENDBRANCH  73  74
ENDBRANCH  52  66
BRANCH  53  78
ATOM     78  C   UNL A   1      46.753  33.129  28.298  1.00  0.00     0.058 A 
ATOM     79  C   UNL A   1      47.330  33.513  29.516  1.00  0.00     0.135 A 
ATOM     80  C   UNL A   1      46.684  34.092  27.277  1.00  0.00     0.135 A 
ATOM     81  F   UNL A   1      47.404  32.636  30.529  1.00  0.00    -0.206 F 
ATOM     82  C   UNL A   1      47.817  34.801  29.719  1.00  0.00     0.059 A 
ATOM     83  C   UNL A   1      47.192  35.376  27.445  1.00  0.00     0.059 A 
ATOM     84  F   UNL A   1      46.143  33.779  26.090  1.00  0.00    -0.206 F 
ATOM     85  C   UNL A   1      47.750  35.724  28.674  1.00  0.00     0.060 A 
BRANCH  85  86
ATOM     86  S   UNL A   1      48.438  37.374  28.928  1.00  0.00     0.124 S 
ATOM     87  O   UNL A   1      49.861  37.135  28.721  1.00  0.00    -0.237 OA
ATOM     88  O   UNL A   1      47.763  38.150  27.892  1.00  0.00    -0.237 OA
ATOM     89  O   UNL A   1      48.044  37.695  30.297  1.00  0.00    -0.744 OA
ENDBRANCH  85  86
ENDBRANCH  53  78
BRANCH  65  90
ATOM     90  C   UNL A   1      49.629  27.218  25.933  1.00  0.00     0.058 A 
ATOM     91  C   UNL A   1      50.640  26.723  26.769  1.00  0.00     0.135 A 
ATOM     92  C   UNL A   1      49.913  27.343  24.563  1.00  0.00     0.135 A 
ATOM     93  F   UNL A   1      50.424  26.589  28.087  1.00  0.00    -0.206 F 
ATOM     94  C   UNL A   1      51.894  26.384  26.269  1.00  0.00     0.059 A 
ATOM     95  C   UNL A   1      51.149  26.982  24.037  1.00  0.00     0.059 A 
ATOM     96  F   UNL A   1      48.977  27.801  23.716  1.00  0.00    -0.206 F 
ATOM     97  C   UNL A   1      52.138  26.514  24.900  1.00  0.00     0.060 A 
BRANCH  97  98
ATOM     98  S   UNL A   1      53.757  26.038  24.260  1.00  0.00     0.124 S 
ATOM     99  O   UNL A   1      53.507  26.007  22.822  1.00  0.00    -0.237 OA
ATOM    100  O   UNL A   1      54.612  27.122  24.732  1.00  0.00    -0.237 OA
ATOM    101  O   UNL A   1      53.999  24.739  24.882  1.00  0.00    -0.744 OA
ENDBRANCH  97  98
ENDBRANCH  65  90
ENDBRANCH  39  40
ENDBRANCH  32  34
ENDBRANCH  31  32
ENDBRANCH  30  31
ENDBRANCH  29  30
ENDBRANCH  28  29
ENDBRANCH   1  28
TORSDOF 21
ENDMDL
MODEL 2
REMARK VINA RESULT:     -10.7      6.516     12.270
REMARK SMILES CN1C(=O)C[C@@H](C(=O)OCCOCCOCCOC(=O)c2ccc(-c3c4nc(c(-c5c(F)cc(S(=O)(=O)[O-])cc5F)c5ccc([nH]5)c(-c5c(F)cc(S(=O)(=O)[O-])cc5F)c5nc(c(-c6c(F)cc(S(=O)(=O)[O-])cc6F)c6ccc3[nH]6)C=C5)C=C4)cc2)C12CCN(c1ccc(Cl)cn1)CC2
REMARK SMILES IDX 14 1 13 2 12 3 11 4 10 5 9 6 7 7 8 8 6 9 1 10 2 11 3 12
REMARK SMILES IDX 87 13 4 14 5 15 88 16 99 17 89 18 98 19 90 20 91 21 92 22
REMARK SMILES IDX 97 23 93 24 96 25 94 26 95 27 15 28 16 29 17 30 18 31 19 32
REMARK SMILES IDX 20 33 21 34 22 35 86 36 23 37 85 38 24 39 25 40 26 41 79 42
REMARK SMILES IDX 27 43 84 44 78 45 80 46 28 47 83 48 77 49 76 50 29 52 63 53
REMARK SMILES IDX 42 54 62 55 43 56 46 57 61 58 81 59 44 60 45 61 60 63 82 64
REMARK SMILES IDX 47 65 30 66 31 67 40 68 32 69 33 70 39 71 41 72 34 73 35 74
REMARK SMILES IDX 36 75 37 76 38 77 64 78 65 79 74 80 66 81 67 82 73 83 75 84
REMARK SMILES IDX 68 85 69 86 70 87 71 88 72 89 48 90 49 91 58 92 50 93 51 94
REMARK SMILES IDX 57 95 59 96 52 97 53 98 54 99 55 100 56 101
REMARK H PARENT 80 51 46 62
REMARK Flexibility Score: inf
ROOT
ATOM      1  C   UNL A   1      40.305  21.709  26.765  1.00  0.00     0.188 C 
ENDROOT
BRANCH   1   2
ATOM      2  C   UNL A   1      38.961  22.309  26.378  1.00  0.00     0.188 C 
BRANCH   2   3
ATOM      3  O   UNL A   1      38.426  22.021  25.096  1.00  0.00    -0.376 OA
BRANCH   3   4
ATOM      4  C   UNL A   1      37.022  22.061  24.895  1.00  0.00     0.202 C 
BRANCH   4   5
ATOM      5  C   UNL A   1      36.132  21.347  25.929  1.00  0.00     0.261 C 
BRANCH   5   6
ATOM      6  O   UNL A   1      34.919  22.027  26.366  1.00  0.00    -0.463 OA
BRANCH   6   7
ATOM      7  C   UNL A   1      33.766  21.509  25.877  1.00  0.00     0.311 C 
ATOM      8  O   UNL A   1      33.570  20.299  25.774  1.00  0.00    -0.252 OA
BRANCH   7   9
ATOM      9  C   UNL A   1      32.713  22.479  25.334  1.00  0.00     0.134 C 
ATOM     10  C   UNL A   1      33.293  23.418  21.786  1.00  0.00     0.147 C 
ATOM     11  N   UNL A   1      32.747  22.940  23.043  1.00  0.00    -0.339 N 
ATOM     12  C   UNL A   1      32.075  21.732  23.157  1.00  0.00     0.223 C 
ATOM     13  C   UNL A   1      32.867  23.659  24.322  1.00  0.00     0.060 C 
ATOM     14  O   UNL A   1      31.813  20.960  22.263  1.00  0.00    -0.275 OA
ATOM     15  C   UNL A   1      31.710  21.550  24.609  1.00  0.00     0.118 C 
ATOM     16  C   UNL A   1      34.129  24.535  24.319  1.00  0.00     0.051 C 
ATOM     17  C   UNL A   1      31.631  24.636  24.509  1.00  0.00     0.051 C 
ATOM     18  C   UNL A   1      34.195  25.468  25.505  1.00  0.00     0.120 C 
ATOM     19  C   UNL A   1      31.773  25.655  25.668  1.00  0.00     0.120 C 
ATOM     20  N   UNL A   1      33.042  26.353  25.506  1.00  0.00    -0.356 N 
BRANCH  20  21
ATOM     21  C   UNL A   1      33.240  27.559  26.189  1.00  0.00     0.128 A 
ATOM     22  C   UNL A   1      32.132  28.374  26.458  1.00  0.00     0.048 A 
ATOM     23  N   UNL A   1      34.484  27.963  26.522  1.00  0.00    -0.238 NA
ATOM     24  C   UNL A   1      32.296  29.644  27.010  1.00  0.00     0.026 A 
ATOM     25  C   UNL A   1      34.624  29.208  27.071  1.00  0.00     0.134 A 
ATOM     26  C   UNL A   1      33.572  30.078  27.313  1.00  0.00     0.059 A 
ATOM     27  Cl  UNL A   1      33.814  31.646  27.961  1.00  0.00    -0.083 Cl
ENDBRANCH  20  21
ENDBRANCH   7   9
ENDBRANCH   6   7
ENDBRANCH   5   6
ENDBRANCH   4   5
ENDBRANCH   3   4
ENDBRANCH   2   3
ENDBRANCH   1   2
BRANCH   1  28
ATOM     28  O   UNL A   1      41.312  21.811  25.776  1.00  0.00    -0.376 OA
BRANCH  28  29
ATOM     29  C   UNL A   1      42.607  22.088  26.292  1.00  0.00     0.202 C 
BRANCH  29  30
ATOM     30  C   UNL A   1      42.981  23.539  25.973  1.00  0.00     0.261 C 
BRANCH  30  31
ATOM     31  O   UNL A   1      42.386  24.514  26.860  1.00  0.00    -0.460 OA
BRANCH  31  32
ATOM     32  C   UNL A   1      41.882  25.619  26.262  1.00  0.00     0.338 C 
ATOM     33  O   UNL A   1      41.724  25.776  25.063  1.00  0.00    -0.246 OA
BRANCH  32  34
ATOM     34  C   UNL A   1      41.358  26.545  27.288  1.00  0.00     0.060 A 
ATOM     35  C   UNL A   1      41.970  27.789  27.442  1.00  0.00     0.016 A 
ATOM     36  C   UNL A   1      40.363  26.160  28.178  1.00  0.00     0.016 A 
ATOM     37  C   UNL A   1      41.665  28.623  28.511  1.00  0.00     0.010 A 
ATOM     38  C   UNL A   1      40.030  27.010  29.245  1.00  0.00     0.010 A 
ATOM     39  C   UNL A   1      40.715  28.226  29.451  1.00  0.00    -0.014 A 
BRANCH  39  40
ATOM     40  C   UNL A   1      40.572  29.002  30.714  1.00  0.00     0.031 A 
ATOM     41  C   UNL A   1      39.523  30.083  30.797  1.00  0.00     0.074 A 
ATOM     42  C   UNL A   1      41.299  28.702  31.809  1.00  0.00     0.049 A 
ATOM     43  N   UNL A   1      39.272  30.931  31.760  1.00  0.00    -0.248 NA
ATOM     44  C   UNL A   1      38.625  30.214  29.638  1.00  0.00     0.031 C 
ATOM     45  C   UNL A   1      42.270  27.611  31.912  1.00  0.00     0.029 A 
ATOM     46  N   UNL A   1      41.337  29.297  33.047  1.00  0.00    -0.354 N 
ATOM     47  C   UNL A   1      38.205  31.705  31.316  1.00  0.00     0.074 A 
ATOM     48  C   UNL A   1      37.863  31.238  29.992  1.00  0.00     0.031 C 
ATOM     49  C   UNL A   1      42.809  27.619  33.143  1.00  0.00     0.029 A 
ATOM     50  C   UNL A   1      42.281  28.758  33.888  1.00  0.00     0.049 A 
ATOM     51  H   UNL A   1      40.743  30.039  33.306  1.00  0.00     0.167 HD
ATOM     52  C   UNL A   1      37.570  32.721  31.949  1.00  0.00     0.037 A 
ATOM     53  C   UNL A   1      42.711  29.164  35.100  1.00  0.00     0.037 A 
ATOM     54  C   UNL A   1      37.933  33.206  33.253  1.00  0.00     0.049 A 
ATOM     55  C   UNL A   1      42.097  30.390  35.724  1.00  0.00     0.074 A 
ATOM     56  C   UNL A   1      37.384  34.257  33.964  1.00  0.00     0.029 A 
ATOM     57  N   UNL A   1      38.949  32.680  34.037  1.00  0.00    -0.354 N 
ATOM     58  N   UNL A   1      41.116  31.139  35.279  1.00  0.00    -0.248 NA
ATOM     59  C   UNL A   1      42.657  30.834  37.008  1.00  0.00     0.031 C 
ATOM     60  C   UNL A   1      38.113  34.411  35.148  1.00  0.00     0.029 A 
ATOM     61  C   UNL A   1      39.070  33.411  35.207  1.00  0.00     0.049 A 
ATOM     62  H   UNL A   1      39.503  31.902  33.797  1.00  0.00     0.167 HD
ATOM     63  C   UNL A   1      40.923  32.124  36.242  1.00  0.00     0.074 A 
ATOM     64  C   UNL A   1      41.883  31.872  37.296  1.00  0.00     0.031 C 
ATOM     65  C   UNL A   1      40.028  33.144  36.252  1.00  0.00     0.037 A 
BRANCH  52  66
ATOM     66  C   UNL A   1      36.468  33.420  31.201  1.00  0.00     0.058 A 
ATOM     67  C   UNL A   1      36.715  34.198  30.058  1.00  0.00     0.135 A 
ATOM     68  C   UNL A   1      35.137  33.303  31.635  1.00  0.00     0.135 A 
ATOM     69  F   UNL A   1      37.971  34.364  29.612  1.00  0.00    -0.206 F 
ATOM     70  C   UNL A   1      35.687  34.855  29.389  1.00  0.00     0.059 A 
ATOM     71  C   UNL A   1      34.090  33.928  30.967  1.00  0.00     0.059 A 
ATOM     72  F   UNL A   1      34.845  32.579  32.728  1.00  0.00    -0.206 F 
ATOM     73  C   UNL A   1      34.376  34.715  29.852  1.00  0.00     0.060 A 
BRANCH  73  74
ATOM     74  S   UNL A   1      33.052  35.580  28.981  1.00  0.00     0.124 S 
ATOM     75  O   UNL A   1      32.492  34.507  28.164  1.00  0.00    -0.237 OA
ATOM     76  O   UNL A   1      32.210  36.046  30.078  1.00  0.00    -0.237 OA
ATOM     77  O   UNL A   1      33.754  36.626  28.244  1.00  0.00    -0.744 OA
ENDBRANCH  73  74
ENDBRANCH  52  66
BRANCH  53  78
ATOM     78  C   UNL A   1      43.823  28.438  35.776  1.00  0.00     0.058 A 
ATOM     79  C   UNL A   1      45.164  28.751  35.515  1.00  0.00     0.135 A 
ATOM     80  C   UNL A   1      43.561  27.416  36.704  1.00  0.00     0.135 A 
ATOM     81  F   UNL A   1      45.469  29.707  34.623  1.00  0.00    -0.206 F 
ATOM     82  C   UNL A   1      46.207  28.077  36.145  1.00  0.00     0.059 A 
ATOM     83  C   UNL A   1      44.585  26.749  37.369  1.00  0.00     0.059 A 
ATOM     84  F   UNL A   1      42.296  27.075  36.993  1.00  0.00    -0.206 F 
ATOM     85  C   UNL A   1      45.906  27.082  37.077  1.00  0.00     0.060 A 
BRANCH  85  86
ATOM     86  S   UNL A   1      47.265  26.254  37.931  1.00  0.00     0.124 S 
ATOM     87  O   UNL A   1      47.548  27.192  39.012  1.00  0.00    -0.237 OA
ATOM     88  O   UNL A   1      46.653  24.990  38.326  1.00  0.00    -0.237 OA
ATOM     89  O   UNL A   1      48.295  26.149  36.902  1.00  0.00    -0.744 OA
ENDBRANCH  85  86
ENDBRANCH  53  78
BRANCH  65  90
ATOM     90  C   UNL A   1      40.007  34.041  37.460  1.00  0.00     0.058 A 
ATOM     91  C   UNL A   1      40.693  35.264  37.490  1.00  0.00     0.135 A 
ATOM     92  C   UNL A   1      39.236  33.694  38.584  1.00  0.00     0.135 A 
ATOM     93  F   UNL A   1      41.448  35.641  36.446  1.00  0.00    -0.206 F 
ATOM     94  C   UNL A   1      40.636  36.102  38.599  1.00  0.00     0.059 A 
ATOM     95  C   UNL A   1      39.141  34.531  39.690  1.00  0.00     0.059 A 
ATOM     96  F   UNL A   1      38.550  32.541  38.604  1.00  0.00    -0.206 F 
ATOM     97  C   UNL A   1      39.854  35.728  39.694  1.00  0.00     0.060 A 
BRANCH  97  98
ATOM     98  S   UNL A   1      39.760  36.841  41.112  1.00  0.00     0.124 S 
ATOM     99  O   UNL A   1      39.458  38.115  40.467  1.00  0.00    -0.237 OA
ATOM    100  O   UNL A   1      38.680  36.256  41.899  1.00  0.00    -0.237 OA
ATOM    101  O   UNL A   1      41.089  36.742  41.710  1.00  0.00    -0.744 OA
ENDBRANCH  97  98
ENDBRANCH  65  90
ENDBRANCH  39  40
ENDBRANCH  32  34
ENDBRANCH  31  32
ENDBRANCH  30  31
ENDBRANCH  29  30
ENDBRANCH  28  29
ENDBRANCH   1  28
TORSDOF 21
ENDMDL
MODEL 3
REMARK VINA RESULT:     -10.6      6.747     11.769
REMARK SMILES CN1C(=O)C[C@@H](C(=O)OCCOCCOCCOC(=O)c2ccc(-c3c4nc(c(-c5c(F)cc(S(=O)(=O)[O-])cc5F)c5ccc([nH]5)c(-c5c(F)cc(S(=O)(=O)[O-])cc5F)c5nc(c(-c6c(F)cc(S(=O)(=O)[O-])cc6F)c6ccc3[nH]6)C=C5)C=C4)cc2)C12CCN(c1ccc(Cl)cn1)CC2
REMARK SMILES IDX 14 1 13 2 12 3 11 4 10 5 9 6 7 7 8 8 6 9 1 10 2 11 3 12
REMARK SMILES IDX 87 13 4 14 5 15 88 16 99 17 89 18 98 19 90 20 91 21 92 22
REMARK SMILES IDX 97 23 93 24 96 25 94 26 95 27 15 28 16 29 17 30 18 31 19 32
REMARK SMILES IDX 20 33 21 34 22 35 86 36 23 37 85 38 24 39 25 40 26 41 79 42
REMARK SMILES IDX 27 43 84 44 78 45 80 46 28 47 83 48 77 49 76 50 29 52 63 53
REMARK SMILES IDX 42 54 62 55 43 56 46 57 61 58 81 59 44 60 45 61 60 63 82 64
REMARK SMILES IDX 47 65 30 66 31 67 40 68 32 69 33 70 39 71 41 72 34 73 35 74
REMARK SMILES IDX 36 75 37 76 38 77 64 78 65 79 74 80 66 81 67 82 73 83 75 84
REMARK SMILES IDX 68 85 69 86 70 87 71 88 72 89 48 90 49 91 58 92 50 93 51 94
REMARK SMILES IDX 57 95 59 96 52 97 53 98 54 99 55 100 56 101
REMARK H PARENT 80 51 46 62
REMARK Flexibility Score: inf
ROOT
ATOM      1  C   UNL A   1      36.666  22.069  24.459  1.00  0.00     0.188 C 
ENDROOT
BRANCH   1   2
ATOM      2  C   UNL A   1      36.074  20.842  25.139  1.00  0.00     0.188 C 
BRANCH   2   3
ATOM      3  O   UNL A   1      35.244  21.023  26.276  1.00  0.00    -0.376 OA
BRANCH   3   4
ATOM      4  C   UNL A   1      34.092  21.844  26.182  1.00  0.00     0.202 C 
BRANCH   4   5
ATOM      5  C   UNL A   1      34.116  23.195  26.920  1.00  0.00     0.261 C 
BRANCH   5   6
ATOM      6  O   UNL A   1      33.315  24.283  26.373  1.00  0.00    -0.463 OA
BRANCH   6   7
ATOM      7  C   UNL A   1      31.974  24.122  26.492  1.00  0.00     0.311 C 
ATOM      8  O   UNL A   1      31.433  23.809  27.551  1.00  0.00    -0.252 OA
BRANCH   7   9
ATOM      9  C   UNL A   1      31.119  24.233  25.227  1.00  0.00     0.134 C 
ATOM     10  C   UNL A   1      33.118  24.051  22.100  1.00  0.00     0.147 C 
ATOM     11  N   UNL A   1      32.167  23.838  23.175  1.00  0.00    -0.339 N 
ATOM     12  C   UNL A   1      31.875  22.578  23.678  1.00  0.00     0.223 C 
ATOM     13  C   UNL A   1      31.439  24.918  23.860  1.00  0.00     0.060 C 
ATOM     14  O   UNL A   1      32.308  21.520  23.283  1.00  0.00    -0.275 OA
ATOM     15  C   UNL A   1      30.898  22.758  24.813  1.00  0.00     0.118 C 
ATOM     16  C   UNL A   1      32.251  26.222  23.802  1.00  0.00     0.051 C 
ATOM     17  C   UNL A   1      30.067  25.199  23.114  1.00  0.00     0.051 C 
ATOM     18  C   UNL A   1      31.467  27.419  24.285  1.00  0.00     0.120 C 
ATOM     19  C   UNL A   1      29.337  26.493  23.555  1.00  0.00     0.120 C 
ATOM     20  N   UNL A   1      30.281  27.601  23.465  1.00  0.00    -0.356 N 
BRANCH  20  21
ATOM     21  C   UNL A   1      29.785  28.910  23.448  1.00  0.00     0.128 A 
ATOM     22  C   UNL A   1      28.770  29.237  22.540  1.00  0.00     0.048 A 
ATOM     23  N   UNL A   1      30.322  29.858  24.244  1.00  0.00    -0.238 NA
ATOM     24  C   UNL A   1      28.342  30.555  22.389  1.00  0.00     0.026 A 
ATOM     25  C   UNL A   1      29.885  31.144  24.089  1.00  0.00     0.134 A 
ATOM     26  C   UNL A   1      28.920  31.535  23.173  1.00  0.00     0.059 A 
ATOM     27  Cl  UNL A   1      28.444  33.172  22.992  1.00  0.00    -0.083 Cl
ENDBRANCH  20  21
ENDBRANCH   7   9
ENDBRANCH   6   7
ENDBRANCH   5   6
ENDBRANCH   4   5
ENDBRANCH   3   4
ENDBRANCH   2   3
ENDBRANCH   1   2
BRANCH   1  28
ATOM     28  O   UNL A   1      38.037  22.295  24.723  1.00  0.00    -0.376 OA
BRANCH  28  29
ATOM     29  C   UNL A   1      38.571  21.481  25.758  1.00  0.00     0.202 C 
BRANCH  29  30
ATOM     30  C   UNL A   1      39.926  22.042  26.199  1.00  0.00     0.261 C 
BRANCH  30  31
ATOM     31  O   UNL A   1      39.837  23.231  27.018  1.00  0.00    -0.460 OA
BRANCH  31  32
ATOM     32  C   UNL A   1      40.961  23.983  27.082  1.00  0.00     0.338 C 
ATOM     33  O   UNL A   1      42.011  23.755  26.504  1.00  0.00    -0.246 OA
BRANCH  32  34
ATOM     34  C   UNL A   1      40.676  25.244  27.800  1.00  0.00     0.060 A 
ATOM     35  C   UNL A   1      41.696  26.188  27.927  1.00  0.00     0.016 A 
ATOM     36  C   UNL A   1      39.468  25.454  28.452  1.00  0.00     0.016 A 
ATOM     37  C   UNL A   1      41.563  27.296  28.755  1.00  0.00     0.010 A 
ATOM     38  C   UNL A   1      39.317  26.587  29.269  1.00  0.00     0.010 A 
ATOM     39  C   UNL A   1      40.381  27.491  29.469  1.00  0.00    -0.014 A 
BRANCH  39  40
ATOM     40  C   UNL A   1      40.335  28.533  30.531  1.00  0.00     0.031 A 
ATOM     41  C   UNL A   1      41.296  28.442  31.691  1.00  0.00     0.074 A 
ATOM     42  C   UNL A   1      39.513  29.597  30.436  1.00  0.00     0.049 A 
ATOM     43  N   UNL A   1      41.383  29.186  32.763  1.00  0.00    -0.248 NA
ATOM     44  C   UNL A   1      42.304  27.372  31.624  1.00  0.00     0.031 C 
ATOM     45  C   UNL A   1      38.610  29.876  29.317  1.00  0.00     0.029 A 
ATOM     46  N   UNL A   1      39.302  30.642  31.301  1.00  0.00    -0.354 N 
ATOM     47  C   UNL A   1      42.439  28.664  33.502  1.00  0.00     0.074 A 
ATOM     48  C   UNL A   1      42.954  27.531  32.767  1.00  0.00     0.031 C 
ATOM     49  C   UNL A   1      37.941  31.013  29.569  1.00  0.00     0.029 A 
ATOM     50  C   UNL A   1      38.308  31.502  30.894  1.00  0.00     0.049 A 
ATOM     51  H   UNL A   1      39.813  30.765  32.134  1.00  0.00     0.167 HD
ATOM     52  C   UNL A   1      42.933  29.083  34.692  1.00  0.00     0.037 A 
ATOM     53  C   UNL A   1      37.722  32.533  31.536  1.00  0.00     0.037 A 
ATOM     54  C   UNL A   1      42.399  30.191  35.438  1.00  0.00     0.049 A 
ATOM     55  C   UNL A   1      38.183  32.890  32.925  1.00  0.00     0.074 A 
ATOM     56  C   UNL A   1      42.797  30.669  36.673  1.00  0.00     0.029 A 
ATOM     57  N   UNL A   1      41.340  30.985  35.023  1.00  0.00    -0.354 N 
ATOM     58  N   UNL A   1      39.156  32.366  33.632  1.00  0.00    -0.248 NA
ATOM     59  C   UNL A   1      37.458  33.971  33.608  1.00  0.00     0.031 C 
ATOM     60  C   UNL A   1      41.933  31.708  37.037  1.00  0.00     0.029 A 
ATOM     61  C   UNL A   1      41.044  31.924  35.997  1.00  0.00     0.049 A 
ATOM     62  H   UNL A   1      40.868  30.894  34.164  1.00  0.00     0.167 HD
ATOM     63  C   UNL A   1      39.178  33.071  34.831  1.00  0.00     0.074 A 
ATOM     64  C   UNL A   1      38.126  34.064  34.751  1.00  0.00     0.031 C 
ATOM     65  C   UNL A   1      39.997  32.912  35.901  1.00  0.00     0.037 A 
BRANCH  52  66
ATOM     66  C   UNL A   1      44.062  28.289  35.290  1.00  0.00     0.058 A 
ATOM     67  C   UNL A   1      43.839  27.186  36.130  1.00  0.00     0.135 A 
ATOM     68  C   UNL A   1      45.395  28.638  35.011  1.00  0.00     0.135 A 
ATOM     69  F   UNL A   1      42.586  26.822  36.449  1.00  0.00    -0.206 F 
ATOM     70  C   UNL A   1      44.895  26.474  36.692  1.00  0.00     0.059 A 
ATOM     71  C   UNL A   1      46.465  27.925  35.539  1.00  0.00     0.059 A 
ATOM     72  F   UNL A   1      45.665  29.691  34.222  1.00  0.00    -0.206 F 
ATOM     73  C   UNL A   1      46.206  26.853  36.391  1.00  0.00     0.060 A 
BRANCH  73  74
ATOM     74  S   UNL A   1      47.566  25.927  37.133  1.00  0.00     0.124 S 
ATOM     75  O   UNL A   1      46.859  24.801  37.736  1.00  0.00    -0.237 OA
ATOM     76  O   UNL A   1      48.394  25.607  35.974  1.00  0.00    -0.237 OA
ATOM     77  O   UNL A   1      48.151  26.875  38.076  1.00  0.00    -0.744 OA
ENDBRANCH  73  74
ENDBRANCH  52  66
BRANCH  53  78
ATOM     78  C   UNL A   1      36.594  33.263  30.894  1.00  0.00     0.058 A 
ATOM     79  C   UNL A   1      36.815  34.188  29.865  1.00  0.00     0.135 A 
ATOM     80  C   UNL A   1      35.265  33.043  31.297  1.00  0.00     0.135 A 
ATOM     81  F   UNL A   1      38.066  34.449  29.455  1.00  0.00    -0.206 F 
ATOM     82  C   UNL A   1      35.764  34.873  29.260  1.00  0.00     0.059 A 
ATOM     83  C   UNL A   1      34.197  33.691  30.688  1.00  0.00     0.059 A 
ATOM     84  F   UNL A   1      34.995  32.167  32.277  1.00  0.00    -0.206 F 
ATOM     85  C   UNL A   1      34.457  34.611  29.674  1.00  0.00     0.060 A 
BRANCH  85  86
ATOM     86  S   UNL A   1      33.097  35.460  28.843  1.00  0.00     0.124 S 
ATOM     87  O   UNL A   1      32.330  35.967  29.974  1.00  0.00    -0.237 OA
ATOM     88  O   UNL A   1      33.802  36.462  28.049  1.00  0.00    -0.237 OA
ATOM     89  O   UNL A   1      32.458  34.398  28.072  1.00  0.00    -0.744 OA
ENDBRANCH  85  86
ENDBRANCH  53  78
BRANCH  65  90
ATOM     90  C   UNL A   1      39.827  33.860  37.057  1.00  0.00     0.058 A 
ATOM     91  C   UNL A   1      40.419  35.132  37.068  1.00  0.00     0.135 A 
ATOM     92  C   UNL A   1      39.008  33.508  38.143  1.00  0.00     0.135 A 
ATOM     93  F   UNL A   1      41.215  35.516  36.058  1.00  0.00    -0.206 F 
ATOM     94  C   UNL A   1      40.224  36.014  38.127  1.00  0.00     0.059 A 
ATOM     95  C   UNL A   1      38.775  34.385  39.197  1.00  0.00     0.059 A 
ATOM     96  F   UNL A   1      38.408  32.308  38.178  1.00  0.00    -0.206 F 
ATOM     97  C   UNL A   1      39.396  35.632  39.186  1.00  0.00     0.060 A 
BRANCH  97  98
ATOM     98  S   UNL A   1      39.124  36.800  40.535  1.00  0.00     0.124 S 
ATOM     99  O   UNL A   1      40.456  36.889  41.122  1.00  0.00    -0.237 OA
ATOM    100  O   UNL A   1      38.660  37.990  39.830  1.00  0.00    -0.237 OA
ATOM    101  O   UNL A   1      38.118  36.137  41.360  1.00  0.00    -0.744 OA
ENDBRANCH  97  98
ENDBRANCH  65  90
ENDBRANCH  39  40
ENDBRANCH  32  34
ENDBRANCH  31  32
ENDBRANCH  30  31
ENDBRANCH  29  30
ENDBRANCH  28  29
ENDBRANCH   1  28
TORSDOF 21
ENDMDL
