MODEL 1
REMARK VINA RESULT:      -9.5      0.000      0.000
REMARK SMILES O=C(OCCOCCOCCOC(=O)c1cc(NS(=O)(=O)c2ccc(Br)s2)cnc1N1CCCC1)c1ccc(-c2c3nc(c(-c4c(F)cc(S(=O)(=O)[O-])cc4F)c4ccc([nH]4)c(-c4c(F)cc(S(=O)(=O)[O-])cc4F)c4nc(c(-c5c(F)cc(S(=O)(=O)[O-])cc5F)c5ccc2[nH]5)C=C4)C=C3)cc1
REMARK SMILES IDX 7 1 6 2 5 3 4 4 3 5 2 6 1 7 36 8 37 9 101 10 38 11 100 12
REMARK SMILES IDX 39 13 40 14 41 15 94 16 42 17 99 18 93 19 95 20 43 21 98 22
REMARK SMILES IDX 92 23 91 24 44 26 78 27 57 28 77 29 58 30 61 31 76 32 96 33
REMARK SMILES IDX 59 34 60 35 75 37 97 38 62 39 45 40 46 41 55 42 47 43 48 44
REMARK SMILES IDX 54 45 56 46 49 47 50 48 51 49 52 50 53 51 79 52 80 53 89 54
REMARK SMILES IDX 81 55 82 56 88 57 90 58 83 59 84 60 85 61 86 62 87 63 63 64
REMARK SMILES IDX 64 65 73 66 65 67 66 68 72 69 74 70 67 71 68 72 69 73 70 74
REMARK SMILES IDX 71 75 8 76 9 77 10 78 11 79 12 80 13 81 14 82 15 83 16 84
REMARK SMILES IDX 30 85 17 86 29 87 28 88 31 89 32 90 35 91 33 92 34 93 18 94
REMARK SMILES IDX 19 96 20 97 21 98 22 99 23 100 27 101 24 102 25 103 26 104
REMARK H PARENT 95 25 61 36 18 95
REMARK Flexibility Score: inf
ROOT
ATOM      1  C   UNL A   1      35.973  30.254  28.570  1.00  0.00     0.188 C 
ENDROOT
BRANCH   1   2
ATOM      2  O   UNL A   1      35.779  29.657  29.844  1.00  0.00    -0.376 OA
BRANCH   2   3
ATOM      3  C   UNL A   1      36.673  30.056  30.880  1.00  0.00     0.202 C 
BRANCH   3   4
ATOM      4  C   UNL A   1      36.124  30.891  32.068  1.00  0.00     0.261 C 
BRANCH   4   5
ATOM      5  O   UNL A   1      37.114  31.571  32.862  1.00  0.00    -0.460 OA
BRANCH   5   6
ATOM      6  C   UNL A   1      38.255  32.170  32.438  1.00  0.00     0.338 C 
ATOM      7  O   UNL A   1      38.390  33.379  32.620  1.00  0.00    -0.246 OA
BRANCH   6   8
ATOM      8  C   UNL A   1      39.309  31.452  31.654  1.00  0.00     0.060 A 
ATOM      9  C   UNL A   1      40.155  30.485  32.189  1.00  0.00     0.016 A 
ATOM     10  C   UNL A   1      39.391  31.696  30.269  1.00  0.00     0.016 A 
ATOM     11  C   UNL A   1      41.129  29.869  31.421  1.00  0.00     0.010 A 
ATOM     12  C   UNL A   1      40.330  31.030  29.470  1.00  0.00     0.010 A 
ATOM     13  C   UNL A   1      41.242  30.152  30.064  1.00  0.00    -0.014 A 
BRANCH  13  14
ATOM     14  C   UNL A   1      42.460  29.657  29.388  1.00  0.00     0.031 A 
ATOM     15  C   UNL A   1      43.689  30.520  29.437  1.00  0.00     0.074 A 
ATOM     16  C   UNL A   1      42.519  28.375  28.976  1.00  0.00     0.049 A 
ATOM     17  N   UNL A   1      44.903  30.254  29.036  1.00  0.00    -0.248 NA
ATOM     18  C   UNL A   1      43.539  31.853  30.049  1.00  0.00     0.031 C 
ATOM     19  C   UNL A   1      41.402  27.427  29.015  1.00  0.00     0.029 A 
ATOM     20  N   UNL A   1      43.568  27.630  28.508  1.00  0.00    -0.354 N 
ATOM     21  C   UNL A   1      45.656  31.378  29.352  1.00  0.00     0.074 A 
ATOM     22  C   UNL A   1      44.761  32.347  29.939  1.00  0.00     0.031 C 
ATOM     23  C   UNL A   1      41.838  26.217  28.624  1.00  0.00     0.029 A 
ATOM     24  C   UNL A   1      43.244  26.318  28.253  1.00  0.00     0.049 A 
ATOM     25  H   UNL A   1      44.470  27.999  28.367  1.00  0.00     0.167 HD
ATOM     26  C   UNL A   1      46.983  31.576  29.183  1.00  0.00     0.037 A 
ATOM     27  C   UNL A   1      43.998  25.319  27.759  1.00  0.00     0.037 A 
ATOM     28  C   UNL A   1      47.854  30.600  28.591  1.00  0.00     0.049 A 
ATOM     29  C   UNL A   1      45.443  25.608  27.459  1.00  0.00     0.074 A 
ATOM     30  C   UNL A   1      49.195  30.714  28.276  1.00  0.00     0.029 A 
ATOM     31  N   UNL A   1      47.462  29.318  28.229  1.00  0.00    -0.354 N 
ATOM     32  N   UNL A   1      46.124  26.709  27.683  1.00  0.00    -0.248 NA
ATOM     33  C   UNL A   1      46.220  24.531  26.835  1.00  0.00     0.031 C 
ATOM     34  C   UNL A   1      49.604  29.513  27.688  1.00  0.00     0.029 A 
ATOM     35  C   UNL A   1      48.531  28.633  27.682  1.00  0.00     0.049 A 
ATOM     36  H   UNL A   1      46.556  28.950  28.345  1.00  0.00     0.167 HD
ATOM     37  C   UNL A   1      47.413  26.452  27.235  1.00  0.00     0.074 A 
ATOM     38  C   UNL A   1      47.421  25.085  26.753  1.00  0.00     0.031 C 
ATOM     39  C   UNL A   1      48.495  27.272  27.214  1.00  0.00     0.037 A 
BRANCH  26  40
ATOM     40  C   UNL A   1      47.538  32.906  29.603  1.00  0.00     0.058 A 
ATOM     41  C   UNL A   1      48.055  33.119  30.892  1.00  0.00     0.135 A 
ATOM     42  C   UNL A   1      47.531  33.991  28.713  1.00  0.00     0.135 A 
ATOM     43  F   UNL A   1      48.049  32.127  31.796  1.00  0.00    -0.206 F 
ATOM     44  C   UNL A   1      48.525  34.368  31.289  1.00  0.00     0.059 A 
ATOM     45  C   UNL A   1      48.019  35.242  29.081  1.00  0.00     0.059 A 
ATOM     46  F   UNL A   1      47.033  33.846  27.475  1.00  0.00    -0.206 F 
ATOM     47  C   UNL A   1      48.502  35.424  30.376  1.00  0.00     0.060 A 
BRANCH  47  48
ATOM     48  S   UNL A   1      49.110  37.037  30.907  1.00  0.00     0.124 S 
ATOM     49  O   UNL A   1      48.159  37.375  31.963  1.00  0.00    -0.237 OA
ATOM     50  O   UNL A   1      50.466  36.728  31.352  1.00  0.00    -0.237 OA
ATOM     51  O   UNL A   1      49.019  37.851  29.699  1.00  0.00    -0.744 OA
ENDBRANCH  47  48
ENDBRANCH  26  40
BRANCH  27  52
ATOM     52  C   UNL A   1      43.399  23.993  27.441  1.00  0.00     0.058 A 
ATOM     53  C   UNL A   1      43.188  23.016  28.425  1.00  0.00     0.135 A 
ATOM     54  C   UNL A   1      43.071  23.664  26.116  1.00  0.00     0.135 A 
ATOM     55  F   UNL A   1      43.497  23.275  29.705  1.00  0.00    -0.206 F 
ATOM     56  C   UNL A   1      42.690  21.756  28.105  1.00  0.00     0.059 A 
ATOM     57  C   UNL A   1      42.554  22.419  25.775  1.00  0.00     0.059 A 
ATOM     58  F   UNL A   1      43.241  24.569  25.139  1.00  0.00    -0.206 F 
ATOM     59  C   UNL A   1      42.377  21.466  26.776  1.00  0.00     0.060 A 
BRANCH  59  60
ATOM     60  S   UNL A   1      41.688  19.845  26.371  1.00  0.00     0.124 S 
ATOM     61  O   UNL A   1      42.006  19.083  27.572  1.00  0.00    -0.237 OA
ATOM     62  O   UNL A   1      40.277  20.158  26.165  1.00  0.00    -0.237 OA
ATOM     63  O   UNL A   1      42.416  19.469  25.163  1.00  0.00    -0.744 OA
ENDBRANCH  59  60
ENDBRANCH  27  52
BRANCH  39  64
ATOM     64  C   UNL A   1      49.769  26.690  26.677  1.00  0.00     0.058 A 
ATOM     65  C   UNL A   1      50.115  26.804  25.323  1.00  0.00     0.135 A 
ATOM     66  C   UNL A   1      50.664  26.036  27.538  1.00  0.00     0.135 A 
ATOM     67  F   UNL A   1      49.284  27.415  24.462  1.00  0.00    -0.206 F 
ATOM     68  C   UNL A   1      51.294  26.259  24.831  1.00  0.00     0.059 A 
ATOM     69  C   UNL A   1      51.862  25.511  27.073  1.00  0.00     0.059 A 
ATOM     70  F   UNL A   1      50.379  25.914  28.844  1.00  0.00    -0.206 F 
ATOM     71  C   UNL A   1      52.160  25.612  25.715  1.00  0.00     0.060 A 
BRANCH  71  72
ATOM     72  S   UNL A   1      53.696  24.922  25.069  1.00  0.00     0.124 S 
ATOM     73  O   UNL A   1      54.661  25.379  26.063  1.00  0.00    -0.237 OA
ATOM     74  O   UNL A   1      53.418  23.490  25.063  1.00  0.00    -0.237 OA
ATOM     75  O   UNL A   1      53.813  25.537  23.749  1.00  0.00    -0.744 OA
ENDBRANCH  71  72
ENDBRANCH  39  64
ENDBRANCH  13  14
ENDBRANCH   6   8
ENDBRANCH   5   6
ENDBRANCH   4   5
ENDBRANCH   3   4
ENDBRANCH   2   3
ENDBRANCH   1   2
BRANCH   1  76
ATOM     76  C   UNL A   1      35.412  29.575  27.312  1.00  0.00     0.188 C 
BRANCH  76  77
ATOM     77  O   UNL A   1      34.425  28.572  27.443  1.00  0.00    -0.376 OA
BRANCH  77  78
ATOM     78  C   UNL A   1      33.079  29.012  27.574  1.00  0.00     0.202 C 
BRANCH  78  79
ATOM     79  C   UNL A   1      31.942  27.988  27.424  1.00  0.00     0.261 C 
BRANCH  79  80
ATOM     80  O   UNL A   1      31.119  28.111  26.242  1.00  0.00    -0.460 OA
BRANCH  80  81
ATOM     81  C   UNL A   1      31.696  28.747  25.184  1.00  0.00     0.342 C 
ATOM     82  O   UNL A   1      32.075  29.906  25.145  1.00  0.00    -0.246 OA
BRANCH  81  83
ATOM     83  C   UNL A   1      31.650  27.899  23.984  1.00  0.00     0.104 A 
ATOM     84  C   UNL A   1      32.506  26.780  23.959  1.00  0.00     0.048 A 
ATOM     85  C   UNL A   1      30.760  28.126  22.926  1.00  0.00     0.143 A 
ATOM     86  C   UNL A   1      32.477  25.931  22.861  1.00  0.00     0.068 A 
ATOM     87  N   UNL A   1      30.776  27.322  21.839  1.00  0.00    -0.236 NA
ATOM     88  C   UNL A   1      31.628  26.276  21.821  1.00  0.00     0.140 A 
BRANCH  85  89
ATOM     89  N   UNL A   1      29.822  29.148  22.903  1.00  0.00    -0.356 N 
ATOM     90  C   UNL A   1      29.835  29.974  21.695  1.00  0.00     0.118 C 
ATOM     91  C   UNL A   1      28.429  28.743  23.121  1.00  0.00     0.118 C 
ATOM     92  C   UNL A   1      28.608  30.845  21.890  1.00  0.00     0.023 C 
ATOM     93  C   UNL A   1      27.597  29.880  22.499  1.00  0.00     0.023 C 
ENDBRANCH  85  89
BRANCH  86  94
ATOM     94  N   UNL A   1      33.303  24.763  22.782  1.00  0.00    -0.277 N 
ATOM     95  H   UNL A   1      34.036  24.694  22.128  1.00  0.00     0.180 HD
BRANCH  94  96
ATOM     96  S   UNL A   1      32.960  23.493  23.874  1.00  0.00     0.271 S 
ATOM     97  O   UNL A   1      32.293  24.083  25.013  1.00  0.00    -0.200 OA
ATOM     98  O   UNL A   1      32.369  22.416  23.114  1.00  0.00    -0.200 OA
BRANCH  96  99
ATOM     99  C   UNL A   1      34.492  22.887  24.558  1.00  0.00     0.141 A 
ATOM    100  C   UNL A   1      34.882  21.619  24.961  1.00  0.00     0.035 A 
ATOM    101  S   UNL A   1      35.730  24.038  24.837  1.00  0.00    -0.115 S 
ATOM    102  C   UNL A   1      36.170  21.621  25.578  1.00  0.00     0.029 A 
ATOM    103  C   UNL A   1      36.718  22.878  25.572  1.00  0.00     0.071 A 
ATOM    104  Br  UNL A   1      38.387  23.289  26.314  1.00  0.00    -0.039 Br
ENDBRANCH  96  99
ENDBRANCH  94  96
ENDBRANCH  86  94
ENDBRANCH  81  83
ENDBRANCH  80  81
ENDBRANCH  79  80
ENDBRANCH  78  79
ENDBRANCH  77  78
ENDBRANCH  76  77
ENDBRANCH   1  76
TORSDOF 24
ENDMDL
MODEL 2
REMARK VINA RESULT:      -9.0      6.642     14.034
REMARK SMILES O=C(OCCOCCOCCOC(=O)c1cc(NS(=O)(=O)c2ccc(Br)s2)cnc1N1CCCC1)c1ccc(-c2c3nc(c(-c4c(F)cc(S(=O)(=O)[O-])cc4F)c4ccc([nH]4)c(-c4c(F)cc(S(=O)(=O)[O-])cc4F)c4nc(c(-c5c(F)cc(S(=O)(=O)[O-])cc5F)c5ccc2[nH]5)C=C4)C=C3)cc1
REMARK SMILES IDX 7 1 6 2 5 3 4 4 3 5 2 6 1 7 36 8 37 9 101 10 38 11 100 12
REMARK SMILES IDX 39 13 40 14 41 15 94 16 42 17 99 18 93 19 95 20 43 21 98 22
REMARK SMILES IDX 92 23 91 24 44 26 78 27 57 28 77 29 58 30 61 31 76 32 96 33
REMARK SMILES IDX 59 34 60 35 75 37 97 38 62 39 45 40 46 41 55 42 47 43 48 44
REMARK SMILES IDX 54 45 56 46 49 47 50 48 51 49 52 50 53 51 79 52 80 53 89 54
REMARK SMILES IDX 81 55 82 56 88 57 90 58 83 59 84 60 85 61 86 62 87 63 63 64
REMARK SMILES IDX 64 65 73 66 65 67 66 68 72 69 74 70 67 71 68 72 69 73 70 74
REMARK SMILES IDX 71 75 8 76 9 77 10 78 11 79 12 80 13 81 14 82 15 83 16 84
REMARK SMILES IDX 30 85 17 86 29 87 28 88 31 89 32 90 35 91 33 92 34 93 18 94
REMARK SMILES IDX 19 96 20 97 21 98 22 99 23 100 27 101 24 102 25 103 26 104
REMARK H PARENT 95 25 61 36 18 95
REMARK Flexibility Score: inf
ROOT
ATOM      1  C   UNL A   1      46.270  27.892  25.262  1.00  0.00     0.188 C 
ENDROOT
BRANCH   1   2
ATOM      2  O   UNL A   1      45.049  27.183  25.403  1.00  0.00    -0.376 OA
BRANCH   2   3
ATOM      3  C   UNL A   1      45.114  25.764  25.269  1.00  0.00     0.202 C 
BRANCH   3   4
ATOM      4  C   UNL A   1      44.902  24.879  26.526  1.00  0.00     0.261 C 
BRANCH   4   5
ATOM      5  O   UNL A   1      43.550  24.444  26.762  1.00  0.00    -0.460 OA
BRANCH   5   6
ATOM      6  C   UNL A   1      42.406  25.158  26.608  1.00  0.00     0.338 C 
ATOM      7  O   UNL A   1      41.798  25.077  25.542  1.00  0.00    -0.246 OA
BRANCH   6   8
ATOM      8  C   UNL A   1      41.909  26.130  27.632  1.00  0.00     0.060 A 
ATOM      9  C   UNL A   1      42.518  27.350  27.910  1.00  0.00     0.016 A 
ATOM     10  C   UNL A   1      40.698  25.840  28.292  1.00  0.00     0.016 A 
ATOM     11  C   UNL A   1      42.027  28.200  28.886  1.00  0.00     0.010 A 
ATOM     12  C   UNL A   1      40.157  26.725  29.236  1.00  0.00     0.010 A 
ATOM     13  C   UNL A   1      40.859  27.886  29.574  1.00  0.00    -0.014 A 
BRANCH  13  14
ATOM     14  C   UNL A   1      40.557  28.708  30.765  1.00  0.00     0.031 A 
ATOM     15  C   UNL A   1      41.496  28.619  31.934  1.00  0.00     0.074 A 
ATOM     16  C   UNL A   1      39.623  29.677  30.687  1.00  0.00     0.049 A 
ATOM     17  N   UNL A   1      41.519  29.326  33.031  1.00  0.00    -0.248 NA
ATOM     18  C   UNL A   1      42.575  27.618  31.843  1.00  0.00     0.031 C 
ATOM     19  C   UNL A   1      38.753  29.915  29.532  1.00  0.00     0.029 A 
ATOM     20  N   UNL A   1      39.293  30.678  31.560  1.00  0.00    -0.354 N 
ATOM     21  C   UNL A   1      42.613  28.862  33.753  1.00  0.00     0.074 A 
ATOM     22  C   UNL A   1      43.206  27.786  32.994  1.00  0.00     0.031 C 
ATOM     23  C   UNL A   1      38.017  31.017  29.755  1.00  0.00     0.029 A 
ATOM     24  C   UNL A   1      38.320  31.526  31.087  1.00  0.00     0.049 A 
ATOM     25  H   UNL A   1      39.714  30.781  32.445  1.00  0.00     0.167 HD
ATOM     26  C   UNL A   1      43.090  29.309  34.936  1.00  0.00     0.037 A 
ATOM     27  C   UNL A   1      37.730  32.583  31.676  1.00  0.00     0.037 A 
ATOM     28  C   UNL A   1      42.481  30.378  35.677  1.00  0.00     0.049 A 
ATOM     29  C   UNL A   1      38.197  32.976  33.050  1.00  0.00     0.074 A 
ATOM     30  C   UNL A   1      42.809  30.859  36.930  1.00  0.00     0.029 A 
ATOM     31  N   UNL A   1      41.413  31.138  35.220  1.00  0.00    -0.354 N 
ATOM     32  N   UNL A   1      39.179  32.470  33.760  1.00  0.00    -0.248 NA
ATOM     33  C   UNL A   1      37.476  34.072  33.707  1.00  0.00     0.031 C 
ATOM     34  C   UNL A   1      41.914  31.885  37.247  1.00  0.00     0.029 A 
ATOM     35  C   UNL A   1      41.059  32.077  36.170  1.00  0.00     0.049 A 
ATOM     36  H   UNL A   1      40.972  31.024  34.346  1.00  0.00     0.167 HD
ATOM     37  C   UNL A   1      39.200  33.194  34.945  1.00  0.00     0.074 A 
ATOM     38  C   UNL A   1      38.150  34.189  34.843  1.00  0.00     0.031 C 
ATOM     39  C   UNL A   1      40.006  33.048  36.027  1.00  0.00     0.037 A 
BRANCH  26  40
ATOM     40  C   UNL A   1      44.291  28.606  35.502  1.00  0.00     0.058 A 
ATOM     41  C   UNL A   1      45.600  29.011  35.192  1.00  0.00     0.135 A 
ATOM     42  C   UNL A   1      44.132  27.496  36.345  1.00  0.00     0.135 A 
ATOM     43  F   UNL A   1      45.810  30.042  34.359  1.00  0.00    -0.206 F 
ATOM     44  C   UNL A   1      46.708  28.326  35.683  1.00  0.00     0.059 A 
ATOM     45  C   UNL A   1      45.225  26.811  36.867  1.00  0.00     0.059 A 
ATOM     46  F   UNL A   1      42.902  27.057  36.658  1.00  0.00    -0.206 F 
ATOM     47  C   UNL A   1      46.509  27.226  36.519  1.00  0.00     0.060 A 
BRANCH  47  48
ATOM     48  S   UNL A   1      47.956  26.345  37.144  1.00  0.00     0.124 S 
ATOM     49  O   UNL A   1      48.525  25.809  35.911  1.00  0.00    -0.237 OA
ATOM     50  O   UNL A   1      48.719  27.413  37.781  1.00  0.00    -0.237 OA
ATOM     51  O   UNL A   1      47.386  25.355  38.053  1.00  0.00    -0.744 OA
ENDBRANCH  47  48
ENDBRANCH  26  40
BRANCH  27  52
ATOM     52  C   UNL A   1      36.595  33.289  31.020  1.00  0.00     0.058 A 
ATOM     53  C   UNL A   1      35.272  33.146  31.465  1.00  0.00     0.135 A 
ATOM     54  C   UNL A   1      36.817  34.090  29.889  1.00  0.00     0.135 A 
ATOM     55  F   UNL A   1      35.002  32.381  32.534  1.00  0.00    -0.206 F 
ATOM     56  C   UNL A   1      34.210  33.757  30.803  1.00  0.00     0.059 A 
ATOM     57  C   UNL A   1      35.776  34.725  29.222  1.00  0.00     0.059 A 
ATOM     58  F   UNL A   1      38.066  34.270  29.431  1.00  0.00    -0.206 F 
ATOM     59  C   UNL A   1      34.472  34.545  29.681  1.00  0.00     0.060 A 
BRANCH  59  60
ATOM     60  S   UNL A   1      33.098  35.373  28.851  1.00  0.00     0.124 S 
ATOM     61  O   UNL A   1      33.793  36.401  28.086  1.00  0.00    -0.237 OA
ATOM     62  O   UNL A   1      32.510  34.284  28.075  1.00  0.00    -0.237 OA
ATOM     63  O   UNL A   1      32.278  35.847  29.961  1.00  0.00    -0.744 OA
ENDBRANCH  59  60
ENDBRANCH  27  52
BRANCH  39  64
ATOM     64  C   UNL A   1      39.791  34.007  37.159  1.00  0.00     0.058 A 
ATOM     65  C   UNL A   1      39.013  33.664  38.275  1.00  0.00     0.135 A 
ATOM     66  C   UNL A   1      40.396  35.274  37.137  1.00  0.00     0.135 A 
ATOM     67  F   UNL A   1      38.410  32.465  38.335  1.00  0.00    -0.206 F 
ATOM     68  C   UNL A   1      38.813  34.559  39.319  1.00  0.00     0.059 A 
ATOM     69  C   UNL A   1      40.234  36.172  38.184  1.00  0.00     0.059 A 
ATOM     70  F   UNL A   1      41.158  35.641  36.095  1.00  0.00    -0.206 F 
ATOM     71  C   UNL A   1      39.427  35.812  39.262  1.00  0.00     0.060 A 
BRANCH  71  72
ATOM     72  S   UNL A   1      39.174  36.959  40.630  1.00  0.00     0.124 S 
ATOM     73  O   UNL A   1      38.737  38.160  39.926  1.00  0.00    -0.237 OA
ATOM     74  O   UNL A   1      38.155  36.281  41.424  1.00  0.00    -0.237 OA
ATOM     75  O   UNL A   1      40.493  37.039  41.252  1.00  0.00    -0.744 OA
ENDBRANCH  71  72
ENDBRANCH  39  64
ENDBRANCH  13  14
ENDBRANCH   6   8
ENDBRANCH   5   6
ENDBRANCH   4   5
ENDBRANCH   3   4
ENDBRANCH   2   3
ENDBRANCH   1   2
BRANCH   1  76
ATOM     76  C   UNL A   1      46.371  29.349  25.740  1.00  0.00     0.188 C 
BRANCH  76  77
ATOM     77  O   UNL A   1      47.307  29.688  26.743  1.00  0.00    -0.376 OA
BRANCH  77  78
ATOM     78  C   UNL A   1      47.550  31.074  26.949  1.00  0.00     0.202 C 
BRANCH  78  79
ATOM     79  C   UNL A   1      46.388  32.068  26.786  1.00  0.00     0.261 C 
BRANCH  79  80
ATOM     80  O   UNL A   1      46.750  33.453  26.593  1.00  0.00    -0.460 OA
BRANCH  80  81
ATOM     81  C   UNL A   1      45.792  34.239  26.023  1.00  0.00     0.342 C 
ATOM     82  O   UNL A   1      45.565  34.368  24.831  1.00  0.00    -0.246 OA
BRANCH  81  83
ATOM     83  C   UNL A   1      45.151  35.088  27.037  1.00  0.00     0.104 A 
ATOM     84  C   UNL A   1      43.929  34.633  27.572  1.00  0.00     0.048 A 
ATOM     85  C   UNL A   1      45.732  36.267  27.522  1.00  0.00     0.143 A 
ATOM     86  C   UNL A   1      43.299  35.383  28.555  1.00  0.00     0.068 A 
ATOM     87  N   UNL A   1      45.085  37.016  28.443  1.00  0.00    -0.236 NA
ATOM     88  C   UNL A   1      43.900  36.578  28.916  1.00  0.00     0.140 A 
BRANCH  85  89
ATOM     89  N   UNL A   1      46.971  36.746  27.120  1.00  0.00    -0.356 N 
ATOM     90  C   UNL A   1      46.949  37.604  25.936  1.00  0.00     0.118 C 
ATOM     91  C   UNL A   1      47.742  37.461  28.143  1.00  0.00     0.118 C 
ATOM     92  C   UNL A   1      48.380  38.102  25.875  1.00  0.00     0.023 C 
ATOM     93  C   UNL A   1      48.723  38.336  27.341  1.00  0.00     0.023 C 
ENDBRANCH  85  89
BRANCH  86  94
ATOM     94  N   UNL A   1      42.068  34.965  29.158  1.00  0.00    -0.277 N 
ATOM     95  H   UNL A   1      41.200  35.124  28.720  1.00  0.00     0.180 HD
BRANCH  94  96
ATOM     96  S   UNL A   1      42.171  34.177  30.671  1.00  0.00     0.271 S 
ATOM     97  O   UNL A   1      42.815  35.095  31.584  1.00  0.00    -0.200 OA
ATOM     98  O   UNL A   1      40.874  33.604  30.950  1.00  0.00    -0.200 OA
BRANCH  96  99
ATOM     99  C   UNL A   1      43.333  32.831  30.546  1.00  0.00     0.141 A 
ATOM    100  C   UNL A   1      43.155  31.481  30.285  1.00  0.00     0.035 A 
ATOM    101  S   UNL A   1      44.982  33.195  30.838  1.00  0.00    -0.115 S 
ATOM    102  C   UNL A   1      44.369  30.740  30.413  1.00  0.00     0.029 A 
ATOM    103  C   UNL A   1      45.420  31.566  30.718  1.00  0.00     0.071 A 
ATOM    104  Br  UNL A   1      47.172  30.963  30.991  1.00  0.00    -0.039 Br
ENDBRANCH  96  99
ENDBRANCH  94  96
ENDBRANCH  86  94
ENDBRANCH  81  83
ENDBRANCH  80  81
ENDBRANCH  79  80
ENDBRANCH  78  79
ENDBRANCH  77  78
ENDBRANCH  76  77
ENDBRANCH   1  76
TORSDOF 24
ENDMDL
MODEL 3
REMARK VINA RESULT:      -8.7      7.549     14.690
REMARK SMILES O=C(OCCOCCOCCOC(=O)c1cc(NS(=O)(=O)c2ccc(Br)s2)cnc1N1CCCC1)c1ccc(-c2c3nc(c(-c4c(F)cc(S(=O)(=O)[O-])cc4F)c4ccc([nH]4)c(-c4c(F)cc(S(=O)(=O)[O-])cc4F)c4nc(c(-c5c(F)cc(S(=O)(=O)[O-])cc5F)c5ccc2[nH]5)C=C4)C=C3)cc1
REMARK SMILES IDX 7 1 6 2 5 3 4 4 3 5 2 6 1 7 36 8 37 9 101 10 38 11 100 12
REMARK SMILES IDX 39 13 40 14 41 15 94 16 42 17 99 18 93 19 95 20 43 21 98 22
REMARK SMILES IDX 92 23 91 24 44 26 78 27 57 28 77 29 58 30 61 31 76 32 96 33
REMARK SMILES IDX 59 34 60 35 75 37 97 38 62 39 45 40 46 41 55 42 47 43 48 44
REMARK SMILES IDX 54 45 56 46 49 47 50 48 51 49 52 50 53 51 79 52 80 53 89 54
REMARK SMILES IDX 81 55 82 56 88 57 90 58 83 59 84 60 85 61 86 62 87 63 63 64
REMARK SMILES IDX 64 65 73 66 65 67 66 68 72 69 74 70 67 71 68 72 69 73 70 74
REMARK SMILES IDX 71 75 8 76 9 77 10 78 11 79 12 80 13 81 14 82 15 83 16 84
REMARK SMILES IDX 30 85 17 86 29 87 28 88 31 89 32 90 35 91 33 92 34 93 18 94
REMARK SMILES IDX 19 96 20 97 21 98 22 99 23 100 27 101 24 102 25 103 26 104
REMARK H PARENT 95 25 61 36 18 95
REMARK Flexibility Score: inf
ROOT
ATOM      1  C   UNL A   1      46.125  42.358  27.245  1.00  0.00     0.188 C 
ENDROOT
BRANCH   1   2
ATOM      2  O   UNL A   1      45.942  40.959  27.083  1.00  0.00    -0.376 OA
BRANCH   2   3
ATOM      3  C   UNL A   1      47.103  40.142  27.220  1.00  0.00     0.202 C 
BRANCH   3   4
ATOM      4  C   UNL A   1      47.040  38.894  28.141  1.00  0.00     0.261 C 
BRANCH   4   5
ATOM      5  O   UNL A   1      47.854  37.777  27.734  1.00  0.00    -0.460 OA
BRANCH   5   6
ATOM      6  C   UNL A   1      48.310  36.755  28.500  1.00  0.00     0.338 C 
ATOM      7  O   UNL A   1      49.372  36.896  29.103  1.00  0.00    -0.246 OA
BRANCH   6   8
ATOM      8  C   UNL A   1      47.639  35.417  28.555  1.00  0.00     0.060 A 
ATOM      9  C   UNL A   1      47.645  34.588  29.671  1.00  0.00     0.016 A 
ATOM     10  C   UNL A   1      46.873  35.011  27.444  1.00  0.00     0.016 A 
ATOM     11  C   UNL A   1      47.027  33.349  29.658  1.00  0.00     0.010 A 
ATOM     12  C   UNL A   1      46.189  33.787  27.444  1.00  0.00     0.010 A 
ATOM     13  C   UNL A   1      46.315  32.927  28.540  1.00  0.00    -0.014 A 
BRANCH  13  14
ATOM     14  C   UNL A   1      45.917  31.504  28.513  1.00  0.00     0.031 A 
ATOM     15  C   UNL A   1      44.474  31.175  28.775  1.00  0.00     0.074 A 
ATOM     16  C   UNL A   1      46.769  30.582  28.021  1.00  0.00     0.049 A 
ATOM     17  N   UNL A   1      43.858  30.027  28.683  1.00  0.00    -0.248 NA
ATOM     18  C   UNL A   1      43.599  32.295  29.165  1.00  0.00     0.031 C 
ATOM     19  C   UNL A   1      48.153  30.846  27.618  1.00  0.00     0.029 A 
ATOM     20  N   UNL A   1      46.582  29.261  27.714  1.00  0.00    -0.354 N 
ATOM     21  C   UNL A   1      42.530  30.290  28.994  1.00  0.00     0.074 A 
ATOM     22  C   UNL A   1      42.432  31.694  29.320  1.00  0.00     0.031 C 
ATOM     23  C   UNL A   1      48.676  29.730  27.083  1.00  0.00     0.029 A 
ATOM     24  C   UNL A   1      47.687  28.661  27.157  1.00  0.00     0.049 A 
ATOM     25  H   UNL A   1      45.736  28.784  27.877  1.00  0.00     0.167 HD
ATOM     26  C   UNL A   1      41.481  29.437  28.992  1.00  0.00     0.037 A 
ATOM     27  C   UNL A   1      47.879  27.387  26.770  1.00  0.00     0.037 A 
ATOM     28  C   UNL A   1      41.602  28.042  28.670  1.00  0.00     0.049 A 
ATOM     29  C   UNL A   1      46.728  26.429  26.901  1.00  0.00     0.074 A 
ATOM     30  C   UNL A   1      40.637  27.055  28.723  1.00  0.00     0.029 A 
ATOM     31  N   UNL A   1      42.772  27.440  28.226  1.00  0.00    -0.354 N 
ATOM     32  N   UNL A   1      45.495  26.673  27.281  1.00  0.00    -0.248 NA
ATOM     33  C   UNL A   1      46.990  25.026  26.559  1.00  0.00     0.031 C 
ATOM     34  C   UNL A   1      41.234  25.847  28.349  1.00  0.00     0.029 A 
ATOM     35  C   UNL A   1      42.558  26.092  28.014  1.00  0.00     0.049 A 
ATOM     36  H   UNL A   1      43.628  27.906  28.084  1.00  0.00     0.167 HD
ATOM     37  C   UNL A   1      44.832  25.455  27.216  1.00  0.00     0.074 A 
ATOM     38  C   UNL A   1      45.793  24.484  26.734  1.00  0.00     0.031 C 
ATOM     39  C   UNL A   1      43.546  25.160  27.533  1.00  0.00     0.037 A 
BRANCH  26  40
ATOM     40  C   UNL A   1      40.143  29.991  29.390  1.00  0.00     0.058 A 
ATOM     41  C   UNL A   1      39.080  30.089  28.476  1.00  0.00     0.135 A 
ATOM     42  C   UNL A   1      39.927  30.454  30.697  1.00  0.00     0.135 A 
ATOM     43  F   UNL A   1      39.245  29.698  27.203  1.00  0.00    -0.206 F 
ATOM     44  C   UNL A   1      37.858  30.647  28.840  1.00  0.00     0.059 A 
ATOM     45  C   UNL A   1      38.705  30.993  31.090  1.00  0.00     0.059 A 
ATOM     46  F   UNL A   1      40.915  30.399  31.604  1.00  0.00    -0.206 F 
ATOM     47  C   UNL A   1      37.681  31.098  30.150  1.00  0.00     0.060 A 
BRANCH  47  48
ATOM     48  S   UNL A   1      36.092  31.822  30.605  1.00  0.00     0.124 S 
ATOM     49  O   UNL A   1      36.488  33.174  30.990  1.00  0.00    -0.237 OA
ATOM     50  O   UNL A   1      35.333  31.714  29.364  1.00  0.00    -0.237 OA
ATOM     51  O   UNL A   1      35.630  30.971  31.697  1.00  0.00    -0.744 OA
ENDBRANCH  47  48
ENDBRANCH  26  40
BRANCH  27  52
ATOM     52  C   UNL A   1      49.216  26.922  26.306  1.00  0.00     0.058 A 
ATOM     53  C   UNL A   1      49.609  27.010  24.962  1.00  0.00     0.135 A 
ATOM     54  C   UNL A   1      50.112  26.327  27.208  1.00  0.00     0.135 A 
ATOM     55  F   UNL A   1      48.785  27.558  24.056  1.00  0.00    -0.206 F 
ATOM     56  C   UNL A   1      50.834  26.511  24.527  1.00  0.00     0.059 A 
ATOM     57  C   UNL A   1      51.348  25.838  26.801  1.00  0.00     0.059 A 
ATOM     58  F   UNL A   1      49.788  26.230  28.507  1.00  0.00    -0.206 F 
ATOM     59  C   UNL A   1      51.697  25.924  25.455  1.00  0.00     0.060 A 
BRANCH  59  60
ATOM     60  S   UNL A   1      53.305  25.318  24.895  1.00  0.00     0.124 S 
ATOM     61  O   UNL A   1      53.206  23.897  25.206  1.00  0.00    -0.237 OA
ATOM     62  O   UNL A   1      53.285  25.667  23.478  1.00  0.00    -0.237 OA
ATOM     63  O   UNL A   1      54.247  26.085  25.703  1.00  0.00    -0.744 OA
ENDBRANCH  59  60
ENDBRANCH  27  52
BRANCH  39  64
ATOM     64  C   UNL A   1      43.115  23.736  27.337  1.00  0.00     0.058 A 
ATOM     65  C   UNL A   1      42.707  23.259  26.083  1.00  0.00     0.135 A 
ATOM     66  C   UNL A   1      43.140  22.837  28.414  1.00  0.00     0.135 A 
ATOM     67  F   UNL A   1      42.661  24.086  25.026  1.00  0.00    -0.206 F 
ATOM     68  C   UNL A   1      42.304  21.940  25.909  1.00  0.00     0.059 A 
ATOM     69  C   UNL A   1      42.771  21.507  28.255  1.00  0.00     0.059 A 
ATOM     70  F   UNL A   1      43.534  23.247  29.630  1.00  0.00    -0.206 F 
ATOM     71  C   UNL A   1      42.338  21.073  27.003  1.00  0.00     0.060 A 
BRANCH  71  72
ATOM     72  S   UNL A   1      41.829  19.360  26.762  1.00  0.00     0.124 S 
ATOM     73  O   UNL A   1      40.702  19.259  27.684  1.00  0.00    -0.237 OA
ATOM     74  O   UNL A   1      41.494  19.329  25.343  1.00  0.00    -0.237 OA
ATOM     75  O   UNL A   1      43.018  18.599  27.135  1.00  0.00    -0.744 OA
ENDBRANCH  71  72
ENDBRANCH  39  64
ENDBRANCH  13  14
ENDBRANCH   6   8
ENDBRANCH   5   6
ENDBRANCH   4   5
ENDBRANCH   3   4
ENDBRANCH   2   3
ENDBRANCH   1   2
BRANCH   1  76
ATOM     76  C   UNL A   1      46.368  43.247  26.017  1.00  0.00     0.188 C 
BRANCH  76  77
ATOM     77  O   UNL A   1      45.618  43.026  24.840  1.00  0.00    -0.376 OA
BRANCH  77  78
ATOM     78  C   UNL A   1      44.227  43.316  24.902  1.00  0.00     0.202 C 
BRANCH  78  79
ATOM     79  C   UNL A   1      43.323  42.893  23.731  1.00  0.00     0.261 C 
BRANCH  79  80
ATOM     80  O   UNL A   1      43.334  43.750  22.568  1.00  0.00    -0.460 OA
BRANCH  80  81
ATOM     81  C   UNL A   1      43.780  43.174  21.415  1.00  0.00     0.342 C 
ATOM     82  O   UNL A   1      43.464  42.082  20.973  1.00  0.00    -0.246 OA
BRANCH  81  83
ATOM     83  C   UNL A   1      44.865  43.972  20.826  1.00  0.00     0.104 A 
ATOM     84  C   UNL A   1      46.122  43.906  21.458  1.00  0.00     0.048 A 
ATOM     85  C   UNL A   1      44.707  44.722  19.653  1.00  0.00     0.143 A 
ATOM     86  C   UNL A   1      47.187  44.618  20.922  1.00  0.00     0.068 A 
ATOM     87  N   UNL A   1      45.738  45.451  19.169  1.00  0.00    -0.236 NA
ATOM     88  C   UNL A   1      46.924  45.400  19.809  1.00  0.00     0.140 A 
BRANCH  85  89
ATOM     89  N   UNL A   1      43.534  44.777  18.915  1.00  0.00    -0.356 N 
ATOM     90  C   UNL A   1      43.169  46.107  18.429  1.00  0.00     0.118 C 
ATOM     91  C   UNL A   1      43.460  43.872  17.763  1.00  0.00     0.118 C 
ATOM     92  C   UNL A   1      41.986  45.804  17.528  1.00  0.00     0.023 C 
ATOM     93  C   UNL A   1      42.400  44.507  16.843  1.00  0.00     0.023 C 
ENDBRANCH  85  89
BRANCH  86  94
ATOM     94  N   UNL A   1      48.497  44.575  21.500  1.00  0.00    -0.277 N 
ATOM     95  H   UNL A   1      48.652  44.817  22.442  1.00  0.00     0.180 HD
BRANCH  94  96
ATOM     96  S   UNL A   1      49.781  44.083  20.484  1.00  0.00     0.271 S 
ATOM     97  O   UNL A   1      49.565  42.686  20.176  1.00  0.00    -0.200 OA
ATOM     98  O   UNL A   1      49.921  45.081  19.450  1.00  0.00    -0.200 OA
BRANCH  96  99
ATOM     99  C   UNL A   1      51.295  44.072  21.425  1.00  0.00     0.141 A 
ATOM    100  C   UNL A   1      52.483  43.378  21.251  1.00  0.00     0.035 A 
ATOM    101  S   UNL A   1      51.340  45.036  22.841  1.00  0.00    -0.115 S 
ATOM    102  C   UNL A   1      53.391  43.580  22.334  1.00  0.00     0.029 A 
ATOM    103  C   UNL A   1      52.872  44.453  23.256  1.00  0.00     0.071 A 
ATOM    104  Br  UNL A   1      53.755  44.950  24.830  1.00  0.00    -0.039 Br
ENDBRANCH  96  99
ENDBRANCH  94  96
ENDBRANCH  86  94
ENDBRANCH  81  83
ENDBRANCH  80  81
ENDBRANCH  79  80
ENDBRANCH  78  79
ENDBRANCH  77  78
ENDBRANCH  76  77
ENDBRANCH   1  76
TORSDOF 24
ENDMDL
