MODEL 1
REMARK VINA RESULT:     -10.9      0.000      0.000
REMARK SMILES O=C(CCC(=O)N1CCCn2nc(-c3ccccc3)cc21)OCCOCCOCCOC(=O)c1ccc(-c2c3nc(c(-c4c(F)cc(S(=O)(=O)[O-])cc4F)c4ccc([nH]4)c(-c4c(F)cc(S(=O)(=O)[O-])cc4F)c4nc(c(-c5c(F)cc(S(=O)(=O)[O-])cc5F)c5ccc2[nH]5)C=C4)C=C3)cc1
REMARK SMILES IDX 26 1 25 2 24 3 23 4 22 5 2 6 1 7 3 8 4 9 5 10 6 11 7 12 8 13
REMARK SMILES IDX 21 14 9 15 11 16 20 17 10 18 12 19 13 20 14 21 15 22 19 23
REMARK SMILES IDX 16 24 18 25 17 26 27 27 28 28 29 29 30 30 31 31 32 32 33 33
REMARK SMILES IDX 34 34 35 35 99 36 36 37 98 38 37 39 38 40 39 41 92 42 40 43
REMARK SMILES IDX 97 44 91 45 93 46 41 47 96 48 90 49 89 50 42 52 76 53 55 54
REMARK SMILES IDX 75 55 56 56 59 57 74 58 94 59 57 60 58 61 73 63 95 64 60 65
REMARK SMILES IDX 43 66 44 67 53 68 45 69 46 70 52 71 54 72 47 73 48 74 49 75
REMARK SMILES IDX 50 76 51 77 77 78 78 79 87 80 79 81 80 82 86 83 88 84 81 85
REMARK SMILES IDX 82 86 83 87 84 88 85 89 61 90 62 91 71 92 63 93 64 94 70 95
REMARK SMILES IDX 72 96 65 97 66 98 67 99 68 100 69 101
REMARK H PARENT 93 51 59 62
REMARK Flexibility Score: inf
ROOT
ATOM      1  C   UNL A   1      32.217  31.017  26.780  1.00  0.00     0.188 C 
ENDROOT
BRANCH   1   2
ATOM      2  O   UNL A   1      31.690  30.351  25.645  1.00  0.00    -0.376 OA
BRANCH   2   3
ATOM      3  C   UNL A   1      31.982  28.971  25.558  1.00  0.00     0.202 C 
BRANCH   3   4
ATOM      4  C   UNL A   1      32.821  28.625  24.337  1.00  0.00     0.261 C 
BRANCH   4   5
ATOM      5  O   UNL A   1      32.080  28.398  23.110  1.00  0.00    -0.463 OA
BRANCH   5   6
ATOM      6  C   UNL A   1      31.653  27.252  22.551  1.00  0.00     0.306 C 
ATOM      7  O   UNL A   1      30.488  26.895  22.709  1.00  0.00    -0.252 OA
BRANCH   6   8
ATOM      8  C   UNL A   1      32.534  26.541  21.580  1.00  0.00     0.132 C 
BRANCH   8   9
ATOM      9  C   UNL A   1      32.358  25.046  21.773  1.00  0.00     0.112 C 
BRANCH   9  10
ATOM     10  C   UNL A   1      33.204  24.621  22.934  1.00  0.00     0.228 C 
ATOM     11  O   UNL A   1      34.425  24.577  22.812  1.00  0.00    -0.274 OA
BRANCH  10  12
ATOM     12  N   UNL A   1      32.594  24.097  24.144  1.00  0.00    -0.297 N 
ATOM     13  C   UNL A   1      32.429  24.849  25.415  1.00  0.00     0.129 C 
ATOM     14  C   UNL A   1      32.241  22.750  24.217  1.00  0.00     0.134 A 
ATOM     15  C   UNL A   1      31.070  24.508  26.040  1.00  0.00     0.046 C 
ATOM     16  N   UNL A   1      31.504  22.214  25.236  1.00  0.00    -0.249 N 
ATOM     17  C   UNL A   1      32.652  21.689  23.460  1.00  0.00     0.077 A 
ATOM     18  C   UNL A   1      30.932  23.007  26.306  1.00  0.00     0.148 C 
ATOM     19  N   UNL A   1      31.596  20.877  25.320  1.00  0.00    -0.171 NA
ATOM     20  C   UNL A   1      32.396  20.562  24.286  1.00  0.00     0.095 A 
BRANCH  20  21
ATOM     21  C   UNL A   1      33.092  19.289  24.186  1.00  0.00     0.002 A 
ATOM     22  C   UNL A   1      32.452  18.120  23.780  1.00  0.00     0.010 A 
ATOM     23  C   UNL A   1      34.447  19.246  24.564  1.00  0.00     0.010 A 
ATOM     24  C   UNL A   1      33.169  16.921  23.740  1.00  0.00     0.001 A 
ATOM     25  C   UNL A   1      35.155  18.049  24.532  1.00  0.00     0.001 A 
ATOM     26  C   UNL A   1      34.515  16.886  24.117  1.00  0.00     0.000 A 
ENDBRANCH  20  21
ENDBRANCH  10  12
ENDBRANCH   9  10
ENDBRANCH   8   9
ENDBRANCH   6   8
ENDBRANCH   5   6
ENDBRANCH   4   5
ENDBRANCH   3   4
ENDBRANCH   2   3
ENDBRANCH   1   2
BRANCH   1  27
ATOM     27  C   UNL A   1      31.928  32.533  26.831  1.00  0.00     0.188 C 
BRANCH  27  28
ATOM     28  O   UNL A   1      32.230  33.252  28.023  1.00  0.00    -0.376 OA
BRANCH  28  29
ATOM     29  C   UNL A   1      33.302  34.190  28.003  1.00  0.00     0.202 C 
BRANCH  29  30
ATOM     30  C   UNL A   1      34.734  33.662  28.170  1.00  0.00     0.261 C 
BRANCH  30  31
ATOM     31  O   UNL A   1      34.785  32.260  28.489  1.00  0.00    -0.460 OA
BRANCH  31  32
ATOM     32  C   UNL A   1      35.260  31.948  29.727  1.00  0.00     0.338 C 
ATOM     33  O   UNL A   1      34.702  32.130  30.787  1.00  0.00    -0.246 OA
BRANCH  32  34
ATOM     34  C   UNL A   1      36.468  31.095  29.579  1.00  0.00     0.060 A 
ATOM     35  C   UNL A   1      37.043  30.566  30.748  1.00  0.00     0.016 A 
ATOM     36  C   UNL A   1      36.990  30.762  28.327  1.00  0.00     0.016 A 
ATOM     37  C   UNL A   1      38.173  29.748  30.671  1.00  0.00     0.010 A 
ATOM     38  C   UNL A   1      38.136  29.965  28.252  1.00  0.00     0.010 A 
ATOM     39  C   UNL A   1      38.759  29.497  29.425  1.00  0.00    -0.014 A 
BRANCH  39  40
ATOM     40  C   UNL A   1      40.176  29.059  29.345  1.00  0.00     0.031 A 
ATOM     41  C   UNL A   1      41.223  30.122  29.544  1.00  0.00     0.074 A 
ATOM     42  C   UNL A   1      40.538  27.799  29.051  1.00  0.00     0.049 A 
ATOM     43  N   UNL A   1      42.513  30.067  29.356  1.00  0.00    -0.248 NA
ATOM     44  C   UNL A   1      40.733  31.434  30.002  1.00  0.00     0.031 C 
ATOM     45  C   UNL A   1      39.630  26.669  28.881  1.00  0.00     0.029 A 
ATOM     46  N   UNL A   1      41.784  27.272  28.809  1.00  0.00    -0.354 N 
ATOM     47  C   UNL A   1      42.985  31.342  29.645  1.00  0.00     0.074 A 
ATOM     48  C   UNL A   1      41.844  32.149  30.012  1.00  0.00     0.031 C 
ATOM     49  C   UNL A   1      40.345  25.588  28.523  1.00  0.00     0.029 A 
ATOM     50  C   UNL A   1      41.757  25.961  28.400  1.00  0.00     0.049 A 
ATOM     51  H   UNL A   1      42.617  27.786  28.920  1.00  0.00     0.167 HD
ATOM     52  C   UNL A   1      44.254  31.808  29.599  1.00  0.00     0.037 A 
ATOM     53  C   UNL A   1      42.749  25.170  27.939  1.00  0.00     0.037 A 
ATOM     54  C   UNL A   1      45.385  31.013  29.214  1.00  0.00     0.049 A 
ATOM     55  C   UNL A   1      44.152  25.715  27.841  1.00  0.00     0.074 A 
ATOM     56  C   UNL A   1      46.714  31.385  29.140  1.00  0.00     0.029 A 
ATOM     57  N   UNL A   1      45.314  29.684  28.822  1.00  0.00    -0.354 N 
ATOM     58  N   UNL A   1      44.591  26.917  28.132  1.00  0.00    -0.248 NA
ATOM     59  C   UNL A   1      45.194  24.799  27.352  1.00  0.00     0.031 C 
ATOM     60  C   UNL A   1      47.443  30.292  28.659  1.00  0.00     0.029 A 
ATOM     61  C   UNL A   1      46.575  29.225  28.484  1.00  0.00     0.049 A 
ATOM     62  H   UNL A   1      44.490  29.148  28.789  1.00  0.00     0.167 HD
ATOM     63  C   UNL A   1      45.962  26.895  27.886  1.00  0.00     0.074 A 
ATOM     64  C   UNL A   1      46.280  25.560  27.421  1.00  0.00     0.031 C 
ATOM     65  C   UNL A   1      46.874  27.887  28.036  1.00  0.00     0.037 A 
BRANCH  52  66
ATOM     66  C   UNL A   1      44.452  33.262  29.917  1.00  0.00     0.058 A 
ATOM     67  C   UNL A   1      44.743  33.702  31.218  1.00  0.00     0.135 A 
ATOM     68  C   UNL A   1      44.289  34.230  28.914  1.00  0.00     0.135 A 
ATOM     69  F   UNL A   1      44.878  32.816  32.217  1.00  0.00    -0.206 F 
ATOM     70  C   UNL A   1      44.815  35.056  31.524  1.00  0.00     0.059 A 
ATOM     71  C   UNL A   1      44.384  35.589  29.193  1.00  0.00     0.059 A 
ATOM     72  F   UNL A   1      44.000  33.861  27.657  1.00  0.00    -0.206 F 
ATOM     73  C   UNL A   1      44.621  35.992  30.507  1.00  0.00     0.060 A 
BRANCH  73  74
ATOM     74  S   UNL A   1      44.659  37.747  30.926  1.00  0.00     0.124 S 
ATOM     75  O   UNL A   1      43.939  37.754  32.196  1.00  0.00    -0.237 OA
ATOM     76  O   UNL A   1      46.090  38.020  31.007  1.00  0.00    -0.237 OA
ATOM     77  O   UNL A   1      43.965  38.376  29.807  1.00  0.00    -0.744 OA
ENDBRANCH  73  74
ENDBRANCH  52  66
BRANCH  53  78
ATOM     78  C   UNL A   1      42.436  23.781  27.507  1.00  0.00     0.058 A 
ATOM     79  C   UNL A   1      42.291  23.458  26.151  1.00  0.00     0.135 A 
ATOM     80  C   UNL A   1      42.323  22.742  28.444  1.00  0.00     0.135 A 
ATOM     81  F   UNL A   1      42.372  24.420  25.219  1.00  0.00    -0.206 F 
ATOM     82  C   UNL A   1      42.068  22.149  25.734  1.00  0.00     0.059 A 
ATOM     83  C   UNL A   1      42.120  21.422  28.051  1.00  0.00     0.059 A 
ATOM     84  F   UNL A   1      42.459  22.999  29.754  1.00  0.00    -0.206 F 
ATOM     85  C   UNL A   1      42.001  21.134  26.692  1.00  0.00     0.060 A 
BRANCH  85  86
ATOM     86  S   UNL A   1      41.854  19.422  26.134  1.00  0.00     0.124 S 
ATOM     87  O   UNL A   1      42.264  18.686  27.323  1.00  0.00    -0.237 OA
ATOM     88  O   UNL A   1      40.438  19.338  25.784  1.00  0.00    -0.237 OA
ATOM     89  O   UNL A   1      42.771  19.362  25.000  1.00  0.00    -0.744 OA
ENDBRANCH  85  86
ENDBRANCH  53  78
BRANCH  65  90
ATOM     90  C   UNL A   1      48.315  27.575  27.746  1.00  0.00     0.058 A 
ATOM     91  C   UNL A   1      49.179  27.090  28.738  1.00  0.00     0.135 A 
ATOM     92  C   UNL A   1      48.802  27.658  26.432  1.00  0.00     0.135 A 
ATOM     93  F   UNL A   1      48.763  26.995  30.010  1.00  0.00    -0.206 F 
ATOM     94  C   UNL A   1      50.481  26.699  28.436  1.00  0.00     0.059 A 
ATOM     95  C   UNL A   1      50.091  27.252  26.103  1.00  0.00     0.059 A 
ATOM     96  F   UNL A   1      48.009  28.106  25.445  1.00  0.00    -0.206 F 
ATOM     97  C   UNL A   1      50.924  26.776  27.114  1.00  0.00     0.060 A 
BRANCH  97  98
ATOM     98  S   UNL A   1      52.592  26.202  26.722  1.00  0.00     0.124 S 
ATOM     99  O   UNL A   1      52.338  24.826  26.310  1.00  0.00    -0.237 OA
ATOM    100  O   UNL A   1      52.997  27.118  25.662  1.00  0.00    -0.237 OA
ATOM    101  O   UNL A   1      53.308  26.357  27.985  1.00  0.00    -0.744 OA
ENDBRANCH  97  98
ENDBRANCH  65  90
ENDBRANCH  39  40
ENDBRANCH  32  34
ENDBRANCH  31  32
ENDBRANCH  30  31
ENDBRANCH  29  30
ENDBRANCH  28  29
ENDBRANCH  27  28
ENDBRANCH   1  27
TORSDOF 24
ENDMDL
MODEL 2
REMARK VINA RESULT:     -10.3      2.657      9.635
REMARK SMILES O=C(CCC(=O)N1CCCn2nc(-c3ccccc3)cc21)OCCOCCOCCOC(=O)c1ccc(-c2c3nc(c(-c4c(F)cc(S(=O)(=O)[O-])cc4F)c4ccc([nH]4)c(-c4c(F)cc(S(=O)(=O)[O-])cc4F)c4nc(c(-c5c(F)cc(S(=O)(=O)[O-])cc5F)c5ccc2[nH]5)C=C4)C=C3)cc1
REMARK SMILES IDX 26 1 25 2 24 3 23 4 22 5 2 6 1 7 3 8 4 9 5 10 6 11 7 12 8 13
REMARK SMILES IDX 21 14 9 15 11 16 20 17 10 18 12 19 13 20 14 21 15 22 19 23
REMARK SMILES IDX 16 24 18 25 17 26 27 27 28 28 29 29 30 30 31 31 32 32 33 33
REMARK SMILES IDX 34 34 35 35 99 36 36 37 98 38 37 39 38 40 39 41 92 42 40 43
REMARK SMILES IDX 97 44 91 45 93 46 41 47 96 48 90 49 89 50 42 52 76 53 55 54
REMARK SMILES IDX 75 55 56 56 59 57 74 58 94 59 57 60 58 61 73 63 95 64 60 65
REMARK SMILES IDX 43 66 44 67 53 68 45 69 46 70 52 71 54 72 47 73 48 74 49 75
REMARK SMILES IDX 50 76 51 77 77 78 78 79 87 80 79 81 80 82 86 83 88 84 81 85
REMARK SMILES IDX 82 86 83 87 84 88 85 89 61 90 62 91 71 92 63 93 64 94 70 95
REMARK SMILES IDX 72 96 65 97 66 98 67 99 68 100 69 101
REMARK H PARENT 93 51 59 62
REMARK Flexibility Score: inf
ROOT
ATOM      1  C   UNL A   1      33.893  21.893  25.822  1.00  0.00     0.188 C 
ENDROOT
BRANCH   1   2
ATOM      2  O   UNL A   1      32.652  21.905  25.135  1.00  0.00    -0.376 OA
BRANCH   2   3
ATOM      3  C   UNL A   1      32.483  20.894  24.163  1.00  0.00     0.202 C 
BRANCH   3   4
ATOM      4  C   UNL A   1      32.181  21.453  22.781  1.00  0.00     0.261 C 
BRANCH   4   5
ATOM      5  O   UNL A   1      32.068  22.897  22.700  1.00  0.00    -0.463 OA
BRANCH   5   6
ATOM      6  C   UNL A   1      32.912  23.807  22.182  1.00  0.00     0.306 C 
ATOM      7  O   UNL A   1      33.655  23.492  21.256  1.00  0.00    -0.252 OA
BRANCH   6   8
ATOM      8  C   UNL A   1      32.787  25.236  22.595  1.00  0.00     0.132 C 
BRANCH   8   9
ATOM      9  C   UNL A   1      32.254  25.284  24.015  1.00  0.00     0.112 C 
BRANCH   9  10
ATOM     10  C   UNL A   1      30.875  25.869  23.978  1.00  0.00     0.228 C 
ATOM     11  O   UNL A   1      29.899  25.129  24.051  1.00  0.00    -0.274 OA
BRANCH  10  12
ATOM     12  N   UNL A   1      30.675  27.278  23.686  1.00  0.00    -0.297 N 
ATOM     13  C   UNL A   1      30.274  27.832  22.368  1.00  0.00     0.129 C 
ATOM     14  C   UNL A   1      31.003  28.238  24.643  1.00  0.00     0.134 A 
ATOM     15  C   UNL A   1      29.285  28.987  22.576  1.00  0.00     0.046 C 
ATOM     16  N   UNL A   1      30.684  29.563  24.528  1.00  0.00    -0.249 N 
ATOM     17  C   UNL A   1      31.806  28.146  25.746  1.00  0.00     0.077 A 
ATOM     18  C   UNL A   1      29.889  30.097  23.440  1.00  0.00     0.148 C 
ATOM     19  N   UNL A   1      31.399  30.361  25.338  1.00  0.00    -0.171 NA
ATOM     20  C   UNL A   1      32.172  29.493  26.013  1.00  0.00     0.095 A 
BRANCH  20  21
ATOM     21  C   UNL A   1      33.375  29.895  26.725  1.00  0.00     0.002 A 
ATOM     22  C   UNL A   1      34.455  29.035  26.908  1.00  0.00     0.010 A 
ATOM     23  C   UNL A   1      33.409  31.186  27.284  1.00  0.00     0.010 A 
ATOM     24  C   UNL A   1      35.567  29.472  27.633  1.00  0.00     0.001 A 
ATOM     25  C   UNL A   1      34.513  31.614  28.014  1.00  0.00     0.001 A 
ATOM     26  C   UNL A   1      35.594  30.755  28.186  1.00  0.00     0.000 A 
ENDBRANCH  20  21
ENDBRANCH  10  12
ENDBRANCH   9  10
ENDBRANCH   8   9
ENDBRANCH   6   8
ENDBRANCH   5   6
ENDBRANCH   4   5
ENDBRANCH   3   4
ENDBRANCH   2   3
ENDBRANCH   1   2
BRANCH   1  27
ATOM     27  C   UNL A   1      35.029  21.148  25.088  1.00  0.00     0.188 C 
BRANCH  27  28
ATOM     28  O   UNL A   1      35.907  21.890  24.247  1.00  0.00    -0.376 OA
BRANCH  28  29
ATOM     29  C   UNL A   1      37.149  22.339  24.781  1.00  0.00     0.202 C 
BRANCH  29  30
ATOM     30  C   UNL A   1      38.158  21.287  25.261  1.00  0.00     0.261 C 
BRANCH  30  31
ATOM     31  O   UNL A   1      38.760  21.620  26.526  1.00  0.00    -0.460 OA
BRANCH  31  32
ATOM     32  C   UNL A   1      40.092  21.902  26.495  1.00  0.00     0.338 C 
ATOM     33  O   UNL A   1      40.955  21.278  25.915  1.00  0.00    -0.246 OA
BRANCH  32  34
ATOM     34  C   UNL A   1      40.311  23.257  27.064  1.00  0.00     0.060 A 
ATOM     35  C   UNL A   1      39.514  24.309  26.578  1.00  0.00     0.016 A 
ATOM     36  C   UNL A   1      41.224  23.487  28.096  1.00  0.00     0.016 A 
ATOM     37  C   UNL A   1      39.667  25.602  27.083  1.00  0.00     0.010 A 
ATOM     38  C   UNL A   1      41.395  24.787  28.583  1.00  0.00     0.010 A 
ATOM     39  C   UNL A   1      40.653  25.856  28.044  1.00  0.00    -0.014 A 
BRANCH  39  40
ATOM     40  C   UNL A   1      41.159  27.237  28.243  1.00  0.00     0.031 A 
ATOM     41  C   UNL A   1      42.612  27.475  27.928  1.00  0.00     0.074 A 
ATOM     42  C   UNL A   1      40.402  28.232  28.735  1.00  0.00     0.049 A 
ATOM     43  N   UNL A   1      43.357  28.519  28.172  1.00  0.00    -0.248 NA
ATOM     44  C   UNL A   1      43.319  26.368  27.262  1.00  0.00     0.031 C 
ATOM     45  C   UNL A   1      38.975  28.148  29.035  1.00  0.00     0.029 A 
ATOM     46  N   UNL A   1      40.749  29.510  29.100  1.00  0.00    -0.354 N 
ATOM     47  C   UNL A   1      44.626  28.183  27.715  1.00  0.00     0.074 A 
ATOM     48  C   UNL A   1      44.551  26.839  27.189  1.00  0.00     0.031 C 
ATOM     49  C   UNL A   1      38.577  29.312  29.578  1.00  0.00     0.029 A 
ATOM     50  C   UNL A   1      39.730  30.209  29.698  1.00  0.00     0.049 A 
ATOM     51  H   UNL A   1      41.646  29.889  28.946  1.00  0.00     0.167 HD
ATOM     52  C   UNL A   1      45.760  28.920  27.740  1.00  0.00     0.037 A 
ATOM     53  C   UNL A   1      39.738  31.412  30.310  1.00  0.00     0.037 A 
ATOM     54  C   UNL A   1      45.840  30.246  28.282  1.00  0.00     0.049 A 
ATOM     55  C   UNL A   1      41.019  32.205  30.379  1.00  0.00     0.074 A 
ATOM     56  C   UNL A   1      46.938  31.083  28.352  1.00  0.00     0.029 A 
ATOM     57  N   UNL A   1      44.778  30.922  28.865  1.00  0.00    -0.354 N 
ATOM     58  N   UNL A   1      42.211  31.885  29.930  1.00  0.00    -0.248 NA
ATOM     59  C   UNL A   1      40.961  33.517  31.039  1.00  0.00     0.031 C 
ATOM     60  C   UNL A   1      46.550  32.251  29.018  1.00  0.00     0.029 A 
ATOM     61  C   UNL A   1      45.199  32.161  29.316  1.00  0.00     0.049 A 
ATOM     62  H   UNL A   1      43.862  30.573  28.946  1.00  0.00     0.167 HD
ATOM     63  C   UNL A   1      43.036  32.966  30.230  1.00  0.00     0.074 A 
ATOM     64  C   UNL A   1      42.209  33.949  30.900  1.00  0.00     0.031 C 
ATOM     65  C   UNL A   1      44.356  33.132  29.969  1.00  0.00     0.037 A 
BRANCH  52  66
ATOM     66  C   UNL A   1      47.004  28.263  27.218  1.00  0.00     0.058 A 
ATOM     67  C   UNL A   1      47.871  27.544  28.058  1.00  0.00     0.135 A 
ATOM     68  C   UNL A   1      47.363  28.406  25.869  1.00  0.00     0.135 A 
ATOM     69  F   UNL A   1      47.586  27.405  29.362  1.00  0.00    -0.206 F 
ATOM     70  C   UNL A   1      49.075  27.034  27.588  1.00  0.00     0.059 A 
ATOM     71  C   UNL A   1      48.550  27.879  25.371  1.00  0.00     0.059 A 
ATOM     72  F   UNL A   1      46.574  29.093  25.028  1.00  0.00    -0.206 F 
ATOM     73  C   UNL A   1      49.412  27.218  26.245  1.00  0.00     0.060 A 
BRANCH  73  74
ATOM     74  S   UNL A   1      51.004  26.602  25.660  1.00  0.00     0.124 S 
ATOM     75  O   UNL A   1      51.869  27.747  25.925  1.00  0.00    -0.237 OA
ATOM     76  O   UNL A   1      51.220  25.434  26.508  1.00  0.00    -0.237 OA
ATOM     77  O   UNL A   1      50.756  26.314  24.251  1.00  0.00    -0.744 OA
ENDBRANCH  73  74
ENDBRANCH  52  66
BRANCH  53  78
ATOM     78  C   UNL A   1      38.487  31.925  30.931  1.00  0.00     0.058 A 
ATOM     79  C   UNL A   1      38.162  31.628  32.262  1.00  0.00     0.135 A 
ATOM     80  C   UNL A   1      37.616  32.762  30.216  1.00  0.00     0.135 A 
ATOM     81  F   UNL A   1      38.954  30.817  32.981  1.00  0.00    -0.206 F 
ATOM     82  C   UNL A   1      37.031  32.161  32.872  1.00  0.00     0.059 A 
ATOM     83  C   UNL A   1      36.489  33.323  30.810  1.00  0.00     0.059 A 
ATOM     84  F   UNL A   1      37.885  33.080  28.941  1.00  0.00    -0.206 F 
ATOM     85  C   UNL A   1      36.208  33.022  32.142  1.00  0.00     0.060 A 
BRANCH  85  86
ATOM     86  S   UNL A   1      34.823  33.820  32.983  1.00  0.00     0.124 S 
ATOM     87  O   UNL A   1      33.680  33.188  32.338  1.00  0.00    -0.237 OA
ATOM     88  O   UNL A   1      35.060  33.450  34.375  1.00  0.00    -0.237 OA
ATOM     89  O   UNL A   1      35.022  35.235  32.682  1.00  0.00    -0.744 OA
ENDBRANCH  85  86
ENDBRANCH  53  78
BRANCH  65  90
ATOM     90  C   UNL A   1      44.997  34.434  30.357  1.00  0.00     0.058 A 
ATOM     91  C   UNL A   1      45.651  34.598  31.587  1.00  0.00     0.135 A 
ATOM     92  C   UNL A   1      45.053  35.493  29.436  1.00  0.00     0.135 A 
ATOM     93  F   UNL A   1      45.624  33.617  32.503  1.00  0.00    -0.206 F 
ATOM     94  C   UNL A   1      46.337  35.770  31.892  1.00  0.00     0.059 A 
ATOM     95  C   UNL A   1      45.752  36.664  29.710  1.00  0.00     0.059 A 
ATOM     96  F   UNL A   1      44.452  35.381  28.240  1.00  0.00    -0.206 F 
ATOM     97  C   UNL A   1      46.388  36.795  30.943  1.00  0.00     0.060 A 
BRANCH  97  98
ATOM     98  S   UNL A   1      47.339  38.283  31.323  1.00  0.00     0.124 S 
ATOM     99  O   UNL A   1      47.478  38.180  32.771  1.00  0.00    -0.237 OA
ATOM    100  O   UNL A   1      48.561  38.079  30.552  1.00  0.00    -0.237 OA
ATOM    101  O   UNL A   1      46.479  39.364  30.848  1.00  0.00    -0.744 OA
ENDBRANCH  97  98
ENDBRANCH  65  90
ENDBRANCH  39  40
ENDBRANCH  32  34
ENDBRANCH  31  32
ENDBRANCH  30  31
ENDBRANCH  29  30
ENDBRANCH  28  29
ENDBRANCH  27  28
ENDBRANCH   1  27
TORSDOF 24
ENDMDL
MODEL 3
REMARK VINA RESULT:     -10.2      5.110     11.177
REMARK SMILES O=C(CCC(=O)N1CCCn2nc(-c3ccccc3)cc21)OCCOCCOCCOC(=O)c1ccc(-c2c3nc(c(-c4c(F)cc(S(=O)(=O)[O-])cc4F)c4ccc([nH]4)c(-c4c(F)cc(S(=O)(=O)[O-])cc4F)c4nc(c(-c5c(F)cc(S(=O)(=O)[O-])cc5F)c5ccc2[nH]5)C=C4)C=C3)cc1
REMARK SMILES IDX 26 1 25 2 24 3 23 4 22 5 2 6 1 7 3 8 4 9 5 10 6 11 7 12 8 13
REMARK SMILES IDX 21 14 9 15 11 16 20 17 10 18 12 19 13 20 14 21 15 22 19 23
REMARK SMILES IDX 16 24 18 25 17 26 27 27 28 28 29 29 30 30 31 31 32 32 33 33
REMARK SMILES IDX 34 34 35 35 99 36 36 37 98 38 37 39 38 40 39 41 92 42 40 43
REMARK SMILES IDX 97 44 91 45 93 46 41 47 96 48 90 49 89 50 42 52 76 53 55 54
REMARK SMILES IDX 75 55 56 56 59 57 74 58 94 59 57 60 58 61 73 63 95 64 60 65
REMARK SMILES IDX 43 66 44 67 53 68 45 69 46 70 52 71 54 72 47 73 48 74 49 75
REMARK SMILES IDX 50 76 51 77 77 78 78 79 87 80 79 81 80 82 86 83 88 84 81 85
REMARK SMILES IDX 82 86 83 87 84 88 85 89 61 90 62 91 71 92 63 93 64 94 70 95
REMARK SMILES IDX 72 96 65 97 66 98 67 99 68 100 69 101
REMARK H PARENT 93 51 59 62
REMARK Flexibility Score: inf
ROOT
ATOM      1  C   UNL A   1      35.652  20.407  25.117  1.00  0.00     0.188 C 
ENDROOT
BRANCH   1   2
ATOM      2  O   UNL A   1      34.575  21.063  25.766  1.00  0.00    -0.376 OA
BRANCH   2   3
ATOM      3  C   UNL A   1      33.322  20.419  25.669  1.00  0.00     0.202 C 
BRANCH   3   4
ATOM      4  C   UNL A   1      32.862  20.242  24.229  1.00  0.00     0.261 C 
BRANCH   4   5
ATOM      5  O   UNL A   1      33.268  21.288  23.309  1.00  0.00    -0.463 OA
BRANCH   5   6
ATOM      6  C   UNL A   1      32.748  22.510  23.096  1.00  0.00     0.306 C 
ATOM      7  O   UNL A   1      31.531  22.670  23.144  1.00  0.00    -0.252 OA
BRANCH   6   8
ATOM      8  C   UNL A   1      33.660  23.687  23.013  1.00  0.00     0.132 C 
BRANCH   8   9
ATOM      9  C   UNL A   1      33.301  24.490  21.776  1.00  0.00     0.112 C 
BRANCH   9  10
ATOM     10  C   UNL A   1      32.981  25.890  22.202  1.00  0.00     0.228 C 
ATOM     11  O   UNL A   1      33.732  26.808  21.886  1.00  0.00    -0.274 OA
BRANCH  10  12
ATOM     12  N   UNL A   1      31.890  26.153  23.126  1.00  0.00    -0.297 N 
ATOM     13  C   UNL A   1      30.447  26.129  22.776  1.00  0.00     0.129 C 
ATOM     14  C   UNL A   1      32.167  26.599  24.417  1.00  0.00     0.134 A 
ATOM     15  C   UNL A   1      29.651  25.499  23.926  1.00  0.00     0.046 C 
ATOM     16  N   UNL A   1      31.225  26.698  25.403  1.00  0.00    -0.249 N 
ATOM     17  C   UNL A   1      33.300  27.168  24.930  1.00  0.00     0.077 A 
ATOM     18  C   UNL A   1      29.852  26.263  25.237  1.00  0.00     0.148 C 
ATOM     19  N   UNL A   1      31.596  27.486  26.425  1.00  0.00    -0.171 NA
ATOM     20  C   UNL A   1      32.840  27.865  26.079  1.00  0.00     0.095 A 
BRANCH  20  21
ATOM     21  C   UNL A   1      33.507  29.013  26.671  1.00  0.00     0.002 A 
ATOM     22  C   UNL A   1      34.794  28.935  27.202  1.00  0.00     0.010 A 
ATOM     23  C   UNL A   1      32.795  30.225  26.747  1.00  0.00     0.010 A 
ATOM     24  C   UNL A   1      35.365  30.066  27.790  1.00  0.00     0.001 A 
ATOM     25  C   UNL A   1      33.364  31.346  27.341  1.00  0.00     0.001 A 
ATOM     26  C   UNL A   1      34.652  31.266  27.861  1.00  0.00     0.000 A 
ENDBRANCH  20  21
ENDBRANCH  10  12
ENDBRANCH   9  10
ENDBRANCH   8   9
ENDBRANCH   6   8
ENDBRANCH   5   6
ENDBRANCH   4   5
ENDBRANCH   3   4
ENDBRANCH   2   3
ENDBRANCH   1   2
BRANCH   1  27
ATOM     27  C   UNL A   1      36.969  21.213  25.075  1.00  0.00     0.188 C 
BRANCH  27  28
ATOM     28  O   UNL A   1      38.204  20.510  24.994  1.00  0.00    -0.376 OA
BRANCH  28  29
ATOM     29  C   UNL A   1      39.329  21.018  25.706  1.00  0.00     0.202 C 
BRANCH  29  30
ATOM     30  C   UNL A   1      39.260  22.452  26.249  1.00  0.00     0.261 C 
BRANCH  30  31
ATOM     31  O   UNL A   1      40.260  22.726  27.247  1.00  0.00    -0.460 OA
BRANCH  31  32
ATOM     32  C   UNL A   1      41.235  23.604  26.887  1.00  0.00     0.338 C 
ATOM     33  O   UNL A   1      42.048  23.465  25.998  1.00  0.00    -0.246 OA
BRANCH  32  34
ATOM     34  C   UNL A   1      40.996  24.900  27.574  1.00  0.00     0.060 A 
ATOM     35  C   UNL A   1      41.981  25.896  27.458  1.00  0.00     0.016 A 
ATOM     36  C   UNL A   1      39.807  25.164  28.260  1.00  0.00     0.016 A 
ATOM     37  C   UNL A   1      41.806  27.138  28.072  1.00  0.00     0.010 A 
ATOM     38  C   UNL A   1      39.644  26.398  28.896  1.00  0.00     0.010 A 
ATOM     39  C   UNL A   1      40.663  27.370  28.846  1.00  0.00    -0.014 A 
BRANCH  39  40
ATOM     40  C   UNL A   1      40.664  28.445  29.870  1.00  0.00     0.031 A 
ATOM     41  C   UNL A   1      41.630  28.287  31.013  1.00  0.00     0.074 A 
ATOM     42  C   UNL A   1      39.816  29.487  29.840  1.00  0.00     0.049 A 
ATOM     43  N   UNL A   1      41.725  28.966  32.124  1.00  0.00    -0.248 NA
ATOM     44  C   UNL A   1      42.611  27.195  30.884  1.00  0.00     0.031 C 
ATOM     45  C   UNL A   1      38.867  29.782  28.771  1.00  0.00     0.029 A 
ATOM     46  N   UNL A   1      39.601  30.478  30.766  1.00  0.00    -0.354 N 
ATOM     47  C   UNL A   1      42.756  28.366  32.838  1.00  0.00     0.074 A 
ATOM     48  C   UNL A   1      43.248  27.266  32.040  1.00  0.00     0.031 C 
ATOM     49  C   UNL A   1      38.141  30.859  29.120  1.00  0.00     0.029 A 
ATOM     50  C   UNL A   1      38.549  31.304  30.456  1.00  0.00     0.049 A 
ATOM     51  H   UNL A   1      40.150  30.586  31.577  1.00  0.00     0.167 HD
ATOM     52  C   UNL A   1      43.246  28.691  34.056  1.00  0.00     0.037 A 
ATOM     53  C   UNL A   1      37.957  32.276  31.183  1.00  0.00     0.037 A 
ATOM     54  C   UNL A   1      42.744  29.769  34.858  1.00  0.00     0.049 A 
ATOM     55  C   UNL A   1      38.477  32.596  32.562  1.00  0.00     0.074 A 
ATOM     56  C   UNL A   1      43.173  30.187  36.105  1.00  0.00     0.029 A 
ATOM     57  N   UNL A   1      41.686  30.591  34.498  1.00  0.00    -0.354 N 
ATOM     58  N   UNL A   1      39.462  32.034  33.222  1.00  0.00    -0.248 NA
ATOM     59  C   UNL A   1      37.806  33.678  33.296  1.00  0.00     0.031 C 
ATOM     60  C   UNL A   1      42.343  31.236  36.517  1.00  0.00     0.029 A 
ATOM     61  C   UNL A   1      41.433  31.503  35.506  1.00  0.00     0.049 A 
ATOM     62  H   UNL A   1      41.189  30.533  33.650  1.00  0.00     0.167 HD
ATOM     63  C   UNL A   1      39.546  32.710  34.436  1.00  0.00     0.074 A 
ATOM     64  C   UNL A   1      38.509  33.722  34.421  1.00  0.00     0.031 C 
ATOM     65  C   UNL A   1      40.405  32.514  35.467  1.00  0.00     0.037 A 
BRANCH  52  66
ATOM     66  C   UNL A   1      44.339  27.817  34.600  1.00  0.00     0.058 A 
ATOM     67  C   UNL A   1      44.060  26.664  35.352  1.00  0.00     0.135 A 
ATOM     68  C   UNL A   1      45.683  28.173  34.414  1.00  0.00     0.135 A 
ATOM     69  F   UNL A   1      42.789  26.299  35.583  1.00  0.00    -0.206 F 
ATOM     70  C   UNL A   1      45.076  25.923  35.944  1.00  0.00     0.059 A 
ATOM     71  C   UNL A   1      46.717  27.430  34.974  1.00  0.00     0.059 A 
ATOM     72  F   UNL A   1      46.002  29.271  33.712  1.00  0.00    -0.206 F 
ATOM     73  C   UNL A   1      46.401  26.322  35.759  1.00  0.00     0.060 A 
BRANCH  73  74
ATOM     74  S   UNL A   1      47.708  25.387  36.580  1.00  0.00     0.124 S 
ATOM     75  O   UNL A   1      47.232  24.018  36.411  1.00  0.00    -0.237 OA
ATOM     76  O   UNL A   1      48.889  25.750  35.803  1.00  0.00    -0.237 OA
ATOM     77  O   UNL A   1      47.680  25.897  37.947  1.00  0.00    -0.744 OA
ENDBRANCH  73  74
ENDBRANCH  52  66
BRANCH  53  78
ATOM     78  C   UNL A   1      36.783  32.996  30.621  1.00  0.00     0.058 A 
ATOM     79  C   UNL A   1      35.489  32.767  31.110  1.00  0.00     0.135 A 
ATOM     80  C   UNL A   1      36.941  33.963  29.616  1.00  0.00     0.135 A 
ATOM     81  F   UNL A   1      35.284  31.840  32.058  1.00  0.00    -0.206 F 
ATOM     82  C   UNL A   1      34.395  33.488  30.641  1.00  0.00     0.059 A 
ATOM     83  C   UNL A   1      35.866  34.710  29.144  1.00  0.00     0.059 A 
ATOM     84  F   UNL A   1      38.159  34.222  29.118  1.00  0.00    -0.206 F 
ATOM     85  C   UNL A   1      34.596  34.470  29.668  1.00  0.00     0.060 A 
BRANCH  85  86
ATOM     86  S   UNL A   1      33.196  35.496  29.167  1.00  0.00     0.124 S 
ATOM     87  O   UNL A   1      33.864  36.596  28.485  1.00  0.00    -0.237 OA
ATOM     88  O   UNL A   1      32.437  34.580  28.320  1.00  0.00    -0.237 OA
ATOM     89  O   UNL A   1      32.556  35.828  30.437  1.00  0.00    -0.744 OA
ENDBRANCH  85  86
ENDBRANCH  53  78
BRANCH  65  90
ATOM     90  C   UNL A   1      40.310  33.432  36.653  1.00  0.00     0.058 A 
ATOM     91  C   UNL A   1      39.464  33.153  37.736  1.00  0.00     0.135 A 
ATOM     92  C   UNL A   1      41.163  34.543  36.753  1.00  0.00     0.135 A 
ATOM     93  F   UNL A   1      38.627  32.105  37.689  1.00  0.00    -0.206 F 
ATOM     94  C   UNL A   1      39.464  33.949  38.878  1.00  0.00     0.059 A 
ATOM     95  C   UNL A   1      41.197  35.338  37.893  1.00  0.00     0.059 A 
ATOM     96  F   UNL A   1      42.000  34.844  35.746  1.00  0.00    -0.206 F 
ATOM     97  C   UNL A   1      40.340  35.035  38.950  1.00  0.00     0.060 A 
BRANCH  97  98
ATOM     98  S   UNL A   1      40.381  36.019  40.465  1.00  0.00     0.124 S 
ATOM     99  O   UNL A   1      41.128  35.145  41.361  1.00  0.00    -0.237 OA
ATOM    100  O   UNL A   1      41.075  37.228  40.033  1.00  0.00    -0.237 OA
ATOM    101  O   UNL A   1      38.969  36.196  40.791  1.00  0.00    -0.744 OA
ENDBRANCH  97  98
ENDBRANCH  65  90
ENDBRANCH  39  40
ENDBRANCH  32  34
ENDBRANCH  31  32
ENDBRANCH  30  31
ENDBRANCH  29  30
ENDBRANCH  28  29
ENDBRANCH  27  28
ENDBRANCH   1  27
TORSDOF 24
ENDMDL
