MODEL 1
REMARK VINA RESULT:      -9.8      0.000      0.000
REMARK SMILES COc1cc(/C=C2\SC(=S)N(CC(=O)OCCOCCOCCOC(=O)c3ccc(-c4c5nc(c(-c6c(F)cc(S(=O)(=O)[O-])cc6F)c6ccc([nH]6)c(-c6c(F)cc(S(=O)(=O)[O-])cc6F)c6nc(c(-c7c(F)cc(S(=O)(=O)[O-])cc7F)c7ccc4[nH]7)C=C6)C=C5)cc3)C2=O)cc2c1OCO2
REMARK SMILES IDX 19 1 18 2 17 3 16 4 15 5 13 6 14 7 12 8 11 9 6 10 7 11 8 12
REMARK SMILES IDX 93 13 9 14 94 15 10 16 5 17 3 18 4 19 97 20 96 21 98 22
REMARK SMILES IDX 95 23 100 24 99 25 2 26 1 27 20 28 21 29 22 30 23 31 24 32
REMARK SMILES IDX 25 33 26 34 27 35 28 36 92 37 29 38 91 39 30 40 31 41 32 42
REMARK SMILES IDX 85 43 33 44 90 45 84 46 86 47 34 48 89 49 83 50 82 51 35 53
REMARK SMILES IDX 69 54 48 55 68 56 49 57 52 58 67 59 87 60 50 61 51 62 66 64
REMARK SMILES IDX 88 65 53 66 36 67 37 68 46 69 38 70 39 71 45 72 47 73 40 74
REMARK SMILES IDX 41 75 42 76 43 77 44 78 70 79 71 80 80 81 72 82 73 83 79 84
REMARK SMILES IDX 81 85 74 86 75 87 76 88 77 89 78 90 54 91 55 92 64 93 56 94
REMARK SMILES IDX 57 95 63 96 65 97 58 98 59 99 60 100 61 101 62 102
REMARK H PARENT 86 52 52 63
REMARK Flexibility Score: inf
ROOT
ATOM      1  C   UNL A   1      37.434  22.538  25.308  1.00  0.00     0.188 C 
ENDROOT
BRANCH   1   2
ATOM      2  O   UNL A   1      36.084  22.818  24.945  1.00  0.00    -0.376 OA
BRANCH   2   3
ATOM      3  C   UNL A   1      35.076  22.821  25.948  1.00  0.00     0.202 C 
BRANCH   3   4
ATOM      4  C   UNL A   1      34.969  21.579  26.843  1.00  0.00     0.261 C 
BRANCH   4   5
ATOM      5  O   UNL A   1      33.681  20.920  26.825  1.00  0.00    -0.462 OA
BRANCH   5   6
ATOM      6  C   UNL A   1      33.305  20.375  25.637  1.00  0.00     0.326 C 
ATOM      7  O   UNL A   1      33.929  19.482  25.070  1.00  0.00    -0.250 OA
BRANCH   6   8
ATOM      8  C   UNL A   1      31.983  20.901  25.059  1.00  0.00     0.250 C 
BRANCH   8   9
ATOM      9  N   UNL A   1      31.833  22.292  24.602  1.00  0.00    -0.282 N 
ATOM     10  C   UNL A   1      30.994  25.713  25.500  1.00  0.00     0.029 C 
ATOM     11  C   UNL A   1      31.266  24.586  24.823  1.00  0.00     0.081 C 
ATOM     12  S   UNL A   1      31.551  24.406  23.139  1.00  0.00    -0.054 SA
ATOM     13  C   UNL A   1      31.370  23.253  25.483  1.00  0.00     0.266 C 
ATOM     14  C   UNL A   1      31.970  22.699  23.292  1.00  0.00     0.148 C 
ATOM     15  O   UNL A   1      31.060  23.053  26.649  1.00  0.00    -0.268 OA
ATOM     16  S   UNL A   1      32.439  21.779  21.984  1.00  0.00    -0.052 S 
BRANCH  10  17
ATOM     17  C   UNL A   1      30.732  27.035  24.911  1.00  0.00    -0.017 A 
ATOM     18  C   UNL A   1      31.070  29.466  24.830  1.00  0.00     0.165 A 
ATOM     19  C   UNL A   1      31.358  28.206  25.388  1.00  0.00     0.058 A 
ATOM     20  C   UNL A   1      30.173  29.512  23.776  1.00  0.00     0.207 A 
ATOM     21  C   UNL A   1      29.556  28.367  23.322  1.00  0.00     0.170 A 
ATOM     22  O   UNL A   1      29.796  30.599  23.044  1.00  0.00    -0.450 OA
ATOM     23  C   UNL A   1      29.798  27.127  23.872  1.00  0.00     0.059 A 
ATOM     24  O   UNL A   1      28.711  28.596  22.278  1.00  0.00    -0.453 OA
ATOM     25  C   UNL A   1      28.921  30.002  22.069  1.00  0.00     0.468 C 
BRANCH  18  26
ATOM     26  O   UNL A   1      31.756  30.525  25.359  1.00  0.00    -0.493 OA
ATOM     27  C   UNL A   1      32.942  30.191  26.079  1.00  0.00     0.278 C 
ENDBRANCH  18  26
ENDBRANCH  10  17
ENDBRANCH   8   9
ENDBRANCH   6   8
ENDBRANCH   5   6
ENDBRANCH   4   5
ENDBRANCH   3   4
ENDBRANCH   2   3
ENDBRANCH   1   2
BRANCH   1  28
ATOM     28  C   UNL A   1      38.244  23.633  26.020  1.00  0.00     0.188 C 
BRANCH  28  29
ATOM     29  O   UNL A   1      38.979  23.159  27.127  1.00  0.00    -0.376 OA
BRANCH  29  30
ATOM     30  C   UNL A   1      40.187  22.483  26.852  1.00  0.00     0.202 C 
BRANCH  30  31
ATOM     31  C   UNL A   1      41.128  23.193  25.870  1.00  0.00     0.261 C 
BRANCH  31  32
ATOM     32  O   UNL A   1      41.995  24.201  26.423  1.00  0.00    -0.460 OA
BRANCH  32  33
ATOM     33  C   UNL A   1      41.627  25.492  26.237  1.00  0.00     0.338 C 
ATOM     34  O   UNL A   1      41.196  25.978  25.208  1.00  0.00    -0.246 OA
BRANCH  33  35
ATOM     35  C   UNL A   1      41.642  26.180  27.549  1.00  0.00     0.060 A 
ATOM     36  C   UNL A   1      40.577  25.958  28.429  1.00  0.00     0.016 A 
ATOM     37  C   UNL A   1      42.656  27.070  27.897  1.00  0.00     0.016 A 
ATOM     38  C   UNL A   1      40.502  26.641  29.644  1.00  0.00     0.010 A 
ATOM     39  C   UNL A   1      42.571  27.774  29.108  1.00  0.00     0.010 A 
ATOM     40  C   UNL A   1      41.477  27.588  29.976  1.00  0.00    -0.014 A 
BRANCH  40  41
ATOM     41  C   UNL A   1      41.254  28.503  31.127  1.00  0.00     0.031 A 
ATOM     42  C   UNL A   1      40.162  29.539  31.020  1.00  0.00     0.074 A 
ATOM     43  C   UNL A   1      41.959  28.389  32.269  1.00  0.00     0.049 A 
ATOM     44  N   UNL A   1      39.849  30.506  31.842  1.00  0.00    -0.248 NA
ATOM     45  C   UNL A   1      39.307  29.468  29.824  1.00  0.00     0.031 C 
ATOM     46  C   UNL A   1      42.984  27.380  32.536  1.00  0.00     0.029 A 
ATOM     47  N   UNL A   1      41.921  29.138  33.422  1.00  0.00    -0.354 N 
ATOM     48  C   UNL A   1      38.770  31.163  31.261  1.00  0.00     0.074 A 
ATOM     49  C   UNL A   1      38.501  30.505  30.001  1.00  0.00     0.031 C 
ATOM     50  C   UNL A   1      43.485  27.580  33.769  1.00  0.00     0.029 A 
ATOM     51  C   UNL A   1      42.852  28.757  34.361  1.00  0.00     0.049 A 
ATOM     52  H   UNL A   1      41.287  29.877  33.562  1.00  0.00     0.167 HD
ATOM     53  C   UNL A   1      38.057  32.211  31.740  1.00  0.00     0.037 A 
ATOM     54  C   UNL A   1      43.178  29.315  35.545  1.00  0.00     0.037 A 
ATOM     55  C   UNL A   1      38.318  32.856  33.000  1.00  0.00     0.049 A 
ATOM     56  C   UNL A   1      42.440  30.550  36.006  1.00  0.00     0.074 A 
ATOM     57  C   UNL A   1      37.673  33.945  33.558  1.00  0.00     0.029 A 
ATOM     58  N   UNL A   1      39.297  32.467  33.901  1.00  0.00    -0.354 N 
ATOM     59  N   UNL A   1      41.444  31.183  35.430  1.00  0.00    -0.248 NA
ATOM     60  C   UNL A   1      42.872  31.151  37.277  1.00  0.00     0.031 C 
ATOM     61  C   UNL A   1      38.287  34.240  34.779  1.00  0.00     0.029 A 
ATOM     62  C   UNL A   1      39.279  33.300  35.007  1.00  0.00     0.049 A 
ATOM     63  H   UNL A   1      39.914  31.710  33.774  1.00  0.00     0.167 HD
ATOM     64  C   UNL A   1      41.107  32.226  36.288  1.00  0.00     0.074 A 
ATOM     65  C   UNL A   1      41.998  32.135  37.426  1.00  0.00     0.031 C 
ATOM     66  C   UNL A   1      40.150  33.177  36.148  1.00  0.00     0.037 A 
BRANCH  53  67
ATOM     67  C   UNL A   1      36.928  32.736  30.896  1.00  0.00     0.058 A 
ATOM     68  C   UNL A   1      35.601  32.330  31.106  1.00  0.00     0.135 A 
ATOM     69  C   UNL A   1      37.167  33.706  29.908  1.00  0.00     0.135 A 
ATOM     70  F   UNL A   1      35.318  31.390  32.022  1.00  0.00    -0.206 F 
ATOM     71  C   UNL A   1      34.553  32.859  30.360  1.00  0.00     0.059 A 
ATOM     72  C   UNL A   1      36.130  34.268  29.168  1.00  0.00     0.059 A 
ATOM     73  F   UNL A   1      38.419  34.125  29.661  1.00  0.00    -0.206 F 
ATOM     74  C   UNL A   1      34.827  33.832  29.398  1.00  0.00     0.060 A 
BRANCH  74  75
ATOM     75  S   UNL A   1      33.448  34.532  28.466  1.00  0.00     0.124 S 
ATOM     76  O   UNL A   1      33.001  33.376  27.693  1.00  0.00    -0.237 OA
ATOM     77  O   UNL A   1      32.547  34.970  29.526  1.00  0.00    -0.237 OA
ATOM     78  O   UNL A   1      34.068  35.602  27.690  1.00  0.00    -0.744 OA
ENDBRANCH  74  75
ENDBRANCH  53  67
BRANCH  54  79
ATOM     79  C   UNL A   1      44.282  28.754  36.376  1.00  0.00     0.058 A 
ATOM     80  C   UNL A   1      45.578  29.291  36.325  1.00  0.00     0.135 A 
ATOM     81  C   UNL A   1      44.079  27.623  37.185  1.00  0.00     0.135 A 
ATOM     82  F   UNL A   1      45.830  30.363  35.559  1.00  0.00    -0.206 F 
ATOM     83  C   UNL A   1      46.640  28.705  37.010  1.00  0.00     0.059 A 
ATOM     84  C   UNL A   1      45.117  27.040  37.904  1.00  0.00     0.059 A 
ATOM     85  F   UNL A   1      42.859  27.072  37.277  1.00  0.00    -0.206 F 
ATOM     86  C   UNL A   1      46.399  27.574  37.791  1.00  0.00     0.060 A 
BRANCH  86  87
ATOM     87  S   UNL A   1      47.784  26.811  38.664  1.00  0.00     0.124 S 
ATOM     88  O   UNL A   1      48.853  27.769  38.412  1.00  0.00    -0.237 OA
ATOM     89  O   UNL A   1      47.288  26.754  40.036  1.00  0.00    -0.237 OA
ATOM     90  O   UNL A   1      47.926  25.518  38.003  1.00  0.00    -0.744 OA
ENDBRANCH  86  87
ENDBRANCH  54  79
BRANCH  66  91
ATOM     91  C   UNL A   1      39.965  34.156  37.275  1.00  0.00     0.058 A 
ATOM     92  C   UNL A   1      39.277  33.817  38.450  1.00  0.00     0.135 A 
ATOM     93  C   UNL A   1      40.536  35.439  37.199  1.00  0.00     0.135 A 
ATOM     94  F   UNL A   1      38.708  32.607  38.574  1.00  0.00    -0.206 F 
ATOM     95  C   UNL A   1      39.137  34.722  39.498  1.00  0.00     0.059 A 
ATOM     96  C   UNL A   1      40.435  36.348  38.247  1.00  0.00     0.059 A 
ATOM     97  F   UNL A   1      41.216  35.812  36.103  1.00  0.00    -0.206 F 
ATOM     98  C   UNL A   1      39.723  35.984  39.389  1.00  0.00     0.060 A 
BRANCH  98  99
ATOM     99  S   UNL A   1      39.566  37.135  40.772  1.00  0.00     0.124 S 
ATOM    100  O   UNL A   1      38.643  36.418  41.647  1.00  0.00    -0.237 OA
ATOM    101  O   UNL A   1      40.941  37.239  41.249  1.00  0.00    -0.237 OA
ATOM    102  O   UNL A   1      39.030  38.343  40.152  1.00  0.00    -0.744 OA
ENDBRANCH  98  99
ENDBRANCH  66  91
ENDBRANCH  40  41
ENDBRANCH  33  35
ENDBRANCH  32  33
ENDBRANCH  31  32
ENDBRANCH  30  31
ENDBRANCH  29  30
ENDBRANCH  28  29
ENDBRANCH   1  28
TORSDOF 23
ENDMDL
MODEL 2
REMARK VINA RESULT:      -9.7      1.114      2.257
REMARK SMILES COc1cc(/C=C2\SC(=S)N(CC(=O)OCCOCCOCCOC(=O)c3ccc(-c4c5nc(c(-c6c(F)cc(S(=O)(=O)[O-])cc6F)c6ccc([nH]6)c(-c6c(F)cc(S(=O)(=O)[O-])cc6F)c6nc(c(-c7c(F)cc(S(=O)(=O)[O-])cc7F)c7ccc4[nH]7)C=C6)C=C5)cc3)C2=O)cc2c1OCO2
REMARK SMILES IDX 19 1 18 2 17 3 16 4 15 5 13 6 14 7 12 8 11 9 6 10 7 11 8 12
REMARK SMILES IDX 93 13 9 14 94 15 10 16 5 17 3 18 4 19 97 20 96 21 98 22
REMARK SMILES IDX 95 23 100 24 99 25 2 26 1 27 20 28 21 29 22 30 23 31 24 32
REMARK SMILES IDX 25 33 26 34 27 35 28 36 92 37 29 38 91 39 30 40 31 41 32 42
REMARK SMILES IDX 85 43 33 44 90 45 84 46 86 47 34 48 89 49 83 50 82 51 35 53
REMARK SMILES IDX 69 54 48 55 68 56 49 57 52 58 67 59 87 60 50 61 51 62 66 64
REMARK SMILES IDX 88 65 53 66 36 67 37 68 46 69 38 70 39 71 45 72 47 73 40 74
REMARK SMILES IDX 41 75 42 76 43 77 44 78 70 79 71 80 80 81 72 82 73 83 79 84
REMARK SMILES IDX 81 85 74 86 75 87 76 88 77 89 78 90 54 91 55 92 64 93 56 94
REMARK SMILES IDX 57 95 63 96 65 97 58 98 59 99 60 100 61 101 62 102
REMARK H PARENT 86 52 52 63
REMARK Flexibility Score: inf
ROOT
ATOM      1  C   UNL A   1      38.116  21.308  25.229  1.00  0.00     0.188 C 
ENDROOT
BRANCH   1   2
ATOM      2  O   UNL A   1      36.806  21.729  24.856  1.00  0.00    -0.376 OA
BRANCH   2   3
ATOM      3  C   UNL A   1      35.948  22.299  25.837  1.00  0.00     0.202 C 
BRANCH   3   4
ATOM      4  C   UNL A   1      35.104  21.334  26.680  1.00  0.00     0.261 C 
BRANCH   4   5
ATOM      5  O   UNL A   1      33.768  21.092  26.180  1.00  0.00    -0.462 OA
BRANCH   5   6
ATOM      6  C   UNL A   1      33.678  20.692  24.883  1.00  0.00     0.326 C 
ATOM      7  O   UNL A   1      34.012  19.578  24.490  1.00  0.00    -0.250 OA
BRANCH   6   8
ATOM      8  C   UNL A   1      33.055  21.713  23.920  1.00  0.00     0.250 C 
BRANCH   8   9
ATOM      9  N   UNL A   1      32.658  23.060  24.363  1.00  0.00    -0.282 N 
ATOM     10  C   UNL A   1      33.276  26.635  24.145  1.00  0.00     0.029 C 
ATOM     11  C   UNL A   1      32.844  25.420  24.520  1.00  0.00     0.081 C 
ATOM     12  S   UNL A   1      31.630  25.038  25.673  1.00  0.00    -0.054 SA
ATOM     13  C   UNL A   1      33.390  24.158  23.946  1.00  0.00     0.266 C 
ATOM     14  C   UNL A   1      31.687  23.313  25.308  1.00  0.00     0.148 C 
ATOM     15  O   UNL A   1      34.373  24.117  23.220  1.00  0.00    -0.268 OA
ATOM     16  S   UNL A   1      30.684  22.213  26.057  1.00  0.00    -0.052 S 
BRANCH  10  17
ATOM     17  C   UNL A   1      32.897  27.916  24.761  1.00  0.00    -0.017 A 
ATOM     18  C   UNL A   1      31.428  29.877  24.931  1.00  0.00     0.165 A 
ATOM     19  C   UNL A   1      31.756  28.638  24.350  1.00  0.00     0.058 A 
ATOM     20  C   UNL A   1      32.250  30.350  25.941  1.00  0.00     0.207 A 
ATOM     21  C   UNL A   1      33.369  29.648  26.330  1.00  0.00     0.170 A 
ATOM     22  O   UNL A   1      32.095  31.482  26.686  1.00  0.00    -0.450 OA
ATOM     23  C   UNL A   1      33.727  28.447  25.755  1.00  0.00     0.059 A 
ATOM     24  O   UNL A   1      34.056  30.255  27.337  1.00  0.00    -0.453 OA
ATOM     25  C   UNL A   1      33.203  31.382  27.599  1.00  0.00     0.468 C 
BRANCH  18  26
ATOM     26  O   UNL A   1      30.287  30.472  24.468  1.00  0.00    -0.493 OA
ATOM     27  C   UNL A   1      29.748  29.916  23.269  1.00  0.00     0.278 C 
ENDBRANCH  18  26
ENDBRANCH  10  17
ENDBRANCH   8   9
ENDBRANCH   6   8
ENDBRANCH   5   6
ENDBRANCH   4   5
ENDBRANCH   3   4
ENDBRANCH   2   3
ENDBRANCH   1   2
BRANCH   1  28
ATOM     28  C   UNL A   1      38.930  22.201  26.178  1.00  0.00     0.188 C 
BRANCH  28  29
ATOM     29  O   UNL A   1      39.942  21.505  26.875  1.00  0.00    -0.376 OA
BRANCH  29  30
ATOM     30  C   UNL A   1      41.270  21.702  26.440  1.00  0.00     0.202 C 
BRANCH  30  31
ATOM     31  C   UNL A   1      41.644  23.153  26.106  1.00  0.00     0.261 C 
BRANCH  31  32
ATOM     32  O   UNL A   1      42.405  23.867  27.098  1.00  0.00    -0.460 OA
BRANCH  32  33
ATOM     33  C   UNL A   1      42.879  25.086  26.743  1.00  0.00     0.338 C 
ATOM     34  O   UNL A   1      43.463  25.361  25.712  1.00  0.00    -0.246 OA
BRANCH  33  35
ATOM     35  C   UNL A   1      42.395  26.085  27.725  1.00  0.00     0.060 A 
ATOM     36  C   UNL A   1      43.176  27.222  27.959  1.00  0.00     0.016 A 
ATOM     37  C   UNL A   1      41.218  25.891  28.446  1.00  0.00     0.016 A 
ATOM     38  C   UNL A   1      42.806  28.154  28.929  1.00  0.00     0.010 A 
ATOM     39  C   UNL A   1      40.855  26.817  29.436  1.00  0.00     0.010 A 
ATOM     40  C   UNL A   1      41.664  27.938  29.707  1.00  0.00    -0.014 A 
BRANCH  40  41
ATOM     41  C   UNL A   1      41.422  28.778  30.911  1.00  0.00     0.031 A 
ATOM     42  C   UNL A   1      40.334  29.821  30.853  1.00  0.00     0.074 A 
ATOM     43  C   UNL A   1      42.109  28.590  32.054  1.00  0.00     0.049 A 
ATOM     44  N   UNL A   1      40.007  30.733  31.730  1.00  0.00    -0.248 NA
ATOM     45  C   UNL A   1      39.498  29.829  29.641  1.00  0.00     0.031 C 
ATOM     46  C   UNL A   1      43.128  27.563  32.273  1.00  0.00     0.029 A 
ATOM     47  N   UNL A   1      42.052  29.263  33.253  1.00  0.00    -0.354 N 
ATOM     48  C   UNL A   1      38.939  31.428  31.175  1.00  0.00     0.074 A 
ATOM     49  C   UNL A   1      38.691  30.853  29.871  1.00  0.00     0.031 C 
ATOM     50  C   UNL A   1      43.609  27.683  33.523  1.00  0.00     0.029 A 
ATOM     51  C   UNL A   1      42.968  28.820  34.180  1.00  0.00     0.049 A 
ATOM     52  H   UNL A   1      41.417  29.993  33.429  1.00  0.00     0.167 HD
ATOM     53  C   UNL A   1      38.219  32.444  31.709  1.00  0.00     0.037 A 
ATOM     54  C   UNL A   1      43.275  29.301  35.402  1.00  0.00     0.037 A 
ATOM     55  C   UNL A   1      38.460  33.007  33.012  1.00  0.00     0.049 A 
ATOM     56  C   UNL A   1      42.530  30.504  35.930  1.00  0.00     0.074 A 
ATOM     57  C   UNL A   1      37.806  34.059  33.629  1.00  0.00     0.029 A 
ATOM     58  N   UNL A   1      39.423  32.558  33.902  1.00  0.00    -0.354 N 
ATOM     59  N   UNL A   1      41.544  31.174  35.380  1.00  0.00    -0.248 NA
ATOM     60  C   UNL A   1      42.942  31.021  37.244  1.00  0.00     0.031 C 
ATOM     61  C   UNL A   1      38.400  34.273  34.877  1.00  0.00     0.029 A 
ATOM     62  C   UNL A   1      39.388  33.319  35.059  1.00  0.00     0.049 A 
ATOM     63  H   UNL A   1      40.042  31.810  33.737  1.00  0.00     0.167 HD
ATOM     64  C   UNL A   1      41.194  32.161  36.299  1.00  0.00     0.074 A 
ATOM     65  C   UNL A   1      42.065  31.995  37.442  1.00  0.00     0.031 C 
ATOM     66  C   UNL A   1      40.240  33.120  36.204  1.00  0.00     0.037 A 
BRANCH  53  67
ATOM     67  C   UNL A   1      37.105  33.025  30.883  1.00  0.00     0.058 A 
ATOM     68  C   UNL A   1      35.757  32.757  31.171  1.00  0.00     0.135 A 
ATOM     69  C   UNL A   1      37.385  33.911  29.829  1.00  0.00     0.135 A 
ATOM     70  F   UNL A   1      35.433  31.900  32.153  1.00  0.00    -0.206 F 
ATOM     71  C   UNL A   1      34.727  33.339  30.439  1.00  0.00     0.059 A 
ATOM     72  C   UNL A   1      36.369  34.525  29.100  1.00  0.00     0.059 A 
ATOM     73  F   UNL A   1      38.656  34.197  29.506  1.00  0.00    -0.206 F 
ATOM     74  C   UNL A   1      35.044  34.227  29.410  1.00  0.00     0.060 A 
BRANCH  74  75
ATOM     75  S   UNL A   1      33.693  35.000  28.495  1.00  0.00     0.124 S 
ATOM     76  O   UNL A   1      32.527  34.358  29.097  1.00  0.00    -0.237 OA
ATOM     77  O   UNL A   1      33.871  36.413  28.813  1.00  0.00    -0.237 OA
ATOM     78  O   UNL A   1      33.964  34.631  27.108  1.00  0.00    -0.744 OA
ENDBRANCH  74  75
ENDBRANCH  53  67
BRANCH  54  79
ATOM     79  C   UNL A   1      44.364  28.685  36.214  1.00  0.00     0.058 A 
ATOM     80  C   UNL A   1      44.100  27.644  37.118  1.00  0.00     0.135 A 
ATOM     81  C   UNL A   1      45.679  29.175  36.155  1.00  0.00     0.135 A 
ATOM     82  F   UNL A   1      42.859  27.148  37.224  1.00  0.00    -0.206 F 
ATOM     83  C   UNL A   1      45.087  27.140  37.962  1.00  0.00     0.059 A 
ATOM     84  C   UNL A   1      46.690  28.664  36.963  1.00  0.00     0.059 A 
ATOM     85  F   UNL A   1      45.991  30.164  35.304  1.00  0.00    -0.206 F 
ATOM     86  C   UNL A   1      46.378  27.663  37.881  1.00  0.00     0.060 A 
BRANCH  86  87
ATOM     87  S   UNL A   1      47.649  27.014  38.989  1.00  0.00     0.124 S 
ATOM     88  O   UNL A   1      48.863  27.552  38.388  1.00  0.00    -0.237 OA
ATOM     89  O   UNL A   1      47.261  27.592  40.272  1.00  0.00    -0.237 OA
ATOM     90  O   UNL A   1      47.479  25.568  38.884  1.00  0.00    -0.744 OA
ENDBRANCH  86  87
ENDBRANCH  54  79
BRANCH  66  91
ATOM     91  C   UNL A   1      40.037  34.025  37.389  1.00  0.00     0.058 A 
ATOM     92  C   UNL A   1      40.783  35.201  37.564  1.00  0.00     0.135 A 
ATOM     93  C   UNL A   1      39.040  33.737  38.337  1.00  0.00     0.135 A 
ATOM     94  F   UNL A   1      41.751  35.523  36.691  1.00  0.00    -0.206 F 
ATOM     95  C   UNL A   1      40.566  36.045  38.648  1.00  0.00     0.059 A 
ATOM     96  C   UNL A   1      38.785  34.583  39.412  1.00  0.00     0.059 A 
ATOM     97  F   UNL A   1      38.288  32.631  38.212  1.00  0.00    -0.206 F 
ATOM     98  C   UNL A   1      39.562  35.730  39.566  1.00  0.00     0.060 A 
BRANCH  98  99
ATOM     99  S   UNL A   1      39.266  36.854  40.948  1.00  0.00     0.124 S 
ATOM    100  O   UNL A   1      40.623  37.292  41.266  1.00  0.00    -0.237 OA
ATOM    101  O   UNL A   1      38.398  37.863  40.349  1.00  0.00    -0.237 OA
ATOM    102  O   UNL A   1      38.631  36.003  41.950  1.00  0.00    -0.744 OA
ENDBRANCH  98  99
ENDBRANCH  66  91
ENDBRANCH  40  41
ENDBRANCH  33  35
ENDBRANCH  32  33
ENDBRANCH  31  32
ENDBRANCH  30  31
ENDBRANCH  29  30
ENDBRANCH  28  29
ENDBRANCH   1  28
TORSDOF 23
ENDMDL
MODEL 3
REMARK VINA RESULT:      -8.8      4.941      6.208
REMARK SMILES COc1cc(/C=C2\SC(=S)N(CC(=O)OCCOCCOCCOC(=O)c3ccc(-c4c5nc(c(-c6c(F)cc(S(=O)(=O)[O-])cc6F)c6ccc([nH]6)c(-c6c(F)cc(S(=O)(=O)[O-])cc6F)c6nc(c(-c7c(F)cc(S(=O)(=O)[O-])cc7F)c7ccc4[nH]7)C=C6)C=C5)cc3)C2=O)cc2c1OCO2
REMARK SMILES IDX 19 1 18 2 17 3 16 4 15 5 13 6 14 7 12 8 11 9 6 10 7 11 8 12
REMARK SMILES IDX 93 13 9 14 94 15 10 16 5 17 3 18 4 19 97 20 96 21 98 22
REMARK SMILES IDX 95 23 100 24 99 25 2 26 1 27 20 28 21 29 22 30 23 31 24 32
REMARK SMILES IDX 25 33 26 34 27 35 28 36 92 37 29 38 91 39 30 40 31 41 32 42
REMARK SMILES IDX 85 43 33 44 90 45 84 46 86 47 34 48 89 49 83 50 82 51 35 53
REMARK SMILES IDX 69 54 48 55 68 56 49 57 52 58 67 59 87 60 50 61 51 62 66 64
REMARK SMILES IDX 88 65 53 66 36 67 37 68 46 69 38 70 39 71 45 72 47 73 40 74
REMARK SMILES IDX 41 75 42 76 43 77 44 78 70 79 71 80 80 81 72 82 73 83 79 84
REMARK SMILES IDX 81 85 74 86 75 87 76 88 77 89 78 90 54 91 55 92 64 93 56 94
REMARK SMILES IDX 57 95 63 96 65 97 58 98 59 99 60 100 61 101 62 102
REMARK H PARENT 86 52 52 63
REMARK Flexibility Score: inf
ROOT
ATOM      1  C   UNL A   1      36.536  22.783  26.302  1.00  0.00     0.188 C 
ENDROOT
BRANCH   1   2
ATOM      2  O   UNL A   1      35.264  23.425  26.337  1.00  0.00    -0.376 OA
BRANCH   2   3
ATOM      3  C   UNL A   1      34.260  22.942  27.220  1.00  0.00     0.202 C 
BRANCH   3   4
ATOM      4  C   UNL A   1      34.093  21.421  27.332  1.00  0.00     0.261 C 
BRANCH   4   5
ATOM      5  O   UNL A   1      33.217  20.827  26.345  1.00  0.00    -0.462 OA
BRANCH   5   6
ATOM      6  C   UNL A   1      33.781  20.534  25.143  1.00  0.00     0.326 C 
ATOM      7  O   UNL A   1      34.715  19.751  25.002  1.00  0.00    -0.250 OA
BRANCH   6   8
ATOM      8  C   UNL A   1      33.125  21.204  23.926  1.00  0.00     0.250 C 
BRANCH   8   9
ATOM      9  N   UNL A   1      32.924  22.660  23.853  1.00  0.00    -0.282 N 
ATOM     10  C   UNL A   1      30.659  25.448  24.415  1.00  0.00     0.029 C 
ATOM     11  C   UNL A   1      31.684  24.677  24.016  1.00  0.00     0.081 C 
ATOM     12  S   UNL A   1      33.152  25.170  23.274  1.00  0.00    -0.054 SA
ATOM     13  C   UNL A   1      31.689  23.195  24.176  1.00  0.00     0.266 C 
ATOM     14  C   UNL A   1      33.839  23.546  23.327  1.00  0.00     0.148 C 
ATOM     15  O   UNL A   1      30.710  22.552  24.528  1.00  0.00    -0.268 OA
ATOM     16  S   UNL A   1      35.378  23.215  22.781  1.00  0.00    -0.052 S 
BRANCH  10  17
ATOM     17  C   UNL A   1      30.511  26.889  24.165  1.00  0.00    -0.017 A 
ATOM     18  C   UNL A   1      30.969  29.235  24.729  1.00  0.00     0.165 A 
ATOM     19  C   UNL A   1      31.149  27.859  24.968  1.00  0.00     0.058 A 
ATOM     20  C   UNL A   1      30.168  29.603  23.661  1.00  0.00     0.207 A 
ATOM     21  C   UNL A   1      29.539  28.652  22.889  1.00  0.00     0.170 A 
ATOM     22  O   UNL A   1      29.906  30.861  23.205  1.00  0.00    -0.450 OA
ATOM     23  C   UNL A   1      29.675  27.300  23.120  1.00  0.00     0.059 A 
ATOM     24  O   UNL A   1      28.797  29.190  21.881  1.00  0.00    -0.453 OA
ATOM     25  C   UNL A   1      29.090  30.587  22.052  1.00  0.00     0.468 C 
BRANCH  18  26
ATOM     26  O   UNL A   1      31.656  30.080  25.558  1.00  0.00    -0.493 OA
ATOM     27  C   UNL A   1      33.059  29.837  25.657  1.00  0.00     0.278 C 
ENDBRANCH  18  26
ENDBRANCH  10  17
ENDBRANCH   8   9
ENDBRANCH   6   8
ENDBRANCH   5   6
ENDBRANCH   4   5
ENDBRANCH   3   4
ENDBRANCH   2   3
ENDBRANCH   1   2
BRANCH   1  28
ATOM     28  C   UNL A   1      37.742  23.571  25.767  1.00  0.00     0.188 C 
BRANCH  28  29
ATOM     29  O   UNL A   1      38.970  23.178  26.340  1.00  0.00    -0.376 OA
BRANCH  29  30
ATOM     30  C   UNL A   1      39.360  21.834  26.161  1.00  0.00     0.202 C 
BRANCH  30  31
ATOM     31  C   UNL A   1      40.440  21.328  27.126  1.00  0.00     0.261 C 
BRANCH  31  32
ATOM     32  O   UNL A   1      41.724  21.018  26.551  1.00  0.00    -0.460 OA
BRANCH  32  33
ATOM     33  C   UNL A   1      42.468  22.065  26.119  1.00  0.00     0.338 C 
ATOM     34  O   UNL A   1      42.580  22.445  24.969  1.00  0.00    -0.246 OA
BRANCH  33  35
ATOM     35  C   UNL A   1      42.971  22.806  27.300  1.00  0.00     0.060 A 
ATOM     36  C   UNL A   1      42.070  23.593  28.026  1.00  0.00     0.016 A 
ATOM     37  C   UNL A   1      44.315  22.773  27.667  1.00  0.00     0.016 A 
ATOM     38  C   UNL A   1      42.506  24.372  29.098  1.00  0.00     0.010 A 
ATOM     39  C   UNL A   1      44.760  23.572  28.732  1.00  0.00     0.010 A 
ATOM     40  C   UNL A   1      43.864  24.401  29.435  1.00  0.00    -0.014 A 
BRANCH  40  41
ATOM     41  C   UNL A   1      44.365  25.428  30.387  1.00  0.00     0.031 A 
ATOM     42  C   UNL A   1      44.527  26.845  29.897  1.00  0.00     0.074 A 
ATOM     43  C   UNL A   1      44.619  25.133  31.677  1.00  0.00     0.049 A 
ATOM     44  N   UNL A   1      45.038  27.883  30.504  1.00  0.00    -0.248 NA
ATOM     45  C   UNL A   1      44.039  27.127  28.536  1.00  0.00     0.031 C 
ATOM     46  C   UNL A   1      44.425  23.824  32.302  1.00  0.00     0.029 A 
ATOM     47  N   UNL A   1      45.101  25.920  32.696  1.00  0.00    -0.354 N 
ATOM     48  C   UNL A   1      44.944  28.936  29.601  1.00  0.00     0.074 A 
ATOM     49  C   UNL A   1      44.355  28.405  28.391  1.00  0.00     0.031 C 
ATOM     50  C   UNL A   1      44.796  23.897  33.593  1.00  0.00     0.029 A 
ATOM     51  C   UNL A   1      45.297  25.240  33.877  1.00  0.00     0.049 A 
ATOM     52  H   UNL A   1      45.289  26.881  32.591  1.00  0.00     0.167 HD
ATOM     53  C   UNL A   1      45.302  30.232  29.769  1.00  0.00     0.037 A 
ATOM     54  C   UNL A   1      45.848  25.647  35.039  1.00  0.00     0.037 A 
ATOM     55  C   UNL A   1      45.876  30.761  30.978  1.00  0.00     0.049 A 
ATOM     56  C   UNL A   1      46.339  27.071  35.163  1.00  0.00     0.074 A 
ATOM     57  C   UNL A   1      46.302  32.052  31.236  1.00  0.00     0.029 A 
ATOM     58  N   UNL A   1      46.097  30.030  32.135  1.00  0.00    -0.354 N 
ATOM     59  N   UNL A   1      46.275  28.048  34.288  1.00  0.00    -0.248 NA
ATOM     60  C   UNL A   1      46.981  27.447  36.431  1.00  0.00     0.031 C 
ATOM     61  C   UNL A   1      46.817  32.094  32.535  1.00  0.00     0.029 A 
ATOM     62  C   UNL A   1      46.662  30.841  33.106  1.00  0.00     0.049 A 
ATOM     63  H   UNL A   1      45.884  29.076  32.251  1.00  0.00     0.167 HD
ATOM     64  C   UNL A   1      46.831  29.159  34.918  1.00  0.00     0.074 A 
ATOM     65  C   UNL A   1      47.215  28.738  36.248  1.00  0.00     0.031 C 
ATOM     66  C   UNL A   1      47.009  30.415  34.438  1.00  0.00     0.037 A 
BRANCH  53  67
ATOM     67  C   UNL A   1      45.093  31.173  28.615  1.00  0.00     0.058 A 
ATOM     68  C   UNL A   1      44.047  32.109  28.608  1.00  0.00     0.135 A 
ATOM     69  C   UNL A   1      45.987  31.183  27.531  1.00  0.00     0.135 A 
ATOM     70  F   UNL A   1      43.150  32.129  29.607  1.00  0.00    -0.206 F 
ATOM     71  C   UNL A   1      43.889  33.015  27.564  1.00  0.00     0.059 A 
ATOM     72  C   UNL A   1      45.863  32.098  26.489  1.00  0.00     0.059 A 
ATOM     73  F   UNL A   1      47.002  30.305  27.484  1.00  0.00    -0.206 F 
ATOM     74  C   UNL A   1      44.806  33.006  26.512  1.00  0.00     0.060 A 
BRANCH  74  75
ATOM     75  S   UNL A   1      44.605  34.213  25.184  1.00  0.00     0.124 S 
ATOM     76  O   UNL A   1      43.350  34.856  25.562  1.00  0.00    -0.237 OA
ATOM     77  O   UNL A   1      45.804  35.033  25.326  1.00  0.00    -0.237 OA
ATOM     78  O   UNL A   1      44.549  33.390  23.980  1.00  0.00    -0.744 OA
ENDBRANCH  74  75
ENDBRANCH  53  67
BRANCH  54  79
ATOM     79  C   UNL A   1      46.014  24.701  36.178  1.00  0.00     0.058 A 
ATOM     80  C   UNL A   1      47.005  23.706  36.162  1.00  0.00     0.135 A 
ATOM     81  C   UNL A   1      45.138  24.725  37.277  1.00  0.00     0.135 A 
ATOM     82  F   UNL A   1      47.859  23.630  35.131  1.00  0.00    -0.206 F 
ATOM     83  C   UNL A   1      47.096  22.747  37.167  1.00  0.00     0.059 A 
ATOM     84  C   UNL A   1      45.230  23.798  38.310  1.00  0.00     0.059 A 
ATOM     85  F   UNL A   1      44.176  25.657  37.350  1.00  0.00    -0.206 F 
ATOM     86  C   UNL A   1      46.198  22.797  38.234  1.00  0.00     0.060 A 
BRANCH  86  87
ATOM     87  S   UNL A   1      46.312  21.541  39.526  1.00  0.00     0.124 S 
ATOM     88  O   UNL A   1      45.265  21.969  40.445  1.00  0.00    -0.237 OA
ATOM     89  O   UNL A   1      46.048  20.312  38.784  1.00  0.00    -0.237 OA
ATOM     90  O   UNL A   1      47.680  21.687  40.016  1.00  0.00    -0.744 OA
ENDBRANCH  86  87
ENDBRANCH  54  79
BRANCH  66  91
ATOM     91  C   UNL A   1      47.586  31.446  35.371  1.00  0.00     0.058 A 
ATOM     92  C   UNL A   1      46.777  32.222  36.214  1.00  0.00     0.135 A 
ATOM     93  C   UNL A   1      48.978  31.619  35.459  1.00  0.00     0.135 A 
ATOM     94  F   UNL A   1      45.440  32.100  36.167  1.00  0.00    -0.206 F 
ATOM     95  C   UNL A   1      47.323  33.151  37.094  1.00  0.00     0.059 A 
ATOM     96  C   UNL A   1      49.548  32.520  36.354  1.00  0.00     0.059 A 
ATOM     97  F   UNL A   1      49.801  30.894  34.685  1.00  0.00    -0.206 F 
ATOM     98  C   UNL A   1      48.711  33.291  37.159  1.00  0.00     0.060 A 
BRANCH  98  99
ATOM     99  S   UNL A   1      49.408  34.474  38.332  1.00  0.00     0.124 S 
ATOM    100  O   UNL A   1      50.610  33.773  38.777  1.00  0.00    -0.237 OA
ATOM    101  O   UNL A   1      49.632  35.648  37.494  1.00  0.00    -0.237 OA
ATOM    102  O   UNL A   1      48.359  34.618  39.336  1.00  0.00    -0.744 OA
ENDBRANCH  98  99
ENDBRANCH  66  91
ENDBRANCH  40  41
ENDBRANCH  33  35
ENDBRANCH  32  33
ENDBRANCH  31  32
ENDBRANCH  30  31
ENDBRANCH  29  30
ENDBRANCH  28  29
ENDBRANCH   1  28
TORSDOF 23
ENDMDL
