MODEL 1
REMARK VINA RESULT:     -11.5      0.000      0.000
REMARK SMILES O=C(OCCOCCOCCOC(=O)c1ccc2c(c1)[C@@H]1C=CC[C@@H]1[C@H](c1ccncc1)N2)c1ccc(-c2c3nc(c(-c4c(F)cc(S(=O)(=O)[O-])cc4F)c4ccc([nH]4)c(-c4c(F)cc(S(=O)(=O)[O-])cc4F)c4nc(c(-c5c(F)cc(S(=O)(=O)[O-])cc5F)c5ccc2[nH]5)C=C4)C=C3)cc1
REMARK SMILES IDX 7 1 6 2 5 3 4 4 3 5 2 6 1 7 34 8 35 9 99 10 36 11 98 12
REMARK SMILES IDX 37 13 38 14 39 15 92 16 40 17 97 18 91 19 93 20 41 21 96 22
REMARK SMILES IDX 90 23 89 24 42 26 76 27 55 28 75 29 56 30 59 31 74 32 94 33
REMARK SMILES IDX 57 34 58 35 73 37 95 38 60 39 43 40 44 41 53 42 45 43 46 44
REMARK SMILES IDX 52 45 54 46 47 47 48 48 49 49 50 50 51 51 77 52 78 53 87 54
REMARK SMILES IDX 79 55 80 56 86 57 88 58 81 59 82 60 83 61 84 62 85 63 61 64
REMARK SMILES IDX 62 65 71 66 63 67 64 68 70 69 72 70 65 71 66 72 67 73 68 74
REMARK SMILES IDX 69 75 8 76 9 77 10 78 11 79 12 80 13 81 14 82 15 83 16 84
REMARK SMILES IDX 20 85 17 86 19 87 18 88 21 89 33 90 22 91 25 92 26 93 23 95
REMARK SMILES IDX 24 96 27 97 28 98 32 99 29 100 31 101 30 102
REMARK H PARENT 93 25 59 36 33 94
REMARK Flexibility Score: inf
ROOT
ATOM      1  C   UNL A   1      40.553  22.584  26.471  1.00  0.00     0.188 C 
ENDROOT
BRANCH   1   2
ATOM      2  O   UNL A   1      41.853  22.573  25.867  1.00  0.00    -0.376 OA
BRANCH   2   3
ATOM      3  C   UNL A   1      42.716  23.607  26.352  1.00  0.00     0.202 C 
BRANCH   3   4
ATOM      4  C   UNL A   1      43.233  24.570  25.274  1.00  0.00     0.261 C 
BRANCH   4   5
ATOM      5  O   UNL A   1      42.319  25.644  25.011  1.00  0.00    -0.460 OA
BRANCH   5   6
ATOM      6  C   UNL A   1      42.385  26.926  25.449  1.00  0.00     0.338 C 
ATOM      7  O   UNL A   1      42.612  27.810  24.621  1.00  0.00    -0.246 OA
BRANCH   6   8
ATOM      8  C   UNL A   1      42.158  27.345  26.871  1.00  0.00     0.060 A 
ATOM      9  C   UNL A   1      41.271  26.747  27.768  1.00  0.00     0.016 A 
ATOM     10  C   UNL A   1      42.947  28.406  27.351  1.00  0.00     0.016 A 
ATOM     11  C   UNL A   1      41.069  27.262  29.051  1.00  0.00     0.010 A 
ATOM     12  C   UNL A   1      42.795  28.887  28.658  1.00  0.00     0.010 A 
ATOM     13  C   UNL A   1      41.815  28.346  29.506  1.00  0.00    -0.014 A 
BRANCH  13  14
ATOM     14  C   UNL A   1      41.446  29.034  30.769  1.00  0.00     0.031 A 
ATOM     15  C   UNL A   1      40.323  30.031  30.721  1.00  0.00     0.074 A 
ATOM     16  C   UNL A   1      41.975  28.702  31.964  1.00  0.00     0.049 A 
ATOM     17  N   UNL A   1      39.900  30.848  31.646  1.00  0.00    -0.248 NA
ATOM     18  C   UNL A   1      39.536  30.071  29.475  1.00  0.00     0.031 C 
ATOM     19  C   UNL A   1      42.857  27.565  32.213  1.00  0.00     0.029 A 
ATOM     20  N   UNL A   1      41.831  29.282  33.207  1.00  0.00    -0.354 N 
ATOM     21  C   UNL A   1      38.785  31.476  31.109  1.00  0.00     0.074 A 
ATOM     22  C   UNL A   1      38.627  30.991  29.757  1.00  0.00     0.031 C 
ATOM     23  C   UNL A   1      43.182  27.550  33.517  1.00  0.00     0.029 A 
ATOM     24  C   UNL A   1      42.668  28.742  34.163  1.00  0.00     0.049 A 
ATOM     25  H   UNL A   1      41.195  30.008  33.394  1.00  0.00     0.167 HD
ATOM     26  C   UNL A   1      37.953  32.359  31.708  1.00  0.00     0.037 A 
ATOM     27  C   UNL A   1      43.043  29.221  35.369  1.00  0.00     0.037 A 
ATOM     28  C   UNL A   1      38.136  32.837  33.049  1.00  0.00     0.049 A 
ATOM     29  C   UNL A   1      42.373  30.466  35.859  1.00  0.00     0.074 A 
ATOM     30  C   UNL A   1      37.367  33.734  33.765  1.00  0.00     0.029 A 
ATOM     31  N   UNL A   1      39.191  32.466  33.870  1.00  0.00    -0.354 N 
ATOM     32  N   UNL A   1      41.414  31.152  35.291  1.00  0.00    -0.248 NA
ATOM     33  C   UNL A   1      42.806  30.980  37.165  1.00  0.00     0.031 C 
ATOM     34  C   UNL A   1      37.993  33.953  34.998  1.00  0.00     0.029 A 
ATOM     35  C   UNL A   1      39.122  33.153  35.066  1.00  0.00     0.049 A 
ATOM     36  H   UNL A   1      39.887  31.810  33.634  1.00  0.00     0.167 HD
ATOM     37  C   UNL A   1      41.086  32.144  36.198  1.00  0.00     0.074 A 
ATOM     38  C   UNL A   1      41.998  32.017  37.317  1.00  0.00     0.031 C 
ATOM     39  C   UNL A   1      40.068  33.032  36.141  1.00  0.00     0.037 A 
BRANCH  26  40
ATOM     40  C   UNL A   1      36.822  32.891  30.880  1.00  0.00     0.058 A 
ATOM     41  C   UNL A   1      37.017  33.876  29.898  1.00  0.00     0.135 A 
ATOM     42  C   UNL A   1      35.513  32.448  31.119  1.00  0.00     0.135 A 
ATOM     43  F   UNL A   1      38.247  34.351  29.649  1.00  0.00    -0.206 F 
ATOM     44  C   UNL A   1      35.942  34.441  29.217  1.00  0.00     0.059 A 
ATOM     45  C   UNL A   1      34.427  32.983  30.434  1.00  0.00     0.059 A 
ATOM     46  F   UNL A   1      35.275  31.513  32.052  1.00  0.00    -0.206 F 
ATOM     47  C   UNL A   1      34.650  33.998  29.505  1.00  0.00     0.060 A 
BRANCH  47  48
ATOM     48  S   UNL A   1      33.258  34.790  28.674  1.00  0.00     0.124 S 
ATOM     49  O   UNL A   1      32.780  33.709  27.818  1.00  0.00    -0.237 OA
ATOM     50  O   UNL A   1      32.387  35.144  29.790  1.00  0.00    -0.237 OA
ATOM     51  O   UNL A   1      33.872  35.917  27.980  1.00  0.00    -0.744 OA
ENDBRANCH  47  48
ENDBRANCH  26  40
BRANCH  27  52
ATOM     52  C   UNL A   1      44.208  28.680  36.131  1.00  0.00     0.058 A 
ATOM     53  C   UNL A   1      44.123  27.628  37.047  1.00  0.00     0.135 A 
ATOM     54  C   UNL A   1      45.480  29.246  35.916  1.00  0.00     0.135 A 
ATOM     55  F   UNL A   1      42.935  27.073  37.324  1.00  0.00    -0.206 F 
ATOM     56  C   UNL A   1      45.268  27.082  37.641  1.00  0.00     0.059 A 
ATOM     57  C   UNL A   1      46.634  28.723  36.494  1.00  0.00     0.059 A 
ATOM     58  F   UNL A   1      45.618  30.270  35.059  1.00  0.00    -0.206 F 
ATOM     59  C   UNL A   1      46.523  27.606  37.316  1.00  0.00     0.060 A 
BRANCH  59  60
ATOM     60  S   UNL A   1      48.034  26.703  37.745  1.00  0.00     0.124 S 
ATOM     61  O   UNL A   1      48.868  26.940  36.574  1.00  0.00    -0.237 OA
ATOM     62  O   UNL A   1      48.469  27.355  38.978  1.00  0.00    -0.237 OA
ATOM     63  O   UNL A   1      47.549  25.333  37.911  1.00  0.00    -0.744 OA
ENDBRANCH  59  60
ENDBRANCH  27  52
BRANCH  39  64
ATOM     64  C   UNL A   1      39.854  33.859  37.364  1.00  0.00     0.058 A 
ATOM     65  C   UNL A   1      38.997  33.454  38.395  1.00  0.00     0.135 A 
ATOM     66  C   UNL A   1      40.527  35.084  37.491  1.00  0.00     0.135 A 
ATOM     67  F   UNL A   1      38.304  32.310  38.290  1.00  0.00    -0.206 F 
ATOM     68  C   UNL A   1      38.819  34.241  39.525  1.00  0.00     0.059 A 
ATOM     69  C   UNL A   1      40.381  35.873  38.620  1.00  0.00     0.059 A 
ATOM     70  F   UNL A   1      41.340  35.514  36.512  1.00  0.00    -0.206 F 
ATOM     71  C   UNL A   1      39.522  35.444  39.630  1.00  0.00     0.060 A 
BRANCH  71  72
ATOM     72  S   UNL A   1      39.342  36.425  41.132  1.00  0.00     0.124 S 
ATOM     73  O   UNL A   1      40.730  36.563  41.559  1.00  0.00    -0.237 OA
ATOM     74  O   UNL A   1      38.705  37.641  40.636  1.00  0.00    -0.237 OA
ATOM     75  O   UNL A   1      38.501  35.588  41.983  1.00  0.00    -0.744 OA
ENDBRANCH  71  72
ENDBRANCH  39  64
ENDBRANCH  13  14
ENDBRANCH   6   8
ENDBRANCH   5   6
ENDBRANCH   4   5
ENDBRANCH   3   4
ENDBRANCH   2   3
ENDBRANCH   1   2
BRANCH   1  76
ATOM     76  C   UNL A   1      39.737  21.339  26.107  1.00  0.00     0.188 C 
BRANCH  76  77
ATOM     77  O   UNL A   1      38.318  21.499  26.084  1.00  0.00    -0.376 OA
BRANCH  77  78
ATOM     78  C   UNL A   1      37.799  22.606  25.353  1.00  0.00     0.202 C 
BRANCH  78  79
ATOM     79  C   UNL A   1      37.055  22.317  24.043  1.00  0.00     0.261 C 
BRANCH  79  80
ATOM     80  O   UNL A   1      35.917  23.156  23.792  1.00  0.00    -0.460 OA
BRANCH  80  81
ATOM     81  C   UNL A   1      34.733  22.591  24.126  1.00  0.00     0.338 C 
ATOM     82  O   UNL A   1      34.567  21.453  24.564  1.00  0.00    -0.246 OA
BRANCH  81  83
ATOM     83  C   UNL A   1      33.593  23.469  23.819  1.00  0.00     0.060 A 
ATOM     84  C   UNL A   1      32.335  23.021  23.409  1.00  0.00     0.018 A 
ATOM     85  C   UNL A   1      33.842  24.834  23.902  1.00  0.00     0.022 A 
ATOM     86  C   UNL A   1      31.352  23.958  23.044  1.00  0.00     0.027 A 
ATOM     87  C   UNL A   1      32.844  25.767  23.595  1.00  0.00    -0.017 A 
ATOM     88  C   UNL A   1      31.595  25.340  23.106  1.00  0.00     0.038 A 
ATOM     89  C   UNL A   1      33.114  27.226  23.886  1.00  0.00     0.049 C 
ATOM     90  N   UNL A   1      30.573  26.242  22.824  1.00  0.00    -0.378 N 
ATOM     91  C   UNL A   1      33.630  27.424  25.289  1.00  0.00    -0.023 C 
ATOM     92  C   UNL A   1      31.810  28.014  23.989  1.00  0.00     0.031 C 
ATOM     93  C   UNL A   1      30.817  27.686  22.882  1.00  0.00     0.114 C 
ATOM     94  H   UNL A   1      29.678  25.907  22.584  1.00  0.00     0.161 HD
ATOM     95  C   UNL A   1      32.620  27.659  26.132  1.00  0.00    -0.030 C 
ATOM     96  C   UNL A   1      31.319  27.693  25.396  1.00  0.00     0.034 C 
BRANCH  93  97
ATOM     97  C   UNL A   1      29.546  28.531  23.014  1.00  0.00    -0.022 A 
ATOM     98  C   UNL A   1      28.312  27.883  23.217  1.00  0.00     0.026 A 
ATOM     99  C   UNL A   1      29.517  29.926  22.920  1.00  0.00     0.026 A 
ATOM    100  C   UNL A   1      27.147  28.632  23.322  1.00  0.00     0.111 A 
ATOM    101  C   UNL A   1      28.301  30.589  23.057  1.00  0.00     0.111 A 
ATOM    102  N   UNL A   1      27.119  29.976  23.277  1.00  0.00    -0.265 NA
ENDBRANCH  93  97
ENDBRANCH  81  83
ENDBRANCH  80  81
ENDBRANCH  79  80
ENDBRANCH  78  79
ENDBRANCH  77  78
ENDBRANCH  76  77
ENDBRANCH   1  76
TORSDOF 21
ENDMDL
MODEL 2
REMARK VINA RESULT:     -11.3      6.263      8.444
REMARK SMILES O=C(OCCOCCOCCOC(=O)c1ccc2c(c1)[C@@H]1C=CC[C@@H]1[C@H](c1ccncc1)N2)c1ccc(-c2c3nc(c(-c4c(F)cc(S(=O)(=O)[O-])cc4F)c4ccc([nH]4)c(-c4c(F)cc(S(=O)(=O)[O-])cc4F)c4nc(c(-c5c(F)cc(S(=O)(=O)[O-])cc5F)c5ccc2[nH]5)C=C4)C=C3)cc1
REMARK SMILES IDX 7 1 6 2 5 3 4 4 3 5 2 6 1 7 34 8 35 9 99 10 36 11 98 12
REMARK SMILES IDX 37 13 38 14 39 15 92 16 40 17 97 18 91 19 93 20 41 21 96 22
REMARK SMILES IDX 90 23 89 24 42 26 76 27 55 28 75 29 56 30 59 31 74 32 94 33
REMARK SMILES IDX 57 34 58 35 73 37 95 38 60 39 43 40 44 41 53 42 45 43 46 44
REMARK SMILES IDX 52 45 54 46 47 47 48 48 49 49 50 50 51 51 77 52 78 53 87 54
REMARK SMILES IDX 79 55 80 56 86 57 88 58 81 59 82 60 83 61 84 62 85 63 61 64
REMARK SMILES IDX 62 65 71 66 63 67 64 68 70 69 72 70 65 71 66 72 67 73 68 74
REMARK SMILES IDX 69 75 8 76 9 77 10 78 11 79 12 80 13 81 14 82 15 83 16 84
REMARK SMILES IDX 20 85 17 86 19 87 18 88 21 89 33 90 22 91 25 92 26 93 23 95
REMARK SMILES IDX 24 96 27 97 28 98 32 99 29 100 31 101 30 102
REMARK H PARENT 93 25 59 36 33 94
REMARK Flexibility Score: inf
ROOT
ATOM      1  C   UNL A   1      40.953  21.906  26.691  1.00  0.00     0.188 C 
ENDROOT
BRANCH   1   2
ATOM      2  O   UNL A   1      40.952  20.555  27.172  1.00  0.00    -0.376 OA
BRANCH   2   3
ATOM      3  C   UNL A   1      41.023  19.578  26.127  1.00  0.00     0.202 C 
BRANCH   3   4
ATOM      4  C   UNL A   1      42.335  18.783  26.081  1.00  0.00     0.261 C 
BRANCH   4   5
ATOM      5  O   UNL A   1      43.084  19.026  24.881  1.00  0.00    -0.460 OA
BRANCH   5   6
ATOM      6  C   UNL A   1      44.179  19.810  24.722  1.00  0.00     0.338 C 
ATOM      7  O   UNL A   1      45.165  19.321  24.169  1.00  0.00    -0.246 OA
BRANCH   6   8
ATOM      8  C   UNL A   1      44.255  21.249  25.138  1.00  0.00     0.060 A 
ATOM      9  C   UNL A   1      44.106  22.352  24.295  1.00  0.00     0.016 A 
ATOM     10  C   UNL A   1      44.447  21.502  26.507  1.00  0.00     0.016 A 
ATOM     11  C   UNL A   1      44.275  23.658  24.761  1.00  0.00     0.010 A 
ATOM     12  C   UNL A   1      44.554  22.811  26.993  1.00  0.00     0.010 A 
ATOM     13  C   UNL A   1      44.517  23.903  26.111  1.00  0.00    -0.014 A 
BRANCH  13  14
ATOM     14  C   UNL A   1      44.922  25.257  26.567  1.00  0.00     0.031 A 
ATOM     15  C   UNL A   1      43.836  26.208  26.985  1.00  0.00     0.074 A 
ATOM     16  C   UNL A   1      46.210  25.613  26.752  1.00  0.00     0.049 A 
ATOM     17  N   UNL A   1      43.917  27.473  27.295  1.00  0.00    -0.248 NA
ATOM     18  C   UNL A   1      42.483  25.638  27.122  1.00  0.00     0.031 C 
ATOM     19  C   UNL A   1      47.356  24.712  26.669  1.00  0.00     0.029 A 
ATOM     20  N   UNL A   1      46.772  26.830  27.071  1.00  0.00    -0.354 N 
ATOM     21  C   UNL A   1      42.639  27.843  27.691  1.00  0.00     0.074 A 
ATOM     22  C   UNL A   1      41.787  26.687  27.529  1.00  0.00     0.031 C 
ATOM     23  C   UNL A   1      48.475  25.417  26.912  1.00  0.00     0.029 A 
ATOM     24  C   UNL A   1      48.152  26.827  27.015  1.00  0.00     0.049 A 
ATOM     25  H   UNL A   1      46.244  27.624  27.314  1.00  0.00     0.167 HD
ATOM     26  C   UNL A   1      42.226  29.037  28.176  1.00  0.00     0.037 A 
ATOM     27  C   UNL A   1      49.028  27.853  26.951  1.00  0.00     0.037 A 
ATOM     28  C   UNL A   1      43.089  30.176  28.316  1.00  0.00     0.049 A 
ATOM     29  C   UNL A   1      48.484  29.239  27.096  1.00  0.00     0.074 A 
ATOM     30  C   UNL A   1      42.789  31.440  28.787  1.00  0.00     0.029 A 
ATOM     31  N   UNL A   1      44.429  30.187  27.957  1.00  0.00    -0.354 N 
ATOM     32  N   UNL A   1      47.250  29.609  27.328  1.00  0.00    -0.248 NA
ATOM     33  C   UNL A   1      49.449  30.342  27.007  1.00  0.00     0.031 C 
ATOM     34  C   UNL A   1      43.935  32.234  28.654  1.00  0.00     0.029 A 
ATOM     35  C   UNL A   1      44.958  31.449  28.148  1.00  0.00     0.049 A 
ATOM     36  H   UNL A   1      44.928  29.410  27.615  1.00  0.00     0.167 HD
ATOM     37  C   UNL A   1      47.300  30.983  27.475  1.00  0.00     0.074 A 
ATOM     38  C   UNL A   1      48.670  31.389  27.230  1.00  0.00     0.031 C 
ATOM     39  C   UNL A   1      46.314  31.826  27.856  1.00  0.00     0.037 A 
BRANCH  26  40
ATOM     40  C   UNL A   1      40.773  29.161  28.519  1.00  0.00     0.058 A 
ATOM     41  C   UNL A   1      39.785  29.319  27.532  1.00  0.00     0.135 A 
ATOM     42  C   UNL A   1      40.372  29.184  29.862  1.00  0.00     0.135 A 
ATOM     43  F   UNL A   1      40.121  29.329  26.233  1.00  0.00    -0.206 F 
ATOM     44  C   UNL A   1      38.454  29.547  27.871  1.00  0.00     0.059 A 
ATOM     45  C   UNL A   1      39.044  29.388  30.223  1.00  0.00     0.059 A 
ATOM     46  F   UNL A   1      41.280  29.045  30.841  1.00  0.00    -0.206 F 
ATOM     47  C   UNL A   1      38.098  29.595  29.220  1.00  0.00     0.060 A 
BRANCH  47  48
ATOM     48  S   UNL A   1      36.386  29.968  29.651  1.00  0.00     0.124 S 
ATOM     49  O   UNL A   1      36.274  29.335  30.960  1.00  0.00    -0.237 OA
ATOM     50  O   UNL A   1      36.373  31.427  29.650  1.00  0.00    -0.237 OA
ATOM     51  O   UNL A   1      35.621  29.337  28.579  1.00  0.00    -0.744 OA
ENDBRANCH  47  48
ENDBRANCH  26  40
BRANCH  27  52
ATOM     52  C   UNL A   1      50.459  27.676  26.559  1.00  0.00     0.058 A 
ATOM     53  C   UNL A   1      51.508  27.537  27.472  1.00  0.00     0.135 A 
ATOM     54  C   UNL A   1      50.786  27.632  25.189  1.00  0.00     0.135 A 
ATOM     55  F   UNL A   1      51.266  27.609  28.789  1.00  0.00    -0.206 F 
ATOM     56  C   UNL A   1      52.812  27.253  27.048  1.00  0.00     0.059 A 
ATOM     57  C   UNL A   1      52.074  27.351  24.741  1.00  0.00     0.059 A 
ATOM     58  F   UNL A   1      49.820  27.777  24.269  1.00  0.00    -0.206 F 
ATOM     59  C   UNL A   1      53.071  27.111  25.681  1.00  0.00     0.060 A 
BRANCH  59  60
ATOM     60  S   UNL A   1      54.626  26.373  25.114  1.00  0.00     0.124 S 
ATOM     61  O   UNL A   1      54.625  25.095  25.813  1.00  0.00    -0.237 OA
ATOM     62  O   UNL A   1      54.449  26.305  23.665  1.00  0.00    -0.237 OA
ATOM     63  O   UNL A   1      55.622  27.343  25.567  1.00  0.00    -0.744 OA
ENDBRANCH  59  60
ENDBRANCH  27  52
BRANCH  39  64
ATOM     64  C   UNL A   1      46.721  33.238  28.108  1.00  0.00     0.058 A 
ATOM     65  C   UNL A   1      47.249  33.651  29.337  1.00  0.00     0.135 A 
ATOM     66  C   UNL A   1      46.571  34.188  27.086  1.00  0.00     0.135 A 
ATOM     67  F   UNL A   1      47.368  32.780  30.351  1.00  0.00    -0.206 F 
ATOM     68  C   UNL A   1      47.626  34.972  29.544  1.00  0.00     0.059 A 
ATOM     69  C   UNL A   1      46.961  35.506  27.264  1.00  0.00     0.059 A 
ATOM     70  F   UNL A   1      46.047  33.832  25.902  1.00  0.00    -0.206 F 
ATOM     71  C   UNL A   1      47.484  35.888  28.499  1.00  0.00     0.060 A 
BRANCH  71  72
ATOM     72  S   UNL A   1      48.042  37.583  28.751  1.00  0.00     0.124 S 
ATOM     73  O   UNL A   1      48.287  38.018  27.380  1.00  0.00    -0.237 OA
ATOM     74  O   UNL A   1      46.895  38.194  29.416  1.00  0.00    -0.237 OA
ATOM     75  O   UNL A   1      49.230  37.428  29.585  1.00  0.00    -0.744 OA
ENDBRANCH  71  72
ENDBRANCH  39  64
ENDBRANCH  13  14
ENDBRANCH   6   8
ENDBRANCH   5   6
ENDBRANCH   4   5
ENDBRANCH   3   4
ENDBRANCH   2   3
ENDBRANCH   1   2
BRANCH   1  76
ATOM     76  C   UNL A   1      39.579  22.569  26.834  1.00  0.00     0.188 C 
BRANCH  76  77
ATOM     77  O   UNL A   1      38.692  22.427  25.723  1.00  0.00    -0.376 OA
BRANCH  77  78
ATOM     78  C   UNL A   1      37.382  22.969  25.863  1.00  0.00     0.202 C 
BRANCH  78  79
ATOM     79  C   UNL A   1      36.213  22.195  25.239  1.00  0.00     0.261 C 
BRANCH  79  80
ATOM     80  O   UNL A   1      35.063  22.989  24.911  1.00  0.00    -0.460 OA
BRANCH  80  81
ATOM     81  C   UNL A   1      35.029  23.402  23.622  1.00  0.00     0.338 C 
ATOM     82  O   UNL A   1      35.849  23.126  22.747  1.00  0.00    -0.246 OA
BRANCH  81  83
ATOM     83  C   UNL A   1      33.919  24.333  23.366  1.00  0.00     0.060 A 
ATOM     84  C   UNL A   1      32.803  24.041  22.581  1.00  0.00     0.018 A 
ATOM     85  C   UNL A   1      34.057  25.601  23.919  1.00  0.00     0.022 A 
ATOM     86  C   UNL A   1      31.854  25.047  22.323  1.00  0.00     0.027 A 
ATOM     87  C   UNL A   1      33.082  26.586  23.712  1.00  0.00    -0.017 A 
ATOM     88  C   UNL A   1      31.989  26.338  22.861  1.00  0.00     0.038 A 
ATOM     89  C   UNL A   1      33.192  27.877  24.490  1.00  0.00     0.049 C 
ATOM     90  N   UNL A   1      30.988  27.285  22.661  1.00  0.00    -0.378 N 
ATOM     91  C   UNL A   1      33.399  27.620  25.962  1.00  0.00    -0.023 C 
ATOM     92  C   UNL A   1      31.846  28.594  24.552  1.00  0.00     0.031 C 
ATOM     93  C   UNL A   1      31.121  28.636  23.213  1.00  0.00     0.114 C 
ATOM     94  H   UNL A   1      30.185  27.045  22.145  1.00  0.00     0.161 HD
ATOM     95  C   UNL A   1      32.227  27.578  26.601  1.00  0.00    -0.030 C 
ATOM     96  C   UNL A   1      31.101  27.846  25.652  1.00  0.00     0.034 C 
BRANCH  93  97
ATOM     97  C   UNL A   1      29.797  29.398  23.327  1.00  0.00    -0.022 A 
ATOM     98  C   UNL A   1      28.610  28.777  22.892  1.00  0.00     0.026 A 
ATOM     99  C   UNL A   1      29.681  30.702  23.818  1.00  0.00     0.026 A 
ATOM    100  C   UNL A   1      27.403  29.458  22.971  1.00  0.00     0.111 A 
ATOM    101  C   UNL A   1      28.423  31.296  23.876  1.00  0.00     0.111 A 
ATOM    102  N   UNL A   1      27.279  30.696  23.484  1.00  0.00    -0.265 NA
ENDBRANCH  93  97
ENDBRANCH  81  83
ENDBRANCH  80  81
ENDBRANCH  79  80
ENDBRANCH  78  79
ENDBRANCH  77  78
ENDBRANCH  76  77
ENDBRANCH   1  76
TORSDOF 21
ENDMDL
MODEL 3
REMARK VINA RESULT:     -11.2      5.901      8.442
REMARK SMILES O=C(OCCOCCOCCOC(=O)c1ccc2c(c1)[C@@H]1C=CC[C@@H]1[C@H](c1ccncc1)N2)c1ccc(-c2c3nc(c(-c4c(F)cc(S(=O)(=O)[O-])cc4F)c4ccc([nH]4)c(-c4c(F)cc(S(=O)(=O)[O-])cc4F)c4nc(c(-c5c(F)cc(S(=O)(=O)[O-])cc5F)c5ccc2[nH]5)C=C4)C=C3)cc1
REMARK SMILES IDX 7 1 6 2 5 3 4 4 3 5 2 6 1 7 34 8 35 9 99 10 36 11 98 12
REMARK SMILES IDX 37 13 38 14 39 15 92 16 40 17 97 18 91 19 93 20 41 21 96 22
REMARK SMILES IDX 90 23 89 24 42 26 76 27 55 28 75 29 56 30 59 31 74 32 94 33
REMARK SMILES IDX 57 34 58 35 73 37 95 38 60 39 43 40 44 41 53 42 45 43 46 44
REMARK SMILES IDX 52 45 54 46 47 47 48 48 49 49 50 50 51 51 77 52 78 53 87 54
REMARK SMILES IDX 79 55 80 56 86 57 88 58 81 59 82 60 83 61 84 62 85 63 61 64
REMARK SMILES IDX 62 65 71 66 63 67 64 68 70 69 72 70 65 71 66 72 67 73 68 74
REMARK SMILES IDX 69 75 8 76 9 77 10 78 11 79 12 80 13 81 14 82 15 83 16 84
REMARK SMILES IDX 20 85 17 86 19 87 18 88 21 89 33 90 22 91 25 92 26 93 23 95
REMARK SMILES IDX 24 96 27 97 28 98 32 99 29 100 31 101 30 102
REMARK H PARENT 93 25 59 36 33 94
REMARK Flexibility Score: inf
ROOT
ATOM      1  C   UNL A   1      37.268  22.000  24.239  1.00  0.00     0.188 C 
ENDROOT
BRANCH   1   2
ATOM      2  O   UNL A   1      37.740  22.726  25.382  1.00  0.00    -0.376 OA
BRANCH   2   3
ATOM      3  C   UNL A   1      38.773  22.046  26.103  1.00  0.00     0.202 C 
BRANCH   3   4
ATOM      4  C   UNL A   1      39.044  20.610  25.634  1.00  0.00     0.261 C 
BRANCH   4   5
ATOM      5  O   UNL A   1      40.150  20.006  26.322  1.00  0.00    -0.460 OA
BRANCH   5   6
ATOM      6  C   UNL A   1      41.473  20.141  26.060  1.00  0.00     0.338 C 
ATOM      7  O   UNL A   1      42.026  19.258  25.402  1.00  0.00    -0.246 OA
BRANCH   6   8
ATOM      8  C   UNL A   1      42.302  21.318  26.483  1.00  0.00     0.060 A 
ATOM      9  C   UNL A   1      42.627  21.658  27.796  1.00  0.00     0.016 A 
ATOM     10  C   UNL A   1      42.833  22.118  25.456  1.00  0.00     0.016 A 
ATOM     11  C   UNL A   1      43.339  22.823  28.097  1.00  0.00     0.010 A 
ATOM     12  C   UNL A   1      43.601  23.253  25.747  1.00  0.00     0.010 A 
ATOM     13  C   UNL A   1      43.819  23.642  27.078  1.00  0.00    -0.014 A 
BRANCH  13  14
ATOM     14  C   UNL A   1      44.369  24.985  27.392  1.00  0.00     0.031 A 
ATOM     15  C   UNL A   1      43.399  26.064  27.788  1.00  0.00     0.074 A 
ATOM     16  C   UNL A   1      45.692  25.235  27.473  1.00  0.00     0.049 A 
ATOM     17  N   UNL A   1      43.610  27.336  27.983  1.00  0.00    -0.248 NA
ATOM     18  C   UNL A   1      42.013  25.634  28.050  1.00  0.00     0.031 C 
ATOM     19  C   UNL A   1      46.748  24.229  27.403  1.00  0.00     0.029 A 
ATOM     20  N   UNL A   1      46.378  26.417  27.653  1.00  0.00    -0.354 N 
ATOM     21  C   UNL A   1      42.397  27.853  28.418  1.00  0.00     0.074 A 
ATOM     22  C   UNL A   1      41.438  26.772  28.404  1.00  0.00     0.031 C 
ATOM     23  C   UNL A   1      47.937  24.845  27.520  1.00  0.00     0.029 A 
ATOM     24  C   UNL A   1      47.746  26.282  27.519  1.00  0.00     0.049 A 
ATOM     25  H   UNL A   1      45.937  27.273  27.856  1.00  0.00     0.167 HD
ATOM     26  C   UNL A   1      42.122  29.115  28.820  1.00  0.00     0.037 A 
ATOM     27  C   UNL A   1      48.702  27.215  27.318  1.00  0.00     0.037 A 
ATOM     28  C   UNL A   1      43.088  30.177  28.813  1.00  0.00     0.049 A 
ATOM     29  C   UNL A   1      48.290  28.652  27.373  1.00  0.00     0.074 A 
ATOM     30  C   UNL A   1      42.930  31.498  29.190  1.00  0.00     0.029 A 
ATOM     31  N   UNL A   1      44.398  30.036  28.378  1.00  0.00    -0.354 N 
ATOM     32  N   UNL A   1      47.111  29.152  27.642  1.00  0.00    -0.248 NA
ATOM     33  C   UNL A   1      49.341  29.650  27.135  1.00  0.00     0.031 C 
ATOM     34  C   UNL A   1      44.130  32.170  28.924  1.00  0.00     0.029 A 
ATOM     35  C   UNL A   1      45.046  31.255  28.430  1.00  0.00     0.049 A 
ATOM     36  H   UNL A   1      44.804  29.191  28.077  1.00  0.00     0.167 HD
ATOM     37  C   UNL A   1      47.291  30.523  27.667  1.00  0.00     0.074 A 
ATOM     38  C   UNL A   1      48.672  30.779  27.310  1.00  0.00     0.031 C 
ATOM     39  C   UNL A   1      46.408  31.481  28.029  1.00  0.00     0.037 A 
BRANCH  26  40
ATOM     40  C   UNL A   1      40.710  29.401  29.233  1.00  0.00     0.058 A 
ATOM     41  C   UNL A   1      39.674  29.543  28.296  1.00  0.00     0.135 A 
ATOM     42  C   UNL A   1      40.404  29.595  30.588  1.00  0.00     0.135 A 
ATOM     43  F   UNL A   1      39.920  29.391  26.985  1.00  0.00    -0.206 F 
ATOM     44  C   UNL A   1      38.391  29.919  28.686  1.00  0.00     0.059 A 
ATOM     45  C   UNL A   1      39.125  29.950  31.002  1.00  0.00     0.059 A 
ATOM     46  F   UNL A   1      41.362  29.477  31.521  1.00  0.00    -0.206 F 
ATOM     47  C   UNL A   1      38.132  30.136  30.040  1.00  0.00     0.060 A 
BRANCH  47  48
ATOM     48  S   UNL A   1      36.489  30.698  30.529  1.00  0.00     0.124 S 
ATOM     49  O   UNL A   1      36.798  31.979  31.158  1.00  0.00    -0.237 OA
ATOM     50  O   UNL A   1      35.790  30.773  29.251  1.00  0.00    -0.237 OA
ATOM     51  O   UNL A   1      36.027  29.650  31.433  1.00  0.00    -0.744 OA
ENDBRANCH  47  48
ENDBRANCH  26  40
BRANCH  27  52
ATOM     52  C   UNL A   1      50.083  26.875  26.862  1.00  0.00     0.058 A 
ATOM     53  C   UNL A   1      51.152  26.622  27.726  1.00  0.00     0.135 A 
ATOM     54  C   UNL A   1      50.339  26.790  25.479  1.00  0.00     0.135 A 
ATOM     55  F   UNL A   1      50.982  26.726  29.052  1.00  0.00    -0.206 F 
ATOM     56  C   UNL A   1      52.394  26.191  27.246  1.00  0.00     0.059 A 
ATOM     57  C   UNL A   1      51.564  26.363  24.975  1.00  0.00     0.059 A 
ATOM     58  F   UNL A   1      49.353  27.038  24.603  1.00  0.00    -0.206 F 
ATOM     59  C   UNL A   1      52.571  26.015  25.870  1.00  0.00     0.060 A 
BRANCH  59  60
ATOM     60  S   UNL A   1      54.004  25.104  25.238  1.00  0.00     0.124 S 
ATOM     61  O   UNL A   1      54.149  25.663  23.900  1.00  0.00    -0.237 OA
ATOM     62  O   UNL A   1      55.059  25.448  26.188  1.00  0.00    -0.237 OA
ATOM     63  O   UNL A   1      53.550  23.716  25.298  1.00  0.00    -0.744 OA
ENDBRANCH  59  60
ENDBRANCH  27  52
BRANCH  39  64
ATOM     64  C   UNL A   1      46.952  32.865  28.136  1.00  0.00     0.058 A 
ATOM     65  C   UNL A   1      47.641  33.308  29.271  1.00  0.00     0.135 A 
ATOM     66  C   UNL A   1      46.769  33.758  27.068  1.00  0.00     0.135 A 
ATOM     67  F   UNL A   1      47.799  32.496  30.328  1.00  0.00    -0.206 F 
ATOM     68  C   UNL A   1      48.143  34.601  29.342  1.00  0.00     0.059 A 
ATOM     69  C   UNL A   1      47.280  35.045  27.110  1.00  0.00     0.059 A 
ATOM     70  F   UNL A   1      46.093  33.374  25.973  1.00  0.00    -0.206 F 
ATOM     71  C   UNL A   1      47.963  35.458  28.253  1.00  0.00     0.060 A 
BRANCH  71  72
ATOM     72  S   UNL A   1      48.679  37.110  28.323  1.00  0.00     0.124 S 
ATOM     73  O   UNL A   1      49.948  36.852  28.992  1.00  0.00    -0.237 OA
ATOM     74  O   UNL A   1      48.766  37.473  26.911  1.00  0.00    -0.237 OA
ATOM     75  O   UNL A   1      47.701  37.870  29.098  1.00  0.00    -0.744 OA
ENDBRANCH  71  72
ENDBRANCH  39  64
ENDBRANCH  13  14
ENDBRANCH   6   8
ENDBRANCH   5   6
ENDBRANCH   4   5
ENDBRANCH   3   4
ENDBRANCH   2   3
ENDBRANCH   1   2
BRANCH   1  76
ATOM     76  C   UNL A   1      35.773  21.677  24.338  1.00  0.00     0.188 C 
BRANCH  76  77
ATOM     77  O   UNL A   1      35.377  20.851  25.434  1.00  0.00    -0.376 OA
BRANCH  77  78
ATOM     78  C   UNL A   1      34.049  21.013  25.925  1.00  0.00     0.202 C 
BRANCH  78  79
ATOM     79  C   UNL A   1      33.160  22.070  25.257  1.00  0.00     0.261 C 
BRANCH  79  80
ATOM     80  O   UNL A   1      33.271  23.392  25.805  1.00  0.00    -0.460 OA
BRANCH  80  81
ATOM     81  C   UNL A   1      32.215  23.762  26.567  1.00  0.00     0.338 C 
ATOM     82  O   UNL A   1      31.892  23.274  27.650  1.00  0.00    -0.246 OA
BRANCH  81  83
ATOM     83  C   UNL A   1      31.390  24.790  25.913  1.00  0.00     0.060 A 
ATOM     84  C   UNL A   1      30.000  24.876  26.015  1.00  0.00     0.018 A 
ATOM     85  C   UNL A   1      32.075  25.686  25.101  1.00  0.00     0.022 A 
ATOM     86  C   UNL A   1      29.309  25.840  25.261  1.00  0.00     0.027 A 
ATOM     87  C   UNL A   1      31.392  26.686  24.396  1.00  0.00    -0.017 A 
ATOM     88  C   UNL A   1      29.986  26.742  24.423  1.00  0.00     0.038 A 
ATOM     89  C   UNL A   1      32.204  27.743  23.685  1.00  0.00     0.049 C 
ATOM     90  N   UNL A   1      29.281  27.742  23.759  1.00  0.00    -0.378 N 
ATOM     91  C   UNL A   1      33.252  28.339  24.592  1.00  0.00    -0.023 C 
ATOM     92  C   UNL A   1      31.367  28.992  23.422  1.00  0.00     0.031 C 
ATOM     93  C   UNL A   1      29.977  28.685  22.880  1.00  0.00     0.114 C 
ATOM     94  H   UNL A   1      28.307  27.817  23.883  1.00  0.00     0.161 HD
ATOM     95  C   UNL A   1      32.775  29.421  25.213  1.00  0.00    -0.030 C 
ATOM     96  C   UNL A   1      31.376  29.708  24.768  1.00  0.00     0.034 C 
BRANCH  93  97
ATOM     97  C   UNL A   1      29.197  29.973  22.601  1.00  0.00    -0.022 A 
ATOM     98  C   UNL A   1      29.248  30.539  21.312  1.00  0.00     0.026 A 
ATOM     99  C   UNL A   1      28.443  30.658  23.559  1.00  0.00     0.026 A 
ATOM    100  C   UNL A   1      28.562  31.716  21.045  1.00  0.00     0.111 A 
ATOM    101  C   UNL A   1      27.774  31.822  23.190  1.00  0.00     0.111 A 
ATOM    102  N   UNL A   1      27.799  32.355  21.950  1.00  0.00    -0.265 NA
ENDBRANCH  93  97
ENDBRANCH  81  83
ENDBRANCH  80  81
ENDBRANCH  79  80
ENDBRANCH  78  79
ENDBRANCH  77  78
ENDBRANCH  76  77
ENDBRANCH   1  76
TORSDOF 21
ENDMDL
