MODEL 1
REMARK VINA RESULT:      -9.1      0.000      0.000
REMARK SMILES CC(C)C[C@H](NC(=O)[C@H](Cc1ccccc1)NC(=O)CNC(=O)C[NH3+])C(=O)OCCOCCOCCOC(=O)c1ccc(-c2c3nc(c(-c4c(F)cc(S(=O)(=O)[O-])cc4F)c4ccc([nH]4)c(-c4c(F)cc(S(=O)(=O)[O-])cc4F)c4nc(c(-c5c(F)cc(S(=O)(=O)[O-])cc5F)c5ccc2[nH]5)C=C4)C=C3)cc1
REMARK SMILES IDX 30 1 29 2 28 3 26 4 27 5 5 6 4 7 2 8 1 9 3 10 6 11 7 12 8 14
REMARK SMILES IDX 9 15 17 16 18 17 19 19 20 20 21 21 22 22 23 24 24 25 25 26
REMARK SMILES IDX 10 30 11 31 12 32 16 33 13 34 15 35 14 36 31 37 32 38 33 39
REMARK SMILES IDX 34 40 35 41 36 42 37 43 38 44 39 45 40 46 41 47 105 48 42 49
REMARK SMILES IDX 104 50 43 51 44 52 45 53 98 54 46 55 103 56 97 57 99 58
REMARK SMILES IDX 47 59 102 60 96 61 95 62 48 64 82 65 61 66 81 67 62 68 65 69
REMARK SMILES IDX 80 70 100 71 63 72 64 73 79 75 101 76 66 77 49 78 50 79
REMARK SMILES IDX 59 80 51 81 52 82 58 83 60 84 53 85 54 86 55 87 56 88 57 89
REMARK SMILES IDX 83 90 84 91 93 92 85 93 86 94 92 95 94 96 87 97 88 98 89 99
REMARK SMILES IDX 90 100 91 101 67 102 68 103 77 104 69 105 70 106 76 107
REMARK SMILES IDX 78 108 71 109 72 110 73 111 74 112 75 113
REMARK H PARENT 6 13 17 18 21 23 25 27 25 28 25 29 99 63 65 74
REMARK Flexibility Score: inf
ROOT
ATOM      1  C   UNL A   1      38.644  22.984  25.887  1.00  0.00     0.202 C 
ENDROOT
BRANCH   1   2
ATOM      2  C   UNL A   1      37.115  23.222  25.865  1.00  0.00     0.261 C 
BRANCH   2   3
ATOM      3  O   UNL A   1      36.558  24.061  24.838  1.00  0.00    -0.462 OA
BRANCH   3   4
ATOM      4  C   UNL A   1      35.915  23.408  23.842  1.00  0.00     0.328 C 
ATOM      5  O   UNL A   1      36.491  22.982  22.845  1.00  0.00    -0.250 OA
BRANCH   4   6
ATOM      6  C   UNL A   1      34.377  23.324  24.038  1.00  0.00     0.192 C 
BRANCH   6   7
ATOM      7  C   UNL A   1      34.057  21.843  23.792  1.00  0.00     0.040 C 
BRANCH   7   8
ATOM      8  C   UNL A   1      34.116  20.927  25.032  1.00  0.00    -0.015 C 
ATOM      9  C   UNL A   1      32.845  20.108  25.267  1.00  0.00     0.007 C 
ATOM     10  C   UNL A   1      35.324  19.999  24.921  1.00  0.00     0.007 C 
ENDBRANCH   7   8
ENDBRANCH   6   7
BRANCH   6  11
ATOM     11  N   UNL A   1      33.503  24.168  23.186  1.00  0.00    -0.341 N 
ATOM     12  C   UNL A   1      33.176  25.498  23.158  1.00  0.00     0.243 C 
ATOM     13  H   UNL A   1      33.054  23.653  22.477  1.00  0.00     0.164 HD
ATOM     14  O   UNL A   1      32.427  25.817  22.221  1.00  0.00    -0.273 OA
BRANCH  12  15
ATOM     15  C   UNL A   1      33.683  26.640  24.134  1.00  0.00     0.175 C 
BRANCH  15  16
ATOM     16  N   UNL A   1      33.386  27.950  23.486  1.00  0.00    -0.342 N 
ATOM     17  C   UNL A   1      32.268  28.723  23.433  1.00  0.00     0.240 C 
ATOM     18  H   UNL A   1      34.152  28.332  23.000  1.00  0.00     0.164 HD
ATOM     19  O   UNL A   1      32.105  29.388  22.400  1.00  0.00    -0.273 OA
BRANCH  17  20
ATOM     20  C   UNL A   1      31.361  29.003  24.639  1.00  0.00     0.216 C 
BRANCH  20  21
ATOM     21  N   UNL A   1      31.212  30.355  25.122  1.00  0.00    -0.342 N 
ATOM     22  C   UNL A   1      31.742  30.899  26.252  1.00  0.00     0.275 C 
ATOM     23  H   UNL A   1      30.662  30.955  24.568  1.00  0.00     0.164 HD
ATOM     24  O   UNL A   1      31.362  32.018  26.592  1.00  0.00    -0.268 OA
BRANCH  22  25
ATOM     25  C   UNL A   1      32.732  30.089  27.093  1.00  0.00     0.360 C 
BRANCH  25  26
ATOM     26  N   UNL A   1      34.102  30.543  26.820  1.00  0.00    -0.350 N 
ATOM     27  H   UNL A   1      34.511  29.965  26.086  1.00  0.00     0.344 HD
ATOM     28  H   UNL A   1      34.662  30.462  27.668  1.00  0.00     0.344 HD
ATOM     29  H   UNL A   1      34.083  31.516  26.516  1.00  0.00     0.344 HD
ENDBRANCH  25  26
ENDBRANCH  22  25
ENDBRANCH  20  21
ENDBRANCH  17  20
ENDBRANCH  15  16
BRANCH  15  30
ATOM     30  C   UNL A   1      33.093  26.648  25.545  1.00  0.00     0.070 C 
BRANCH  30  31
ATOM     31  C   UNL A   1      32.228  25.476  25.964  1.00  0.00    -0.045 A 
ATOM     32  C   UNL A   1      32.721  24.323  26.596  1.00  0.00     0.004 A 
ATOM     33  C   UNL A   1      30.847  25.571  25.745  1.00  0.00     0.004 A 
ATOM     34  C   UNL A   1      31.868  23.297  26.993  1.00  0.00     0.000 A 
ATOM     35  C   UNL A   1      29.992  24.543  26.139  1.00  0.00     0.000 A 
ATOM     36  C   UNL A   1      30.502  23.406  26.762  1.00  0.00     0.000 A 
ENDBRANCH  30  31
ENDBRANCH  15  30
ENDBRANCH  12  15
ENDBRANCH   6  11
ENDBRANCH   4   6
ENDBRANCH   3   4
ENDBRANCH   2   3
ENDBRANCH   1   2
BRANCH   1  37
ATOM     37  O   UNL A   1      39.482  23.612  26.843  1.00  0.00    -0.376 OA
BRANCH  37  38
ATOM     38  C   UNL A   1      40.803  23.126  26.968  1.00  0.00     0.188 C 
BRANCH  38  39
ATOM     39  C   UNL A   1      40.899  21.965  27.972  1.00  0.00     0.188 C 
BRANCH  39  40
ATOM     40  O   UNL A   1      40.658  20.643  27.527  1.00  0.00    -0.376 OA
BRANCH  40  41
ATOM     41  C   UNL A   1      41.747  19.727  27.542  1.00  0.00     0.202 C 
BRANCH  41  42
ATOM     42  C   UNL A   1      42.401  19.164  26.251  1.00  0.00     0.261 C 
BRANCH  42  43
ATOM     43  O   UNL A   1      42.727  20.081  25.192  1.00  0.00    -0.460 OA
BRANCH  43  44
ATOM     44  C   UNL A   1      44.038  20.153  24.835  1.00  0.00     0.338 C 
ATOM     45  O   UNL A   1      44.662  19.340  24.185  1.00  0.00    -0.246 OA
BRANCH  44  46
ATOM     46  C   UNL A   1      44.550  21.510  25.156  1.00  0.00     0.060 A 
ATOM     47  C   UNL A   1      45.304  21.687  26.327  1.00  0.00     0.016 A 
ATOM     48  C   UNL A   1      44.291  22.598  24.327  1.00  0.00     0.016 A 
ATOM     49  C   UNL A   1      45.808  22.943  26.663  1.00  0.00     0.010 A 
ATOM     50  C   UNL A   1      44.756  23.869  24.695  1.00  0.00     0.010 A 
ATOM     51  C   UNL A   1      45.502  24.053  25.874  1.00  0.00    -0.014 A 
BRANCH  51  52
ATOM     52  C   UNL A   1      45.828  25.420  26.358  1.00  0.00     0.031 A 
ATOM     53  C   UNL A   1      44.708  26.289  26.865  1.00  0.00     0.074 A 
ATOM     54  C   UNL A   1      47.091  25.887  26.354  1.00  0.00     0.049 A 
ATOM     55  N   UNL A   1      44.727  27.549  27.214  1.00  0.00    -0.248 NA
ATOM     56  C   UNL A   1      43.388  25.650  26.993  1.00  0.00     0.031 C 
ATOM     57  C   UNL A   1      48.273  25.125  25.958  1.00  0.00     0.029 A 
ATOM     58  N   UNL A   1      47.584  27.128  26.676  1.00  0.00    -0.354 N 
ATOM     59  C   UNL A   1      43.422  27.860  27.579  1.00  0.00     0.074 A 
ATOM     60  C   UNL A   1      42.634  26.662  27.400  1.00  0.00     0.031 C 
ATOM     61  C   UNL A   1      49.352  25.924  26.031  1.00  0.00     0.029 A 
ATOM     62  C   UNL A   1      48.932  27.264  26.438  1.00  0.00     0.049 A 
ATOM     63  H   UNL A   1      47.026  27.852  27.042  1.00  0.00     0.167 HD
ATOM     64  C   UNL A   1      42.928  29.042  28.020  1.00  0.00     0.037 A 
ATOM     65  C   UNL A   1      49.726  28.353  26.503  1.00  0.00     0.037 A 
ATOM     66  C   UNL A   1      43.720  30.230  28.207  1.00  0.00     0.049 A 
ATOM     67  C   UNL A   1      49.134  29.678  26.921  1.00  0.00     0.074 A 
ATOM     68  C   UNL A   1      43.311  31.468  28.673  1.00  0.00     0.029 A 
ATOM     69  N   UNL A   1      45.074  30.336  27.929  1.00  0.00    -0.354 N 
ATOM     70  N   UNL A   1      47.902  29.958  27.277  1.00  0.00    -0.248 NA
ATOM     71  C   UNL A   1      50.039  30.837  26.942  1.00  0.00     0.031 C 
ATOM     72  C   UNL A   1      44.404  32.339  28.620  1.00  0.00     0.029 A 
ATOM     73  C   UNL A   1      45.509  31.627  28.181  1.00  0.00     0.049 A 
ATOM     74  H   UNL A   1      45.642  29.603  27.601  1.00  0.00     0.167 HD
ATOM     75  C   UNL A   1      47.894  31.315  27.590  1.00  0.00     0.074 A 
ATOM     76  C   UNL A   1      49.245  31.796  27.398  1.00  0.00     0.031 C 
ATOM     77  C   UNL A   1      46.860  32.094  27.996  1.00  0.00     0.037 A 
BRANCH  64  78
ATOM     78  C   UNL A   1      41.454  29.129  28.305  1.00  0.00     0.058 A 
ATOM     79  C   UNL A   1      40.951  29.164  29.615  1.00  0.00     0.135 A 
ATOM     80  C   UNL A   1      40.538  29.258  27.248  1.00  0.00     0.135 A 
ATOM     81  F   UNL A   1      41.780  29.022  30.662  1.00  0.00    -0.206 F 
ATOM     82  C   UNL A   1      39.592  29.319  29.867  1.00  0.00     0.059 A 
ATOM     83  C   UNL A   1      39.178  29.441  27.476  1.00  0.00     0.059 A 
ATOM     84  F   UNL A   1      40.966  29.225  25.976  1.00  0.00    -0.206 F 
ATOM     85  C   UNL A   1      38.714  29.465  28.790  1.00  0.00     0.060 A 
BRANCH  85  86
ATOM     86  S   UNL A   1      36.959  29.708  29.137  1.00  0.00     0.124 S 
ATOM     87  O   UNL A   1      36.855  31.164  29.106  1.00  0.00    -0.237 OA
ATOM     88  O   UNL A   1      36.323  29.004  28.029  1.00  0.00    -0.237 OA
ATOM     89  O   UNL A   1      36.782  29.096  30.451  1.00  0.00    -0.744 OA
ENDBRANCH  85  86
ENDBRANCH  64  78
BRANCH  65  90
ATOM     90  C   UNL A   1      51.163  28.262  26.120  1.00  0.00     0.058 A 
ATOM     91  C   UNL A   1      51.566  28.323  24.777  1.00  0.00     0.135 A 
ATOM     92  C   UNL A   1      52.161  28.066  27.088  1.00  0.00     0.135 A 
ATOM     93  F   UNL A   1      50.651  28.492  23.810  1.00  0.00    -0.206 F 
ATOM     94  C   UNL A   1      52.898  28.167  24.406  1.00  0.00     0.059 A 
ATOM     95  C   UNL A   1      53.504  27.939  26.745  1.00  0.00     0.059 A 
ATOM     96  F   UNL A   1      51.836  28.004  28.389  1.00  0.00    -0.206 F 
ATOM     97  C   UNL A   1      53.861  27.974  25.398  1.00  0.00     0.060 A 
BRANCH  97  98
ATOM     98  S   UNL A   1      55.589  27.795  24.906  1.00  0.00     0.124 S 
ATOM     99  O   UNL A   1      56.271  28.559  25.944  1.00  0.00    -0.237 OA
ATOM    100  O   UNL A   1      55.772  26.348  24.954  1.00  0.00    -0.237 OA
ATOM    101  O   UNL A   1      55.620  28.379  23.569  1.00  0.00    -0.744 OA
ENDBRANCH  97  98
ENDBRANCH  65  90
BRANCH  77 102
ATOM    102  C   UNL A   1      47.150  33.541  28.300  1.00  0.00     0.058 A 
ATOM    103  C   UNL A   1      47.576  33.961  29.570  1.00  0.00     0.135 A 
ATOM    104  C   UNL A   1      47.053  34.513  27.290  1.00  0.00     0.135 A 
ATOM    105  F   UNL A   1      47.681  33.075  30.574  1.00  0.00    -0.206 F 
ATOM    106  C   UNL A   1      47.869  35.295  29.836  1.00  0.00     0.059 A 
ATOM    107  C   UNL A   1      47.373  35.848  27.525  1.00  0.00     0.059 A 
ATOM    108  F   UNL A   1      46.663  34.167  26.053  1.00  0.00    -0.206 F 
ATOM    109  C   UNL A   1      47.768  36.231  28.805  1.00  0.00     0.060 A 
BRANCH 109 110
ATOM    110  S   UNL A   1      48.182  37.953  29.156  1.00  0.00     0.124 S 
ATOM    111  O   UNL A   1      48.994  38.303  27.996  1.00  0.00    -0.237 OA
ATOM    112  O   UNL A   1      46.866  38.583  29.223  1.00  0.00    -0.237 OA
ATOM    113  O   UNL A   1      48.900  37.879  30.425  1.00  0.00    -0.744 OA
ENDBRANCH 109 110
ENDBRANCH  77 102
ENDBRANCH  51  52
ENDBRANCH  44  46
ENDBRANCH  43  44
ENDBRANCH  42  43
ENDBRANCH  41  42
ENDBRANCH  40  41
ENDBRANCH  39  40
ENDBRANCH  38  39
ENDBRANCH  37  38
ENDBRANCH   1  37
TORSDOF 31
ENDMDL
MODEL 2
REMARK VINA RESULT:      -8.5      6.289      8.840
REMARK SMILES CC(C)C[C@H](NC(=O)[C@H](Cc1ccccc1)NC(=O)CNC(=O)C[NH3+])C(=O)OCCOCCOCCOC(=O)c1ccc(-c2c3nc(c(-c4c(F)cc(S(=O)(=O)[O-])cc4F)c4ccc([nH]4)c(-c4c(F)cc(S(=O)(=O)[O-])cc4F)c4nc(c(-c5c(F)cc(S(=O)(=O)[O-])cc5F)c5ccc2[nH]5)C=C4)C=C3)cc1
REMARK SMILES IDX 30 1 29 2 28 3 26 4 27 5 5 6 4 7 2 8 1 9 3 10 6 11 7 12 8 14
REMARK SMILES IDX 9 15 17 16 18 17 19 19 20 20 21 21 22 22 23 24 24 25 25 26
REMARK SMILES IDX 10 30 11 31 12 32 16 33 13 34 15 35 14 36 31 37 32 38 33 39
REMARK SMILES IDX 34 40 35 41 36 42 37 43 38 44 39 45 40 46 41 47 105 48 42 49
REMARK SMILES IDX 104 50 43 51 44 52 45 53 98 54 46 55 103 56 97 57 99 58
REMARK SMILES IDX 47 59 102 60 96 61 95 62 48 64 82 65 61 66 81 67 62 68 65 69
REMARK SMILES IDX 80 70 100 71 63 72 64 73 79 75 101 76 66 77 49 78 50 79
REMARK SMILES IDX 59 80 51 81 52 82 58 83 60 84 53 85 54 86 55 87 56 88 57 89
REMARK SMILES IDX 83 90 84 91 93 92 85 93 86 94 92 95 94 96 87 97 88 98 89 99
REMARK SMILES IDX 90 100 91 101 67 102 68 103 77 104 69 105 70 106 76 107
REMARK SMILES IDX 78 108 71 109 72 110 73 111 74 112 75 113
REMARK H PARENT 6 13 17 18 21 23 25 27 25 28 25 29 99 63 65 74
REMARK Flexibility Score: inf
ROOT
ATOM      1  C   UNL A   1      36.671  23.566  25.577  1.00  0.00     0.202 C 
ENDROOT
BRANCH   1   2
ATOM      2  C   UNL A   1      35.536  24.440  24.992  1.00  0.00     0.261 C 
BRANCH   2   3
ATOM      3  O   UNL A   1      34.415  24.773  25.829  1.00  0.00    -0.462 OA
BRANCH   3   4
ATOM      4  C   UNL A   1      34.100  26.088  25.878  1.00  0.00     0.328 C 
ATOM      5  O   UNL A   1      34.922  26.960  26.143  1.00  0.00    -0.250 OA
BRANCH   4   6
ATOM      6  C   UNL A   1      32.591  26.380  25.654  1.00  0.00     0.192 C 
BRANCH   6   7
ATOM      7  C   UNL A   1      32.257  27.427  26.726  1.00  0.00     0.040 C 
BRANCH   7   8
ATOM      8  C   UNL A   1      31.763  28.792  26.203  1.00  0.00    -0.015 C 
ATOM      9  C   UNL A   1      32.072  29.968  27.132  1.00  0.00     0.007 C 
ATOM     10  C   UNL A   1      32.352  29.049  24.818  1.00  0.00     0.007 C 
ENDBRANCH   7   8
ENDBRANCH   6   7
BRANCH   6  11
ATOM     11  N   UNL A   1      31.627  25.256  25.742  1.00  0.00    -0.341 N 
ATOM     12  C   UNL A   1      31.063  24.395  24.838  1.00  0.00     0.243 C 
ATOM     13  H   UNL A   1      31.322  25.090  26.663  1.00  0.00     0.164 HD
ATOM     14  O   UNL A   1      30.323  23.538  25.347  1.00  0.00    -0.273 OA
BRANCH  12  15
ATOM     15  C   UNL A   1      31.295  24.350  23.271  1.00  0.00     0.175 C 
BRANCH  15  16
ATOM     16  N   UNL A   1      31.394  25.759  22.791  1.00  0.00    -0.342 N 
ATOM     17  C   UNL A   1      30.472  26.741  22.610  1.00  0.00     0.240 C 
ATOM     18  H   UNL A   1      32.311  26.033  22.559  1.00  0.00     0.164 HD
ATOM     19  O   UNL A   1      30.689  27.541  21.688  1.00  0.00    -0.273 OA
BRANCH  17  20
ATOM     20  C   UNL A   1      29.348  27.057  23.607  1.00  0.00     0.216 C 
BRANCH  20  21
ATOM     21  N   UNL A   1      28.185  27.790  23.165  1.00  0.00    -0.342 N 
ATOM     22  C   UNL A   1      28.065  29.135  22.991  1.00  0.00     0.275 C 
ATOM     23  H   UNL A   1      27.385  27.254  22.965  1.00  0.00     0.164 HD
ATOM     24  O   UNL A   1      26.944  29.596  22.779  1.00  0.00    -0.268 OA
BRANCH  22  25
ATOM     25  C   UNL A   1      29.297  30.033  23.131  1.00  0.00     0.360 C 
BRANCH  25  26
ATOM     26  N   UNL A   1      29.698  30.533  21.810  1.00  0.00    -0.350 N 
ATOM     27  H   UNL A   1      29.340  31.479  21.682  1.00  0.00     0.344 HD
ATOM     28  H   UNL A   1      29.315  29.924  21.086  1.00  0.00     0.344 HD
ATOM     29  H   UNL A   1      30.716  30.541  21.743  1.00  0.00     0.344 HD
ENDBRANCH  25  26
ENDBRANCH  22  25
ENDBRANCH  20  21
ENDBRANCH  17  20
ENDBRANCH  15  16
BRANCH  15  30
ATOM     30  C   UNL A   1      32.522  23.580  22.779  1.00  0.00     0.070 C 
BRANCH  30  31
ATOM     31  C   UNL A   1      32.663  22.128  23.187  1.00  0.00    -0.045 A 
ATOM     32  C   UNL A   1      33.297  21.700  24.365  1.00  0.00     0.004 A 
ATOM     33  C   UNL A   1      32.086  21.156  22.357  1.00  0.00     0.004 A 
ATOM     34  C   UNL A   1      33.358  20.351  24.703  1.00  0.00     0.000 A 
ATOM     35  C   UNL A   1      32.149  19.804  22.694  1.00  0.00     0.000 A 
ATOM     36  C   UNL A   1      32.786  19.402  23.866  1.00  0.00     0.000 A 
ENDBRANCH  30  31
ENDBRANCH  15  30
ENDBRANCH  12  15
ENDBRANCH   6  11
ENDBRANCH   4   6
ENDBRANCH   3   4
ENDBRANCH   2   3
ENDBRANCH   1   2
BRANCH   1  37
ATOM     37  O   UNL A   1      37.208  22.465  24.862  1.00  0.00    -0.376 OA
BRANCH  37  38
ATOM     38  C   UNL A   1      38.134  21.640  25.539  1.00  0.00     0.188 C 
BRANCH  38  39
ATOM     39  C   UNL A   1      39.035  22.443  26.492  1.00  0.00     0.188 C 
BRANCH  39  40
ATOM     40  O   UNL A   1      40.441  22.343  26.365  1.00  0.00    -0.376 OA
BRANCH  40  41
ATOM     41  C   UNL A   1      41.168  23.529  26.066  1.00  0.00     0.202 C 
BRANCH  41  42
ATOM     42  C   UNL A   1      42.702  23.547  25.825  1.00  0.00     0.261 C 
BRANCH  42  43
ATOM     43  O   UNL A   1      43.476  24.602  26.422  1.00  0.00    -0.460 OA
BRANCH  43  44
ATOM     44  C   UNL A   1      43.129  25.873  26.083  1.00  0.00     0.338 C 
ATOM     45  O   UNL A   1      43.071  26.341  24.964  1.00  0.00    -0.246 OA
BRANCH  44  46
ATOM     46  C   UNL A   1      42.588  26.560  27.284  1.00  0.00     0.060 A 
ATOM     47  C   UNL A   1      42.430  27.955  27.250  1.00  0.00     0.016 A 
ATOM     48  C   UNL A   1      42.245  25.852  28.433  1.00  0.00     0.016 A 
ATOM     49  C   UNL A   1      41.921  28.639  28.353  1.00  0.00     0.010 A 
ATOM     50  C   UNL A   1      41.782  26.549  29.559  1.00  0.00     0.010 A 
ATOM     51  C   UNL A   1      41.633  27.948  29.532  1.00  0.00    -0.014 A 
BRANCH  51  52
ATOM     52  C   UNL A   1      41.328  28.700  30.777  1.00  0.00     0.031 A 
ATOM     53  C   UNL A   1      40.204  29.702  30.756  1.00  0.00     0.074 A 
ATOM     54  C   UNL A   1      42.028  28.501  31.910  1.00  0.00     0.049 A 
ATOM     55  N   UNL A   1      39.838  30.561  31.671  1.00  0.00    -0.248 NA
ATOM     56  C   UNL A   1      39.383  29.740  29.534  1.00  0.00     0.031 C 
ATOM     57  C   UNL A   1      43.090  27.513  32.086  1.00  0.00     0.029 A 
ATOM     58  N   UNL A   1      41.961  29.141  33.124  1.00  0.00    -0.354 N 
ATOM     59  C   UNL A   1      38.764  31.257  31.130  1.00  0.00     0.074 A 
ATOM     60  C   UNL A   1      38.542  30.729  29.802  1.00  0.00     0.031 C 
ATOM     61  C   UNL A   1      43.597  27.633  33.326  1.00  0.00     0.029 A 
ATOM     62  C   UNL A   1      42.924  28.731  34.017  1.00  0.00     0.049 A 
ATOM     63  H   UNL A   1      41.287  29.826  33.336  1.00  0.00     0.167 HD
ATOM     64  C   UNL A   1      38.033  32.250  31.691  1.00  0.00     0.037 A 
ATOM     65  C   UNL A   1      43.251  29.215  35.234  1.00  0.00     0.037 A 
ATOM     66  C   UNL A   1      38.253  32.765  33.017  1.00  0.00     0.049 A 
ATOM     67  C   UNL A   1      42.471  30.376  35.803  1.00  0.00     0.074 A 
ATOM     68  C   UNL A   1      37.546  33.754  33.680  1.00  0.00     0.029 A 
ATOM     69  N   UNL A   1      39.254  32.345  33.878  1.00  0.00    -0.354 N 
ATOM     70  N   UNL A   1      41.448  31.018  35.289  1.00  0.00    -0.248 NA
ATOM     71  C   UNL A   1      42.893  30.882  37.119  1.00  0.00     0.031 C 
ATOM     72  C   UNL A   1      38.158  33.974  34.918  1.00  0.00     0.029 A 
ATOM     73  C   UNL A   1      39.207  33.079  35.053  1.00  0.00     0.049 A 
ATOM     74  H   UNL A   1      39.904  31.631  33.684  1.00  0.00     0.167 HD
ATOM     75  C   UNL A   1      41.090  31.981  36.229  1.00  0.00     0.074 A 
ATOM     76  C   UNL A   1      41.992  31.827  37.349  1.00  0.00     0.031 C 
ATOM     77  C   UNL A   1      40.104  32.911  36.168  1.00  0.00     0.037 A 
BRANCH  64  78
ATOM     78  C   UNL A   1      36.943  32.876  30.867  1.00  0.00     0.058 A 
ATOM     79  C   UNL A   1      37.213  33.844  29.887  1.00  0.00     0.135 A 
ATOM     80  C   UNL A   1      35.614  32.441  31.008  1.00  0.00     0.135 A 
ATOM     81  F   UNL A   1      38.461  34.312  29.724  1.00  0.00    -0.206 F 
ATOM     82  C   UNL A   1      36.205  34.362  29.080  1.00  0.00     0.059 A 
ATOM     83  C   UNL A   1      34.594  32.925  30.195  1.00  0.00     0.059 A 
ATOM     84  F   UNL A   1      35.300  31.521  31.935  1.00  0.00    -0.206 F 
ATOM     85  C   UNL A   1      34.900  33.890  29.237  1.00  0.00     0.060 A 
BRANCH  85  86
ATOM     86  S   UNL A   1      33.612  34.542  28.152  1.00  0.00     0.124 S 
ATOM     87  O   UNL A   1      34.362  34.783  26.922  1.00  0.00    -0.237 OA
ATOM     88  O   UNL A   1      32.658  33.439  28.106  1.00  0.00    -0.237 OA
ATOM     89  O   UNL A   1      33.152  35.739  28.849  1.00  0.00    -0.744 OA
ENDBRANCH  85  86
ENDBRANCH  64  78
BRANCH  65  90
ATOM     90  C   UNL A   1      44.401  28.642  35.989  1.00  0.00     0.058 A 
ATOM     91  C   UNL A   1      44.230  27.570  36.877  1.00  0.00     0.135 A 
ATOM     92  C   UNL A   1      45.690  29.186  35.869  1.00  0.00     0.135 A 
ATOM     93  F   UNL A   1      43.015  27.023  37.042  1.00  0.00    -0.206 F 
ATOM     94  C   UNL A   1      45.285  27.077  37.639  1.00  0.00     0.059 A 
ATOM     95  C   UNL A   1      46.768  28.690  36.596  1.00  0.00     0.059 A 
ATOM     96  F   UNL A   1      45.915  30.210  35.031  1.00  0.00    -0.206 F 
ATOM     97  C   UNL A   1      46.551  27.644  37.492  1.00  0.00     0.060 A 
BRANCH  97  98
ATOM     98  S   UNL A   1      47.918  26.981  38.469  1.00  0.00     0.124 S 
ATOM     99  O   UNL A   1      48.066  28.004  39.499  1.00  0.00    -0.237 OA
ATOM    100  O   UNL A   1      47.382  25.700  38.915  1.00  0.00    -0.237 OA
ATOM    101  O   UNL A   1      49.009  26.895  37.504  1.00  0.00    -0.744 OA
ENDBRANCH  97  98
ENDBRANCH  65  90
BRANCH  77 102
ATOM    102  C   UNL A   1      39.919  33.815  37.359  1.00  0.00     0.058 A 
ATOM    103  C   UNL A   1      38.999  33.519  38.378  1.00  0.00     0.135 A 
ATOM    104  C   UNL A   1      40.713  34.964  37.511  1.00  0.00     0.135 A 
ATOM    105  F   UNL A   1      38.211  32.436  38.282  1.00  0.00    -0.206 F 
ATOM    106  C   UNL A   1      38.853  34.343  39.489  1.00  0.00     0.059 A 
ATOM    107  C   UNL A   1      40.607  35.785  38.631  1.00  0.00     0.059 A 
ATOM    108  F   UNL A   1      41.619  35.289  36.575  1.00  0.00    -0.206 F 
ATOM    109  C   UNL A   1      39.665  35.473  39.609  1.00  0.00     0.060 A 
BRANCH 109 110
ATOM    110  S   UNL A   1      39.487  36.516  41.072  1.00  0.00     0.124 S 
ATOM    111  O   UNL A   1      38.546  37.526  40.601  1.00  0.00    -0.237 OA
ATOM    112  O   UNL A   1      38.968  35.577  42.062  1.00  0.00    -0.237 OA
ATOM    113  O   UNL A   1      40.845  36.991  41.319  1.00  0.00    -0.744 OA
ENDBRANCH 109 110
ENDBRANCH  77 102
ENDBRANCH  51  52
ENDBRANCH  44  46
ENDBRANCH  43  44
ENDBRANCH  42  43
ENDBRANCH  41  42
ENDBRANCH  40  41
ENDBRANCH  39  40
ENDBRANCH  38  39
ENDBRANCH  37  38
ENDBRANCH   1  37
TORSDOF 31
ENDMDL
MODEL 3
REMARK VINA RESULT:      -7.8      6.491      8.975
REMARK SMILES CC(C)C[C@H](NC(=O)[C@H](Cc1ccccc1)NC(=O)CNC(=O)C[NH3+])C(=O)OCCOCCOCCOC(=O)c1ccc(-c2c3nc(c(-c4c(F)cc(S(=O)(=O)[O-])cc4F)c4ccc([nH]4)c(-c4c(F)cc(S(=O)(=O)[O-])cc4F)c4nc(c(-c5c(F)cc(S(=O)(=O)[O-])cc5F)c5ccc2[nH]5)C=C4)C=C3)cc1
REMARK SMILES IDX 30 1 29 2 28 3 26 4 27 5 5 6 4 7 2 8 1 9 3 10 6 11 7 12 8 14
REMARK SMILES IDX 9 15 17 16 18 17 19 19 20 20 21 21 22 22 23 24 24 25 25 26
REMARK SMILES IDX 10 30 11 31 12 32 16 33 13 34 15 35 14 36 31 37 32 38 33 39
REMARK SMILES IDX 34 40 35 41 36 42 37 43 38 44 39 45 40 46 41 47 105 48 42 49
REMARK SMILES IDX 104 50 43 51 44 52 45 53 98 54 46 55 103 56 97 57 99 58
REMARK SMILES IDX 47 59 102 60 96 61 95 62 48 64 82 65 61 66 81 67 62 68 65 69
REMARK SMILES IDX 80 70 100 71 63 72 64 73 79 75 101 76 66 77 49 78 50 79
REMARK SMILES IDX 59 80 51 81 52 82 58 83 60 84 53 85 54 86 55 87 56 88 57 89
REMARK SMILES IDX 83 90 84 91 93 92 85 93 86 94 92 95 94 96 87 97 88 98 89 99
REMARK SMILES IDX 90 100 91 101 67 102 68 103 77 104 69 105 70 106 76 107
REMARK SMILES IDX 78 108 71 109 72 110 73 111 74 112 75 113
REMARK H PARENT 6 13 17 18 21 23 25 27 25 28 25 29 99 63 65 74
REMARK Flexibility Score: inf
ROOT
ATOM      1  C   UNL A   1      38.730  23.802  26.730  1.00  0.00     0.202 C 
ENDROOT
BRANCH   1   2
ATOM      2  C   UNL A   1      37.380  24.507  26.461  1.00  0.00     0.261 C 
BRANCH   2   3
ATOM      3  O   UNL A   1      36.203  23.703  26.265  1.00  0.00    -0.462 OA
BRANCH   3   4
ATOM      4  C   UNL A   1      35.415  24.073  25.229  1.00  0.00     0.328 C 
ATOM      5  O   UNL A   1      34.999  25.219  25.085  1.00  0.00    -0.250 OA
BRANCH   4   6
ATOM      6  C   UNL A   1      35.019  22.899  24.292  1.00  0.00     0.192 C 
BRANCH   6   7
ATOM      7  C   UNL A   1      36.304  22.068  24.183  1.00  0.00     0.040 C 
BRANCH   7   8
ATOM      8  C   UNL A   1      36.196  20.598  24.639  1.00  0.00    -0.015 C 
ATOM      9  C   UNL A   1      37.544  19.905  24.845  1.00  0.00     0.007 C 
ATOM     10  C   UNL A   1      35.367  20.523  25.919  1.00  0.00     0.007 C 
ENDBRANCH   7   8
ENDBRANCH   6   7
BRANCH   6  11
ATOM     11  N   UNL A   1      34.513  23.213  22.933  1.00  0.00    -0.341 N 
ATOM     12  C   UNL A   1      33.316  23.054  22.288  1.00  0.00     0.243 C 
ATOM     13  H   UNL A   1      35.198  23.632  22.362  1.00  0.00     0.164 HD
ATOM     14  O   UNL A   1      33.296  23.513  21.134  1.00  0.00    -0.273 OA
BRANCH  12  15
ATOM     15  C   UNL A   1      31.984  22.415  22.863  1.00  0.00     0.175 C 
BRANCH  15  16
ATOM     16  N   UNL A   1      32.359  21.582  24.043  1.00  0.00    -0.342 N 
ATOM     17  C   UNL A   1      32.255  20.252  24.307  1.00  0.00     0.240 C 
ATOM     18  H   UNL A   1      32.764  22.098  24.777  1.00  0.00     0.164 HD
ATOM     19  O   UNL A   1      32.070  19.937  25.491  1.00  0.00    -0.273 OA
BRANCH  17  20
ATOM     20  C   UNL A   1      32.594  19.148  23.296  1.00  0.00     0.216 C 
BRANCH  20  21
ATOM     21  N   UNL A   1      32.309  17.770  23.621  1.00  0.00    -0.342 N 
ATOM     22  C   UNL A   1      33.100  16.894  24.300  1.00  0.00     0.275 C 
ATOM     23  H   UNL A   1      31.441  17.424  23.316  1.00  0.00     0.164 HD
ATOM     24  O   UNL A   1      32.766  15.711  24.327  1.00  0.00    -0.268 OA
BRANCH  22  25
ATOM     25  C   UNL A   1      34.400  17.384  24.944  1.00  0.00     0.360 C 
BRANCH  25  26
ATOM     26  N   UNL A   1      35.306  16.249  25.155  1.00  0.00    -0.350 N 
ATOM     27  H   UNL A   1      34.920  15.417  24.709  1.00  0.00     0.344 HD
ATOM     28  H   UNL A   1      35.411  16.079  26.156  1.00  0.00     0.344 HD
ATOM     29  H   UNL A   1      36.218  16.461  24.749  1.00  0.00     0.344 HD
ENDBRANCH  25  26
ENDBRANCH  22  25
ENDBRANCH  20  21
ENDBRANCH  17  20
ENDBRANCH  15  16
BRANCH  15  30
ATOM     30  C   UNL A   1      30.882  23.388  23.284  1.00  0.00     0.070 C 
BRANCH  30  31
ATOM     31  C   UNL A   1      31.282  24.630  24.054  1.00  0.00    -0.045 A 
ATOM     32  C   UNL A   1      31.558  25.870  23.455  1.00  0.00     0.004 A 
ATOM     33  C   UNL A   1      31.338  24.544  25.452  1.00  0.00     0.004 A 
ATOM     34  C   UNL A   1      31.882  26.986  24.223  1.00  0.00     0.000 A 
ATOM     35  C   UNL A   1      31.665  25.660  26.222  1.00  0.00     0.000 A 
ATOM     36  C   UNL A   1      31.938  26.880  25.607  1.00  0.00     0.000 A 
ENDBRANCH  30  31
ENDBRANCH  15  30
ENDBRANCH  12  15
ENDBRANCH   6  11
ENDBRANCH   4   6
ENDBRANCH   3   4
ENDBRANCH   2   3
ENDBRANCH   1   2
BRANCH   1  37
ATOM     37  O   UNL A   1      38.989  22.486  26.268  1.00  0.00    -0.376 OA
BRANCH  37  38
ATOM     38  C   UNL A   1      40.192  21.875  26.688  1.00  0.00     0.188 C 
BRANCH  38  39
ATOM     39  C   UNL A   1      41.337  22.890  26.832  1.00  0.00     0.188 C 
BRANCH  39  40
ATOM     40  O   UNL A   1      42.323  22.970  25.820  1.00  0.00    -0.376 OA
BRANCH  40  41
ATOM     41  C   UNL A   1      42.759  24.263  25.416  1.00  0.00     0.202 C 
BRANCH  41  42
ATOM     42  C   UNL A   1      44.253  24.683  25.380  1.00  0.00     0.261 C 
BRANCH  42  43
ATOM     43  O   UNL A   1      44.740  25.573  26.399  1.00  0.00    -0.460 OA
BRANCH  43  44
ATOM     44  C   UNL A   1      45.208  24.991  27.537  1.00  0.00     0.338 C 
ATOM     45  O   UNL A   1      45.948  24.032  27.615  1.00  0.00    -0.246 OA
BRANCH  44  46
ATOM     46  C   UNL A   1      44.871  25.859  28.694  1.00  0.00     0.060 A 
ATOM     47  C   UNL A   1      44.140  25.309  29.760  1.00  0.00     0.016 A 
ATOM     48  C   UNL A   1      45.258  27.196  28.736  1.00  0.00     0.016 A 
ATOM     49  C   UNL A   1      43.807  26.087  30.868  1.00  0.00     0.010 A 
ATOM     50  C   UNL A   1      44.877  27.989  29.829  1.00  0.00     0.010 A 
ATOM     51  C   UNL A   1      44.134  27.444  30.893  1.00  0.00    -0.014 A 
BRANCH  51  52
ATOM     52  C   UNL A   1      43.570  28.324  31.950  1.00  0.00     0.031 A 
ATOM     53  C   UNL A   1      42.282  29.051  31.670  1.00  0.00     0.074 A 
ATOM     54  C   UNL A   1      44.182  28.476  33.140  1.00  0.00     0.049 A 
ATOM     55  N   UNL A   1      41.671  29.964  32.379  1.00  0.00    -0.248 NA
ATOM     56  C   UNL A   1      41.592  28.703  30.416  1.00  0.00     0.031 C 
ATOM     57  C   UNL A   1      45.392  27.776  33.565  1.00  0.00     0.029 A 
ATOM     58  N   UNL A   1      43.875  29.292  34.203  1.00  0.00    -0.354 N 
ATOM     59  C   UNL A   1      40.541  30.316  31.651  1.00  0.00     0.074 A 
ATOM     60  C   UNL A   1      40.554  29.528  30.439  1.00  0.00     0.031 C 
ATOM     61  C   UNL A   1      45.743  28.214  34.787  1.00  0.00     0.029 A 
ATOM     62  C   UNL A   1      44.808  29.255  35.213  1.00  0.00     0.049 A 
ATOM     63  H   UNL A   1      43.065  29.850  34.238  1.00  0.00     0.167 HD
ATOM     64  C   UNL A   1      39.582  31.219  31.966  1.00  0.00     0.037 A 
ATOM     65  C   UNL A   1      44.916  30.001  36.332  1.00  0.00     0.037 A 
ATOM     66  C   UNL A   1      39.568  31.994  33.180  1.00  0.00     0.049 A 
ATOM     67  C   UNL A   1      43.876  31.057  36.620  1.00  0.00     0.074 A 
ATOM     68  C   UNL A   1      38.623  32.916  33.597  1.00  0.00     0.029 A 
ATOM     69  N   UNL A   1      40.543  31.949  34.164  1.00  0.00    -0.354 N 
ATOM     70  N   UNL A   1      42.803  31.373  35.932  1.00  0.00    -0.248 NA
ATOM     71  C   UNL A   1      44.062  31.864  37.837  1.00  0.00     0.031 C 
ATOM     72  C   UNL A   1      39.058  33.472  34.804  1.00  0.00     0.029 A 
ATOM     73  C   UNL A   1      40.241  32.852  35.171  1.00  0.00     0.049 A 
ATOM     74  H   UNL A   1      41.333  31.362  34.150  1.00  0.00     0.167 HD
ATOM     75  C   UNL A   1      42.177  32.391  36.646  1.00  0.00     0.074 A 
ATOM     76  C   UNL A   1      42.979  32.627  37.827  1.00  0.00     0.031 C 
ATOM     77  C   UNL A   1      41.041  33.072  36.349  1.00  0.00     0.037 A 
BRANCH  64  78
ATOM     78  C   UNL A   1      38.477  31.451  30.974  1.00  0.00     0.058 A 
ATOM     79  C   UNL A   1      37.323  30.652  30.945  1.00  0.00     0.135 A 
ATOM     80  C   UNL A   1      38.540  32.539  30.088  1.00  0.00     0.135 A 
ATOM     81  F   UNL A   1      37.219  29.585  31.754  1.00  0.00    -0.206 F 
ATOM     82  C   UNL A   1      36.274  30.920  30.072  1.00  0.00     0.059 A 
ATOM     83  C   UNL A   1      37.493  32.843  29.224  1.00  0.00     0.059 A 
ATOM     84  F   UNL A   1      39.624  33.332  30.069  1.00  0.00    -0.206 F 
ATOM     85  C   UNL A   1      36.366  32.024  29.221  1.00  0.00     0.060 A 
BRANCH  85  86
ATOM     86  S   UNL A   1      34.976  32.383  28.124  1.00  0.00     0.124 S 
ATOM     87  O   UNL A   1      35.564  33.368  27.222  1.00  0.00    -0.237 OA
ATOM     88  O   UNL A   1      34.697  31.075  27.540  1.00  0.00    -0.237 OA
ATOM     89  O   UNL A   1      33.951  32.895  29.029  1.00  0.00    -0.744 OA
ENDBRANCH  85  86
ENDBRANCH  64  78
BRANCH  65  90
ATOM     90  C   UNL A   1      46.075  29.820  37.250  1.00  0.00     0.058 A 
ATOM     91  C   UNL A   1      47.269  30.534  37.067  1.00  0.00     0.135 A 
ATOM     92  C   UNL A   1      46.028  28.894  38.304  1.00  0.00     0.135 A 
ATOM     93  F   UNL A   1      47.374  31.419  36.064  1.00  0.00    -0.206 F 
ATOM     94  C   UNL A   1      48.381  30.318  37.876  1.00  0.00     0.059 A 
ATOM     95  C   UNL A   1      47.115  28.684  39.147  1.00  0.00     0.059 A 
ATOM     96  F   UNL A   1      44.910  28.186  38.530  1.00  0.00    -0.206 F 
ATOM     97  C   UNL A   1      48.294  29.389  38.914  1.00  0.00     0.060 A 
BRANCH  97  98
ATOM     98  S   UNL A   1      49.736  29.133  39.971  1.00  0.00     0.124 S 
ATOM     99  O   UNL A   1      49.445  30.026  41.087  1.00  0.00    -0.237 OA
ATOM    100  O   UNL A   1      49.654  27.705  40.259  1.00  0.00    -0.237 OA
ATOM    101  O   UNL A   1      50.852  29.530  39.119  1.00  0.00    -0.744 OA
ENDBRANCH  97  98
ENDBRANCH  65  90
BRANCH  77 102
ATOM    102  C   UNL A   1      40.571  34.113  37.332  1.00  0.00     0.058 A 
ATOM    103  C   UNL A   1      39.749  33.785  38.422  1.00  0.00     0.135 A 
ATOM    104  C   UNL A   1      40.994  35.447  37.212  1.00  0.00     0.135 A 
ATOM    105  F   UNL A   1      39.311  32.526  38.582  1.00  0.00    -0.206 F 
ATOM    106  C   UNL A   1      39.342  34.747  39.341  1.00  0.00     0.059 A 
ATOM    107  C   UNL A   1      40.625  36.419  38.138  1.00  0.00     0.059 A 
ATOM    108  F   UNL A   1      41.791  35.816  36.196  1.00  0.00    -0.206 F 
ATOM    109  C   UNL A   1      39.788  36.061  39.193  1.00  0.00     0.060 A 
BRANCH 109 110
ATOM    110  S   UNL A   1      39.278  37.291  40.412  1.00  0.00     0.124 S 
ATOM    111  O   UNL A   1      38.338  36.528  41.226  1.00  0.00    -0.237 OA
ATOM    112  O   UNL A   1      40.542  37.634  41.057  1.00  0.00    -0.237 OA
ATOM    113  O   UNL A   1      38.687  38.351  39.600  1.00  0.00    -0.744 OA
ENDBRANCH 109 110
ENDBRANCH  77 102
ENDBRANCH  51  52
ENDBRANCH  44  46
ENDBRANCH  43  44
ENDBRANCH  42  43
ENDBRANCH  41  42
ENDBRANCH  40  41
ENDBRANCH  39  40
ENDBRANCH  38  39
ENDBRANCH  37  38
ENDBRANCH   1  37
TORSDOF 31
ENDMDL
