MODEL 1
REMARK VINA RESULT:      -9.3      0.000      0.000
REMARK SMILES CC[C@@H](C)CN(CC)C(=O)N1CC[C@@](CC)(C(=O)OCCOCCOCCOC(=O)c2ccc(-c3c4nc(c(-c5c(F)cc(S(=O)(=O)[O-])cc5F)c5ccc([nH]5)c(-c5c(F)cc(S(=O)(=O)[O-])cc5F)c5nc(c(-c6c(F)cc(S(=O)(=O)[O-])cc6F)c6ccc3[nH]6)C=C5)C=C4)cc2)C1
REMARK SMILES IDX 23 1 22 2 21 3 20 4 19 5 17 6 18 7 14 8 11 9 12 10 97 11
REMARK SMILES IDX 13 12 9 13 10 14 6 15 5 16 3 17 4 18 2 19 1 20 7 21 8 22
REMARK SMILES IDX 15 23 16 24 24 25 25 26 26 27 27 28 28 29 29 30 30 31 31 32
REMARK SMILES IDX 32 33 96 34 33 35 95 36 34 37 35 38 36 39 89 40 37 41 94 42
REMARK SMILES IDX 88 43 90 44 38 45 93 46 87 47 86 48 39 50 73 51 52 52 72 53
REMARK SMILES IDX 53 54 56 55 71 56 91 57 54 58 55 59 70 61 92 62 57 63 40 64
REMARK SMILES IDX 41 65 50 66 42 67 43 68 49 69 51 70 44 71 45 72 46 73 47 74
REMARK SMILES IDX 48 75 74 76 75 77 84 78 76 79 77 80 83 81 85 82 78 83 79 84
REMARK SMILES IDX 80 85 81 86 82 87 58 88 59 89 68 90 60 91 61 92 67 93 69 94
REMARK SMILES IDX 62 95 63 96 64 97 65 98 66 99
REMARK H PARENT 90 49 56 60
REMARK Flexibility Score: inf
ROOT
ATOM      1  C   UNL A   1      39.183  21.912  26.108  1.00  0.00     0.188 C 
ENDROOT
BRANCH   1   2
ATOM      2  O   UNL A   1      37.836  22.194  25.738  1.00  0.00    -0.376 OA
BRANCH   2   3
ATOM      3  C   UNL A   1      37.344  21.757  24.482  1.00  0.00     0.202 C 
BRANCH   3   4
ATOM      4  C   UNL A   1      36.009  22.344  24.025  1.00  0.00     0.261 C 
BRANCH   4   5
ATOM      5  O   UNL A   1      35.214  22.930  25.076  1.00  0.00    -0.463 OA
BRANCH   5   6
ATOM      6  C   UNL A   1      34.121  22.210  25.441  1.00  0.00     0.314 C 
ATOM      7  O   UNL A   1      34.172  21.210  26.149  1.00  0.00    -0.252 OA
BRANCH   6   8
ATOM      8  C   UNL A   1      32.818  22.670  24.777  1.00  0.00     0.087 C 
ATOM      9  N   UNL A   1      32.659  24.390  23.065  1.00  0.00    -0.323 N 
ATOM     10  C   UNL A   1      32.687  23.129  22.362  1.00  0.00     0.122 C 
ATOM     11  C   UNL A   1      33.010  24.170  24.465  1.00  0.00     0.140 C 
ATOM     12  C   UNL A   1      32.398  22.072  23.420  1.00  0.00     0.042 C 
BRANCH   9  13
ATOM     13  C   UNL A   1      33.033  25.610  22.524  1.00  0.00     0.320 C 
ATOM     14  O   UNL A   1      33.964  25.647  21.717  1.00  0.00    -0.248 OA
BRANCH  13  15
ATOM     15  N   UNL A   1      32.411  26.770  22.948  1.00  0.00    -0.325 N 
BRANCH  15  16
ATOM     16  C   UNL A   1      31.009  26.997  22.532  1.00  0.00     0.124 C 
BRANCH  16  17
ATOM     17  C   UNL A   1      30.082  27.527  23.663  1.00  0.00     0.005 C 
ATOM     18  C   UNL A   1      29.013  26.469  23.970  1.00  0.00     0.009 C 
BRANCH  17  19
ATOM     19  C   UNL A   1      29.440  28.879  23.273  1.00  0.00     0.002 C 
ATOM     20  C   UNL A   1      27.959  28.835  22.921  1.00  0.00     0.004 C 
ENDBRANCH  17  19
ENDBRANCH  16  17
ENDBRANCH  15  16
BRANCH  15  21
ATOM     21  C   UNL A   1      32.990  27.805  23.797  1.00  0.00     0.118 C 
ATOM     22  C   UNL A   1      33.506  28.967  22.952  1.00  0.00     0.027 C 
ENDBRANCH  15  21
ENDBRANCH  13  15
ENDBRANCH   9  13
BRANCH   8  23
ATOM     23  C   UNL A   1      31.708  22.434  25.831  1.00  0.00     0.017 C 
ATOM     24  C   UNL A   1      31.139  23.724  26.424  1.00  0.00     0.005 C 
ENDBRANCH   8  23
ENDBRANCH   6   8
ENDBRANCH   5   6
ENDBRANCH   4   5
ENDBRANCH   3   4
ENDBRANCH   2   3
ENDBRANCH   1   2
BRANCH   1  25
ATOM     25  C   UNL A   1      39.882  22.814  27.136  1.00  0.00     0.188 C 
BRANCH  25  26
ATOM     26  O   UNL A   1      41.285  22.606  27.172  1.00  0.00    -0.376 OA
BRANCH  26  27
ATOM     27  C   UNL A   1      41.893  22.334  25.923  1.00  0.00     0.202 C 
BRANCH  27  28
ATOM     28  C   UNL A   1      43.277  22.979  25.805  1.00  0.00     0.261 C 
BRANCH  28  29
ATOM     29  O   UNL A   1      43.580  23.976  26.798  1.00  0.00    -0.460 OA
BRANCH  29  30
ATOM     30  C   UNL A   1      43.697  25.246  26.368  1.00  0.00     0.338 C 
ATOM     31  O   UNL A   1      44.135  25.605  25.274  1.00  0.00    -0.246 OA
BRANCH  30  32
ATOM     32  C   UNL A   1      43.049  26.150  27.337  1.00  0.00     0.060 A 
ATOM     33  C   UNL A   1      43.389  27.506  27.318  1.00  0.00     0.016 A 
ATOM     34  C   UNL A   1      42.134  25.674  28.283  1.00  0.00     0.016 A 
ATOM     35  C   UNL A   1      42.853  28.373  28.270  1.00  0.00     0.010 A 
ATOM     36  C   UNL A   1      41.612  26.548  29.246  1.00  0.00     0.010 A 
ATOM     37  C   UNL A   1      41.995  27.900  29.270  1.00  0.00    -0.014 A 
BRANCH  37  38
ATOM     38  C   UNL A   1      41.650  28.781  30.418  1.00  0.00     0.031 A 
ATOM     39  C   UNL A   1      42.495  28.710  31.665  1.00  0.00     0.074 A 
ATOM     40  C   UNL A   1      40.650  29.680  30.348  1.00  0.00     0.049 A 
ATOM     41  N   UNL A   1      42.363  29.346  32.801  1.00  0.00    -0.248 NA
ATOM     42  C   UNL A   1      43.652  27.802  31.619  1.00  0.00     0.031 C 
ATOM     43  C   UNL A   1      39.808  29.920  29.177  1.00  0.00     0.029 A 
ATOM     44  N   UNL A   1      40.174  30.562  31.289  1.00  0.00    -0.354 N 
ATOM     45  C   UNL A   1      43.408  28.909  33.606  1.00  0.00     0.074 A 
ATOM     46  C   UNL A   1      44.155  27.938  32.837  1.00  0.00     0.031 C 
ATOM     47  C   UNL A   1      38.907  30.872  29.475  1.00  0.00     0.029 A 
ATOM     48  C   UNL A   1      39.086  31.289  30.865  1.00  0.00     0.049 A 
ATOM     49  H   UNL A   1      40.573  30.663  32.184  1.00  0.00     0.167 HD
ATOM     50  C   UNL A   1      43.724  29.286  34.870  1.00  0.00     0.037 A 
ATOM     51  C   UNL A   1      38.311  32.173  31.527  1.00  0.00     0.037 A 
ATOM     52  C   UNL A   1      42.985  30.255  35.637  1.00  0.00     0.049 A 
ATOM     53  C   UNL A   1      38.629  32.513  32.961  1.00  0.00     0.074 A 
ATOM     54  C   UNL A   1      43.226  30.695  36.927  1.00  0.00     0.029 A 
ATOM     55  N   UNL A   1      41.859  30.931  35.189  1.00  0.00    -0.354 N 
ATOM     56  N   UNL A   1      39.613  32.083  33.716  1.00  0.00    -0.248 NA
ATOM     57  C   UNL A   1      37.731  33.463  33.636  1.00  0.00     0.031 C 
ATOM     58  C   UNL A   1      42.219  31.602  37.276  1.00  0.00     0.029 A 
ATOM     59  C   UNL A   1      41.381  31.767  36.185  1.00  0.00     0.049 A 
ATOM     60  H   UNL A   1      41.459  30.830  34.296  1.00  0.00     0.167 HD
ATOM     61  C   UNL A   1      39.468  32.730  34.940  1.00  0.00     0.074 A 
ATOM     62  C   UNL A   1      38.309  33.590  34.823  1.00  0.00     0.031 C 
ATOM     63  C   UNL A   1      40.228  32.624  36.060  1.00  0.00     0.037 A 
BRANCH  50  64
ATOM     64  C   UNL A   1      44.904  28.614  35.514  1.00  0.00     0.058 A 
ATOM     65  C   UNL A   1      44.773  27.421  36.244  1.00  0.00     0.135 A 
ATOM     66  C   UNL A   1      46.190  29.165  35.387  1.00  0.00     0.135 A 
ATOM     67  F   UNL A   1      43.564  26.862  36.413  1.00  0.00    -0.206 F 
ATOM     68  C   UNL A   1      45.870  26.815  36.848  1.00  0.00     0.059 A 
ATOM     69  C   UNL A   1      47.304  28.562  35.961  1.00  0.00     0.059 A 
ATOM     70  F   UNL A   1      46.371  30.306  34.703  1.00  0.00    -0.206 F 
ATOM     71  C   UNL A   1      47.131  27.395  36.705  1.00  0.00     0.060 A 
BRANCH  71  72
ATOM     72  S   UNL A   1      48.544  26.604  37.504  1.00  0.00     0.124 S 
ATOM     73  O   UNL A   1      48.890  27.589  38.524  1.00  0.00    -0.237 OA
ATOM     74  O   UNL A   1      47.966  25.358  37.998  1.00  0.00    -0.237 OA
ATOM     75  O   UNL A   1      49.510  26.457  36.421  1.00  0.00    -0.744 OA
ENDBRANCH  71  72
ENDBRANCH  50  64
BRANCH  51  76
ATOM     76  C   UNL A   1      37.132  32.784  30.851  1.00  0.00     0.058 A 
ATOM     77  C   UNL A   1      37.268  33.890  30.000  1.00  0.00     0.135 A 
ATOM     78  C   UNL A   1      35.837  32.283  31.067  1.00  0.00     0.135 A 
ATOM     79  F   UNL A   1      38.482  34.419  29.777  1.00  0.00    -0.206 F 
ATOM     80  C   UNL A   1      36.164  34.490  29.400  1.00  0.00     0.059 A 
ATOM     81  C   UNL A   1      34.722  32.849  30.457  1.00  0.00     0.059 A 
ATOM     82  F   UNL A   1      35.649  31.227  31.874  1.00  0.00    -0.206 F 
ATOM     83  C   UNL A   1      34.894  33.961  29.634  1.00  0.00     0.060 A 
BRANCH  83  84
ATOM     84  S   UNL A   1      33.471  34.728  28.827  1.00  0.00     0.124 S 
ATOM     85  O   UNL A   1      34.063  35.942  28.277  1.00  0.00    -0.237 OA
ATOM     86  O   UNL A   1      33.082  33.711  27.854  1.00  0.00    -0.237 OA
ATOM     87  O   UNL A   1      32.529  34.928  29.925  1.00  0.00    -0.744 OA
ENDBRANCH  83  84
ENDBRANCH  51  76
BRANCH  63  88
ATOM     88  C   UNL A   1      39.856  33.484  37.238  1.00  0.00     0.058 A 
ATOM     89  C   UNL A   1      38.853  33.106  38.145  1.00  0.00     0.135 A 
ATOM     90  C   UNL A   1      40.540  34.687  37.483  1.00  0.00     0.135 A 
ATOM     91  F   UNL A   1      38.166  31.969  37.957  1.00  0.00    -0.206 F 
ATOM     92  C   UNL A   1      38.518  33.906  39.234  1.00  0.00     0.059 A 
ATOM     93  C   UNL A   1      40.240  35.488  38.582  1.00  0.00     0.059 A 
ATOM     94  F   UNL A   1      41.519  35.089  36.658  1.00  0.00    -0.206 F 
ATOM     95  C   UNL A   1      39.216  35.097  39.444  1.00  0.00     0.060 A 
BRANCH  95  96
ATOM     96  S   UNL A   1      38.784  36.120  40.867  1.00  0.00     0.124 S 
ATOM     97  O   UNL A   1      40.022  36.089  41.639  1.00  0.00    -0.237 OA
ATOM     98  O   UNL A   1      38.457  37.401  40.247  1.00  0.00    -0.237 OA
ATOM     99  O   UNL A   1      37.655  35.414  41.463  1.00  0.00    -0.744 OA
ENDBRANCH  95  96
ENDBRANCH  63  88
ENDBRANCH  37  38
ENDBRANCH  30  32
ENDBRANCH  29  30
ENDBRANCH  28  29
ENDBRANCH  27  28
ENDBRANCH  26  27
ENDBRANCH  25  26
ENDBRANCH   1  25
TORSDOF 27
ENDMDL
MODEL 2
REMARK VINA RESULT:      -8.8      5.989      8.230
REMARK SMILES CC[C@@H](C)CN(CC)C(=O)N1CC[C@@](CC)(C(=O)OCCOCCOCCOC(=O)c2ccc(-c3c4nc(c(-c5c(F)cc(S(=O)(=O)[O-])cc5F)c5ccc([nH]5)c(-c5c(F)cc(S(=O)(=O)[O-])cc5F)c5nc(c(-c6c(F)cc(S(=O)(=O)[O-])cc6F)c6ccc3[nH]6)C=C5)C=C4)cc2)C1
REMARK SMILES IDX 23 1 22 2 21 3 20 4 19 5 17 6 18 7 14 8 11 9 12 10 97 11
REMARK SMILES IDX 13 12 9 13 10 14 6 15 5 16 3 17 4 18 2 19 1 20 7 21 8 22
REMARK SMILES IDX 15 23 16 24 24 25 25 26 26 27 27 28 28 29 29 30 30 31 31 32
REMARK SMILES IDX 32 33 96 34 33 35 95 36 34 37 35 38 36 39 89 40 37 41 94 42
REMARK SMILES IDX 88 43 90 44 38 45 93 46 87 47 86 48 39 50 73 51 52 52 72 53
REMARK SMILES IDX 53 54 56 55 71 56 91 57 54 58 55 59 70 61 92 62 57 63 40 64
REMARK SMILES IDX 41 65 50 66 42 67 43 68 49 69 51 70 44 71 45 72 46 73 47 74
REMARK SMILES IDX 48 75 74 76 75 77 84 78 76 79 77 80 83 81 85 82 78 83 79 84
REMARK SMILES IDX 80 85 81 86 82 87 58 88 59 89 68 90 60 91 61 92 67 93 69 94
REMARK SMILES IDX 62 95 63 96 64 97 65 98 66 99
REMARK H PARENT 90 49 56 60
REMARK Flexibility Score: inf
ROOT
ATOM      1  C   UNL A   1      39.051  23.609  26.120  1.00  0.00     0.188 C 
ENDROOT
BRANCH   1   2
ATOM      2  O   UNL A   1      37.666  23.848  26.360  1.00  0.00    -0.376 OA
BRANCH   2   3
ATOM      3  C   UNL A   1      36.700  22.924  25.888  1.00  0.00     0.202 C 
BRANCH   3   4
ATOM      4  C   UNL A   1      36.494  22.857  24.376  1.00  0.00     0.261 C 
BRANCH   4   5
ATOM      5  O   UNL A   1      35.184  23.261  23.926  1.00  0.00    -0.463 OA
BRANCH   5   6
ATOM      6  C   UNL A   1      34.173  22.421  24.266  1.00  0.00     0.314 C 
ATOM      7  O   UNL A   1      34.276  21.198  24.265  1.00  0.00    -0.252 OA
BRANCH   6   8
ATOM      8  C   UNL A   1      32.834  23.122  24.522  1.00  0.00     0.087 C 
ATOM      9  N   UNL A   1      32.278  25.372  23.785  1.00  0.00    -0.323 N 
ATOM     10  C   UNL A   1      31.732  24.481  22.789  1.00  0.00     0.122 C 
ATOM     11  C   UNL A   1      33.166  24.622  24.670  1.00  0.00     0.140 C 
ATOM     12  C   UNL A   1      31.740  23.102  23.436  1.00  0.00     0.042 C 
BRANCH   9  13
ATOM     13  C   UNL A   1      32.608  26.700  23.568  1.00  0.00     0.320 C 
ATOM     14  O   UNL A   1      33.777  26.992  23.304  1.00  0.00    -0.248 OA
BRANCH  13  15
ATOM     15  N   UNL A   1      31.646  27.682  23.722  1.00  0.00    -0.325 N 
BRANCH  15  16
ATOM     16  C   UNL A   1      31.785  28.615  24.863  1.00  0.00     0.124 C 
BRANCH  16  17
ATOM     17  C   UNL A   1      32.199  27.936  26.200  1.00  0.00     0.005 C 
ATOM     18  C   UNL A   1      31.028  27.085  26.712  1.00  0.00     0.009 C 
BRANCH  17  19
ATOM     19  C   UNL A   1      32.634  28.985  27.250  1.00  0.00     0.002 C 
ATOM     20  C   UNL A   1      32.414  30.441  26.865  1.00  0.00     0.004 C 
ENDBRANCH  17  19
ENDBRANCH  16  17
ENDBRANCH  15  16
BRANCH  15  21
ATOM     21  C   UNL A   1      30.499  27.919  22.853  1.00  0.00     0.118 C 
ATOM     22  C   UNL A   1      29.902  29.299  23.116  1.00  0.00     0.027 C 
ENDBRANCH  15  21
ENDBRANCH  13  15
ENDBRANCH   9  13
BRANCH   8  23
ATOM     23  C   UNL A   1      32.290  22.514  25.838  1.00  0.00     0.017 C 
ATOM     24  C   UNL A   1      31.846  23.561  26.861  1.00  0.00     0.005 C 
ENDBRANCH   8  23
ENDBRANCH   6   8
ENDBRANCH   5   6
ENDBRANCH   4   5
ENDBRANCH   3   4
ENDBRANCH   2   3
ENDBRANCH   1   2
BRANCH   1  25
ATOM     25  C   UNL A   1      39.916  23.022  27.245  1.00  0.00     0.188 C 
BRANCH  25  26
ATOM     26  O   UNL A   1      39.879  21.604  27.272  1.00  0.00    -0.376 OA
BRANCH  26  27
ATOM     27  C   UNL A   1      39.820  20.972  26.007  1.00  0.00     0.202 C 
BRANCH  27  28
ATOM     28  C   UNL A   1      40.368  19.543  26.052  1.00  0.00     0.261 C 
BRANCH  28  29
ATOM     29  O   UNL A   1      41.692  19.407  26.600  1.00  0.00    -0.460 OA
BRANCH  29  30
ATOM     30  C   UNL A   1      42.723  19.582  25.752  1.00  0.00     0.338 C 
ATOM     31  O   UNL A   1      43.026  18.842  24.816  1.00  0.00    -0.246 OA
BRANCH  30  32
ATOM     32  C   UNL A   1      43.335  20.903  25.995  1.00  0.00     0.060 A 
ATOM     33  C   UNL A   1      43.362  21.396  27.303  1.00  0.00     0.016 A 
ATOM     34  C   UNL A   1      43.855  21.672  24.948  1.00  0.00     0.016 A 
ATOM     35  C   UNL A   1      43.864  22.673  27.556  1.00  0.00     0.010 A 
ATOM     36  C   UNL A   1      44.343  22.960  25.208  1.00  0.00     0.010 A 
ATOM     37  C   UNL A   1      44.319  23.486  26.511  1.00  0.00    -0.014 A 
BRANCH  37  38
ATOM     38  C   UNL A   1      44.598  24.925  26.770  1.00  0.00     0.031 A 
ATOM     39  C   UNL A   1      46.001  25.439  26.564  1.00  0.00     0.074 A 
ATOM     40  C   UNL A   1      43.623  25.785  27.118  1.00  0.00     0.049 A 
ATOM     41  N   UNL A   1      46.489  26.636  26.764  1.00  0.00    -0.248 NA
ATOM     42  C   UNL A   1      46.983  24.470  26.052  1.00  0.00     0.031 C 
ATOM     43  C   UNL A   1      42.209  25.447  27.268  1.00  0.00     0.029 A 
ATOM     44  N   UNL A   1      43.678  27.128  27.409  1.00  0.00    -0.354 N 
ATOM     45  C   UNL A   1      47.833  26.563  26.416  1.00  0.00     0.074 A 
ATOM     46  C   UNL A   1      48.089  25.198  26.011  1.00  0.00     0.031 C 
ATOM     47  C   UNL A   1      41.534  26.547  27.640  1.00  0.00     0.029 A 
ATOM     48  C   UNL A   1      42.469  27.663  27.785  1.00  0.00     0.049 A 
ATOM     49  H   UNL A   1      44.507  27.657  27.354  1.00  0.00     0.167 HD
ATOM     50  C   UNL A   1      48.769  27.543  26.426  1.00  0.00     0.037 A 
ATOM     51  C   UNL A   1      42.154  28.901  28.217  1.00  0.00     0.037 A 
ATOM     52  C   UNL A   1      48.516  28.904  26.825  1.00  0.00     0.049 A 
ATOM     53  C   UNL A   1      43.230  29.954  28.302  1.00  0.00     0.074 A 
ATOM     54  C   UNL A   1      49.405  29.964  26.874  1.00  0.00     0.029 A 
ATOM     55  N   UNL A   1      47.289  29.392  27.249  1.00  0.00    -0.354 N 
ATOM     56  N   UNL A   1      44.500  29.869  27.984  1.00  0.00    -0.248 NA
ATOM     57  C   UNL A   1      42.829  31.277  28.806  1.00  0.00     0.031 C 
ATOM     58  C   UNL A   1      48.726  31.082  27.372  1.00  0.00     0.029 A 
ATOM     59  C   UNL A   1      47.401  30.732  27.582  1.00  0.00     0.049 A 
ATOM     60  H   UNL A   1      46.461  28.864  27.305  1.00  0.00     0.167 HD
ATOM     61  C   UNL A   1      45.041  31.130  28.221  1.00  0.00     0.074 A 
ATOM     62  C   UNL A   1      43.959  31.964  28.699  1.00  0.00     0.031 C 
ATOM     63  C   UNL A   1      46.318  31.558  28.054  1.00  0.00     0.037 A 
BRANCH  50  64
ATOM     64  C   UNL A   1      50.168  27.164  26.026  1.00  0.00     0.058 A 
ATOM     65  C   UNL A   1      50.587  27.176  24.686  1.00  0.00     0.135 A 
ATOM     66  C   UNL A   1      51.108  26.798  27.003  1.00  0.00     0.135 A 
ATOM     67  F   UNL A   1      49.723  27.500  23.710  1.00  0.00    -0.206 F 
ATOM     68  C   UNL A   1      51.880  26.810  24.325  1.00  0.00     0.059 A 
ATOM     69  C   UNL A   1      52.414  26.453  26.667  1.00  0.00     0.059 A 
ATOM     70  F   UNL A   1      50.760  26.767  28.298  1.00  0.00    -0.206 F 
ATOM     71  C   UNL A   1      52.786  26.445  25.323  1.00  0.00     0.060 A 
BRANCH  71  72
ATOM     72  S   UNL A   1      54.457  25.962  24.841  1.00  0.00     0.124 S 
ATOM     73  O   UNL A   1      54.398  24.512  25.003  1.00  0.00    -0.237 OA
ATOM     74  O   UNL A   1      54.535  26.441  23.464  1.00  0.00    -0.237 OA
ATOM     75  O   UNL A   1      55.305  26.666  25.796  1.00  0.00    -0.744 OA
ENDBRANCH  71  72
ENDBRANCH  50  64
BRANCH  51  76
ATOM     76  C   UNL A   1      40.759  29.214  28.635  1.00  0.00     0.058 A 
ATOM     77  C   UNL A   1      39.741  29.417  27.691  1.00  0.00     0.135 A 
ATOM     78  C   UNL A   1      40.423  29.341  29.993  1.00  0.00     0.135 A 
ATOM     79  F   UNL A   1      40.014  29.327  26.380  1.00  0.00    -0.206 F 
ATOM     80  C   UNL A   1      38.445  29.751  28.076  1.00  0.00     0.059 A 
ATOM     81  C   UNL A   1      39.129  29.648  30.403  1.00  0.00     0.059 A 
ATOM     82  F   UNL A   1      41.359  29.160  30.938  1.00  0.00    -0.206 F 
ATOM     83  C   UNL A   1      38.148  29.864  29.435  1.00  0.00     0.060 A 
BRANCH  83  84
ATOM     84  S   UNL A   1      36.457  30.267  29.925  1.00  0.00     0.124 S 
ATOM     85  O   UNL A   1      35.701  29.843  28.752  1.00  0.00    -0.237 OA
ATOM     86  O   UNL A   1      36.280  29.456  31.126  1.00  0.00    -0.237 OA
ATOM     87  O   UNL A   1      36.508  31.709  30.153  1.00  0.00    -0.744 OA
ENDBRANCH  83  84
ENDBRANCH  51  76
BRANCH  63  88
ATOM     88  C   UNL A   1      46.612  33.004  28.355  1.00  0.00     0.058 A 
ATOM     89  C   UNL A   1      47.000  33.431  29.635  1.00  0.00     0.135 A 
ATOM     90  C   UNL A   1      46.539  33.970  27.338  1.00  0.00     0.135 A 
ATOM     91  F   UNL A   1      47.083  32.551  30.645  1.00  0.00    -0.206 F 
ATOM     92  C   UNL A   1      47.274  34.770  29.903  1.00  0.00     0.059 A 
ATOM     93  C   UNL A   1      46.835  35.309  27.577  1.00  0.00     0.059 A 
ATOM     94  F   UNL A   1      46.188  33.615  26.092  1.00  0.00    -0.206 F 
ATOM     95  C   UNL A   1      47.187  35.703  28.868  1.00  0.00     0.060 A 
BRANCH  95  96
ATOM     96  S   UNL A   1      47.558  37.433  29.223  1.00  0.00     0.124 S 
ATOM     97  O   UNL A   1      46.227  38.031  29.201  1.00  0.00    -0.237 OA
ATOM     98  O   UNL A   1      48.196  37.356  30.534  1.00  0.00    -0.237 OA
ATOM     99  O   UNL A   1      48.440  37.823  28.127  1.00  0.00    -0.744 OA
ENDBRANCH  95  96
ENDBRANCH  63  88
ENDBRANCH  37  38
ENDBRANCH  30  32
ENDBRANCH  29  30
ENDBRANCH  28  29
ENDBRANCH  27  28
ENDBRANCH  26  27
ENDBRANCH  25  26
ENDBRANCH   1  25
TORSDOF 27
ENDMDL
MODEL 3
REMARK VINA RESULT:      -8.6      1.187      2.280
REMARK SMILES CC[C@@H](C)CN(CC)C(=O)N1CC[C@@](CC)(C(=O)OCCOCCOCCOC(=O)c2ccc(-c3c4nc(c(-c5c(F)cc(S(=O)(=O)[O-])cc5F)c5ccc([nH]5)c(-c5c(F)cc(S(=O)(=O)[O-])cc5F)c5nc(c(-c6c(F)cc(S(=O)(=O)[O-])cc6F)c6ccc3[nH]6)C=C5)C=C4)cc2)C1
REMARK SMILES IDX 23 1 22 2 21 3 20 4 19 5 17 6 18 7 14 8 11 9 12 10 97 11
REMARK SMILES IDX 13 12 9 13 10 14 6 15 5 16 3 17 4 18 2 19 1 20 7 21 8 22
REMARK SMILES IDX 15 23 16 24 24 25 25 26 26 27 27 28 28 29 29 30 30 31 31 32
REMARK SMILES IDX 32 33 96 34 33 35 95 36 34 37 35 38 36 39 89 40 37 41 94 42
REMARK SMILES IDX 88 43 90 44 38 45 93 46 87 47 86 48 39 50 73 51 52 52 72 53
REMARK SMILES IDX 53 54 56 55 71 56 91 57 54 58 55 59 70 61 92 62 57 63 40 64
REMARK SMILES IDX 41 65 50 66 42 67 43 68 49 69 51 70 44 71 45 72 46 73 47 74
REMARK SMILES IDX 48 75 74 76 75 77 84 78 76 79 77 80 83 81 85 82 78 83 79 84
REMARK SMILES IDX 80 85 81 86 82 87 58 88 59 89 68 90 60 91 61 92 67 93 69 94
REMARK SMILES IDX 62 95 63 96 64 97 65 98 66 99
REMARK H PARENT 90 49 56 60
REMARK Flexibility Score: inf
ROOT
ATOM      1  C   UNL A   1      41.146  20.971  26.660  1.00  0.00     0.188 C 
ENDROOT
BRANCH   1   2
ATOM      2  O   UNL A   1      40.343  21.732  25.761  1.00  0.00    -0.376 OA
BRANCH   2   3
ATOM      3  C   UNL A   1      39.016  22.077  26.121  1.00  0.00     0.202 C 
BRANCH   3   4
ATOM      4  C   UNL A   1      37.917  21.715  25.123  1.00  0.00     0.261 C 
BRANCH   4   5
ATOM      5  O   UNL A   1      36.859  22.689  25.010  1.00  0.00    -0.463 OA
BRANCH   5   6
ATOM      6  C   UNL A   1      35.672  22.316  25.557  1.00  0.00     0.314 C 
ATOM      7  O   UNL A   1      35.570  21.774  26.652  1.00  0.00    -0.252 OA
BRANCH   6   8
ATOM      8  C   UNL A   1      34.468  22.501  24.627  1.00  0.00     0.087 C 
ATOM      9  N   UNL A   1      32.935  24.388  24.694  1.00  0.00    -0.323 N 
ATOM     10  C   UNL A   1      33.900  24.696  23.665  1.00  0.00     0.122 C 
ATOM     11  C   UNL A   1      33.399  23.237  25.464  1.00  0.00     0.140 C 
ATOM     12  C   UNL A   1      34.602  23.377  23.366  1.00  0.00     0.042 C 
BRANCH   9  13
ATOM     13  C   UNL A   1      32.185  25.326  25.386  1.00  0.00     0.320 C 
ATOM     14  O   UNL A   1      31.906  25.117  26.568  1.00  0.00    -0.248 OA
BRANCH  13  15
ATOM     15  N   UNL A   1      31.698  26.440  24.726  1.00  0.00    -0.325 N 
BRANCH  15  16
ATOM     16  C   UNL A   1      32.382  27.732  24.951  1.00  0.00     0.124 C 
BRANCH  16  17
ATOM     17  C   UNL A   1      31.608  28.718  25.872  1.00  0.00     0.005 C 
ATOM     18  C   UNL A   1      31.338  30.016  25.099  1.00  0.00     0.009 C 
BRANCH  17  19
ATOM     19  C   UNL A   1      32.386  28.992  27.179  1.00  0.00     0.002 C 
ATOM     20  C   UNL A   1      33.863  28.620  27.165  1.00  0.00     0.004 C 
ENDBRANCH  17  19
ENDBRANCH  16  17
ENDBRANCH  15  16
BRANCH  15  21
ATOM     21  C   UNL A   1      30.575  26.476  23.796  1.00  0.00     0.118 C 
ATOM     22  C   UNL A   1      29.261  26.217  24.529  1.00  0.00     0.027 C 
ENDBRANCH  15  21
ENDBRANCH  13  15
ENDBRANCH   9  13
BRANCH   8  23
ATOM     23  C   UNL A   1      34.018  21.071  24.238  1.00  0.00     0.017 C 
ATOM     24  C   UNL A   1      32.664  20.671  24.827  1.00  0.00     0.005 C 
ENDBRANCH   8  23
ENDBRANCH   6   8
ENDBRANCH   5   6
ENDBRANCH   4   5
ENDBRANCH   3   4
ENDBRANCH   2   3
ENDBRANCH   1   2
BRANCH   1  25
ATOM     25  C   UNL A   1      42.337  20.174  26.109  1.00  0.00     0.188 C 
BRANCH  25  26
ATOM     26  O   UNL A   1      43.578  20.819  26.348  1.00  0.00    -0.376 OA
BRANCH  26  27
ATOM     27  C   UNL A   1      43.767  22.046  25.667  1.00  0.00     0.202 C 
BRANCH  27  28
ATOM     28  C   UNL A   1      43.925  23.222  26.635  1.00  0.00     0.261 C 
BRANCH  28  29
ATOM     29  O   UNL A   1      43.878  24.528  26.031  1.00  0.00    -0.460 OA
BRANCH  29  30
ATOM     30  C   UNL A   1      42.697  25.172  26.066  1.00  0.00     0.338 C 
ATOM     31  O   UNL A   1      41.770  25.032  25.267  1.00  0.00    -0.246 OA
BRANCH  30  32
ATOM     32  C   UNL A   1      42.599  25.945  27.319  1.00  0.00     0.060 A 
ATOM     33  C   UNL A   1      41.552  25.660  28.200  1.00  0.00     0.016 A 
ATOM     34  C   UNL A   1      43.507  26.965  27.621  1.00  0.00     0.016 A 
ATOM     35  C   UNL A   1      41.386  26.424  29.356  1.00  0.00     0.010 A 
ATOM     36  C   UNL A   1      43.325  27.739  28.776  1.00  0.00     0.010 A 
ATOM     37  C   UNL A   1      42.241  27.496  29.636  1.00  0.00    -0.014 A 
BRANCH  37  38
ATOM     38  C   UNL A   1      41.888  28.450  30.723  1.00  0.00     0.031 A 
ATOM     39  C   UNL A   1      42.721  28.456  31.980  1.00  0.00     0.074 A 
ATOM     40  C   UNL A   1      40.891  29.345  30.586  1.00  0.00     0.049 A 
ATOM     41  N   UNL A   1      42.581  29.164  33.072  1.00  0.00    -0.248 NA
ATOM     42  C   UNL A   1      43.876  27.545  32.003  1.00  0.00     0.031 C 
ATOM     43  C   UNL A   1      40.061  29.511  29.395  1.00  0.00     0.029 A 
ATOM     44  N   UNL A   1      40.409  30.286  31.465  1.00  0.00    -0.354 N 
ATOM     45  C   UNL A   1      43.617  28.778  33.913  1.00  0.00     0.074 A 
ATOM     46  C   UNL A   1      44.368  27.757  33.214  1.00  0.00     0.031 C 
ATOM     47  C   UNL A   1      39.161  30.483  29.623  1.00  0.00     0.029 A 
ATOM     48  C   UNL A   1      39.328  30.988  30.985  1.00  0.00     0.049 A 
ATOM     49  H   UNL A   1      40.801  30.444  32.354  1.00  0.00     0.167 HD
ATOM     50  C   UNL A   1      43.923  29.234  35.152  1.00  0.00     0.037 A 
ATOM     51  C   UNL A   1      38.549  31.914  31.581  1.00  0.00     0.037 A 
ATOM     52  C   UNL A   1      43.180  30.252  35.849  1.00  0.00     0.049 A 
ATOM     53  C   UNL A   1      38.856  32.345  32.994  1.00  0.00     0.074 A 
ATOM     54  C   UNL A   1      43.410  30.772  37.111  1.00  0.00     0.029 A 
ATOM     55  N   UNL A   1      42.060  30.900  35.349  1.00  0.00    -0.354 N 
ATOM     56  N   UNL A   1      39.831  31.961  33.783  1.00  0.00    -0.248 NA
ATOM     57  C   UNL A   1      37.954  33.338  33.598  1.00  0.00     0.031 C 
ATOM     58  C   UNL A   1      42.403  31.703  37.392  1.00  0.00     0.029 A 
ATOM     59  C   UNL A   1      41.575  31.800  36.284  1.00  0.00     0.049 A 
ATOM     60  H   UNL A   1      41.668  30.743  34.460  1.00  0.00     0.167 HD
ATOM     61  C   UNL A   1      39.677  32.686  34.962  1.00  0.00     0.074 A 
ATOM     62  C   UNL A   1      38.521  33.539  34.779  1.00  0.00     0.031 C 
ATOM     63  C   UNL A   1      40.426  32.649  36.094  1.00  0.00     0.037 A 
BRANCH  50  64
ATOM     64  C   UNL A   1      45.095  28.602  35.850  1.00  0.00     0.058 A 
ATOM     65  C   UNL A   1      46.392  29.133  35.755  1.00  0.00     0.135 A 
ATOM     66  C   UNL A   1      44.914  27.454  36.639  1.00  0.00     0.135 A 
ATOM     67  F   UNL A   1      46.624  30.218  34.998  1.00  0.00    -0.206 F 
ATOM     68  C   UNL A   1      47.472  28.532  36.393  1.00  0.00     0.059 A 
ATOM     69  C   UNL A   1      45.976  26.851  37.307  1.00  0.00     0.059 A 
ATOM     70  F   UNL A   1      43.697  26.903  36.761  1.00  0.00    -0.206 F 
ATOM     71  C   UNL A   1      47.255  27.388  37.164  1.00  0.00     0.060 A 
BRANCH  71  72
ATOM     72  S   UNL A   1      48.667  26.612  37.977  1.00  0.00     0.124 S 
ATOM     73  O   UNL A   1      48.929  27.550  39.064  1.00  0.00    -0.237 OA
ATOM     74  O   UNL A   1      48.125  25.317  38.377  1.00  0.00    -0.237 OA
ATOM     75  O   UNL A   1      49.682  26.566  36.929  1.00  0.00    -0.744 OA
ENDBRANCH  71  72
ENDBRANCH  50  64
BRANCH  51  76
ATOM     76  C   UNL A   1      37.379  32.483  30.857  1.00  0.00     0.058 A 
ATOM     77  C   UNL A   1      37.500  33.626  30.052  1.00  0.00     0.135 A 
ATOM     78  C   UNL A   1      36.105  31.904  30.978  1.00  0.00     0.135 A 
ATOM     79  F   UNL A   1      38.692  34.229  29.921  1.00  0.00    -0.206 F 
ATOM     80  C   UNL A   1      36.401  34.185  29.408  1.00  0.00     0.059 A 
ATOM     81  C   UNL A   1      34.995  32.429  30.321  1.00  0.00     0.059 A 
ATOM     82  F   UNL A   1      35.931  30.811  31.736  1.00  0.00    -0.206 F 
ATOM     83  C   UNL A   1      35.151  33.579  29.548  1.00  0.00     0.060 A 
BRANCH  83  84
ATOM     84  S   UNL A   1      33.736  34.295  28.683  1.00  0.00     0.124 S 
ATOM     85  O   UNL A   1      32.893  34.718  29.796  1.00  0.00    -0.237 OA
ATOM     86  O   UNL A   1      34.355  35.366  27.909  1.00  0.00    -0.237 OA
ATOM     87  O   UNL A   1      33.224  33.177  27.894  1.00  0.00    -0.744 OA
ENDBRANCH  83  84
ENDBRANCH  51  76
BRANCH  63  88
ATOM     88  C   UNL A   1      40.046  33.584  37.211  1.00  0.00     0.058 A 
ATOM     89  C   UNL A   1      40.646  34.845  37.359  1.00  0.00     0.135 A 
ATOM     90  C   UNL A   1      39.040  33.228  38.125  1.00  0.00     0.135 A 
ATOM     91  F   UNL A   1      41.615  35.235  36.516  1.00  0.00    -0.206 F 
ATOM     92  C   UNL A   1      40.286  35.705  38.393  1.00  0.00     0.059 A 
ATOM     93  C   UNL A   1      38.645  34.083  39.149  1.00  0.00     0.059 A 
ATOM     94  F   UNL A   1      38.422  32.041  38.020  1.00  0.00    -0.206 F 
ATOM     95  C   UNL A   1      39.285  35.315  39.285  1.00  0.00     0.060 A 
BRANCH  95  96
ATOM     96  S   UNL A   1      38.814  36.443  40.613  1.00  0.00     0.124 S 
ATOM     97  O   UNL A   1      37.697  35.730  41.224  1.00  0.00    -0.237 OA
ATOM     98  O   UNL A   1      40.034  36.514  41.413  1.00  0.00    -0.237 OA
ATOM     99  O   UNL A   1      38.465  37.672  39.908  1.00  0.00    -0.744 OA
ENDBRANCH  95  96
ENDBRANCH  63  88
ENDBRANCH  37  38
ENDBRANCH  30  32
ENDBRANCH  29  30
ENDBRANCH  28  29
ENDBRANCH  27  28
ENDBRANCH  26  27
ENDBRANCH  25  26
ENDBRANCH   1  25
TORSDOF 27
ENDMDL
