MODEL 1
REMARK VINA RESULT:      -6.9      0.000      0.000
REMARK SMILES COCCCC(=O)N[C@H]1CC[C@@H](C(=O)OCCOCCOCCOC(=O)c2ccc(-c3c4nc(c(-c5c(F)cc(S(=O)(=O)[O-])cc5F)c5ccc([nH]5)c(-c5c(F)cc(S(=O)(=O)[O-])cc5F)c5nc(c(-c6c(F)cc(S(=O)(=O)[O-])cc6F)c6ccc3[nH]6)C=C5)C=C4)cc2)CC1
REMARK SMILES IDX 19 1 18 2 17 3 16 4 15 5 13 6 14 7 12 8 9 9 10 10 94 11
REMARK SMILES IDX 11 12 93 13 8 14 6 15 7 16 5 18 4 19 3 20 2 21 1 22 20 23
REMARK SMILES IDX 21 24 22 25 23 26 24 27 25 28 26 29 27 30 28 31 92 32 29 33
REMARK SMILES IDX 91 34 30 35 31 36 32 37 85 38 33 39 90 40 84 41 86 42 34 43
REMARK SMILES IDX 89 44 83 45 82 46 35 48 69 49 48 50 68 51 49 52 52 53 67 54
REMARK SMILES IDX 87 55 50 56 51 57 66 59 88 60 53 61 36 62 37 63 46 64 38 65
REMARK SMILES IDX 39 66 45 67 47 68 40 69 41 70 42 71 43 72 44 73 70 74 71 75
REMARK SMILES IDX 80 76 72 77 73 78 79 79 81 80 74 81 75 82 76 83 77 84 78 85
REMARK SMILES IDX 54 86 55 87 64 88 56 89 57 90 63 91 65 92 58 93 59 94 60 95
REMARK SMILES IDX 61 96 62 97
REMARK H PARENT 8 17 86 47 52 58
REMARK Flexibility Score: inf
ROOT
ATOM      1  C   UNL A   1      36.257  31.886  28.228  1.00  0.00     0.188 C 
ENDROOT
BRANCH   1   2
ATOM      2  O   UNL A   1      37.470  31.158  28.368  1.00  0.00    -0.376 OA
BRANCH   2   3
ATOM      3  C   UNL A   1      37.442  29.774  28.033  1.00  0.00     0.202 C 
BRANCH   3   4
ATOM      4  C   UNL A   1      38.408  28.865  28.800  1.00  0.00     0.261 C 
BRANCH   4   5
ATOM      5  O   UNL A   1      39.203  28.020  27.952  1.00  0.00    -0.463 OA
BRANCH   5   6
ATOM      6  C   UNL A   1      40.490  27.824  28.343  1.00  0.00     0.309 C 
ATOM      7  O   UNL A   1      40.870  26.918  29.076  1.00  0.00    -0.252 OA
BRANCH   6   8
ATOM      8  C   UNL A   1      41.440  28.892  27.818  1.00  0.00     0.099 C 
ATOM      9  C   UNL A   1      43.677  27.672  26.315  1.00  0.00     0.082 C 
ATOM     10  C   UNL A   1      42.234  27.611  25.807  1.00  0.00     0.026 C 
ATOM     11  C   UNL A   1      43.757  27.748  27.836  1.00  0.00     0.026 C 
ATOM     12  C   UNL A   1      41.428  28.809  26.293  1.00  0.00     0.017 C 
ATOM     13  C   UNL A   1      42.877  28.886  28.370  1.00  0.00     0.017 C 
BRANCH   9  14
ATOM     14  N   UNL A   1      44.424  26.569  25.753  1.00  0.00    -0.353 N 
ATOM     15  C   UNL A   1      45.700  26.569  25.278  1.00  0.00     0.220 C 
ATOM     16  O   UNL A   1      46.050  25.637  24.549  1.00  0.00    -0.275 OA
ATOM     17  H   UNL A   1      43.949  25.708  25.707  1.00  0.00     0.163 HD
BRANCH  15  18
ATOM     18  C   UNL A   1      46.703  27.617  25.738  1.00  0.00     0.102 C 
BRANCH  18  19
ATOM     19  C   UNL A   1      47.264  27.549  27.163  1.00  0.00     0.038 C 
BRANCH  19  20
ATOM     20  C   UNL A   1      48.447  26.641  27.525  1.00  0.00     0.160 C 
BRANCH  20  21
ATOM     21  O   UNL A   1      48.361  25.224  27.466  1.00  0.00    -0.385 OA
ATOM     22  C   UNL A   1      47.159  24.559  27.784  1.00  0.00     0.194 C 
ENDBRANCH  20  21
ENDBRANCH  19  20
ENDBRANCH  18  19
ENDBRANCH  15  18
ENDBRANCH   9  14
ENDBRANCH   6   8
ENDBRANCH   5   6
ENDBRANCH   4   5
ENDBRANCH   3   4
ENDBRANCH   2   3
ENDBRANCH   1   2
BRANCH   1  23
ATOM     23  C   UNL A   1      36.357  33.403  28.372  1.00  0.00     0.188 C 
BRANCH  23  24
ATOM     24  O   UNL A   1      35.135  34.089  28.622  1.00  0.00    -0.376 OA
BRANCH  24  25
ATOM     25  C   UNL A   1      34.270  33.465  29.581  1.00  0.00     0.202 C 
BRANCH  25  26
ATOM     26  C   UNL A   1      34.419  33.936  31.045  1.00  0.00     0.261 C 
BRANCH  26  27
ATOM     27  O   UNL A   1      34.366  32.885  32.036  1.00  0.00    -0.460 OA
BRANCH  27  28
ATOM     28  C   UNL A   1      35.128  33.031  33.145  1.00  0.00     0.338 C 
ATOM     29  O   UNL A   1      34.719  33.264  34.272  1.00  0.00    -0.246 OA
BRANCH  28  30
ATOM     30  C   UNL A   1      36.518  32.589  32.835  1.00  0.00     0.060 A 
ATOM     31  C   UNL A   1      37.565  33.123  33.601  1.00  0.00     0.016 A 
ATOM     32  C   UNL A   1      36.797  31.614  31.871  1.00  0.00     0.016 A 
ATOM     33  C   UNL A   1      38.887  32.735  33.365  1.00  0.00     0.010 A 
ATOM     34  C   UNL A   1      38.124  31.230  31.629  1.00  0.00     0.010 A 
ATOM     35  C   UNL A   1      39.181  31.822  32.344  1.00  0.00    -0.014 A 
BRANCH  35  36
ATOM     36  C   UNL A   1      40.582  31.683  31.861  1.00  0.00     0.031 A 
ATOM     37  C   UNL A   1      41.146  32.798  31.016  1.00  0.00     0.074 A 
ATOM     38  C   UNL A   1      41.360  30.631  32.179  1.00  0.00     0.049 A 
ATOM     39  N   UNL A   1      42.324  32.911  30.462  1.00  0.00    -0.248 NA
ATOM     40  C   UNL A   1      40.251  33.941  30.765  1.00  0.00     0.031 C 
ATOM     41  C   UNL A   1      40.964  29.503  33.020  1.00  0.00     0.029 A 
ATOM     42  N   UNL A   1      42.657  30.345  31.823  1.00  0.00    -0.354 N 
ATOM     43  C   UNL A   1      42.312  34.131  29.796  1.00  0.00     0.074 A 
ATOM     44  C   UNL A   1      40.999  34.705  29.984  1.00  0.00     0.031 C 
ATOM     45  C   UNL A   1      41.996  28.642  33.108  1.00  0.00     0.029 A 
ATOM     46  C   UNL A   1      43.117  29.144  32.311  1.00  0.00     0.049 A 
ATOM     47  H   UNL A   1      43.206  30.946  31.269  1.00  0.00     0.167 HD
ATOM     48  C   UNL A   1      43.306  34.732  29.099  1.00  0.00     0.037 A 
ATOM     49  C   UNL A   1      44.297  28.517  32.123  1.00  0.00     0.037 A 
ATOM     50  C   UNL A   1      44.614  34.167  28.903  1.00  0.00     0.049 A 
ATOM     51  C   UNL A   1      45.366  29.169  31.278  1.00  0.00     0.074 A 
ATOM     52  C   UNL A   1      45.688  34.706  28.216  1.00  0.00     0.029 A 
ATOM     53  N   UNL A   1      45.025  32.934  29.383  1.00  0.00    -0.354 N 
ATOM     54  N   UNL A   1      45.348  30.334  30.673  1.00  0.00    -0.248 NA
ATOM     55  C   UNL A   1      46.620  28.422  31.094  1.00  0.00     0.031 C 
ATOM     56  C   UNL A   1      46.734  33.779  28.241  1.00  0.00     0.029 A 
ATOM     57  C   UNL A   1      46.330  32.685  28.990  1.00  0.00     0.049 A 
ATOM     58  H   UNL A   1      44.473  32.326  29.925  1.00  0.00     0.167 HD
ATOM     59  C   UNL A   1      46.596  30.471  30.067  1.00  0.00     0.074 A 
ATOM     60  C   UNL A   1      47.347  29.275  30.384  1.00  0.00     0.031 C 
ATOM     61  C   UNL A   1      47.076  31.496  29.321  1.00  0.00     0.037 A 
BRANCH  48  62
ATOM     62  C   UNL A   1      43.000  36.063  28.474  1.00  0.00     0.058 A 
ATOM     63  C   UNL A   1      42.572  36.172  27.141  1.00  0.00     0.135 A 
ATOM     64  C   UNL A   1      43.127  37.245  29.221  1.00  0.00     0.135 A 
ATOM     65  F   UNL A   1      42.459  35.075  26.374  1.00  0.00    -0.206 F 
ATOM     66  C   UNL A   1      42.310  37.409  26.561  1.00  0.00     0.059 A 
ATOM     67  C   UNL A   1      42.841  38.491  28.670  1.00  0.00     0.059 A 
ATOM     68  F   UNL A   1      43.537  37.197  30.498  1.00  0.00    -0.206 F 
ATOM     69  C   UNL A   1      42.450  38.563  27.335  1.00  0.00     0.060 A 
BRANCH  69  70
ATOM     70  S   UNL A   1      42.114  40.161  26.566  1.00  0.00     0.124 S 
ATOM     71  O   UNL A   1      43.247  40.288  25.654  1.00  0.00    -0.237 OA
ATOM     72  O   UNL A   1      40.816  39.939  25.937  1.00  0.00    -0.237 OA
ATOM     73  O   UNL A   1      42.110  41.087  27.694  1.00  0.00    -0.744 OA
ENDBRANCH  69  70
ENDBRANCH  48  62
BRANCH  49  74
ATOM     74  C   UNL A   1      44.544  27.183  32.740  1.00  0.00     0.058 A 
ATOM     75  C   UNL A   1      45.113  27.067  34.019  1.00  0.00     0.135 A 
ATOM     76  C   UNL A   1      44.247  25.998  32.050  1.00  0.00     0.135 A 
ATOM     77  F   UNL A   1      45.434  28.170  34.711  1.00  0.00    -0.206 F 
ATOM     78  C   UNL A   1      45.390  25.827  34.585  1.00  0.00     0.059 A 
ATOM     79  C   UNL A   1      44.491  24.745  32.606  1.00  0.00     0.059 A 
ATOM     80  F   UNL A   1      43.703  26.052  30.825  1.00  0.00    -0.206 F 
ATOM     81  C   UNL A   1      45.073  24.670  33.870  1.00  0.00     0.060 A 
BRANCH  81  82
ATOM     82  S   UNL A   1      45.397  23.064  34.632  1.00  0.00     0.124 S 
ATOM     83  O   UNL A   1      44.634  23.167  35.871  1.00  0.00    -0.237 OA
ATOM     84  O   UNL A   1      44.872  22.139  33.633  1.00  0.00    -0.237 OA
ATOM     85  O   UNL A   1      46.849  23.052  34.785  1.00  0.00    -0.744 OA
ENDBRANCH  81  82
ENDBRANCH  49  74
BRANCH  61  86
ATOM     86  C   UNL A   1      48.497  31.404  28.829  1.00  0.00     0.058 A 
ATOM     87  C   UNL A   1      49.591  31.701  29.655  1.00  0.00     0.135 A 
ATOM     88  C   UNL A   1      48.768  30.954  27.525  1.00  0.00     0.135 A 
ATOM     89  F   UNL A   1      49.392  32.135  30.911  1.00  0.00    -0.206 F 
ATOM     90  C   UNL A   1      50.902  31.582  29.201  1.00  0.00     0.059 A 
ATOM     91  C   UNL A   1      50.070  30.803  27.057  1.00  0.00     0.059 A 
ATOM     92  F   UNL A   1      47.760  30.642  26.695  1.00  0.00    -0.206 F 
ATOM     93  C   UNL A   1      51.131  31.131  27.898  1.00  0.00     0.060 A 
BRANCH  93  94
ATOM     94  S   UNL A   1      52.836  30.955  27.328  1.00  0.00     0.124 S 
ATOM     95  O   UNL A   1      53.395  32.261  27.665  1.00  0.00    -0.237 OA
ATOM     96  O   UNL A   1      53.319  29.833  28.125  1.00  0.00    -0.237 OA
ATOM     97  O   UNL A   1      52.691  30.686  25.900  1.00  0.00    -0.744 OA
ENDBRANCH  93  94
ENDBRANCH  61  86
ENDBRANCH  35  36
ENDBRANCH  28  30
ENDBRANCH  27  28
ENDBRANCH  26  27
ENDBRANCH  25  26
ENDBRANCH  24  25
ENDBRANCH  23  24
ENDBRANCH   1  23
TORSDOF 25
ENDMDL
MODEL 2
REMARK VINA RESULT:      -6.7      5.445      7.788
REMARK SMILES COCCCC(=O)N[C@H]1CC[C@@H](C(=O)OCCOCCOCCOC(=O)c2ccc(-c3c4nc(c(-c5c(F)cc(S(=O)(=O)[O-])cc5F)c5ccc([nH]5)c(-c5c(F)cc(S(=O)(=O)[O-])cc5F)c5nc(c(-c6c(F)cc(S(=O)(=O)[O-])cc6F)c6ccc3[nH]6)C=C5)C=C4)cc2)CC1
REMARK SMILES IDX 19 1 18 2 17 3 16 4 15 5 13 6 14 7 12 8 9 9 10 10 94 11
REMARK SMILES IDX 11 12 93 13 8 14 6 15 7 16 5 18 4 19 3 20 2 21 1 22 20 23
REMARK SMILES IDX 21 24 22 25 23 26 24 27 25 28 26 29 27 30 28 31 92 32 29 33
REMARK SMILES IDX 91 34 30 35 31 36 32 37 85 38 33 39 90 40 84 41 86 42 34 43
REMARK SMILES IDX 89 44 83 45 82 46 35 48 69 49 48 50 68 51 49 52 52 53 67 54
REMARK SMILES IDX 87 55 50 56 51 57 66 59 88 60 53 61 36 62 37 63 46 64 38 65
REMARK SMILES IDX 39 66 45 67 47 68 40 69 41 70 42 71 43 72 44 73 70 74 71 75
REMARK SMILES IDX 80 76 72 77 73 78 79 79 81 80 74 81 75 82 76 83 77 84 78 85
REMARK SMILES IDX 54 86 55 87 64 88 56 89 57 90 63 91 65 92 58 93 59 94 60 95
REMARK SMILES IDX 61 96 62 97
REMARK H PARENT 8 17 86 47 52 58
REMARK Flexibility Score: inf
ROOT
ATOM      1  C   UNL A   1      33.530  31.380  27.568  1.00  0.00     0.188 C 
ENDROOT
BRANCH   1   2
ATOM      2  O   UNL A   1      33.282  30.133  26.931  1.00  0.00    -0.376 OA
BRANCH   2   3
ATOM      3  C   UNL A   1      31.951  29.878  26.492  1.00  0.00     0.202 C 
BRANCH   3   4
ATOM      4  C   UNL A   1      31.776  29.518  25.012  1.00  0.00     0.261 C 
BRANCH   4   5
ATOM      5  O   UNL A   1      32.434  28.298  24.632  1.00  0.00    -0.463 OA
BRANCH   5   6
ATOM      6  C   UNL A   1      31.655  27.365  24.023  1.00  0.00     0.309 C 
ATOM      7  O   UNL A   1      31.366  27.363  22.832  1.00  0.00    -0.252 OA
BRANCH   6   8
ATOM      8  C   UNL A   1      31.113  26.320  24.989  1.00  0.00     0.099 C 
ATOM      9  C   UNL A   1      32.804  23.894  24.981  1.00  0.00     0.082 C 
ATOM     10  C   UNL A   1      33.319  25.235  25.510  1.00  0.00     0.026 C 
ATOM     11  C   UNL A   1      31.740  24.062  23.902  1.00  0.00     0.026 C 
ATOM     12  C   UNL A   1      32.179  26.085  26.057  1.00  0.00     0.017 C 
ATOM     13  C   UNL A   1      30.621  24.994  24.383  1.00  0.00     0.017 C 
BRANCH   9  14
ATOM     14  N   UNL A   1      33.930  23.087  24.561  1.00  0.00    -0.353 N 
ATOM     15  C   UNL A   1      34.096  21.742  24.685  1.00  0.00     0.220 C 
ATOM     16  O   UNL A   1      35.236  21.284  24.571  1.00  0.00    -0.275 OA
ATOM     17  H   UNL A   1      34.669  23.574  24.131  1.00  0.00     0.163 HD
BRANCH  15  18
ATOM     18  C   UNL A   1      32.896  20.818  24.829  1.00  0.00     0.102 C 
BRANCH  18  19
ATOM     19  C   UNL A   1      33.036  19.521  25.635  1.00  0.00     0.038 C 
BRANCH  19  20
ATOM     20  C   UNL A   1      32.481  18.185  25.122  1.00  0.00     0.160 C 
BRANCH  20  21
ATOM     21  O   UNL A   1      33.035  16.935  25.511  1.00  0.00    -0.385 OA
ATOM     22  C   UNL A   1      33.422  15.985  24.543  1.00  0.00     0.194 C 
ENDBRANCH  20  21
ENDBRANCH  19  20
ENDBRANCH  18  19
ENDBRANCH  15  18
ENDBRANCH   9  14
ENDBRANCH   6   8
ENDBRANCH   5   6
ENDBRANCH   4   5
ENDBRANCH   3   4
ENDBRANCH   2   3
ENDBRANCH   1   2
BRANCH   1  23
ATOM     23  C   UNL A   1      34.916  31.564  28.180  1.00  0.00     0.188 C 
BRANCH  23  24
ATOM     24  O   UNL A   1      34.961  32.239  29.432  1.00  0.00    -0.376 OA
BRANCH  24  25
ATOM     25  C   UNL A   1      35.717  31.576  30.456  1.00  0.00     0.202 C 
BRANCH  25  26
ATOM     26  C   UNL A   1      36.116  32.435  31.676  1.00  0.00     0.261 C 
BRANCH  26  27
ATOM     27  O   UNL A   1      37.175  31.886  32.492  1.00  0.00    -0.460 OA
BRANCH  27  28
ATOM     28  C   UNL A   1      38.360  32.541  32.505  1.00  0.00     0.338 C 
ATOM     29  O   UNL A   1      38.629  33.526  33.175  1.00  0.00    -0.246 OA
BRANCH  28  30
ATOM     30  C   UNL A   1      39.374  31.714  31.789  1.00  0.00     0.060 A 
ATOM     31  C   UNL A   1      40.181  30.857  32.552  1.00  0.00     0.016 A 
ATOM     32  C   UNL A   1      39.488  31.708  30.395  1.00  0.00     0.016 A 
ATOM     33  C   UNL A   1      41.139  30.047  31.935  1.00  0.00     0.010 A 
ATOM     34  C   UNL A   1      40.453  30.902  29.775  1.00  0.00     0.010 A 
ATOM     35  C   UNL A   1      41.315  30.100  30.545  1.00  0.00    -0.014 A 
BRANCH  35  36
ATOM     36  C   UNL A   1      42.545  29.525  29.937  1.00  0.00     0.031 A 
ATOM     37  C   UNL A   1      43.778  30.394  29.893  1.00  0.00     0.074 A 
ATOM     38  C   UNL A   1      42.603  28.265  29.467  1.00  0.00     0.049 A 
ATOM     39  N   UNL A   1      44.963  30.136  29.405  1.00  0.00    -0.248 NA
ATOM     40  C   UNL A   1      43.649  31.737  30.484  1.00  0.00     0.031 C 
ATOM     41  C   UNL A   1      41.506  27.299  29.482  1.00  0.00     0.029 A 
ATOM     42  N   UNL A   1      43.643  27.582  28.879  1.00  0.00    -0.354 N 
ATOM     43  C   UNL A   1      45.718  31.283  29.626  1.00  0.00     0.074 A 
ATOM     44  C   UNL A   1      44.848  32.249  30.258  1.00  0.00     0.031 C 
ATOM     45  C   UNL A   1      41.929  26.151  28.921  1.00  0.00     0.029 A 
ATOM     46  C   UNL A   1      43.318  26.305  28.484  1.00  0.00     0.049 A 
ATOM     47  H   UNL A   1      44.537  27.973  28.753  1.00  0.00     0.167 HD
ATOM     48  C   UNL A   1      47.022  31.512  29.341  1.00  0.00     0.037 A 
ATOM     49  C   UNL A   1      44.050  25.377  27.833  1.00  0.00     0.037 A 
ATOM     50  C   UNL A   1      47.894  30.560  28.708  1.00  0.00     0.049 A 
ATOM     51  C   UNL A   1      45.481  25.681  27.456  1.00  0.00     0.074 A 
ATOM     52  C   UNL A   1      49.232  30.701  28.386  1.00  0.00     0.029 A 
ATOM     53  N   UNL A   1      47.515  29.292  28.293  1.00  0.00    -0.354 N 
ATOM     54  N   UNL A   1      46.188  26.762  27.690  1.00  0.00    -0.248 NA
ATOM     55  C   UNL A   1      46.216  24.635  26.727  1.00  0.00     0.031 C 
ATOM     56  C   UNL A   1      49.651  29.538  27.733  1.00  0.00     0.029 A 
ATOM     57  C   UNL A   1      48.588  28.649  27.698  1.00  0.00     0.049 A 
ATOM     58  H   UNL A   1      46.617  28.907  28.405  1.00  0.00     0.167 HD
ATOM     59  C   UNL A   1      47.456  26.511  27.169  1.00  0.00     0.074 A 
ATOM     60  C   UNL A   1      47.422  25.175  26.613  1.00  0.00     0.031 C 
ATOM     61  C   UNL A   1      48.549  27.314  27.158  1.00  0.00     0.037 A 
BRANCH  48  62
ATOM     62  C   UNL A   1      47.575  32.865  29.691  1.00  0.00     0.058 A 
ATOM     63  C   UNL A   1      47.515  33.942  28.793  1.00  0.00     0.135 A 
ATOM     64  C   UNL A   1      48.163  33.089  30.946  1.00  0.00     0.135 A 
ATOM     65  F   UNL A   1      46.986  33.776  27.570  1.00  0.00    -0.206 F 
ATOM     66  C   UNL A   1      48.046  35.187  29.114  1.00  0.00     0.059 A 
ATOM     67  C   UNL A   1      48.674  34.333  31.301  1.00  0.00     0.059 A 
ATOM     68  F   UNL A   1      48.250  32.092  31.840  1.00  0.00    -0.206 F 
ATOM     69  C   UNL A   1      48.627  35.371  30.371  1.00  0.00     0.060 A 
BRANCH  69  70
ATOM     70  S   UNL A   1      49.319  36.989  30.772  1.00  0.00     0.124 S 
ATOM     71  O   UNL A   1      50.271  36.645  31.823  1.00  0.00    -0.237 OA
ATOM     72  O   UNL A   1      49.902  37.402  29.499  1.00  0.00    -0.237 OA
ATOM     73  O   UNL A   1      48.157  37.759  31.204  1.00  0.00    -0.744 OA
ENDBRANCH  69  70
ENDBRANCH  48  62
BRANCH  49  74
ATOM     74  C   UNL A   1      43.449  24.060  27.481  1.00  0.00     0.058 A 
ATOM     75  C   UNL A   1      42.901  23.828  26.209  1.00  0.00     0.135 A 
ATOM     76  C   UNL A   1      43.381  23.018  28.418  1.00  0.00     0.135 A 
ATOM     77  F   UNL A   1      42.923  24.799  25.283  1.00  0.00    -0.206 F 
ATOM     78  C   UNL A   1      42.296  22.618  25.884  1.00  0.00     0.059 A 
ATOM     79  C   UNL A   1      42.804  21.789  28.109  1.00  0.00     0.059 A 
ATOM     80  F   UNL A   1      43.889  23.187  29.649  1.00  0.00    -0.206 F 
ATOM     81  C   UNL A   1      42.254  21.603  26.842  1.00  0.00     0.060 A 
BRANCH  81  82
ATOM     82  S   UNL A   1      41.505  20.020  26.396  1.00  0.00     0.124 S 
ATOM     83  O   UNL A   1      41.723  19.239  27.608  1.00  0.00    -0.237 OA
ATOM     84  O   UNL A   1      40.122  20.402  26.123  1.00  0.00    -0.237 OA
ATOM     85  O   UNL A   1      42.274  19.602  25.228  1.00  0.00    -0.744 OA
ENDBRANCH  81  82
ENDBRANCH  49  74
BRANCH  61  86
ATOM     86  C   UNL A   1      49.821  26.762  26.568  1.00  0.00     0.058 A 
ATOM     87  C   UNL A   1      50.193  27.008  25.237  1.00  0.00     0.135 A 
ATOM     88  C   UNL A   1      50.710  26.022  27.367  1.00  0.00     0.135 A 
ATOM     89  F   UNL A   1      49.381  27.708  24.428  1.00  0.00    -0.206 F 
ATOM     90  C   UNL A   1      51.385  26.519  24.711  1.00  0.00     0.059 A 
ATOM     91  C   UNL A   1      51.920  25.546  26.870  1.00  0.00     0.059 A 
ATOM     92  F   UNL A   1      50.413  25.768  28.652  1.00  0.00    -0.206 F 
ATOM     93  C   UNL A   1      52.244  25.789  25.537  1.00  0.00     0.060 A 
BRANCH  93  94
ATOM     94  S   UNL A   1      53.801  25.183  24.851  1.00  0.00     0.124 S 
ATOM     95  O   UNL A   1      53.443  24.971  23.452  1.00  0.00    -0.237 OA
ATOM     96  O   UNL A   1      54.712  26.293  25.112  1.00  0.00    -0.237 OA
ATOM     97  O   UNL A   1      54.063  23.971  25.622  1.00  0.00    -0.744 OA
ENDBRANCH  93  94
ENDBRANCH  61  86
ENDBRANCH  35  36
ENDBRANCH  28  30
ENDBRANCH  27  28
ENDBRANCH  26  27
ENDBRANCH  25  26
ENDBRANCH  24  25
ENDBRANCH  23  24
ENDBRANCH   1  23
TORSDOF 25
ENDMDL
MODEL 3
REMARK VINA RESULT:      -6.6      1.240      8.249
REMARK SMILES COCCCC(=O)N[C@H]1CC[C@@H](C(=O)OCCOCCOCCOC(=O)c2ccc(-c3c4nc(c(-c5c(F)cc(S(=O)(=O)[O-])cc5F)c5ccc([nH]5)c(-c5c(F)cc(S(=O)(=O)[O-])cc5F)c5nc(c(-c6c(F)cc(S(=O)(=O)[O-])cc6F)c6ccc3[nH]6)C=C5)C=C4)cc2)CC1
REMARK SMILES IDX 19 1 18 2 17 3 16 4 15 5 13 6 14 7 12 8 9 9 10 10 94 11
REMARK SMILES IDX 11 12 93 13 8 14 6 15 7 16 5 18 4 19 3 20 2 21 1 22 20 23
REMARK SMILES IDX 21 24 22 25 23 26 24 27 25 28 26 29 27 30 28 31 92 32 29 33
REMARK SMILES IDX 91 34 30 35 31 36 32 37 85 38 33 39 90 40 84 41 86 42 34 43
REMARK SMILES IDX 89 44 83 45 82 46 35 48 69 49 48 50 68 51 49 52 52 53 67 54
REMARK SMILES IDX 87 55 50 56 51 57 66 59 88 60 53 61 36 62 37 63 46 64 38 65
REMARK SMILES IDX 39 66 45 67 47 68 40 69 41 70 42 71 43 72 44 73 70 74 71 75
REMARK SMILES IDX 80 76 72 77 73 78 79 79 81 80 74 81 75 82 76 83 77 84 78 85
REMARK SMILES IDX 54 86 55 87 64 88 56 89 57 90 63 91 65 92 58 93 59 94 60 95
REMARK SMILES IDX 61 96 62 97
REMARK H PARENT 8 17 86 47 52 58
REMARK Flexibility Score: inf
ROOT
ATOM      1  C   UNL A   1      36.487  31.668  28.267  1.00  0.00     0.188 C 
ENDROOT
BRANCH   1   2
ATOM      2  O   UNL A   1      37.678  30.896  28.340  1.00  0.00    -0.376 OA
BRANCH   2   3
ATOM      3  C   UNL A   1      37.562  29.495  28.106  1.00  0.00     0.202 C 
BRANCH   3   4
ATOM      4  C   UNL A   1      38.466  28.584  28.944  1.00  0.00     0.261 C 
BRANCH   4   5
ATOM      5  O   UNL A   1      39.251  27.670  28.161  1.00  0.00    -0.463 OA
BRANCH   5   6
ATOM      6  C   UNL A   1      40.589  27.677  28.399  1.00  0.00     0.309 C 
ATOM      7  O   UNL A   1      41.204  26.784  28.970  1.00  0.00    -0.252 OA
BRANCH   6   8
ATOM      8  C   UNL A   1      41.271  28.955  27.926  1.00  0.00     0.099 C 
ATOM      9  C   UNL A   1      43.414  28.354  25.979  1.00  0.00     0.082 C 
ATOM     10  C   UNL A   1      41.937  28.107  25.657  1.00  0.00     0.026 C 
ATOM     11  C   UNL A   1      43.712  28.244  27.470  1.00  0.00     0.026 C 
ATOM     12  C   UNL A   1      41.039  29.071  26.421  1.00  0.00     0.017 C 
ATOM     13  C   UNL A   1      42.758  29.129  28.282  1.00  0.00     0.017 C 
BRANCH   9  14
ATOM     14  N   UNL A   1      44.229  27.482  25.161  1.00  0.00    -0.353 N 
ATOM     15  C   UNL A   1      44.544  26.175  25.377  1.00  0.00     0.220 C 
ATOM     16  O   UNL A   1      45.499  25.698  24.759  1.00  0.00    -0.275 OA
ATOM     17  H   UNL A   1      44.603  27.885  24.345  1.00  0.00     0.163 HD
BRANCH  15  18
ATOM     18  C   UNL A   1      43.666  25.296  26.254  1.00  0.00     0.102 C 
BRANCH  18  19
ATOM     19  C   UNL A   1      42.659  24.344  25.599  1.00  0.00     0.038 C 
BRANCH  19  20
ATOM     20  C   UNL A   1      43.050  22.926  25.161  1.00  0.00     0.160 C 
BRANCH  20  21
ATOM     21  O   UNL A   1      42.274  21.786  25.504  1.00  0.00    -0.385 OA
ATOM     22  C   UNL A   1      42.895  20.581  25.896  1.00  0.00     0.194 C 
ENDBRANCH  20  21
ENDBRANCH  19  20
ENDBRANCH  18  19
ENDBRANCH  15  18
ENDBRANCH   9  14
ENDBRANCH   6   8
ENDBRANCH   5   6
ENDBRANCH   4   5
ENDBRANCH   3   4
ENDBRANCH   2   3
ENDBRANCH   1   2
BRANCH   1  23
ATOM     23  C   UNL A   1      36.621  33.152  28.601  1.00  0.00     0.188 C 
BRANCH  23  24
ATOM     24  O   UNL A   1      35.403  33.855  28.822  1.00  0.00    -0.376 OA
BRANCH  24  25
ATOM     25  C   UNL A   1      34.466  33.196  29.684  1.00  0.00     0.202 C 
BRANCH  25  26
ATOM     26  C   UNL A   1      34.454  33.654  31.159  1.00  0.00     0.261 C 
BRANCH  26  27
ATOM     27  O   UNL A   1      34.611  32.596  32.131  1.00  0.00    -0.460 OA
BRANCH  27  28
ATOM     28  C   UNL A   1      35.409  32.839  33.198  1.00  0.00     0.338 C 
ATOM     29  O   UNL A   1      35.035  33.038  34.343  1.00  0.00    -0.246 OA
BRANCH  28  30
ATOM     30  C   UNL A   1      36.822  32.551  32.817  1.00  0.00     0.060 A 
ATOM     31  C   UNL A   1      37.840  33.233  33.500  1.00  0.00     0.016 A 
ATOM     32  C   UNL A   1      37.159  31.577  31.871  1.00  0.00     0.016 A 
ATOM     33  C   UNL A   1      39.183  32.993  33.196  1.00  0.00     0.010 A 
ATOM     34  C   UNL A   1      38.506  31.341  31.561  1.00  0.00     0.010 A 
ATOM     35  C   UNL A   1      39.524  32.080  32.189  1.00  0.00    -0.014 A 
BRANCH  35  36
ATOM     36  C   UNL A   1      40.902  32.086  31.627  1.00  0.00     0.031 A 
ATOM     37  C   UNL A   1      41.767  30.877  31.880  1.00  0.00     0.074 A 
ATOM     38  C   UNL A   1      41.379  33.101  30.882  1.00  0.00     0.049 A 
ATOM     39  N   UNL A   1      43.001  30.642  31.516  1.00  0.00    -0.248 NA
ATOM     40  C   UNL A   1      41.150  29.784  32.651  1.00  0.00     0.031 C 
ATOM     41  C   UNL A   1      40.644  34.312  30.521  1.00  0.00     0.029 A 
ATOM     42  N   UNL A   1      42.612  33.269  30.294  1.00  0.00    -0.354 N 
ATOM     43  C   UNL A   1      43.307  29.381  32.014  1.00  0.00     0.074 A 
ATOM     44  C   UNL A   1      42.145  28.916  32.737  1.00  0.00     0.031 C 
ATOM     45  C   UNL A   1      41.443  35.102  29.780  1.00  0.00     0.029 A 
ATOM     46  C   UNL A   1      42.754  34.467  29.633  1.00  0.00     0.049 A 
ATOM     47  H   UNL A   1      43.326  32.593  30.343  1.00  0.00     0.167 HD
ATOM     48  C   UNL A   1      44.448  28.664  31.875  1.00  0.00     0.037 A 
ATOM     49  C   UNL A   1      43.822  34.995  28.999  1.00  0.00     0.037 A 
ATOM     50  C   UNL A   1      45.611  29.120  31.163  1.00  0.00     0.049 A 
ATOM     51  C   UNL A   1      45.111  34.211  28.922  1.00  0.00     0.074 A 
ATOM     52  C   UNL A   1      46.811  28.459  30.964  1.00  0.00     0.029 A 
ATOM     53  N   UNL A   1      45.726  30.353  30.540  1.00  0.00    -0.354 N 
ATOM     54  N   UNL A   1      45.379  33.010  29.379  1.00  0.00    -0.248 NA
ATOM     55  C   UNL A   1      46.244  34.854  28.237  1.00  0.00     0.031 C 
ATOM     56  C   UNL A   1      47.668  29.311  30.261  1.00  0.00     0.029 A 
ATOM     57  C   UNL A   1      46.984  30.482  29.974  1.00  0.00     0.049 A 
ATOM     58  H   UNL A   1      45.018  31.035  30.504  1.00  0.00     0.167 HD
ATOM     59  C   UNL A   1      46.696  32.743  29.008  1.00  0.00     0.074 A 
ATOM     60  C   UNL A   1      47.168  33.903  28.283  1.00  0.00     0.031 C 
ATOM     61  C   UNL A   1      47.442  31.636  29.243  1.00  0.00     0.037 A 
BRANCH  48  62
ATOM     62  C   UNL A   1      44.497  27.316  32.537  1.00  0.00     0.058 A 
ATOM     63  C   UNL A   1      44.248  26.133  31.823  1.00  0.00     0.135 A 
ATOM     64  C   UNL A   1      44.807  27.206  33.902  1.00  0.00     0.135 A 
ATOM     65  F   UNL A   1      43.922  26.184  30.522  1.00  0.00    -0.206 F 
ATOM     66  C   UNL A   1      44.275  24.889  32.446  1.00  0.00     0.059 A 
ATOM     67  C   UNL A   1      44.869  25.970  34.539  1.00  0.00     0.059 A 
ATOM     68  F   UNL A   1      45.049  28.306  34.632  1.00  0.00    -0.206 F 
ATOM     69  C   UNL A   1      44.584  24.820  33.806  1.00  0.00     0.060 A 
BRANCH  69  70
ATOM     70  S   UNL A   1      44.607  23.200  34.602  1.00  0.00     0.124 S 
ATOM     71  O   UNL A   1      43.395  22.593  34.061  1.00  0.00    -0.237 OA
ATOM     72  O   UNL A   1      45.865  22.635  34.124  1.00  0.00    -0.237 OA
ATOM     73  O   UNL A   1      44.568  23.519  36.025  1.00  0.00    -0.744 OA
ENDBRANCH  69  70
ENDBRANCH  48  62
BRANCH  49  74
ATOM     74  C   UNL A   1      43.735  36.349  28.383  1.00  0.00     0.058 A 
ATOM     75  C   UNL A   1      44.252  37.479  29.037  1.00  0.00     0.135 A 
ATOM     76  C   UNL A   1      43.103  36.545  27.146  1.00  0.00     0.135 A 
ATOM     77  F   UNL A   1      44.846  37.349  30.232  1.00  0.00    -0.206 F 
ATOM     78  C   UNL A   1      44.134  38.755  28.493  1.00  0.00     0.059 A 
ATOM     79  C   UNL A   1      42.996  37.808  26.569  1.00  0.00     0.059 A 
ATOM     80  F   UNL A   1      42.591  35.499  26.479  1.00  0.00    -0.206 F 
ATOM     81  C   UNL A   1      43.505  38.908  27.256  1.00  0.00     0.060 A 
BRANCH  81  82
ATOM     82  S   UNL A   1      43.396  40.563  26.538  1.00  0.00     0.124 S 
ATOM     83  O   UNL A   1      43.727  41.403  27.684  1.00  0.00    -0.237 OA
ATOM     84  O   UNL A   1      44.399  40.504  25.479  1.00  0.00    -0.237 OA
ATOM     85  O   UNL A   1      42.013  40.639  26.078  1.00  0.00    -0.744 OA
ENDBRANCH  81  82
ENDBRANCH  49  74
BRANCH  61  86
ATOM     86  C   UNL A   1      48.837  31.593  28.673  1.00  0.00     0.058 A 
ATOM     87  C   UNL A   1      49.103  31.080  27.395  1.00  0.00     0.135 A 
ATOM     88  C   UNL A   1      49.915  32.128  29.399  1.00  0.00     0.135 A 
ATOM     89  F   UNL A   1      48.110  30.556  26.657  1.00  0.00    -0.206 F 
ATOM     90  C   UNL A   1      50.390  31.074  26.866  1.00  0.00     0.059 A 
ATOM     91  C   UNL A   1      51.206  32.157  28.879  1.00  0.00     0.059 A 
ATOM     92  F   UNL A   1      49.717  32.646  30.622  1.00  0.00    -0.206 F 
ATOM     93  C   UNL A   1      51.437  31.616  27.617  1.00  0.00     0.060 A 
BRANCH  93  94
ATOM     94  S   UNL A   1      53.098  31.627  26.908  1.00  0.00     0.124 S 
ATOM     95  O   UNL A   1      53.672  30.416  27.486  1.00  0.00    -0.237 OA
ATOM     96  O   UNL A   1      52.829  31.580  25.475  1.00  0.00    -0.237 OA
ATOM     97  O   UNL A   1      53.666  32.882  27.393  1.00  0.00    -0.744 OA
ENDBRANCH  93  94
ENDBRANCH  61  86
ENDBRANCH  35  36
ENDBRANCH  28  30
ENDBRANCH  27  28
ENDBRANCH  26  27
ENDBRANCH  25  26
ENDBRANCH  24  25
ENDBRANCH  23  24
ENDBRANCH   1  23
TORSDOF 25
ENDMDL
