MODEL 1
REMARK VINA RESULT:     -11.0      0.000      0.000
REMARK SMILES C[C@H](NC(=O)c1c(C(=O)OCCOCCOCCOC(=O)c2ccc(-c3c4nc(c(-c5c(F)cc(S(=O)(=O)[O-])cc5F)c5ccc([nH]5)c(-c5c(F)cc(S(=O)(=O)[O-])cc5F)c5nc(c(-c6c(F)cc(S(=O)(=O)[O-])cc6F)c6ccc3[nH]6)C=C5)C=C4)cc2)cnn1C)[C@]12C[C@H]3C[C@H](C[C@H](C3)C1)C2
REMARK SMILES IDX 14 1 13 2 12 3 11 4 10 5 8 6 9 7 7 8 6 9 90 10 88 11 89 12
REMARK SMILES IDX 91 13 4 14 3 15 5 17 2 18 1 19 92 20 93 21 100 22 101 23
REMARK SMILES IDX 94 24 98 25 96 26 95 27 99 28 97 29 15 30 16 31 17 32 18 33
REMARK SMILES IDX 19 34 20 35 21 36 22 37 23 38 87 39 24 40 86 41 25 42 26 43
REMARK SMILES IDX 27 44 80 45 28 46 85 47 79 48 81 49 29 50 84 51 78 52 77 53
REMARK SMILES IDX 30 55 64 56 43 57 63 58 44 59 47 60 62 61 82 62 45 63 46 64
REMARK SMILES IDX 61 66 83 67 48 68 31 69 32 70 41 71 33 72 34 73 40 74 42 75
REMARK SMILES IDX 35 76 36 77 37 78 38 79 39 80 65 81 66 82 75 83 67 84 68 85
REMARK SMILES IDX 74 86 76 87 69 88 70 89 71 90 72 91 73 92 49 93 50 94 59 95
REMARK SMILES IDX 51 96 52 97 58 98 60 99 53 100 54 101 55 102 56 103 57 104
REMARK H PARENT 3 16 81 54 47 65
REMARK Flexibility Score: inf
ROOT
ATOM      1  C   UNL A   1      40.467  19.903  26.279  1.00  0.00     0.188 C 
ENDROOT
BRANCH   1   2
ATOM      2  O   UNL A   1      39.875  21.071  26.839  1.00  0.00    -0.376 OA
BRANCH   2   3
ATOM      3  C   UNL A   1      39.172  21.976  25.996  1.00  0.00     0.202 C 
BRANCH   3   4
ATOM      4  C   UNL A   1      37.856  21.477  25.397  1.00  0.00     0.261 C 
BRANCH   4   5
ATOM      5  O   UNL A   1      36.799  22.442  25.529  1.00  0.00    -0.460 OA
BRANCH   5   6
ATOM      6  C   UNL A   1      36.343  22.969  24.359  1.00  0.00     0.342 C 
ATOM      7  O   UNL A   1      36.738  22.630  23.249  1.00  0.00    -0.246 OA
BRANCH   6   8
ATOM      8  C   UNL A   1      35.218  23.871  24.511  1.00  0.00     0.111 A 
ATOM      9  C   UNL A   1      33.929  23.840  23.966  1.00  0.00     0.140 A 
ATOM     10  N   UNL A   1      33.256  24.799  24.692  1.00  0.00    -0.262 N 
ATOM     11  C   UNL A   1      35.240  25.023  25.328  1.00  0.00     0.151 A 
ATOM     12  N   UNL A   1      34.064  25.643  25.357  1.00  0.00    -0.180 NA
ATOM     13  C   UNL A   1      31.848  24.860  25.006  1.00  0.00     0.174 C 
BRANCH   9  14
ATOM     14  C   UNL A   1      33.358  22.867  23.071  1.00  0.00     0.270 C 
ATOM     15  N   UNL A   1      33.116  21.571  23.467  1.00  0.00    -0.348 N 
ATOM     16  H   UNL A   1      32.869  20.976  22.723  1.00  0.00     0.164 HD
ATOM     17  O   UNL A   1      33.056  23.146  21.911  1.00  0.00    -0.267 OA
BRANCH  15  18
ATOM     18  C   UNL A   1      33.152  20.889  24.773  1.00  0.00     0.085 C 
ATOM     19  C   UNL A   1      31.932  21.315  25.595  1.00  0.00     0.031 C 
BRANCH  18  20
ATOM     20  C   UNL A   1      33.298  19.328  24.608  1.00  0.00    -0.009 C 
ATOM     21  C   UNL A   1      32.709  18.583  25.845  1.00  0.00     0.012 C 
ATOM     22  C   UNL A   1      34.800  18.931  24.511  1.00  0.00     0.012 C 
ATOM     23  C   UNL A   1      32.574  18.782  23.345  1.00  0.00     0.012 C 
ATOM     24  C   UNL A   1      32.889  17.057  25.719  1.00  0.00    -0.010 C 
ATOM     25  C   UNL A   1      34.980  17.410  24.374  1.00  0.00    -0.010 C 
ATOM     26  C   UNL A   1      32.756  17.256  23.214  1.00  0.00    -0.010 C 
ATOM     27  C   UNL A   1      32.168  16.565  24.455  1.00  0.00     0.007 C 
ATOM     28  C   UNL A   1      34.383  16.722  25.610  1.00  0.00     0.007 C 
ATOM     29  C   UNL A   1      34.252  16.927  23.113  1.00  0.00     0.007 C 
ENDBRANCH  18  20
ENDBRANCH  15  18
ENDBRANCH   9  14
ENDBRANCH   6   8
ENDBRANCH   5   6
ENDBRANCH   4   5
ENDBRANCH   3   4
ENDBRANCH   2   3
ENDBRANCH   1   2
BRANCH   1  30
ATOM     30  C   UNL A   1      41.995  19.721  26.347  1.00  0.00     0.188 C 
BRANCH  30  31
ATOM     31  O   UNL A   1      42.727  20.601  25.504  1.00  0.00    -0.376 OA
BRANCH  31  32
ATOM     32  C   UNL A   1      43.254  21.762  26.127  1.00  0.00     0.202 C 
BRANCH  32  33
ATOM     33  C   UNL A   1      42.746  23.058  25.489  1.00  0.00     0.261 C 
BRANCH  33  34
ATOM     34  O   UNL A   1      42.179  23.996  26.418  1.00  0.00    -0.460 OA
BRANCH  34  35
ATOM     35  C   UNL A   1      42.163  25.294  26.042  1.00  0.00     0.338 C 
ATOM     36  O   UNL A   1      42.114  25.732  24.907  1.00  0.00    -0.246 OA
BRANCH  35  37
ATOM     37  C   UNL A   1      42.049  26.115  27.261  1.00  0.00     0.060 A 
ATOM     38  C   UNL A   1      41.046  25.812  28.190  1.00  0.00     0.016 A 
ATOM     39  C   UNL A   1      42.922  27.184  27.478  1.00  0.00     0.016 A 
ATOM     40  C   UNL A   1      40.898  26.603  29.331  1.00  0.00     0.010 A 
ATOM     41  C   UNL A   1      42.763  27.981  28.612  1.00  0.00     0.010 A 
ATOM     42  C   UNL A   1      41.735  27.711  29.529  1.00  0.00    -0.014 A 
BRANCH  42  43
ATOM     43  C   UNL A   1      41.447  28.682  30.611  1.00  0.00     0.031 A 
ATOM     44  C   UNL A   1      42.265  28.619  31.871  1.00  0.00     0.074 A 
ATOM     45  C   UNL A   1      40.460  29.587  30.486  1.00  0.00     0.049 A 
ATOM     46  N   UNL A   1      42.158  29.326  32.965  1.00  0.00    -0.248 NA
ATOM     47  C   UNL A   1      43.348  27.621  31.903  1.00  0.00     0.031 C 
ATOM     48  C   UNL A   1      39.605  29.754  29.311  1.00  0.00     0.029 A 
ATOM     49  N   UNL A   1      40.002  30.530  31.372  1.00  0.00    -0.354 N 
ATOM     50  C   UNL A   1      43.153  28.861  33.814  1.00  0.00     0.074 A 
ATOM     51  C   UNL A   1      43.843  27.796  33.120  1.00  0.00     0.031 C 
ATOM     52  C   UNL A   1      38.713  30.731  29.557  1.00  0.00     0.029 A 
ATOM     53  C   UNL A   1      38.919  31.241  30.911  1.00  0.00     0.049 A 
ATOM     54  H   UNL A   1      40.409  30.682  32.255  1.00  0.00     0.167 HD
ATOM     55  C   UNL A   1      43.469  29.287  35.060  1.00  0.00     0.037 A 
ATOM     56  C   UNL A   1      38.172  32.183  31.522  1.00  0.00     0.037 A 
ATOM     57  C   UNL A   1      42.784  30.345  35.752  1.00  0.00     0.049 A 
ATOM     58  C   UNL A   1      38.515  32.604  32.929  1.00  0.00     0.074 A 
ATOM     59  C   UNL A   1      43.052  30.867  37.005  1.00  0.00     0.029 A 
ATOM     60  N   UNL A   1      41.691  31.038  35.254  1.00  0.00    -0.354 N 
ATOM     61  N   UNL A   1      39.488  32.186  33.704  1.00  0.00    -0.248 NA
ATOM     62  C   UNL A   1      37.655  33.624  33.547  1.00  0.00     0.031 C 
ATOM     63  C   UNL A   1      42.099  31.853  37.281  1.00  0.00     0.029 A 
ATOM     64  C   UNL A   1      41.260  31.968  36.184  1.00  0.00     0.049 A 
ATOM     65  H   UNL A   1      41.282  30.889  34.371  1.00  0.00     0.167 HD
ATOM     66  C   UNL A   1      39.374  32.914  34.884  1.00  0.00     0.074 A 
ATOM     67  C   UNL A   1      38.242  33.800  34.724  1.00  0.00     0.031 C 
ATOM     68  C   UNL A   1      40.140  32.855  36.001  1.00  0.00     0.037 A 
BRANCH  55  69
ATOM     69  C   UNL A   1      44.602  28.599  35.762  1.00  0.00     0.058 A 
ATOM     70  C   UNL A   1      45.921  29.059  35.644  1.00  0.00     0.135 A 
ATOM     71  C   UNL A   1      44.358  27.500  36.599  1.00  0.00     0.135 A 
ATOM     72  F   UNL A   1      46.209  30.094  34.839  1.00  0.00    -0.206 F 
ATOM     73  C   UNL A   1      46.966  28.446  36.328  1.00  0.00     0.059 A 
ATOM     74  C   UNL A   1      45.384  26.882  37.307  1.00  0.00     0.059 A 
ATOM     75  F   UNL A   1      43.113  27.019  36.737  1.00  0.00    -0.206 F 
ATOM     76  C   UNL A   1      46.687  27.358  37.157  1.00  0.00     0.060 A 
BRANCH  76  77
ATOM     77  S   UNL A   1      48.048  26.585  38.057  1.00  0.00     0.124 S 
ATOM     78  O   UNL A   1      47.432  26.340  39.358  1.00  0.00    -0.237 OA
ATOM     79  O   UNL A   1      48.322  25.398  37.254  1.00  0.00    -0.237 OA
ATOM     80  O   UNL A   1      49.090  27.605  38.039  1.00  0.00    -0.744 OA
ENDBRANCH  76  77
ENDBRANCH  55  69
BRANCH  56  81
ATOM     81  C   UNL A   1      37.010  32.791  30.824  1.00  0.00     0.058 A 
ATOM     82  C   UNL A   1      37.190  33.786  29.852  1.00  0.00     0.135 A 
ATOM     83  C   UNL A   1      35.696  32.421  31.148  1.00  0.00     0.135 A 
ATOM     84  F   UNL A   1      38.428  34.180  29.518  1.00  0.00    -0.206 F 
ATOM     85  C   UNL A   1      36.108  34.415  29.245  1.00  0.00     0.059 A 
ATOM     86  C   UNL A   1      34.597  33.020  30.539  1.00  0.00     0.059 A 
ATOM     87  F   UNL A   1      35.472  31.468  32.066  1.00  0.00    -0.206 F 
ATOM     88  C   UNL A   1      34.814  34.029  29.601  1.00  0.00     0.060 A 
BRANCH  88  89
ATOM     89  S   UNL A   1      33.411  34.843  28.804  1.00  0.00     0.124 S 
ATOM     90  O   UNL A   1      33.029  33.852  27.805  1.00  0.00    -0.237 OA
ATOM     91  O   UNL A   1      32.482  35.020  29.916  1.00  0.00    -0.237 OA
ATOM     92  O   UNL A   1      33.995  36.075  28.283  1.00  0.00    -0.744 OA
ENDBRANCH  88  89
ENDBRANCH  56  81
BRANCH  68  93
ATOM     93  C   UNL A   1      39.810  33.799  37.123  1.00  0.00     0.058 A 
ATOM     94  C   UNL A   1      39.024  33.398  38.213  1.00  0.00     0.135 A 
ATOM     95  C   UNL A   1      40.337  35.101  37.133  1.00  0.00     0.135 A 
ATOM     96  F   UNL A   1      38.494  32.166  38.247  1.00  0.00    -0.206 F 
ATOM     97  C   UNL A   1      38.760  34.262  39.272  1.00  0.00     0.059 A 
ATOM     98  C   UNL A   1      40.103  35.973  38.191  1.00  0.00     0.059 A 
ATOM     99  F   UNL A   1      41.105  35.527  36.118  1.00  0.00    -0.206 F 
ATOM    100  C   UNL A   1      39.304  35.548  39.252  1.00  0.00     0.060 A 
BRANCH 100 101
ATOM    101  S   UNL A   1      38.992  36.648  40.650  1.00  0.00     0.124 S 
ATOM    102  O   UNL A   1      40.275  36.616  41.342  1.00  0.00    -0.237 OA
ATOM    103  O   UNL A   1      38.656  37.908  39.993  1.00  0.00    -0.237 OA
ATOM    104  O   UNL A   1      37.885  36.000  41.348  1.00  0.00    -0.744 OA
ENDBRANCH 100 101
ENDBRANCH  68  93
ENDBRANCH  42  43
ENDBRANCH  35  37
ENDBRANCH  34  35
ENDBRANCH  33  34
ENDBRANCH  32  33
ENDBRANCH  31  32
ENDBRANCH  30  31
ENDBRANCH   1  30
TORSDOF 23
ENDMDL
MODEL 2
REMARK VINA RESULT:     -10.9      1.412      8.607
REMARK SMILES C[C@H](NC(=O)c1c(C(=O)OCCOCCOCCOC(=O)c2ccc(-c3c4nc(c(-c5c(F)cc(S(=O)(=O)[O-])cc5F)c5ccc([nH]5)c(-c5c(F)cc(S(=O)(=O)[O-])cc5F)c5nc(c(-c6c(F)cc(S(=O)(=O)[O-])cc6F)c6ccc3[nH]6)C=C5)C=C4)cc2)cnn1C)[C@]12C[C@H]3C[C@H](C[C@H](C3)C1)C2
REMARK SMILES IDX 14 1 13 2 12 3 11 4 10 5 8 6 9 7 7 8 6 9 90 10 88 11 89 12
REMARK SMILES IDX 91 13 4 14 3 15 5 17 2 18 1 19 92 20 93 21 100 22 101 23
REMARK SMILES IDX 94 24 98 25 96 26 95 27 99 28 97 29 15 30 16 31 17 32 18 33
REMARK SMILES IDX 19 34 20 35 21 36 22 37 23 38 87 39 24 40 86 41 25 42 26 43
REMARK SMILES IDX 27 44 80 45 28 46 85 47 79 48 81 49 29 50 84 51 78 52 77 53
REMARK SMILES IDX 30 55 64 56 43 57 63 58 44 59 47 60 62 61 82 62 45 63 46 64
REMARK SMILES IDX 61 66 83 67 48 68 31 69 32 70 41 71 33 72 34 73 40 74 42 75
REMARK SMILES IDX 35 76 36 77 37 78 38 79 39 80 65 81 66 82 75 83 67 84 68 85
REMARK SMILES IDX 74 86 76 87 69 88 70 89 71 90 72 91 73 92 49 93 50 94 59 95
REMARK SMILES IDX 51 96 52 97 58 98 60 99 53 100 54 101 55 102 56 103 57 104
REMARK H PARENT 3 16 81 54 47 65
REMARK Flexibility Score: inf
ROOT
ATOM      1  C   UNL A   1      40.899  20.758  26.285  1.00  0.00     0.188 C 
ENDROOT
BRANCH   1   2
ATOM      2  O   UNL A   1      40.026  21.507  27.124  1.00  0.00    -0.376 OA
BRANCH   2   3
ATOM      3  C   UNL A   1      39.987  22.924  27.010  1.00  0.00     0.202 C 
BRANCH   3   4
ATOM      4  C   UNL A   1      38.687  23.538  26.487  1.00  0.00     0.261 C 
BRANCH   4   5
ATOM      5  O   UNL A   1      37.818  22.554  25.903  1.00  0.00    -0.460 OA
BRANCH   5   6
ATOM      6  C   UNL A   1      36.505  22.906  25.833  1.00  0.00     0.342 C 
ATOM      7  O   UNL A   1      36.103  24.063  25.776  1.00  0.00    -0.246 OA
BRANCH   6   8
ATOM      8  C   UNL A   1      35.597  21.787  25.670  1.00  0.00     0.111 A 
ATOM      9  C   UNL A   1      34.287  21.587  26.122  1.00  0.00     0.140 A 
ATOM     10  N   UNL A   1      33.879  20.471  25.423  1.00  0.00    -0.262 N 
ATOM     11  C   UNL A   1      35.914  20.619  24.943  1.00  0.00     0.151 A 
ATOM     12  N   UNL A   1      34.889  19.772  24.877  1.00  0.00    -0.180 NA
ATOM     13  C   UNL A   1      32.541  20.108  25.018  1.00  0.00     0.174 C 
BRANCH   9  14
ATOM     14  C   UNL A   1      33.463  22.473  26.903  1.00  0.00     0.270 C 
ATOM     15  N   UNL A   1      32.842  23.567  26.344  1.00  0.00    -0.348 N 
ATOM     16  H   UNL A   1      32.439  24.169  27.010  1.00  0.00     0.164 HD
ATOM     17  O   UNL A   1      33.273  22.295  28.106  1.00  0.00    -0.267 OA
BRANCH  15  18
ATOM     18  C   UNL A   1      32.657  24.026  24.955  1.00  0.00     0.085 C 
ATOM     19  C   UNL A   1      31.439  23.321  24.352  1.00  0.00     0.031 C 
BRANCH  18  20
ATOM     20  C   UNL A   1      32.595  25.599  24.868  1.00  0.00    -0.009 C 
ATOM     21  C   UNL A   1      33.940  26.177  24.333  1.00  0.00     0.012 C 
ATOM     22  C   UNL A   1      32.365  26.212  26.281  1.00  0.00     0.012 C 
ATOM     23  C   UNL A   1      31.462  26.109  23.934  1.00  0.00     0.012 C 
ATOM     24  C   UNL A   1      33.910  27.718  24.288  1.00  0.00    -0.010 C 
ATOM     25  C   UNL A   1      32.324  27.748  26.235  1.00  0.00    -0.010 C 
ATOM     26  C   UNL A   1      31.426  27.649  23.890  1.00  0.00    -0.010 C 
ATOM     27  C   UNL A   1      32.772  28.176  23.364  1.00  0.00     0.007 C 
ATOM     28  C   UNL A   1      33.665  28.269  25.699  1.00  0.00     0.007 C 
ATOM     29  C   UNL A   1      31.188  28.196  25.305  1.00  0.00     0.007 C 
ENDBRANCH  18  20
ENDBRANCH  15  18
ENDBRANCH   9  14
ENDBRANCH   6   8
ENDBRANCH   5   6
ENDBRANCH   4   5
ENDBRANCH   3   4
ENDBRANCH   2   3
ENDBRANCH   1   2
BRANCH   1  30
ATOM     30  C   UNL A   1      42.389  21.138  26.211  1.00  0.00     0.188 C 
BRANCH  30  31
ATOM     31  O   UNL A   1      42.752  21.860  25.042  1.00  0.00    -0.376 OA
BRANCH  31  32
ATOM     32  C   UNL A   1      43.829  22.774  25.187  1.00  0.00     0.202 C 
BRANCH  32  33
ATOM     33  C   UNL A   1      43.392  24.233  25.034  1.00  0.00     0.261 C 
BRANCH  33  34
ATOM     34  O   UNL A   1      42.766  24.791  26.201  1.00  0.00    -0.460 OA
BRANCH  34  35
ATOM     35  C   UNL A   1      42.096  25.953  26.038  1.00  0.00     0.338 C 
ATOM     36  O   UNL A   1      41.542  26.348  25.028  1.00  0.00    -0.246 OA
BRANCH  35  37
ATOM     37  C   UNL A   1      42.000  26.608  27.356  1.00  0.00     0.060 A 
ATOM     38  C   UNL A   1      41.077  26.121  28.288  1.00  0.00     0.016 A 
ATOM     39  C   UNL A   1      42.814  27.702  27.661  1.00  0.00     0.016 A 
ATOM     40  C   UNL A   1      40.946  26.754  29.526  1.00  0.00     0.010 A 
ATOM     41  C   UNL A   1      42.671  28.341  28.893  1.00  0.00     0.010 A 
ATOM     42  C   UNL A   1      41.718  27.886  29.820  1.00  0.00    -0.014 A 
BRANCH  42  43
ATOM     43  C   UNL A   1      41.432  28.694  31.029  1.00  0.00     0.031 A 
ATOM     44  C   UNL A   1      40.300  29.684  30.981  1.00  0.00     0.074 A 
ATOM     45  C   UNL A   1      42.180  28.571  32.140  1.00  0.00     0.049 A 
ATOM     46  N   UNL A   1      39.903  30.532  31.892  1.00  0.00    -0.248 NA
ATOM     47  C   UNL A   1      39.514  29.724  29.736  1.00  0.00     0.031 C 
ATOM     48  C   UNL A   1      43.296  27.641  32.312  1.00  0.00     0.029 A 
ATOM     49  N   UNL A   1      42.118  29.247  33.333  1.00  0.00    -0.354 N 
ATOM     50  C   UNL A   1      38.825  31.207  31.334  1.00  0.00     0.074 A 
ATOM     51  C   UNL A   1      38.641  30.686  29.998  1.00  0.00     0.031 C 
ATOM     52  C   UNL A   1      43.825  27.818  33.536  1.00  0.00     0.029 A 
ATOM     53  C   UNL A   1      43.101  28.886  34.223  1.00  0.00     0.049 A 
ATOM     54  H   UNL A   1      41.434  29.926  33.532  1.00  0.00     0.167 HD
ATOM     55  C   UNL A   1      38.052  32.170  31.889  1.00  0.00     0.037 A 
ATOM     56  C   UNL A   1      43.391  29.378  35.445  1.00  0.00     0.037 A 
ATOM     57  C   UNL A   1      38.234  32.690  33.217  1.00  0.00     0.049 A 
ATOM     58  C   UNL A   1      42.546  30.486  36.019  1.00  0.00     0.074 A 
ATOM     59  C   UNL A   1      37.481  33.646  33.877  1.00  0.00     0.029 A 
ATOM     60  N   UNL A   1      39.242  32.304  34.087  1.00  0.00    -0.354 N 
ATOM     61  N   UNL A   1      41.500  31.084  35.497  1.00  0.00    -0.248 NA
ATOM     62  C   UNL A   1      42.921  30.990  37.349  1.00  0.00     0.031 C 
ATOM     63  C   UNL A   1      38.056  33.864  35.134  1.00  0.00     0.029 A 
ATOM     64  C   UNL A   1      39.145  33.018  35.268  1.00  0.00     0.049 A 
ATOM     65  H   UNL A   1      39.927  31.623  33.892  1.00  0.00     0.167 HD
ATOM     66  C   UNL A   1      41.077  32.009  36.447  1.00  0.00     0.074 A 
ATOM     67  C   UNL A   1      41.975  31.892  37.576  1.00  0.00     0.031 C 
ATOM     68  C   UNL A   1      40.037  32.876  36.390  1.00  0.00     0.037 A 
BRANCH  55  69
ATOM     69  C   UNL A   1      36.943  32.736  31.053  1.00  0.00     0.058 A 
ATOM     70  C   UNL A   1      35.611  32.338  31.241  1.00  0.00     0.135 A 
ATOM     71  C   UNL A   1      37.207  33.722  30.091  1.00  0.00     0.135 A 
ATOM     72  F   UNL A   1      35.309  31.383  32.135  1.00  0.00    -0.206 F 
ATOM     73  C   UNL A   1      34.577  32.893  30.493  1.00  0.00     0.059 A 
ATOM     74  C   UNL A   1      36.187  34.304  29.345  1.00  0.00     0.059 A 
ATOM     75  F   UNL A   1      38.467  34.130  29.870  1.00  0.00    -0.206 F 
ATOM     76  C   UNL A   1      34.876  33.875  29.548  1.00  0.00     0.060 A 
BRANCH  76  77
ATOM     77  S   UNL A   1      33.522  34.604  28.601  1.00  0.00     0.124 S 
ATOM     78  O   UNL A   1      34.196  35.721  27.945  1.00  0.00    -0.237 OA
ATOM     79  O   UNL A   1      33.122  33.506  27.728  1.00  0.00    -0.237 OA
ATOM     80  O   UNL A   1      32.551  34.972  29.625  1.00  0.00    -0.744 OA
ENDBRANCH  76  77
ENDBRANCH  55  69
BRANCH  56  81
ATOM     81  C   UNL A   1      44.545  28.845  36.215  1.00  0.00     0.058 A 
ATOM     82  C   UNL A   1      44.399  27.737  37.063  1.00  0.00     0.135 A 
ATOM     83  C   UNL A   1      45.804  29.461  36.153  1.00  0.00     0.135 A 
ATOM     84  F   UNL A   1      43.210  27.123  37.164  1.00  0.00    -0.206 F 
ATOM     85  C   UNL A   1      45.452  27.275  37.845  1.00  0.00     0.059 A 
ATOM     86  C   UNL A   1      46.879  29.004  36.909  1.00  0.00     0.059 A 
ATOM     87  F   UNL A   1      45.996  30.519  35.351  1.00  0.00    -0.206 F 
ATOM     88  C   UNL A   1      46.688  27.920  37.766  1.00  0.00     0.060 A 
BRANCH  88  89
ATOM     89  S   UNL A   1      48.056  27.312  38.778  1.00  0.00     0.124 S 
ATOM     90  O   UNL A   1      47.366  26.943  40.008  1.00  0.00    -0.237 OA
ATOM     91  O   UNL A   1      48.568  26.205  37.976  1.00  0.00    -0.237 OA
ATOM     92  O   UNL A   1      48.940  28.470  38.871  1.00  0.00    -0.744 OA
ENDBRANCH  88  89
ENDBRANCH  56  81
BRANCH  68  93
ATOM     93  C   UNL A   1      39.784  33.740  37.594  1.00  0.00     0.058 A 
ATOM     94  C   UNL A   1      38.955  33.315  38.643  1.00  0.00     0.135 A 
ATOM     95  C   UNL A   1      40.428  34.981  37.724  1.00  0.00     0.135 A 
ATOM     96  F   UNL A   1      38.315  32.138  38.563  1.00  0.00    -0.206 F 
ATOM     97  C   UNL A   1      38.761  34.099  39.776  1.00  0.00     0.059 A 
ATOM     98  C   UNL A   1      40.265  35.771  38.857  1.00  0.00     0.059 A 
ATOM     99  F   UNL A   1      41.241  35.426  36.752  1.00  0.00    -0.206 F 
ATOM    100  C   UNL A   1      39.421  35.326  39.874  1.00  0.00     0.060 A 
BRANCH 100 101
ATOM    101  S   UNL A   1      39.197  36.318  41.367  1.00  0.00     0.124 S 
ATOM    102  O   UNL A   1      37.951  35.775  41.896  1.00  0.00    -0.237 OA
ATOM    103  O   UNL A   1      40.400  36.010  42.135  1.00  0.00    -0.237 OA
ATOM    104  O   UNL A   1      39.121  37.683  40.856  1.00  0.00    -0.744 OA
ENDBRANCH 100 101
ENDBRANCH  68  93
ENDBRANCH  42  43
ENDBRANCH  35  37
ENDBRANCH  34  35
ENDBRANCH  33  34
ENDBRANCH  32  33
ENDBRANCH  31  32
ENDBRANCH  30  31
ENDBRANCH   1  30
TORSDOF 23
ENDMDL
MODEL 3
REMARK VINA RESULT:     -10.7      0.444      7.933
REMARK SMILES C[C@H](NC(=O)c1c(C(=O)OCCOCCOCCOC(=O)c2ccc(-c3c4nc(c(-c5c(F)cc(S(=O)(=O)[O-])cc5F)c5ccc([nH]5)c(-c5c(F)cc(S(=O)(=O)[O-])cc5F)c5nc(c(-c6c(F)cc(S(=O)(=O)[O-])cc6F)c6ccc3[nH]6)C=C5)C=C4)cc2)cnn1C)[C@]12C[C@H]3C[C@H](C[C@H](C3)C1)C2
REMARK SMILES IDX 14 1 13 2 12 3 11 4 10 5 8 6 9 7 7 8 6 9 90 10 88 11 89 12
REMARK SMILES IDX 91 13 4 14 3 15 5 17 2 18 1 19 92 20 93 21 100 22 101 23
REMARK SMILES IDX 94 24 98 25 96 26 95 27 99 28 97 29 15 30 16 31 17 32 18 33
REMARK SMILES IDX 19 34 20 35 21 36 22 37 23 38 87 39 24 40 86 41 25 42 26 43
REMARK SMILES IDX 27 44 80 45 28 46 85 47 79 48 81 49 29 50 84 51 78 52 77 53
REMARK SMILES IDX 30 55 64 56 43 57 63 58 44 59 47 60 62 61 82 62 45 63 46 64
REMARK SMILES IDX 61 66 83 67 48 68 31 69 32 70 41 71 33 72 34 73 40 74 42 75
REMARK SMILES IDX 35 76 36 77 37 78 38 79 39 80 65 81 66 82 75 83 67 84 68 85
REMARK SMILES IDX 74 86 76 87 69 88 70 89 71 90 72 91 73 92 49 93 50 94 59 95
REMARK SMILES IDX 51 96 52 97 58 98 60 99 53 100 54 101 55 102 56 103 57 104
REMARK H PARENT 3 16 81 54 47 65
REMARK Flexibility Score: inf
ROOT
ATOM      1  C   UNL A   1      40.503  20.097  26.432  1.00  0.00     0.188 C 
ENDROOT
BRANCH   1   2
ATOM      2  O   UNL A   1      40.069  21.330  26.996  1.00  0.00    -0.376 OA
BRANCH   2   3
ATOM      3  C   UNL A   1      39.203  22.178  26.252  1.00  0.00     0.202 C 
BRANCH   3   4
ATOM      4  C   UNL A   1      38.153  21.492  25.376  1.00  0.00     0.261 C 
BRANCH   4   5
ATOM      5  O   UNL A   1      36.869  22.133  25.465  1.00  0.00    -0.460 OA
BRANCH   5   6
ATOM      6  C   UNL A   1      36.459  22.770  24.334  1.00  0.00     0.342 C 
ATOM      7  O   UNL A   1      36.861  22.505  23.207  1.00  0.00    -0.246 OA
BRANCH   6   8
ATOM      8  C   UNL A   1      35.368  23.703  24.540  1.00  0.00     0.111 A 
ATOM      9  C   UNL A   1      34.069  23.735  24.020  1.00  0.00     0.140 A 
ATOM     10  N   UNL A   1      33.442  24.690  24.792  1.00  0.00    -0.262 N 
ATOM     11  C   UNL A   1      35.445  24.824  25.397  1.00  0.00     0.151 A 
ATOM     12  N   UNL A   1      34.290  25.481  25.472  1.00  0.00    -0.180 NA
ATOM     13  C   UNL A   1      32.043  24.786  25.136  1.00  0.00     0.174 C 
BRANCH   9  14
ATOM     14  C   UNL A   1      33.449  22.815  23.101  1.00  0.00     0.270 C 
ATOM     15  N   UNL A   1      33.107  21.536  23.476  1.00  0.00    -0.348 N 
ATOM     16  H   UNL A   1      32.834  20.968  22.720  1.00  0.00     0.164 HD
ATOM     17  O   UNL A   1      33.192  23.129  21.939  1.00  0.00    -0.267 OA
BRANCH  15  18
ATOM     18  C   UNL A   1      33.066  20.839  24.774  1.00  0.00     0.085 C 
ATOM     19  C   UNL A   1      31.773  21.214  25.505  1.00  0.00     0.031 C 
BRANCH  18  20
ATOM     20  C   UNL A   1      33.277  19.286  24.606  1.00  0.00    -0.009 C 
ATOM     21  C   UNL A   1      32.645  18.508  25.799  1.00  0.00     0.012 C 
ATOM     22  C   UNL A   1      34.797  18.943  24.593  1.00  0.00     0.012 C 
ATOM     23  C   UNL A   1      32.649  18.728  23.298  1.00  0.00     0.012 C 
ATOM     24  C   UNL A   1      32.887  16.991  25.671  1.00  0.00    -0.010 C 
ATOM     25  C   UNL A   1      35.039  17.431  24.454  1.00  0.00    -0.010 C 
ATOM     26  C   UNL A   1      32.892  17.211  23.165  1.00  0.00    -0.010 C 
ATOM     27  C   UNL A   1      32.259  16.486  24.364  1.00  0.00     0.007 C 
ATOM     28  C   UNL A   1      34.396  16.711  25.647  1.00  0.00     0.007 C 
ATOM     29  C   UNL A   1      34.403  16.936  23.148  1.00  0.00     0.007 C 
ENDBRANCH  18  20
ENDBRANCH  15  18
ENDBRANCH   9  14
ENDBRANCH   6   8
ENDBRANCH   5   6
ENDBRANCH   4   5
ENDBRANCH   3   4
ENDBRANCH   2   3
ENDBRANCH   1   2
BRANCH   1  30
ATOM     30  C   UNL A   1      42.010  19.833  26.256  1.00  0.00     0.188 C 
BRANCH  30  31
ATOM     31  O   UNL A   1      42.668  20.749  25.391  1.00  0.00    -0.376 OA
BRANCH  31  32
ATOM     32  C   UNL A   1      43.340  21.827  26.023  1.00  0.00     0.202 C 
BRANCH  32  33
ATOM     33  C   UNL A   1      43.031  23.179  25.376  1.00  0.00     0.261 C 
BRANCH  33  34
ATOM     34  O   UNL A   1      42.442  24.142  26.265  1.00  0.00    -0.460 OA
BRANCH  34  35
ATOM     35  C   UNL A   1      42.330  25.409  25.805  1.00  0.00     0.338 C 
ATOM     36  O   UNL A   1      42.403  25.782  24.648  1.00  0.00    -0.246 OA
BRANCH  35  37
ATOM     37  C   UNL A   1      41.933  26.266  26.937  1.00  0.00     0.060 A 
ATOM     38  C   UNL A   1      42.548  27.515  27.089  1.00  0.00     0.016 A 
ATOM     39  C   UNL A   1      40.965  25.832  27.847  1.00  0.00     0.016 A 
ATOM     40  C   UNL A   1      42.213  28.322  28.177  1.00  0.00     0.010 A 
ATOM     41  C   UNL A   1      40.642  26.636  28.941  1.00  0.00     0.010 A 
ATOM     42  C   UNL A   1      41.283  27.872  29.125  1.00  0.00    -0.014 A 
BRANCH  42  43
ATOM     43  C   UNL A   1      41.087  28.614  30.393  1.00  0.00     0.031 A 
ATOM     44  C   UNL A   1      39.992  29.643  30.461  1.00  0.00     0.074 A 
ATOM     45  C   UNL A   1      41.883  28.397  31.455  1.00  0.00     0.049 A 
ATOM     46  N   UNL A   1      39.671  30.448  31.439  1.00  0.00    -0.248 NA
ATOM     47  C   UNL A   1      39.148  29.786  29.262  1.00  0.00     0.031 C 
ATOM     48  C   UNL A   1      42.970  27.421  31.515  1.00  0.00     0.029 A 
ATOM     49  N   UNL A   1      41.904  29.001  32.687  1.00  0.00    -0.354 N 
ATOM     50  C   UNL A   1      38.594  31.192  30.978  1.00  0.00     0.074 A 
ATOM     51  C   UNL A   1      38.325  30.760  29.624  1.00  0.00     0.031 C 
ATOM     52  C   UNL A   1      43.564  27.504  32.719  1.00  0.00     0.029 A 
ATOM     53  C   UNL A   1      42.915  28.553  33.504  1.00  0.00     0.049 A 
ATOM     54  H   UNL A   1      41.257  29.690  32.961  1.00  0.00     0.167 HD
ATOM     55  C   UNL A   1      37.886  32.146  31.627  1.00  0.00     0.037 A 
ATOM     56  C   UNL A   1      43.283  28.959  34.736  1.00  0.00     0.037 A 
ATOM     57  C   UNL A   1      38.151  32.577  32.973  1.00  0.00     0.049 A 
ATOM     58  C   UNL A   1      42.508  30.059  35.417  1.00  0.00     0.074 A 
ATOM     59  C   UNL A   1      37.468  33.517  33.726  1.00  0.00     0.029 A 
ATOM     60  N   UNL A   1      39.185  32.104  33.766  1.00  0.00    -0.354 N 
ATOM     61  N   UNL A   1      41.461  30.723  34.985  1.00  0.00    -0.248 NA
ATOM     62  C   UNL A   1      42.966  30.467  36.753  1.00  0.00     0.031 C 
ATOM     63  C   UNL A   1      38.111  33.638  34.962  1.00  0.00     0.029 A 
ATOM     64  C   UNL A   1      39.172  32.747  34.991  1.00  0.00     0.049 A 
ATOM     65  H   UNL A   1      39.833  31.413  33.496  1.00  0.00     0.167 HD
ATOM     66  C   UNL A   1      41.120  31.602  36.008  1.00  0.00     0.074 A 
ATOM     67  C   UNL A   1      42.067  31.386  37.081  1.00  0.00     0.031 C 
ATOM     68  C   UNL A   1      40.112  32.507  36.056  1.00  0.00     0.037 A 
BRANCH  55  69
ATOM     69  C   UNL A   1      36.759  32.800  30.884  1.00  0.00     0.058 A 
ATOM     70  C   UNL A   1      35.420  32.502  31.178  1.00  0.00     0.135 A 
ATOM     71  C   UNL A   1      37.020  33.769  29.904  1.00  0.00     0.135 A 
ATOM     72  F   UNL A   1      35.119  31.567  32.093  1.00  0.00    -0.206 F 
ATOM     73  C   UNL A   1      34.375  33.138  30.516  1.00  0.00     0.059 A 
ATOM     74  C   UNL A   1      35.990  34.432  29.243  1.00  0.00     0.059 A 
ATOM     75  F   UNL A   1      38.285  34.082  29.583  1.00  0.00    -0.206 F 
ATOM     76  C   UNL A   1      34.670  34.102  29.551  1.00  0.00     0.060 A 
BRANCH  76  77
ATOM     77  S   UNL A   1      33.304  34.937  28.716  1.00  0.00     0.124 S 
ATOM     78  O   UNL A   1      32.794  33.872  27.858  1.00  0.00    -0.237 OA
ATOM     79  O   UNL A   1      32.442  35.319  29.830  1.00  0.00    -0.237 OA
ATOM     80  O   UNL A   1      33.955  36.043  28.023  1.00  0.00    -0.744 OA
ENDBRANCH  76  77
ENDBRANCH  55  69
BRANCH  56  81
ATOM     81  C   UNL A   1      44.451  28.340  35.414  1.00  0.00     0.058 A 
ATOM     82  C   UNL A   1      44.284  27.301  36.340  1.00  0.00     0.135 A 
ATOM     83  C   UNL A   1      45.754  28.808  35.183  1.00  0.00     0.135 A 
ATOM     84  F   UNL A   1      43.055  26.829  36.603  1.00  0.00    -0.206 F 
ATOM     85  C   UNL A   1      45.362  26.764  37.036  1.00  0.00     0.059 A 
ATOM     86  C   UNL A   1      46.852  28.273  35.850  1.00  0.00     0.059 A 
ATOM     87  F   UNL A   1      45.967  29.796  34.300  1.00  0.00    -0.206 F 
ATOM     88  C   UNL A   1      46.643  27.263  36.788  1.00  0.00     0.060 A 
BRANCH  88  89
ATOM     89  S   UNL A   1      48.042  26.558  37.688  1.00  0.00     0.124 S 
ATOM     90  O   UNL A   1      48.206  25.275  37.014  1.00  0.00    -0.237 OA
ATOM     91  O   UNL A   1      49.093  27.542  37.450  1.00  0.00    -0.237 OA
ATOM     92  O   UNL A   1      47.554  26.493  39.062  1.00  0.00    -0.744 OA
ENDBRANCH  88  89
ENDBRANCH  56  81
BRANCH  68  93
ATOM     93  C   UNL A   1      39.950  33.304  37.320  1.00  0.00     0.058 A 
ATOM     94  C   UNL A   1      40.707  34.460  37.561  1.00  0.00     0.135 A 
ATOM     95  C   UNL A   1      38.983  32.939  38.270  1.00  0.00     0.135 A 
ATOM     96  F   UNL A   1      41.647  34.848  36.685  1.00  0.00    -0.206 F 
ATOM     97  C   UNL A   1      40.520  35.220  38.712  1.00  0.00     0.059 A 
ATOM     98  C   UNL A   1      38.765  33.695  39.416  1.00  0.00     0.059 A 
ATOM     99  F   UNL A   1      38.225  31.847  38.078  1.00  0.00    -0.206 F 
ATOM    100  C   UNL A   1      39.546  34.830  39.634  1.00  0.00     0.060 A 
BRANCH 100 101
ATOM    101  S   UNL A   1      39.281  35.846  41.103  1.00  0.00     0.124 S 
ATOM    102  O   UNL A   1      40.516  35.617  41.845  1.00  0.00    -0.237 OA
ATOM    103  O   UNL A   1      39.120  37.183  40.539  1.00  0.00    -0.237 OA
ATOM    104  O   UNL A   1      38.076  35.274  41.696  1.00  0.00    -0.744 OA
ENDBRANCH 100 101
ENDBRANCH  68  93
ENDBRANCH  42  43
ENDBRANCH  35  37
ENDBRANCH  34  35
ENDBRANCH  33  34
ENDBRANCH  32  33
ENDBRANCH  31  32
ENDBRANCH  30  31
ENDBRANCH   1  30
TORSDOF 23
ENDMDL
