MODEL 1
REMARK VINA RESULT:     -10.9      0.000      0.000
REMARK SMILES C[C@@H]1Cc2ccccc2N1c1ccc(F)cc1C(=O)OCCOCCOCCOC(=O)c1ccc(-c2c3nc(c(-c4c(F)cc(S(=O)(=O)[O-])cc4F)c4ccc([nH]4)c(-c4c(F)cc(S(=O)(=O)[O-])cc4F)c4nc(c(-c5c(F)cc(S(=O)(=O)[O-])cc5F)c5ccc2[nH]5)C=C4)C=C3)cc1
REMARK SMILES IDX 25 1 24 2 23 3 22 4 21 5 20 6 18 7 19 8 17 9 11 10 12 11
REMARK SMILES IDX 13 12 16 13 14 14 15 15 10 16 1 17 2 18 3 19 4 20 9 21 5 22
REMARK SMILES IDX 8 23 6 24 7 25 26 26 27 27 28 28 29 29 30 30 31 31 32 32
REMARK SMILES IDX 33 33 97 34 34 35 96 36 35 37 36 38 37 39 90 40 38 41 95 42
REMARK SMILES IDX 89 43 91 44 39 45 94 46 88 47 87 48 40 50 74 51 53 52 73 53
REMARK SMILES IDX 54 54 57 55 72 56 92 57 55 58 56 59 71 61 93 62 58 63 41 64
REMARK SMILES IDX 42 65 51 66 43 67 44 68 50 69 52 70 45 71 46 72 47 73 48 74
REMARK SMILES IDX 49 75 75 76 76 77 85 78 77 79 78 80 84 81 86 82 79 83 80 84
REMARK SMILES IDX 81 85 82 86 83 87 59 88 60 89 69 90 61 91 62 92 68 93 70 94
REMARK SMILES IDX 63 95 64 96 65 97 66 98 67 99
REMARK H PARENT 91 49 57 60
REMARK Flexibility Score: inf
ROOT
ATOM      1  C   UNL A   1      40.398  20.535  26.231  1.00  0.00     0.188 C 
ENDROOT
BRANCH   1   2
ATOM      2  C   UNL A   1      39.046  21.150  25.808  1.00  0.00     0.188 C 
BRANCH   2   3
ATOM      3  O   UNL A   1      37.982  20.317  25.377  1.00  0.00    -0.376 OA
BRANCH   3   4
ATOM      4  C   UNL A   1      36.915  20.886  24.628  1.00  0.00     0.202 C 
BRANCH   4   5
ATOM      5  C   UNL A   1      37.137  22.230  23.942  1.00  0.00     0.261 C 
BRANCH   5   6
ATOM      6  O   UNL A   1      36.010  23.101  24.111  1.00  0.00    -0.460 OA
BRANCH   6   7
ATOM      7  C   UNL A   1      35.828  23.559  25.370  1.00  0.00     0.340 C 
ATOM      8  O   UNL A   1      36.684  24.069  26.078  1.00  0.00    -0.246 OA
BRANCH   7   9
ATOM      9  C   UNL A   1      34.413  23.500  25.792  1.00  0.00     0.086 A 
ATOM     10  C   UNL A   1      33.330  24.067  25.086  1.00  0.00     0.056 A 
ATOM     11  C   UNL A   1      32.034  23.821  25.597  1.00  0.00     0.030 A 
ATOM     12  C   UNL A   1      31.828  23.139  26.797  1.00  0.00     0.041 A 
ATOM     13  C   UNL A   1      34.201  22.814  27.004  1.00  0.00     0.057 A 
ATOM     14  C   UNL A   1      32.919  22.665  27.504  1.00  0.00     0.124 A 
ATOM     15  F   UNL A   1      32.731  22.060  28.682  1.00  0.00    -0.207 F 
BRANCH  10  16
ATOM     16  N   UNL A   1      33.475  24.935  23.996  1.00  0.00    -0.337 N 
ATOM     17  C   UNL A   1      33.340  23.397  21.969  1.00  0.00     0.032 C 
ATOM     18  C   UNL A   1      32.859  24.659  22.666  1.00  0.00     0.089 C 
ATOM     19  C   UNL A   1      33.168  25.894  21.777  1.00  0.00     0.063 C 
ATOM     20  C   UNL A   1      33.299  26.958  22.808  1.00  0.00    -0.022 A 
ATOM     21  C   UNL A   1      33.504  26.364  24.054  1.00  0.00     0.045 A 
ATOM     22  C   UNL A   1      33.290  28.335  22.641  1.00  0.00     0.006 A 
ATOM     23  C   UNL A   1      33.707  27.165  25.170  1.00  0.00     0.026 A 
ATOM     24  C   UNL A   1      33.460  29.137  23.771  1.00  0.00     0.000 A 
ATOM     25  C   UNL A   1      33.665  28.556  25.029  1.00  0.00     0.002 A 
ENDBRANCH  10  16
ENDBRANCH   7   9
ENDBRANCH   6   7
ENDBRANCH   5   6
ENDBRANCH   4   5
ENDBRANCH   3   4
ENDBRANCH   2   3
ENDBRANCH   1   2
BRANCH   1  26
ATOM     26  O   UNL A   1      41.616  21.082  25.757  1.00  0.00    -0.376 OA
BRANCH  26  27
ATOM     27  C   UNL A   1      42.229  22.135  26.487  1.00  0.00     0.202 C 
BRANCH  27  28
ATOM     28  C   UNL A   1      42.463  23.464  25.771  1.00  0.00     0.261 C 
BRANCH  28  29
ATOM     29  O   UNL A   1      41.477  24.440  26.143  1.00  0.00    -0.460 OA
BRANCH  29  30
ATOM     30  C   UNL A   1      41.810  25.731  25.899  1.00  0.00     0.338 C 
ATOM     31  O   UNL A   1      41.955  26.262  24.812  1.00  0.00    -0.246 OA
BRANCH  30  32
ATOM     32  C   UNL A   1      41.753  26.479  27.172  1.00  0.00     0.060 A 
ATOM     33  C   UNL A   1      42.660  27.501  27.461  1.00  0.00     0.016 A 
ATOM     34  C   UNL A   1      40.773  26.112  28.105  1.00  0.00     0.016 A 
ATOM     35  C   UNL A   1      42.556  28.185  28.674  1.00  0.00     0.010 A 
ATOM     36  C   UNL A   1      40.682  26.785  29.322  1.00  0.00     0.010 A 
ATOM     37  C   UNL A   1      41.556  27.845  29.601  1.00  0.00    -0.014 A 
BRANCH  37  38
ATOM     38  C   UNL A   1      41.297  28.730  30.760  1.00  0.00     0.031 A 
ATOM     39  C   UNL A   1      42.134  28.692  31.999  1.00  0.00     0.074 A 
ATOM     40  C   UNL A   1      40.256  29.580  30.669  1.00  0.00     0.049 A 
ATOM     41  N   UNL A   1      42.092  29.489  33.036  1.00  0.00    -0.248 NA
ATOM     42  C   UNL A   1      43.136  27.623  32.095  1.00  0.00     0.031 C 
ATOM     43  C   UNL A   1      39.348  29.667  29.523  1.00  0.00     0.029 A 
ATOM     44  N   UNL A   1      39.791  30.529  31.539  1.00  0.00    -0.354 N 
ATOM     45  C   UNL A   1      43.081  29.040  33.902  1.00  0.00     0.074 A 
ATOM     46  C   UNL A   1      43.672  27.868  33.286  1.00  0.00     0.031 C 
ATOM     47  C   UNL A   1      38.444  30.629  29.755  1.00  0.00     0.029 A 
ATOM     48  C   UNL A   1      38.705  31.220  31.064  1.00  0.00     0.049 A 
ATOM     49  H   UNL A   1      40.196  30.698  32.421  1.00  0.00     0.167 HD
ATOM     50  C   UNL A   1      43.461  29.571  35.090  1.00  0.00     0.037 A 
ATOM     51  C   UNL A   1      38.004  32.231  31.609  1.00  0.00     0.037 A 
ATOM     52  C   UNL A   1      42.843  30.724  35.699  1.00  0.00     0.049 A 
ATOM     53  C   UNL A   1      38.431  32.789  32.934  1.00  0.00     0.074 A 
ATOM     54  C   UNL A   1      43.203  31.377  36.866  1.00  0.00     0.029 A 
ATOM     55  N   UNL A   1      41.723  31.381  35.208  1.00  0.00    -0.354 N 
ATOM     56  N   UNL A   1      39.435  32.422  33.693  1.00  0.00    -0.248 NA
ATOM     57  C   UNL A   1      37.640  33.904  33.471  1.00  0.00     0.031 C 
ATOM     58  C   UNL A   1      42.272  32.396  37.106  1.00  0.00     0.029 A 
ATOM     59  C   UNL A   1      41.357  32.408  36.065  1.00  0.00     0.049 A 
ATOM     60  H   UNL A   1      41.257  31.151  34.371  1.00  0.00     0.167 HD
ATOM     61  C   UNL A   1      39.405  33.267  34.796  1.00  0.00     0.074 A 
ATOM     62  C   UNL A   1      38.290  34.173  34.596  1.00  0.00     0.031 C 
ATOM     63  C   UNL A   1      40.230  33.289  35.872  1.00  0.00     0.037 A 
BRANCH  50  64
ATOM     64  C   UNL A   1      44.607  28.917  35.811  1.00  0.00     0.058 A 
ATOM     65  C   UNL A   1      44.397  27.862  36.714  1.00  0.00     0.135 A 
ATOM     66  C   UNL A   1      45.933  29.304  35.557  1.00  0.00     0.135 A 
ATOM     67  F   UNL A   1      43.149  27.454  36.997  1.00  0.00    -0.206 F 
ATOM     68  C   UNL A   1      45.456  27.231  37.357  1.00  0.00     0.059 A 
ATOM     69  C   UNL A   1      47.010  28.672  36.173  1.00  0.00     0.059 A 
ATOM     70  F   UNL A   1      46.193  30.302  34.698  1.00  0.00    -0.206 F 
ATOM     71  C   UNL A   1      46.761  27.644  37.082  1.00  0.00     0.060 A 
BRANCH  71  72
ATOM     72  S   UNL A   1      48.125  26.809  37.922  1.00  0.00     0.124 S 
ATOM     73  O   UNL A   1      47.814  27.080  39.322  1.00  0.00    -0.237 OA
ATOM     74  O   UNL A   1      47.955  25.425  37.493  1.00  0.00    -0.237 OA
ATOM     75  O   UNL A   1      49.310  27.483  37.401  1.00  0.00    -0.744 OA
ENDBRANCH  71  72
ENDBRANCH  50  64
BRANCH  51  76
ATOM     76  C   UNL A   1      36.864  32.801  30.851  1.00  0.00     0.058 A 
ATOM     77  C   UNL A   1      35.543  32.510  31.219  1.00  0.00     0.135 A 
ATOM     78  C   UNL A   1      37.072  33.726  29.816  1.00  0.00     0.135 A 
ATOM     79  F   UNL A   1      35.299  31.633  32.205  1.00  0.00    -0.206 F 
ATOM     80  C   UNL A   1      34.465  33.127  30.597  1.00  0.00     0.059 A 
ATOM     81  C   UNL A   1      36.009  34.369  29.190  1.00  0.00     0.059 A 
ATOM     82  F   UNL A   1      38.320  34.048  29.445  1.00  0.00    -0.206 F 
ATOM     83  C   UNL A   1      34.709  34.066  29.591  1.00  0.00     0.060 A 
BRANCH  83  84
ATOM     84  S   UNL A   1      33.304  34.936  28.866  1.00  0.00     0.124 S 
ATOM     85  O   UNL A   1      32.793  33.943  27.929  1.00  0.00    -0.237 OA
ATOM     86  O   UNL A   1      32.471  35.199  30.036  1.00  0.00    -0.237 OA
ATOM     87  O   UNL A   1      33.914  36.118  28.265  1.00  0.00    -0.744 OA
ENDBRANCH  83  84
ENDBRANCH  51  76
BRANCH  63  88
ATOM     88  C   UNL A   1      39.950  34.318  36.931  1.00  0.00     0.058 A 
ATOM     89  C   UNL A   1      39.176  34.013  38.061  1.00  0.00     0.135 A 
ATOM     90  C   UNL A   1      40.502  35.607  36.843  1.00  0.00     0.135 A 
ATOM     91  F   UNL A   1      38.616  32.799  38.188  1.00  0.00    -0.206 F 
ATOM     92  C   UNL A   1      38.946  34.953  39.060  1.00  0.00     0.059 A 
ATOM     93  C   UNL A   1      40.304  36.556  37.842  1.00  0.00     0.059 A 
ATOM     94  F   UNL A   1      41.254  35.949  35.785  1.00  0.00    -0.206 F 
ATOM     95  C   UNL A   1      39.517  36.221  38.944  1.00  0.00     0.060 A 
BRANCH  95  96
ATOM     96  S   UNL A   1      39.243  37.417  40.268  1.00  0.00     0.124 S 
ATOM     97  O   UNL A   1      38.491  36.621  41.233  1.00  0.00    -0.237 OA
ATOM     98  O   UNL A   1      40.605  37.767  40.661  1.00  0.00    -0.237 OA
ATOM     99  O   UNL A   1      38.492  38.485  39.614  1.00  0.00    -0.744 OA
ENDBRANCH  95  96
ENDBRANCH  63  88
ENDBRANCH  37  38
ENDBRANCH  30  32
ENDBRANCH  29  30
ENDBRANCH  28  29
ENDBRANCH  27  28
ENDBRANCH  26  27
ENDBRANCH   1  26
TORSDOF 21
ENDMDL
MODEL 2
REMARK VINA RESULT:     -10.9      1.773      2.799
REMARK SMILES C[C@@H]1Cc2ccccc2N1c1ccc(F)cc1C(=O)OCCOCCOCCOC(=O)c1ccc(-c2c3nc(c(-c4c(F)cc(S(=O)(=O)[O-])cc4F)c4ccc([nH]4)c(-c4c(F)cc(S(=O)(=O)[O-])cc4F)c4nc(c(-c5c(F)cc(S(=O)(=O)[O-])cc5F)c5ccc2[nH]5)C=C4)C=C3)cc1
REMARK SMILES IDX 25 1 24 2 23 3 22 4 21 5 20 6 18 7 19 8 17 9 11 10 12 11
REMARK SMILES IDX 13 12 16 13 14 14 15 15 10 16 1 17 2 18 3 19 4 20 9 21 5 22
REMARK SMILES IDX 8 23 6 24 7 25 26 26 27 27 28 28 29 29 30 30 31 31 32 32
REMARK SMILES IDX 33 33 97 34 34 35 96 36 35 37 36 38 37 39 90 40 38 41 95 42
REMARK SMILES IDX 89 43 91 44 39 45 94 46 88 47 87 48 40 50 74 51 53 52 73 53
REMARK SMILES IDX 54 54 57 55 72 56 92 57 55 58 56 59 71 61 93 62 58 63 41 64
REMARK SMILES IDX 42 65 51 66 43 67 44 68 50 69 52 70 45 71 46 72 47 73 48 74
REMARK SMILES IDX 49 75 75 76 76 77 85 78 77 79 78 80 84 81 86 82 79 83 80 84
REMARK SMILES IDX 81 85 82 86 83 87 59 88 60 89 69 90 61 91 62 92 68 93 70 94
REMARK SMILES IDX 63 95 64 96 65 97 66 98 67 99
REMARK H PARENT 91 49 57 60
REMARK Flexibility Score: inf
ROOT
ATOM      1  C   UNL A   1      36.094  21.244  25.333  1.00  0.00     0.188 C 
ENDROOT
BRANCH   1   2
ATOM      2  C   UNL A   1      34.920  21.989  26.006  1.00  0.00     0.188 C 
BRANCH   2   3
ATOM      3  O   UNL A   1      34.491  21.625  27.307  1.00  0.00    -0.376 OA
BRANCH   3   4
ATOM      4  C   UNL A   1      33.291  22.186  27.825  1.00  0.00     0.202 C 
BRANCH   4   5
ATOM      5  C   UNL A   1      32.764  23.480  27.213  1.00  0.00     0.261 C 
BRANCH   5   6
ATOM      6  O   UNL A   1      31.332  23.479  27.127  1.00  0.00    -0.460 OA
BRANCH   6   7
ATOM      7  C   UNL A   1      30.813  24.374  26.256  1.00  0.00     0.340 C 
ATOM      8  O   UNL A   1      30.012  25.256  26.527  1.00  0.00    -0.246 OA
BRANCH   7   9
ATOM      9  C   UNL A   1      31.419  24.269  24.912  1.00  0.00     0.086 A 
ATOM     10  C   UNL A   1      31.951  25.348  24.173  1.00  0.00     0.056 A 
ATOM     11  C   UNL A   1      32.578  25.035  22.945  1.00  0.00     0.030 A 
ATOM     12  C   UNL A   1      32.587  23.739  22.426  1.00  0.00     0.041 A 
ATOM     13  C   UNL A   1      31.427  22.962  24.384  1.00  0.00     0.057 A 
ATOM     14  C   UNL A   1      31.985  22.718  23.141  1.00  0.00     0.124 A 
ATOM     15  F   UNL A   1      31.941  21.486  22.623  1.00  0.00    -0.207 F 
BRANCH  10  16
ATOM     16  N   UNL A   1      31.795  26.693  24.532  1.00  0.00    -0.337 N 
ATOM     17  C   UNL A   1      33.884  27.209  25.895  1.00  0.00     0.032 C 
ATOM     18  C   UNL A   1      32.956  27.601  24.757  1.00  0.00     0.089 C 
ATOM     19  C   UNL A   1      32.362  29.009  25.033  1.00  0.00     0.063 C 
ATOM     20  C   UNL A   1      31.072  28.919  24.297  1.00  0.00    -0.022 A 
ATOM     21  C   UNL A   1      30.773  27.577  24.061  1.00  0.00     0.045 A 
ATOM     22  C   UNL A   1      30.214  29.942  23.921  1.00  0.00     0.006 A 
ATOM     23  C   UNL A   1      29.582  27.241  23.429  1.00  0.00     0.026 A 
ATOM     24  C   UNL A   1      29.035  29.602  23.256  1.00  0.00     0.000 A 
ATOM     25  C   UNL A   1      28.722  28.259  23.009  1.00  0.00     0.002 A 
ENDBRANCH  10  16
ENDBRANCH   7   9
ENDBRANCH   6   7
ENDBRANCH   5   6
ENDBRANCH   4   5
ENDBRANCH   3   4
ENDBRANCH   2   3
ENDBRANCH   1   2
BRANCH   1  26
ATOM     26  O   UNL A   1      37.329  21.900  25.110  1.00  0.00    -0.376 OA
BRANCH  26  27
ATOM     27  C   UNL A   1      37.743  22.915  26.013  1.00  0.00     0.202 C 
BRANCH  27  28
ATOM     28  C   UNL A   1      39.215  22.955  26.423  1.00  0.00     0.261 C 
BRANCH  28  29
ATOM     29  O   UNL A   1      39.790  24.249  26.184  1.00  0.00    -0.460 OA
BRANCH  29  30
ATOM     30  C   UNL A   1      40.941  24.510  26.851  1.00  0.00     0.338 C 
ATOM     31  O   UNL A   1      42.056  24.097  26.587  1.00  0.00    -0.246 OA
BRANCH  30  32
ATOM     32  C   UNL A   1      40.678  25.577  27.840  1.00  0.00     0.060 A 
ATOM     33  C   UNL A   1      39.498  25.609  28.585  1.00  0.00     0.016 A 
ATOM     34  C   UNL A   1      41.642  26.584  27.989  1.00  0.00     0.016 A 
ATOM     35  C   UNL A   1      39.303  26.632  29.515  1.00  0.00     0.010 A 
ATOM     36  C   UNL A   1      41.438  27.614  28.906  1.00  0.00     0.010 A 
ATOM     37  C   UNL A   1      40.279  27.628  29.694  1.00  0.00    -0.014 A 
BRANCH  37  38
ATOM     38  C   UNL A   1      40.180  28.555  30.845  1.00  0.00     0.031 A 
ATOM     39  C   UNL A   1      41.054  28.428  32.052  1.00  0.00     0.074 A 
ATOM     40  C   UNL A   1      39.252  29.527  30.778  1.00  0.00     0.049 A 
ATOM     41  N   UNL A   1      41.155  29.238  33.075  1.00  0.00    -0.248 NA
ATOM     42  C   UNL A   1      41.918  27.242  32.130  1.00  0.00     0.031 C 
ATOM     43  C   UNL A   1      38.316  29.712  29.666  1.00  0.00     0.029 A 
ATOM     44  N   UNL A   1      38.944  30.538  31.648  1.00  0.00    -0.354 N 
ATOM     45  C   UNL A   1      42.112  28.679  33.911  1.00  0.00     0.074 A 
ATOM     46  C   UNL A   1      42.528  27.433  33.295  1.00  0.00     0.031 C 
ATOM     47  C   UNL A   1      37.550  30.784  29.915  1.00  0.00     0.029 A 
ATOM     48  C   UNL A   1      37.934  31.355  31.202  1.00  0.00     0.049 A 
ATOM     49  H   UNL A   1      39.401  30.667  32.511  1.00  0.00     0.167 HD
ATOM     50  C   UNL A   1      42.604  29.174  35.074  1.00  0.00     0.037 A 
ATOM     51  C   UNL A   1      37.388  32.454  31.754  1.00  0.00     0.037 A 
ATOM     52  C   UNL A   1      42.160  30.403  35.686  1.00  0.00     0.049 A 
ATOM     53  C   UNL A   1      37.934  32.970  33.052  1.00  0.00     0.074 A 
ATOM     54  C   UNL A   1      42.645  31.021  36.826  1.00  0.00     0.029 A 
ATOM     55  N   UNL A   1      41.113  31.190  35.225  1.00  0.00    -0.354 N 
ATOM     56  N   UNL A   1      38.914  32.490  33.779  1.00  0.00    -0.248 NA
ATOM     57  C   UNL A   1      37.311  34.183  33.598  1.00  0.00     0.031 C 
ATOM     58  C   UNL A   1      41.860  32.152  37.083  1.00  0.00     0.029 A 
ATOM     59  C   UNL A   1      40.912  32.266  36.077  1.00  0.00     0.049 A 
ATOM     60  H   UNL A   1      40.588  31.009  34.411  1.00  0.00     0.167 HD
ATOM     61  C   UNL A   1      39.034  33.347  34.867  1.00  0.00     0.074 A 
ATOM     62  C   UNL A   1      38.035  34.383  34.693  1.00  0.00     0.031 C 
ATOM     63  C   UNL A   1      39.898  33.279  35.911  1.00  0.00     0.037 A 
BRANCH  50  64
ATOM     64  C   UNL A   1      43.687  28.390  35.763  1.00  0.00     0.058 A 
ATOM     65  C   UNL A   1      43.382  27.348  36.655  1.00  0.00     0.135 A 
ATOM     66  C   UNL A   1      45.041  28.639  35.489  1.00  0.00     0.135 A 
ATOM     67  F   UNL A   1      42.103  27.070  36.956  1.00  0.00    -0.206 F 
ATOM     68  C   UNL A   1      44.379  26.598  37.267  1.00  0.00     0.059 A 
ATOM     69  C   UNL A   1      46.056  27.887  36.075  1.00  0.00     0.059 A 
ATOM     70  F   UNL A   1      45.390  29.619  34.641  1.00  0.00    -0.206 F 
ATOM     71  C   UNL A   1      45.716  26.876  36.973  1.00  0.00     0.060 A 
BRANCH  71  72
ATOM     72  S   UNL A   1      46.998  25.887  37.774  1.00  0.00     0.124 S 
ATOM     73  O   UNL A   1      47.219  24.838  36.783  1.00  0.00    -0.237 OA
ATOM     74  O   UNL A   1      48.084  26.849  37.928  1.00  0.00    -0.237 OA
ATOM     75  O   UNL A   1      46.368  25.452  39.016  1.00  0.00    -0.744 OA
ENDBRANCH  71  72
ENDBRANCH  50  64
BRANCH  51  76
ATOM     76  C   UNL A   1      36.299  33.152  31.030  1.00  0.00     0.058 A 
ATOM     77  C   UNL A   1      35.006  33.211  31.567  1.00  0.00     0.135 A 
ATOM     78  C   UNL A   1      36.555  33.859  29.845  1.00  0.00     0.135 A 
ATOM     79  F   UNL A   1      34.719  32.550  32.699  1.00  0.00    -0.206 F 
ATOM     80  C   UNL A   1      34.004  33.960  30.962  1.00  0.00     0.059 A 
ATOM     81  C   UNL A   1      35.573  34.630  29.232  1.00  0.00     0.059 A 
ATOM     82  F   UNL A   1      37.784  33.846  29.308  1.00  0.00    -0.206 F 
ATOM     83  C   UNL A   1      34.301  34.677  29.801  1.00  0.00     0.060 A 
BRANCH  83  84
ATOM     84  S   UNL A   1      33.020  35.729  29.086  1.00  0.00     0.124 S 
ATOM     85  O   UNL A   1      33.806  36.843  28.570  1.00  0.00    -0.237 OA
ATOM     86  O   UNL A   1      32.426  34.847  28.085  1.00  0.00    -0.237 OA
ATOM     87  O   UNL A   1      32.161  36.035  30.226  1.00  0.00    -0.744 OA
ENDBRANCH  83  84
ENDBRANCH  51  76
BRANCH  63  88
ATOM     88  C   UNL A   1      39.792  34.350  36.961  1.00  0.00     0.058 A 
ATOM     89  C   UNL A   1      40.344  35.624  36.762  1.00  0.00     0.135 A 
ATOM     90  C   UNL A   1      39.089  34.117  38.154  1.00  0.00     0.135 A 
ATOM     91  F   UNL A   1      41.036  35.894  35.644  1.00  0.00    -0.206 F 
ATOM     92  C   UNL A   1      40.216  36.628  37.717  1.00  0.00     0.059 A 
ATOM     93  C   UNL A   1      38.929  35.115  39.113  1.00  0.00     0.059 A 
ATOM     94  F   UNL A   1      38.537  32.917  38.391  1.00  0.00    -0.206 F 
ATOM     95  C   UNL A   1      39.504  36.365  38.888  1.00  0.00     0.060 A 
BRANCH  95  96
ATOM     96  S   UNL A   1      39.311  37.690  40.099  1.00  0.00     0.124 S 
ATOM     97  O   UNL A   1      38.969  36.941  41.304  1.00  0.00    -0.237 OA
ATOM     98  O   UNL A   1      40.632  38.313  40.095  1.00  0.00    -0.237 OA
ATOM     99  O   UNL A   1      38.238  38.508  39.542  1.00  0.00    -0.744 OA
ENDBRANCH  95  96
ENDBRANCH  63  88
ENDBRANCH  37  38
ENDBRANCH  30  32
ENDBRANCH  29  30
ENDBRANCH  28  29
ENDBRANCH  27  28
ENDBRANCH  26  27
ENDBRANCH   1  26
TORSDOF 21
ENDMDL
MODEL 3
REMARK VINA RESULT:     -10.5      6.077     11.842
REMARK SMILES C[C@@H]1Cc2ccccc2N1c1ccc(F)cc1C(=O)OCCOCCOCCOC(=O)c1ccc(-c2c3nc(c(-c4c(F)cc(S(=O)(=O)[O-])cc4F)c4ccc([nH]4)c(-c4c(F)cc(S(=O)(=O)[O-])cc4F)c4nc(c(-c5c(F)cc(S(=O)(=O)[O-])cc5F)c5ccc2[nH]5)C=C4)C=C3)cc1
REMARK SMILES IDX 25 1 24 2 23 3 22 4 21 5 20 6 18 7 19 8 17 9 11 10 12 11
REMARK SMILES IDX 13 12 16 13 14 14 15 15 10 16 1 17 2 18 3 19 4 20 9 21 5 22
REMARK SMILES IDX 8 23 6 24 7 25 26 26 27 27 28 28 29 29 30 30 31 31 32 32
REMARK SMILES IDX 33 33 97 34 34 35 96 36 35 37 36 38 37 39 90 40 38 41 95 42
REMARK SMILES IDX 89 43 91 44 39 45 94 46 88 47 87 48 40 50 74 51 53 52 73 53
REMARK SMILES IDX 54 54 57 55 72 56 92 57 55 58 56 59 71 61 93 62 58 63 41 64
REMARK SMILES IDX 42 65 51 66 43 67 44 68 50 69 52 70 45 71 46 72 47 73 48 74
REMARK SMILES IDX 49 75 75 76 76 77 85 78 77 79 78 80 84 81 86 82 79 83 80 84
REMARK SMILES IDX 81 85 82 86 83 87 59 88 60 89 69 90 61 91 62 92 68 93 70 94
REMARK SMILES IDX 63 95 64 96 65 97 66 98 67 99
REMARK H PARENT 91 49 57 60
REMARK Flexibility Score: inf
ROOT
ATOM      1  C   UNL A   1      33.747  34.156  28.458  1.00  0.00     0.188 C 
ENDROOT
BRANCH   1   2
ATOM      2  C   UNL A   1      33.041  32.961  27.780  1.00  0.00     0.188 C 
BRANCH   2   3
ATOM      3  O   UNL A   1      33.695  31.707  27.674  1.00  0.00    -0.376 OA
BRANCH   3   4
ATOM      4  C   UNL A   1      33.057  30.649  26.969  1.00  0.00     0.202 C 
BRANCH   4   5
ATOM      5  C   UNL A   1      33.310  29.214  27.418  1.00  0.00     0.261 C 
BRANCH   5   6
ATOM      6  O   UNL A   1      32.674  28.268  26.546  1.00  0.00    -0.460 OA
BRANCH   6   7
ATOM      7  C   UNL A   1      32.894  28.472  25.228  1.00  0.00     0.340 C 
ATOM      8  O   UNL A   1      33.983  28.637  24.699  1.00  0.00    -0.246 OA
BRANCH   7   9
ATOM      9  C   UNL A   1      31.658  28.350  24.426  1.00  0.00     0.086 A 
ATOM     10  C   UNL A   1      31.188  27.159  23.833  1.00  0.00     0.056 A 
ATOM     11  C   UNL A   1      29.933  27.219  23.185  1.00  0.00     0.030 A 
ATOM     12  C   UNL A   1      29.229  28.416  23.040  1.00  0.00     0.041 A 
ATOM     13  C   UNL A   1      30.947  29.557  24.276  1.00  0.00     0.057 A 
ATOM     14  C   UNL A   1      29.759  29.581  23.565  1.00  0.00     0.124 A 
ATOM     15  F   UNL A   1      29.118  30.741  23.381  1.00  0.00    -0.207 F 
BRANCH  10  16
ATOM     16  N   UNL A   1      31.934  25.975  23.758  1.00  0.00    -0.337 N 
ATOM     17  C   UNL A   1      33.002  26.071  21.448  1.00  0.00     0.032 C 
ATOM     18  C   UNL A   1      33.177  25.864  22.943  1.00  0.00     0.089 C 
ATOM     19  C   UNL A   1      33.746  24.443  23.207  1.00  0.00     0.063 C 
ATOM     20  C   UNL A   1      33.212  24.174  24.569  1.00  0.00    -0.022 A 
ATOM     21  C   UNL A   1      32.158  25.052  24.827  1.00  0.00     0.045 A 
ATOM     22  C   UNL A   1      33.595  23.196  25.475  1.00  0.00     0.006 A 
ATOM     23  C   UNL A   1      31.463  24.954  26.026  1.00  0.00     0.026 A 
ATOM     24  C   UNL A   1      32.917  23.124  26.692  1.00  0.00     0.000 A 
ATOM     25  C   UNL A   1      31.859  23.999  26.968  1.00  0.00     0.002 A 
ENDBRANCH  10  16
ENDBRANCH   7   9
ENDBRANCH   6   7
ENDBRANCH   5   6
ENDBRANCH   4   5
ENDBRANCH   3   4
ENDBRANCH   2   3
ENDBRANCH   1   2
BRANCH   1  26
ATOM     26  O   UNL A   1      33.803  34.250  29.870  1.00  0.00    -0.376 OA
BRANCH  26  27
ATOM     27  C   UNL A   1      34.922  33.706  30.554  1.00  0.00     0.202 C 
BRANCH  27  28
ATOM     28  C   UNL A   1      34.809  32.282  31.097  1.00  0.00     0.261 C 
BRANCH  28  29
ATOM     29  O   UNL A   1      35.952  31.491  30.733  1.00  0.00    -0.460 OA
BRANCH  29  30
ATOM     30  C   UNL A   1      36.967  31.483  31.632  1.00  0.00     0.338 C 
ATOM     31  O   UNL A   1      36.899  31.727  32.824  1.00  0.00    -0.246 OA
BRANCH  30  32
ATOM     32  C   UNL A   1      38.162  30.901  30.985  1.00  0.00     0.060 A 
ATOM     33  C   UNL A   1      38.345  30.958  29.602  1.00  0.00     0.016 A 
ATOM     34  C   UNL A   1      39.101  30.256  31.802  1.00  0.00     0.016 A 
ATOM     35  C   UNL A   1      39.497  30.403  29.041  1.00  0.00     0.010 A 
ATOM     36  C   UNL A   1      40.242  29.688  31.238  1.00  0.00     0.010 A 
ATOM     37  C   UNL A   1      40.460  29.783  29.857  1.00  0.00    -0.014 A 
BRANCH  37  38
ATOM     38  C   UNL A   1      41.781  29.425  29.290  1.00  0.00     0.031 A 
ATOM     39  C   UNL A   1      42.908  30.405  29.208  1.00  0.00     0.074 A 
ATOM     40  C   UNL A   1      41.937  28.169  28.830  1.00  0.00     0.049 A 
ATOM     41  N   UNL A   1      44.148  30.193  28.847  1.00  0.00    -0.248 NA
ATOM     42  C   UNL A   1      42.610  31.798  29.565  1.00  0.00     0.031 C 
ATOM     43  C   UNL A   1      40.887  27.148  28.821  1.00  0.00     0.029 A 
ATOM     44  N   UNL A   1      43.026  27.538  28.292  1.00  0.00    -0.354 N 
ATOM     45  C   UNL A   1      44.792  31.418  28.957  1.00  0.00     0.074 A 
ATOM     46  C   UNL A   1      43.789  32.380  29.375  1.00  0.00     0.031 C 
ATOM     47  C   UNL A   1      41.389  26.011  28.318  1.00  0.00     0.029 A 
ATOM     48  C   UNL A   1      42.789  26.226  27.963  1.00  0.00     0.049 A 
ATOM     49  H   UNL A   1      43.894  27.982  28.152  1.00  0.00     0.167 HD
ATOM     50  C   UNL A   1      46.100  31.702  28.743  1.00  0.00     0.037 A 
ATOM     51  C   UNL A   1      43.610  25.290  27.452  1.00  0.00     0.037 A 
ATOM     52  C   UNL A   1      47.079  30.737  28.303  1.00  0.00     0.049 A 
ATOM     53  C   UNL A   1      45.048  25.633  27.203  1.00  0.00     0.074 A 
ATOM     54  C   UNL A   1      48.441  30.912  28.125  1.00  0.00     0.029 A 
ATOM     55  N   UNL A   1      46.800  29.424  27.948  1.00  0.00    -0.354 N 
ATOM     56  N   UNL A   1      45.669  26.768  27.413  1.00  0.00    -0.248 NA
ATOM     57  C   UNL A   1      45.901  24.567  26.661  1.00  0.00     0.031 C 
ATOM     58  C   UNL A   1      48.976  29.723  27.615  1.00  0.00     0.029 A 
ATOM     59  C   UNL A   1      47.955  28.789  27.517  1.00  0.00     0.049 A 
ATOM     60  H   UNL A   1      45.910  29.004  27.996  1.00  0.00     0.167 HD
ATOM     61  C   UNL A   1      46.990  26.553  27.039  1.00  0.00     0.074 A 
ATOM     62  C   UNL A   1      47.080  25.174  26.602  1.00  0.00     0.031 C 
ATOM     63  C   UNL A   1      48.031  27.423  27.059  1.00  0.00     0.037 A 
BRANCH  50  64
ATOM     64  C   UNL A   1      46.557  33.113  28.989  1.00  0.00     0.058 A 
ATOM     65  C   UNL A   1      47.236  33.468  30.167  1.00  0.00     0.135 A 
ATOM     66  C   UNL A   1      46.370  34.110  28.018  1.00  0.00     0.135 A 
ATOM     67  F   UNL A   1      47.438  32.554  31.130  1.00  0.00    -0.206 F 
ATOM     68  C   UNL A   1      47.691  34.763  30.383  1.00  0.00     0.059 A 
ATOM     69  C   UNL A   1      46.837  35.409  28.205  1.00  0.00     0.059 A 
ATOM     70  F   UNL A   1      45.733  33.826  26.871  1.00  0.00    -0.206 F 
ATOM     71  C   UNL A   1      47.485  35.730  29.397  1.00  0.00     0.060 A 
BRANCH  71  72
ATOM     72  S   UNL A   1      48.089  37.406  29.693  1.00  0.00     0.124 S 
ATOM     73  O   UNL A   1      49.505  37.165  29.953  1.00  0.00    -0.237 OA
ATOM     74  O   UNL A   1      47.782  38.076  28.433  1.00  0.00    -0.237 OA
ATOM     75  O   UNL A   1      47.308  37.852  30.843  1.00  0.00    -0.744 OA
ENDBRANCH  71  72
ENDBRANCH  50  64
BRANCH  51  76
ATOM     76  C   UNL A   1      43.075  23.929  27.204  1.00  0.00     0.058 A 
ATOM     77  C   UNL A   1      42.768  23.508  25.903  1.00  0.00     0.135 A 
ATOM     78  C   UNL A   1      42.963  22.995  28.245  1.00  0.00     0.135 A 
ATOM     79  F   UNL A   1      42.862  24.369  24.879  1.00  0.00    -0.206 F 
ATOM     80  C   UNL A   1      42.379  22.201  25.639  1.00  0.00     0.059 A 
ATOM     81  C   UNL A   1      42.593  21.676  28.002  1.00  0.00     0.059 A 
ATOM     82  F   UNL A   1      43.267  23.350  29.502  1.00  0.00    -0.206 F 
ATOM     83  C   UNL A   1      42.308  21.288  26.693  1.00  0.00     0.060 A 
BRANCH  83  84
ATOM     84  S   UNL A   1      41.904  19.568  26.320  1.00  0.00     0.124 S 
ATOM     85  O   UNL A   1      40.449  19.614  26.252  1.00  0.00    -0.237 OA
ATOM     86  O   UNL A   1      42.598  19.362  25.051  1.00  0.00    -0.237 OA
ATOM     87  O   UNL A   1      42.462  18.838  27.454  1.00  0.00    -0.744 OA
ENDBRANCH  83  84
ENDBRANCH  51  76
BRANCH  63  88
ATOM     88  C   UNL A   1      49.362  26.912  26.581  1.00  0.00     0.058 A 
ATOM     89  C   UNL A   1      50.297  26.365  27.472  1.00  0.00     0.135 A 
ATOM     90  C   UNL A   1      49.685  26.923  25.214  1.00  0.00     0.135 A 
ATOM     91  F   UNL A   1      50.042  26.342  28.789  1.00  0.00    -0.206 F 
ATOM     92  C   UNL A   1      51.515  25.858  27.026  1.00  0.00     0.059 A 
ATOM     93  C   UNL A   1      50.887  26.400  24.744  1.00  0.00     0.059 A 
ATOM     94  F   UNL A   1      48.823  27.431  24.319  1.00  0.00    -0.206 F 
ATOM     95  C   UNL A   1      51.799  25.877  25.660  1.00  0.00     0.060 A 
BRANCH  95  96
ATOM     96  S   UNL A   1      53.365  25.179  25.093  1.00  0.00     0.124 S 
ATOM     97  O   UNL A   1      53.138  23.750  25.287  1.00  0.00    -0.237 OA
ATOM     98  O   UNL A   1      53.424  25.629  23.705  1.00  0.00    -0.237 OA
ATOM     99  O   UNL A   1      54.350  25.785  25.984  1.00  0.00    -0.744 OA
ENDBRANCH  95  96
ENDBRANCH  63  88
ENDBRANCH  37  38
ENDBRANCH  30  32
ENDBRANCH  29  30
ENDBRANCH  28  29
ENDBRANCH  27  28
ENDBRANCH  26  27
ENDBRANCH   1  26
TORSDOF 21
ENDMDL
