MODEL 1
REMARK VINA RESULT:      -9.4      0.000      0.000
REMARK SMILES COCCC[C@@]1(C(=O)OCCOCCOCCOC(=O)c2ccc(-c3c4nc(c(-c5c(F)cc(S(=O)(=O)[O-])cc5F)c5ccc([nH]5)c(-c5c(F)cc(S(=O)(=O)[O-])cc5F)c5nc(c(-c6c(F)cc(S(=O)(=O)[O-])cc6F)c6ccc3[nH]6)C=C5)C=C4)cc2)CCCN(C(=O)c2sccc2C)C1
REMARK SMILES IDX 13 1 12 2 11 3 10 4 9 5 7 6 8 7 6 8 87 9 99 10 88 11 90 12
REMARK SMILES IDX 89 13 5 14 4 15 3 16 2 17 1 18 91 19 92 20 93 21 94 22 97 23
REMARK SMILES IDX 95 24 96 25 98 26 14 27 15 28 16 29 17 30 18 31 19 32 20 33
REMARK SMILES IDX 21 34 22 35 86 36 23 37 85 38 24 39 25 40 26 41 79 42 27 43
REMARK SMILES IDX 84 44 78 45 80 46 28 47 83 48 77 49 76 50 29 52 63 53 42 54
REMARK SMILES IDX 62 55 43 56 46 57 61 58 81 59 44 60 45 61 60 63 82 64 47 65
REMARK SMILES IDX 30 66 31 67 40 68 32 69 33 70 39 71 41 72 34 73 35 74 36 75
REMARK SMILES IDX 37 76 38 77 64 78 65 79 74 80 66 81 67 82 73 83 75 84 68 85
REMARK SMILES IDX 69 86 70 87 71 88 72 89 48 90 49 91 58 92 50 93 51 94 57 95
REMARK SMILES IDX 59 96 52 97 53 98 54 99 55 100 56 101
REMARK H PARENT 80 51 46 62
REMARK Flexibility Score: inf
ROOT
ATOM      1  C   UNL A   1      31.747  27.246  26.742  1.00  0.00     0.188 C 
ENDROOT
BRANCH   1   2
ATOM      2  O   UNL A   1      30.851  26.300  26.185  1.00  0.00    -0.376 OA
BRANCH   2   3
ATOM      3  C   UNL A   1      31.372  25.064  25.721  1.00  0.00     0.202 C 
BRANCH   3   4
ATOM      4  C   UNL A   1      32.509  24.437  26.526  1.00  0.00     0.261 C 
BRANCH   4   5
ATOM      5  O   UNL A   1      33.290  23.512  25.746  1.00  0.00    -0.463 OA
BRANCH   5   6
ATOM      6  C   UNL A   1      34.282  24.056  24.999  1.00  0.00     0.313 C 
ATOM      7  O   UNL A   1      34.771  25.161  25.219  1.00  0.00    -0.252 OA
BRANCH   6   8
ATOM      8  C   UNL A   1      34.782  23.162  23.845  1.00  0.00     0.086 C 
ATOM      9  C   UNL A   1      34.197  23.796  22.561  1.00  0.00     0.022 C 
ATOM     10  C   UNL A   1      34.303  21.697  23.916  1.00  0.00     0.138 C 
ATOM     11  C   UNL A   1      32.672  23.677  22.533  1.00  0.00     0.023 C 
ATOM     12  N   UNL A   1      32.852  21.542  23.795  1.00  0.00    -0.337 N 
ATOM     13  C   UNL A   1      32.218  22.230  22.671  1.00  0.00     0.120 C 
BRANCH   8  14
ATOM     14  C   UNL A   1      36.339  23.283  23.907  1.00  0.00     0.023 C 
BRANCH  14  15
ATOM     15  C   UNL A   1      37.197  22.136  24.464  1.00  0.00     0.030 C 
BRANCH  15  16
ATOM     16  C   UNL A   1      38.070  22.422  25.683  1.00  0.00     0.159 C 
BRANCH  16  17
ATOM     17  O   UNL A   1      37.654  23.541  26.458  1.00  0.00    -0.385 OA
ATOM     18  C   UNL A   1      38.694  24.381  26.929  1.00  0.00     0.194 C 
ENDBRANCH  16  17
ENDBRANCH  15  16
ENDBRANCH  14  15
ENDBRANCH   8  14
BRANCH  12  19
ATOM     19  C   UNL A   1      32.218  20.599  24.624  1.00  0.00     0.264 C 
ATOM     20  O   UNL A   1      31.303  20.926  25.379  1.00  0.00    -0.268 OA
BRANCH  19  21
ATOM     21  C   UNL A   1      32.608  19.205  24.501  1.00  0.00     0.095 A 
ATOM     22  S   UNL A   1      32.990  18.289  25.897  1.00  0.00    -0.138 S 
ATOM     23  C   UNL A   1      32.598  18.428  23.350  1.00  0.00    -0.027 A 
ATOM     24  C   UNL A   1      33.356  16.908  24.959  1.00  0.00     0.066 A 
ATOM     25  C   UNL A   1      33.082  17.106  23.625  1.00  0.00     0.016 A 
ATOM     26  C   UNL A   1      32.168  18.886  21.994  1.00  0.00     0.046 C 
ENDBRANCH  19  21
ENDBRANCH  12  19
ENDBRANCH   6   8
ENDBRANCH   5   6
ENDBRANCH   4   5
ENDBRANCH   3   4
ENDBRANCH   2   3
ENDBRANCH   1   2
BRANCH   1  27
ATOM     27  C   UNL A   1      32.410  28.294  25.827  1.00  0.00     0.188 C 
BRANCH  27  28
ATOM     28  O   UNL A   1      33.714  28.782  26.078  1.00  0.00    -0.376 OA
BRANCH  28  29
ATOM     29  C   UNL A   1      34.042  29.302  27.352  1.00  0.00     0.202 C 
BRANCH  29  30
ATOM     30  C   UNL A   1      35.464  29.115  27.888  1.00  0.00     0.261 C 
BRANCH  30  31
ATOM     31  O   UNL A   1      35.905  30.163  28.763  1.00  0.00    -0.460 OA
BRANCH  31  32
ATOM     32  C   UNL A   1      36.664  29.765  29.810  1.00  0.00     0.338 C 
ATOM     33  O   UNL A   1      36.269  29.279  30.867  1.00  0.00    -0.246 OA
BRANCH  32  34
ATOM     34  C   UNL A   1      38.091  29.828  29.450  1.00  0.00     0.060 A 
ATOM     35  C   UNL A   1      38.439  29.811  28.091  1.00  0.00     0.016 A 
ATOM     36  C   UNL A   1      39.081  29.845  30.434  1.00  0.00     0.016 A 
ATOM     37  C   UNL A   1      39.781  29.770  27.712  1.00  0.00     0.010 A 
ATOM     38  C   UNL A   1      40.424  29.781  30.054  1.00  0.00     0.010 A 
ATOM     39  C   UNL A   1      40.779  29.708  28.694  1.00  0.00    -0.014 A 
BRANCH  39  40
ATOM     40  C   UNL A   1      42.174  29.375  28.317  1.00  0.00     0.031 A 
ATOM     41  C   UNL A   1      42.498  27.949  27.960  1.00  0.00     0.074 A 
ATOM     42  C   UNL A   1      43.139  30.312  28.298  1.00  0.00     0.049 A 
ATOM     43  N   UNL A   1      43.655  27.402  27.690  1.00  0.00    -0.248 NA
ATOM     44  C   UNL A   1      41.362  27.015  27.904  1.00  0.00     0.031 C 
ATOM     45  C   UNL A   1      42.947  31.732  28.581  1.00  0.00     0.029 A 
ATOM     46  N   UNL A   1      44.484  30.197  28.044  1.00  0.00    -0.354 N 
ATOM     47  C   UNL A   1      43.389  26.061  27.440  1.00  0.00     0.074 A 
ATOM     48  C   UNL A   1      41.965  25.872  27.611  1.00  0.00     0.031 C 
ATOM     49  C   UNL A   1      44.137  32.355  28.506  1.00  0.00     0.029 A 
ATOM     50  C   UNL A   1      45.177  31.372  28.203  1.00  0.00     0.049 A 
ATOM     51  H   UNL A   1      44.911  29.351  27.774  1.00  0.00     0.167 HD
ATOM     52  C   UNL A   1      44.253  25.076  27.096  1.00  0.00     0.037 A 
ATOM     53  C   UNL A   1      46.501  31.619  28.138  1.00  0.00     0.037 A 
ATOM     54  C   UNL A   1      45.670  25.262  26.934  1.00  0.00     0.049 A 
ATOM     55  C   UNL A   1      47.454  30.491  27.827  1.00  0.00     0.074 A 
ATOM     56  C   UNL A   1      46.627  24.327  26.582  1.00  0.00     0.029 A 
ATOM     57  N   UNL A   1      46.337  26.464  27.122  1.00  0.00    -0.354 N 
ATOM     58  N   UNL A   1      47.190  29.230  27.579  1.00  0.00    -0.248 NA
ATOM     59  C   UNL A   1      48.887  30.820  27.788  1.00  0.00     0.031 C 
ATOM     60  C   UNL A   1      47.878  24.952  26.600  1.00  0.00     0.029 A 
ATOM     61  C   UNL A   1      47.695  26.289  26.915  1.00  0.00     0.049 A 
ATOM     62  H   UNL A   1      45.908  27.315  27.367  1.00  0.00     0.167 HD
ATOM     63  C   UNL A   1      48.418  28.624  27.328  1.00  0.00     0.074 A 
ATOM     64  C   UNL A   1      49.425  29.657  27.446  1.00  0.00     0.031 C 
ATOM     65  C   UNL A   1      48.687  27.330  27.024  1.00  0.00     0.037 A 
BRANCH  52  66
ATOM     66  C   UNL A   1      43.686  23.700  26.900  1.00  0.00     0.058 A 
ATOM     67  C   UNL A   1      43.414  22.852  27.986  1.00  0.00     0.135 A 
ATOM     68  C   UNL A   1      43.392  23.229  25.610  1.00  0.00     0.135 A 
ATOM     69  F   UNL A   1      43.695  23.245  29.238  1.00  0.00    -0.206 F 
ATOM     70  C   UNL A   1      42.895  21.575  27.797  1.00  0.00     0.059 A 
ATOM     71  C   UNL A   1      42.850  21.965  25.400  1.00  0.00     0.059 A 
ATOM     72  F   UNL A   1      43.637  23.998  24.538  1.00  0.00    -0.206 F 
ATOM     73  C   UNL A   1      42.618  21.139  26.500  1.00  0.00     0.060 A 
BRANCH  73  74
ATOM     74  S   UNL A   1      41.948  19.479  26.269  1.00  0.00     0.124 S 
ATOM     75  O   UNL A   1      42.610  19.067  25.036  1.00  0.00    -0.237 OA
ATOM     76  O   UNL A   1      42.384  18.795  27.482  1.00  0.00    -0.237 OA
ATOM     77  O   UNL A   1      40.510  19.704  26.164  1.00  0.00    -0.744 OA
ENDBRANCH  73  74
ENDBRANCH  52  66
BRANCH  53  78
ATOM     78  C   UNL A   1      47.017  32.990  28.393  1.00  0.00     0.058 A 
ATOM     79  C   UNL A   1      47.141  33.923  27.353  1.00  0.00     0.135 A 
ATOM     80  C   UNL A   1      47.409  33.391  29.680  1.00  0.00     0.135 A 
ATOM     81  F   UNL A   1      46.794  33.581  26.102  1.00  0.00    -0.206 F 
ATOM     82  C   UNL A   1      47.647  35.200  27.574  1.00  0.00     0.059 A 
ATOM     83  C   UNL A   1      47.894  34.671  29.932  1.00  0.00     0.059 A 
ATOM     84  F   UNL A   1      47.305  32.538  30.711  1.00  0.00    -0.206 F 
ATOM     85  C   UNL A   1      48.019  35.565  28.869  1.00  0.00     0.060 A 
BRANCH  85  86
ATOM     86  S   UNL A   1      48.631  37.240  29.155  1.00  0.00     0.124 S 
ATOM     87  O   UNL A   1      47.391  37.966  29.407  1.00  0.00    -0.237 OA
ATOM     88  O   UNL A   1      49.508  37.055  30.306  1.00  0.00    -0.237 OA
ATOM     89  O   UNL A   1      49.311  37.567  27.905  1.00  0.00    -0.744 OA
ENDBRANCH  85  86
ENDBRANCH  53  78
BRANCH  65  90
ATOM     90  C   UNL A   1      50.120  26.956  26.756  1.00  0.00     0.058 A 
ATOM     91  C   UNL A   1      50.964  26.486  27.773  1.00  0.00     0.135 A 
ATOM     92  C   UNL A   1      50.635  27.011  25.451  1.00  0.00     0.135 A 
ATOM     93  F   UNL A   1      50.524  26.418  29.039  1.00  0.00    -0.206 F 
ATOM     94  C   UNL A   1      52.277  26.101  27.509  1.00  0.00     0.059 A 
ATOM     95  C   UNL A   1      51.934  26.608  25.160  1.00  0.00     0.059 A 
ATOM     96  F   UNL A   1      49.866  27.442  24.438  1.00  0.00    -0.206 F 
ATOM     97  C   UNL A   1      52.752  26.163  26.198  1.00  0.00     0.060 A 
BRANCH  97  98
ATOM     98  S   UNL A   1      54.442  25.625  25.861  1.00  0.00     0.124 S 
ATOM     99  O   UNL A   1      54.353  25.238  24.457  1.00  0.00    -0.237 OA
ATOM    100  O   UNL A   1      55.218  26.830  26.140  1.00  0.00    -0.237 OA
ATOM    101  O   UNL A   1      54.644  24.528  26.803  1.00  0.00    -0.744 OA
ENDBRANCH  97  98
ENDBRANCH  65  90
ENDBRANCH  39  40
ENDBRANCH  32  34
ENDBRANCH  31  32
ENDBRANCH  30  31
ENDBRANCH  29  30
ENDBRANCH  28  29
ENDBRANCH  27  28
ENDBRANCH   1  27
TORSDOF 26
ENDMDL
MODEL 2
REMARK VINA RESULT:      -8.8      5.115      6.511
REMARK SMILES COCCC[C@@]1(C(=O)OCCOCCOCCOC(=O)c2ccc(-c3c4nc(c(-c5c(F)cc(S(=O)(=O)[O-])cc5F)c5ccc([nH]5)c(-c5c(F)cc(S(=O)(=O)[O-])cc5F)c5nc(c(-c6c(F)cc(S(=O)(=O)[O-])cc6F)c6ccc3[nH]6)C=C5)C=C4)cc2)CCCN(C(=O)c2sccc2C)C1
REMARK SMILES IDX 13 1 12 2 11 3 10 4 9 5 7 6 8 7 6 8 87 9 99 10 88 11 90 12
REMARK SMILES IDX 89 13 5 14 4 15 3 16 2 17 1 18 91 19 92 20 93 21 94 22 97 23
REMARK SMILES IDX 95 24 96 25 98 26 14 27 15 28 16 29 17 30 18 31 19 32 20 33
REMARK SMILES IDX 21 34 22 35 86 36 23 37 85 38 24 39 25 40 26 41 79 42 27 43
REMARK SMILES IDX 84 44 78 45 80 46 28 47 83 48 77 49 76 50 29 52 63 53 42 54
REMARK SMILES IDX 62 55 43 56 46 57 61 58 81 59 44 60 45 61 60 63 82 64 47 65
REMARK SMILES IDX 30 66 31 67 40 68 32 69 33 70 39 71 41 72 34 73 35 74 36 75
REMARK SMILES IDX 37 76 38 77 64 78 65 79 74 80 66 81 67 82 73 83 75 84 68 85
REMARK SMILES IDX 69 86 70 87 71 88 72 89 48 90 49 91 58 92 50 93 51 94 57 95
REMARK SMILES IDX 59 96 52 97 53 98 54 99 55 100 56 101
REMARK H PARENT 80 51 46 62
REMARK Flexibility Score: inf
ROOT
ATOM      1  C   UNL A   1      30.739  26.468  25.852  1.00  0.00     0.188 C 
ENDROOT
BRANCH   1   2
ATOM      2  O   UNL A   1      30.083  25.299  25.391  1.00  0.00    -0.376 OA
BRANCH   2   3
ATOM      3  C   UNL A   1      30.716  24.045  25.588  1.00  0.00     0.202 C 
BRANCH   3   4
ATOM      4  C   UNL A   1      31.697  23.930  26.752  1.00  0.00     0.261 C 
BRANCH   4   5
ATOM      5  O   UNL A   1      32.977  23.411  26.345  1.00  0.00    -0.463 OA
BRANCH   5   6
ATOM      6  C   UNL A   1      33.798  24.286  25.714  1.00  0.00     0.313 C 
ATOM      7  O   UNL A   1      33.787  25.497  25.917  1.00  0.00    -0.252 OA
BRANCH   6   8
ATOM      8  C   UNL A   1      34.786  23.638  24.720  1.00  0.00     0.086 C 
ATOM      9  C   UNL A   1      34.481  24.303  23.357  1.00  0.00     0.022 C 
ATOM     10  C   UNL A   1      34.622  22.113  24.557  1.00  0.00     0.138 C 
ATOM     11  C   UNL A   1      33.090  23.915  22.854  1.00  0.00     0.023 C 
ATOM     12  N   UNL A   1      33.334  21.715  23.986  1.00  0.00    -0.337 N 
ATOM     13  C   UNL A   1      32.926  22.404  22.762  1.00  0.00     0.120 C 
BRANCH   8  14
ATOM     14  C   UNL A   1      36.197  24.030  25.266  1.00  0.00     0.023 C 
BRANCH  14  15
ATOM     15  C   UNL A   1      37.435  23.182  24.931  1.00  0.00     0.030 C 
BRANCH  15  16
ATOM     16  C   UNL A   1      38.054  22.348  26.049  1.00  0.00     0.159 C 
BRANCH  16  17
ATOM     17  O   UNL A   1      39.444  22.576  26.256  1.00  0.00    -0.385 OA
ATOM     18  C   UNL A   1      40.244  21.413  26.382  1.00  0.00     0.194 C 
ENDBRANCH  16  17
ENDBRANCH  15  16
ENDBRANCH  14  15
ENDBRANCH   8  14
BRANCH  12  19
ATOM     19  C   UNL A   1      32.696  20.582  24.524  1.00  0.00     0.264 C 
ATOM     20  O   UNL A   1      31.752  20.692  25.304  1.00  0.00    -0.268 OA
BRANCH  19  21
ATOM     21  C   UNL A   1      33.121  19.271  24.062  1.00  0.00     0.095 A 
ATOM     22  S   UNL A   1      32.163  18.398  22.943  1.00  0.00    -0.138 S 
ATOM     23  C   UNL A   1      34.329  18.639  24.323  1.00  0.00    -0.027 A 
ATOM     24  C   UNL A   1      33.244  17.075  22.965  1.00  0.00     0.066 A 
ATOM     25  C   UNL A   1      34.366  17.340  23.716  1.00  0.00     0.016 A 
ATOM     26  C   UNL A   1      35.448  19.202  25.139  1.00  0.00     0.046 C 
ENDBRANCH  19  21
ENDBRANCH  12  19
ENDBRANCH   6   8
ENDBRANCH   5   6
ENDBRANCH   4   5
ENDBRANCH   3   4
ENDBRANCH   2   3
ENDBRANCH   1   2
BRANCH   1  27
ATOM     27  C   UNL A   1      30.873  27.684  24.913  1.00  0.00     0.188 C 
BRANCH  27  28
ATOM     28  O   UNL A   1      32.017  28.515  24.932  1.00  0.00    -0.376 OA
BRANCH  28  29
ATOM     29  C   UNL A   1      32.157  29.505  25.934  1.00  0.00     0.202 C 
BRANCH  29  30
ATOM     30  C   UNL A   1      33.371  29.454  26.865  1.00  0.00     0.261 C 
BRANCH  30  31
ATOM     31  O   UNL A   1      34.213  30.614  26.794  1.00  0.00    -0.460 OA
BRANCH  31  32
ATOM     32  C   UNL A   1      34.532  31.173  27.984  1.00  0.00     0.338 C 
ATOM     33  O   UNL A   1      33.795  31.834  28.712  1.00  0.00    -0.246 OA
BRANCH  32  34
ATOM     34  C   UNL A   1      35.875  30.734  28.404  1.00  0.00     0.060 A 
ATOM     35  C   UNL A   1      35.984  29.578  29.191  1.00  0.00     0.016 A 
ATOM     36  C   UNL A   1      37.009  31.478  28.078  1.00  0.00     0.016 A 
ATOM     37  C   UNL A   1      37.225  29.185  29.691  1.00  0.00     0.010 A 
ATOM     38  C   UNL A   1      38.249  31.096  28.597  1.00  0.00     0.010 A 
ATOM     39  C   UNL A   1      38.358  29.969  29.434  1.00  0.00    -0.014 A 
BRANCH  39  40
ATOM     40  C   UNL A   1      39.614  29.731  30.185  1.00  0.00     0.031 A 
ATOM     41  C   UNL A   1      40.587  28.715  29.651  1.00  0.00     0.074 A 
ATOM     42  C   UNL A   1      39.888  30.395  31.322  1.00  0.00     0.049 A 
ATOM     43  N   UNL A   1      41.699  28.272  30.177  1.00  0.00    -0.248 NA
ATOM     44  C   UNL A   1      40.256  28.117  28.347  1.00  0.00     0.031 C 
ATOM     45  C   UNL A   1      39.050  31.431  31.922  1.00  0.00     0.029 A 
ATOM     46  N   UNL A   1      40.948  30.275  32.188  1.00  0.00    -0.354 N 
ATOM     47  C   UNL A   1      42.197  27.339  29.276  1.00  0.00     0.074 A 
ATOM     48  C   UNL A   1      41.256  27.263  28.180  1.00  0.00     0.031 C 
ATOM     49  C   UNL A   1      39.619  31.840  33.070  1.00  0.00     0.029 A 
ATOM     50  C   UNL A   1      40.841  31.071  33.303  1.00  0.00     0.049 A 
ATOM     51  H   UNL A   1      41.712  29.676  32.024  1.00  0.00     0.167 HD
ATOM     52  C   UNL A   1      43.337  26.612  29.352  1.00  0.00     0.037 A 
ATOM     53  C   UNL A   1      41.625  31.146  34.397  1.00  0.00     0.037 A 
ATOM     54  C   UNL A   1      44.270  26.681  30.446  1.00  0.00     0.049 A 
ATOM     55  C   UNL A   1      42.852  30.273  34.496  1.00  0.00     0.074 A 
ATOM     56  C   UNL A   1      45.455  25.987  30.612  1.00  0.00     0.029 A 
ATOM     57  N   UNL A   1      44.117  27.484  31.566  1.00  0.00    -0.354 N 
ATOM     58  N   UNL A   1      43.320  29.404  33.632  1.00  0.00    -0.248 NA
ATOM     59  C   UNL A   1      43.656  30.390  35.722  1.00  0.00     0.031 C 
ATOM     60  C   UNL A   1      45.998  26.339  31.853  1.00  0.00     0.029 A 
ATOM     61  C   UNL A   1      45.175  27.288  32.438  1.00  0.00     0.049 A 
ATOM     62  H   UNL A   1      43.366  28.103  31.720  1.00  0.00     0.167 HD
ATOM     63  C   UNL A   1      44.486  28.893  34.197  1.00  0.00     0.074 A 
ATOM     64  C   UNL A   1      44.656  29.555  35.473  1.00  0.00     0.031 C 
ATOM     65  C   UNL A   1      45.340  27.963  33.702  1.00  0.00     0.037 A 
BRANCH  52  66
ATOM     66  C   UNL A   1      43.623  25.656  28.230  1.00  0.00     0.058 A 
ATOM     67  C   UNL A   1      44.385  26.035  27.113  1.00  0.00     0.135 A 
ATOM     68  C   UNL A   1      43.143  24.337  28.280  1.00  0.00     0.135 A 
ATOM     69  F   UNL A   1      44.850  27.290  27.007  1.00  0.00    -0.206 F 
ATOM     70  C   UNL A   1      44.640  25.147  26.073  1.00  0.00     0.059 A 
ATOM     71  C   UNL A   1      43.407  23.425  27.262  1.00  0.00     0.059 A 
ATOM     72  F   UNL A   1      42.405  23.925  29.323  1.00  0.00    -0.206 F 
ATOM     73  C   UNL A   1      44.145  23.844  26.156  1.00  0.00     0.060 A 
BRANCH  73  74
ATOM     74  S   UNL A   1      44.481  22.704  24.798  1.00  0.00     0.124 S 
ATOM     75  O   UNL A   1      43.139  22.479  24.268  1.00  0.00    -0.237 OA
ATOM     76  O   UNL A   1      45.375  23.484  23.948  1.00  0.00    -0.237 OA
ATOM     77  O   UNL A   1      45.094  21.557  25.460  1.00  0.00    -0.744 OA
ENDBRANCH  73  74
ENDBRANCH  52  66
BRANCH  53  78
ATOM     78  C   UNL A   1      41.270  32.072  35.506  1.00  0.00     0.058 A 
ATOM     79  C   UNL A   1      40.176  31.812  36.345  1.00  0.00     0.135 A 
ATOM     80  C   UNL A   1      42.010  33.242  35.741  1.00  0.00     0.135 A 
ATOM     81  F   UNL A   1      39.429  30.715  36.150  1.00  0.00    -0.206 F 
ATOM     82  C   UNL A   1      39.818  32.684  37.368  1.00  0.00     0.059 A 
ATOM     83  C   UNL A   1      41.687  34.117  36.774  1.00  0.00     0.059 A 
ATOM     84  F   UNL A   1      43.070  33.533  34.971  1.00  0.00    -0.206 F 
ATOM     85  C   UNL A   1      40.582  33.834  37.576  1.00  0.00     0.060 A 
BRANCH  85  86
ATOM     86  S   UNL A   1      40.138  34.935  38.937  1.00  0.00     0.124 S 
ATOM     87  O   UNL A   1      41.418  35.569  39.231  1.00  0.00    -0.237 OA
ATOM     88  O   UNL A   1      39.128  35.790  38.322  1.00  0.00    -0.237 OA
ATOM     89  O   UNL A   1      39.637  34.020  39.958  1.00  0.00    -0.744 OA
ENDBRANCH  85  86
ENDBRANCH  53  78
BRANCH  65  90
ATOM     90  C   UNL A   1      46.559  27.628  34.516  1.00  0.00     0.058 A 
ATOM     91  C   UNL A   1      47.757  28.347  34.384  1.00  0.00     0.135 A 
ATOM     92  C   UNL A   1      46.509  26.613  35.485  1.00  0.00     0.135 A 
ATOM     93  F   UNL A   1      47.862  29.323  33.469  1.00  0.00    -0.206 F 
ATOM     94  C   UNL A   1      48.869  28.059  35.172  1.00  0.00     0.059 A 
ATOM     95  C   UNL A   1      47.598  26.326  36.301  1.00  0.00     0.059 A 
ATOM     96  F   UNL A   1      45.383  25.902  35.661  1.00  0.00    -0.206 F 
ATOM     97  C   UNL A   1      48.779  27.048  36.130  1.00  0.00     0.060 A 
BRANCH  97  98
ATOM     98  S   UNL A   1      50.214  26.709  37.173  1.00  0.00     0.124 S 
ATOM     99  O   UNL A   1      49.750  25.564  37.948  1.00  0.00    -0.237 OA
ATOM    100  O   UNL A   1      51.257  26.431  36.191  1.00  0.00    -0.237 OA
ATOM    101  O   UNL A   1      50.387  27.948  37.926  1.00  0.00    -0.744 OA
ENDBRANCH  97  98
ENDBRANCH  65  90
ENDBRANCH  39  40
ENDBRANCH  32  34
ENDBRANCH  31  32
ENDBRANCH  30  31
ENDBRANCH  29  30
ENDBRANCH  28  29
ENDBRANCH  27  28
ENDBRANCH   1  27
TORSDOF 26
ENDMDL
MODEL 3
REMARK VINA RESULT:      -8.7      4.571      8.605
REMARK SMILES COCCC[C@@]1(C(=O)OCCOCCOCCOC(=O)c2ccc(-c3c4nc(c(-c5c(F)cc(S(=O)(=O)[O-])cc5F)c5ccc([nH]5)c(-c5c(F)cc(S(=O)(=O)[O-])cc5F)c5nc(c(-c6c(F)cc(S(=O)(=O)[O-])cc6F)c6ccc3[nH]6)C=C5)C=C4)cc2)CCCN(C(=O)c2sccc2C)C1
REMARK SMILES IDX 13 1 12 2 11 3 10 4 9 5 7 6 8 7 6 8 87 9 99 10 88 11 90 12
REMARK SMILES IDX 89 13 5 14 4 15 3 16 2 17 1 18 91 19 92 20 93 21 94 22 97 23
REMARK SMILES IDX 95 24 96 25 98 26 14 27 15 28 16 29 17 30 18 31 19 32 20 33
REMARK SMILES IDX 21 34 22 35 86 36 23 37 85 38 24 39 25 40 26 41 79 42 27 43
REMARK SMILES IDX 84 44 78 45 80 46 28 47 83 48 77 49 76 50 29 52 63 53 42 54
REMARK SMILES IDX 62 55 43 56 46 57 61 58 81 59 44 60 45 61 60 63 82 64 47 65
REMARK SMILES IDX 30 66 31 67 40 68 32 69 33 70 39 71 41 72 34 73 35 74 36 75
REMARK SMILES IDX 37 76 38 77 64 78 65 79 74 80 66 81 67 82 73 83 75 84 68 85
REMARK SMILES IDX 69 86 70 87 71 88 72 89 48 90 49 91 58 92 50 93 51 94 57 95
REMARK SMILES IDX 59 96 52 97 53 98 54 99 55 100 56 101
REMARK H PARENT 80 51 46 62
REMARK Flexibility Score: inf
ROOT
ATOM      1  C   UNL A   1      30.717  27.378  25.362  1.00  0.00     0.188 C 
ENDROOT
BRANCH   1   2
ATOM      2  O   UNL A   1      30.577  26.059  24.862  1.00  0.00    -0.376 OA
BRANCH   2   3
ATOM      3  C   UNL A   1      30.566  24.982  25.786  1.00  0.00     0.202 C 
BRANCH   3   4
ATOM      4  C   UNL A   1      31.065  23.627  25.290  1.00  0.00     0.261 C 
BRANCH   4   5
ATOM      5  O   UNL A   1      32.270  23.207  25.956  1.00  0.00    -0.463 OA
BRANCH   5   6
ATOM      6  C   UNL A   1      33.347  24.016  25.801  1.00  0.00     0.313 C 
ATOM      7  O   UNL A   1      33.383  25.181  26.188  1.00  0.00    -0.252 OA
BRANCH   6   8
ATOM      8  C   UNL A   1      34.558  23.350  25.112  1.00  0.00     0.086 C 
ATOM      9  C   UNL A   1      35.018  24.365  24.039  1.00  0.00     0.022 C 
ATOM     10  C   UNL A   1      34.238  22.016  24.405  1.00  0.00     0.138 C 
ATOM     11  C   UNL A   1      33.965  24.521  22.941  1.00  0.00     0.023 C 
ATOM     12  N   UNL A   1      33.305  22.149  23.285  1.00  0.00    -0.337 N 
ATOM     13  C   UNL A   1      33.616  23.185  22.301  1.00  0.00     0.120 C 
BRANCH   8  14
ATOM     14  C   UNL A   1      35.609  23.182  26.256  1.00  0.00     0.023 C 
BRANCH  14  15
ATOM     15  C   UNL A   1      37.049  23.693  26.083  1.00  0.00     0.030 C 
BRANCH  15  16
ATOM     16  C   UNL A   1      38.172  22.660  26.021  1.00  0.00     0.159 C 
BRANCH  16  17
ATOM     17  O   UNL A   1      39.453  23.159  26.388  1.00  0.00    -0.385 OA
ATOM     18  C   UNL A   1      40.488  22.192  26.467  1.00  0.00     0.194 C 
ENDBRANCH  16  17
ENDBRANCH  15  16
ENDBRANCH  14  15
ENDBRANCH   8  14
BRANCH  12  19
ATOM     19  C   UNL A   1      32.317  21.160  23.130  1.00  0.00     0.264 C 
ATOM     20  O   UNL A   1      31.359  21.327  22.375  1.00  0.00    -0.268 OA
BRANCH  19  21
ATOM     21  C   UNL A   1      32.503  19.891  23.814  1.00  0.00     0.095 A 
ATOM     22  S   UNL A   1      32.560  19.833  25.524  1.00  0.00    -0.138 S 
ATOM     23  C   UNL A   1      32.519  18.625  23.245  1.00  0.00    -0.027 A 
ATOM     24  C   UNL A   1      32.827  18.145  25.514  1.00  0.00     0.066 A 
ATOM     25  C   UNL A   1      32.758  17.622  24.243  1.00  0.00     0.016 A 
ATOM     26  C   UNL A   1      32.339  18.320  21.793  1.00  0.00     0.046 C 
ENDBRANCH  19  21
ENDBRANCH  12  19
ENDBRANCH   6   8
ENDBRANCH   5   6
ENDBRANCH   4   5
ENDBRANCH   3   4
ENDBRANCH   2   3
ENDBRANCH   1   2
BRANCH   1  27
ATOM     27  C   UNL A   1      31.228  28.494  24.429  1.00  0.00     0.188 C 
BRANCH  27  28
ATOM     28  O   UNL A   1      32.270  29.367  24.815  1.00  0.00    -0.376 OA
BRANCH  28  29
ATOM     29  C   UNL A   1      32.187  30.074  26.038  1.00  0.00     0.202 C 
BRANCH  29  30
ATOM     30  C   UNL A   1      33.250  29.831  27.112  1.00  0.00     0.261 C 
BRANCH  30  31
ATOM     31  O   UNL A   1      34.401  30.680  27.001  1.00  0.00    -0.460 OA
BRANCH  31  32
ATOM     32  C   UNL A   1      34.878  31.167  28.169  1.00  0.00     0.338 C 
ATOM     33  O   UNL A   1      34.314  31.951  28.929  1.00  0.00    -0.246 OA
BRANCH  32  34
ATOM     34  C   UNL A   1      36.137  30.487  28.523  1.00  0.00     0.060 A 
ATOM     35  C   UNL A   1      36.136  29.605  29.614  1.00  0.00     0.016 A 
ATOM     36  C   UNL A   1      37.318  30.753  27.829  1.00  0.00     0.016 A 
ATOM     37  C   UNL A   1      37.327  29.018  30.041  1.00  0.00     0.010 A 
ATOM     38  C   UNL A   1      38.514  30.182  28.272  1.00  0.00     0.010 A 
ATOM     39  C   UNL A   1      38.530  29.340  29.400  1.00  0.00    -0.014 A 
BRANCH  39  40
ATOM     40  C   UNL A   1      39.826  28.959  30.013  1.00  0.00     0.031 A 
ATOM     41  C   UNL A   1      40.301  29.727  31.217  1.00  0.00     0.074 A 
ATOM     42  C   UNL A   1      40.573  27.961  29.510  1.00  0.00     0.049 A 
ATOM     43  N   UNL A   1      41.434  29.639  31.864  1.00  0.00    -0.248 NA
ATOM     44  C   UNL A   1      39.371  30.729  31.762  1.00  0.00     0.031 C 
ATOM     45  C   UNL A   1      40.206  27.115  28.376  1.00  0.00     0.029 A 
ATOM     46  N   UNL A   1      41.812  27.503  29.886  1.00  0.00    -0.354 N 
ATOM     47  C   UNL A   1      41.358  30.579  32.885  1.00  0.00     0.074 A 
ATOM     48  C   UNL A   1      40.078  31.239  32.760  1.00  0.00     0.031 C 
ATOM     49  C   UNL A   1      41.211  26.253  28.134  1.00  0.00     0.029 A 
ATOM     50  C   UNL A   1      42.302  26.509  29.074  1.00  0.00     0.049 A 
ATOM     51  H   UNL A   1      42.303  27.854  30.664  1.00  0.00     0.167 HD
ATOM     52  C   UNL A   1      42.272  30.864  33.844  1.00  0.00     0.037 A 
ATOM     53  C   UNL A   1      43.503  25.897  29.073  1.00  0.00     0.037 A 
ATOM     54  C   UNL A   1      43.549  30.212  33.964  1.00  0.00     0.049 A 
ATOM     55  C   UNL A   1      44.536  26.282  30.104  1.00  0.00     0.074 A 
ATOM     56  C   UNL A   1      44.540  30.428  34.905  1.00  0.00     0.029 A 
ATOM     57  N   UNL A   1      44.016  29.223  33.111  1.00  0.00    -0.354 N 
ATOM     58  N   UNL A   1      44.448  27.162  31.073  1.00  0.00    -0.248 NA
ATOM     59  C   UNL A   1      45.832  25.591  30.040  1.00  0.00     0.031 C 
ATOM     60  C   UNL A   1      45.625  29.601  34.594  1.00  0.00     0.029 A 
ATOM     61  C   UNL A   1      45.290  28.834  33.490  1.00  0.00     0.049 A 
ATOM     62  H   UNL A   1      43.516  28.853  32.348  1.00  0.00     0.167 HD
ATOM     63  C   UNL A   1      45.664  27.109  31.749  1.00  0.00     0.074 A 
ATOM     64  C   UNL A   1      46.468  26.106  31.083  1.00  0.00     0.031 C 
ATOM     65  C   UNL A   1      46.077  27.825  32.825  1.00  0.00     0.037 A 
BRANCH  52  66
ATOM     66  C   UNL A   1      41.929  31.950  34.822  1.00  0.00     0.058 A 
ATOM     67  C   UNL A   1      41.272  31.673  36.032  1.00  0.00     0.135 A 
ATOM     68  C   UNL A   1      42.279  33.284  34.555  1.00  0.00     0.135 A 
ATOM     69  F   UNL A   1      40.897  30.419  36.326  1.00  0.00    -0.206 F 
ATOM     70  C   UNL A   1      40.951  32.686  36.931  1.00  0.00     0.059 A 
ATOM     71  C   UNL A   1      41.990  34.308  35.451  1.00  0.00     0.059 A 
ATOM     72  F   UNL A   1      42.904  33.602  33.411  1.00  0.00    -0.206 F 
ATOM     73  C   UNL A   1      41.312  34.000  36.631  1.00  0.00     0.060 A 
BRANCH  73  74
ATOM     74  S   UNL A   1      40.887  35.303  37.805  1.00  0.00     0.124 S 
ATOM     75  O   UNL A   1      41.680  34.918  38.968  1.00  0.00    -0.237 OA
ATOM     76  O   UNL A   1      41.328  36.508  37.109  1.00  0.00    -0.237 OA
ATOM     77  O   UNL A   1      39.442  35.166  37.957  1.00  0.00    -0.744 OA
ENDBRANCH  73  74
ENDBRANCH  52  66
BRANCH  53  78
ATOM     78  C   UNL A   1      43.813  24.864  28.049  1.00  0.00     0.058 A 
ATOM     79  C   UNL A   1      43.647  23.499  28.323  1.00  0.00     0.135 A 
ATOM     80  C   UNL A   1      44.294  25.222  26.779  1.00  0.00     0.135 A 
ATOM     81  F   UNL A   1      43.205  23.106  29.527  1.00  0.00    -0.206 F 
ATOM     82  C   UNL A   1      43.958  22.522  27.381  1.00  0.00     0.059 A 
ATOM     83  C   UNL A   1      44.589  24.265  25.812  1.00  0.00     0.059 A 
ATOM     84  F   UNL A   1      44.465  26.515  26.465  1.00  0.00    -0.206 F 
ATOM     85  C   UNL A   1      44.427  22.917  26.127  1.00  0.00     0.060 A 
BRANCH  85  86
ATOM     86  S   UNL A   1      44.783  21.644  24.896  1.00  0.00     0.124 S 
ATOM     87  O   UNL A   1      44.357  22.299  23.665  1.00  0.00    -0.237 OA
ATOM     88  O   UNL A   1      46.222  21.458  25.055  1.00  0.00    -0.237 OA
ATOM     89  O   UNL A   1      43.962  20.518  25.330  1.00  0.00    -0.744 OA
ENDBRANCH  85  86
ENDBRANCH  53  78
BRANCH  65  90
ATOM     90  C   UNL A   1      47.442  27.527  33.383  1.00  0.00     0.058 A 
ATOM     91  C   UNL A   1      47.644  26.534  34.354  1.00  0.00     0.135 A 
ATOM     92  C   UNL A   1      48.571  28.203  32.893  1.00  0.00     0.135 A 
ATOM     93  F   UNL A   1      46.599  25.862  34.860  1.00  0.00    -0.206 F 
ATOM     94  C   UNL A   1      48.917  26.235  34.833  1.00  0.00     0.059 A 
ATOM     95  C   UNL A   1      49.854  27.902  33.338  1.00  0.00     0.059 A 
ATOM     96  F   UNL A   1      48.435  29.154  31.954  1.00  0.00    -0.206 F 
ATOM     97  C   UNL A   1      50.017  26.923  34.317  1.00  0.00     0.060 A 
BRANCH  97  98
ATOM     98  S   UNL A   1      51.666  26.499  34.918  1.00  0.00     0.124 S 
ATOM     99  O   UNL A   1      51.366  25.449  35.885  1.00  0.00    -0.237 OA
ATOM    100  O   UNL A   1      52.342  26.065  33.700  1.00  0.00    -0.237 OA
ATOM    101  O   UNL A   1      52.155  27.753  35.484  1.00  0.00    -0.744 OA
ENDBRANCH  97  98
ENDBRANCH  65  90
ENDBRANCH  39  40
ENDBRANCH  32  34
ENDBRANCH  31  32
ENDBRANCH  30  31
ENDBRANCH  29  30
ENDBRANCH  28  29
ENDBRANCH  27  28
ENDBRANCH   1  27
TORSDOF 26
ENDMDL
