MODEL 1
REMARK VINA RESULT:     -11.3      0.000      0.000
REMARK SMILES C[C@H]1[C@@H](C(=O)OCCOCCOCCOC(=O)c2ccc(-c3c4nc(c(-c5c(F)cc(S(=O)(=O)[O-])cc5F)c5ccc([nH]5)c(-c5c(F)cc(S(=O)(=O)[O-])cc5F)c5nc(c(-c6c(F)cc(S(=O)(=O)[O-])cc6F)c6ccc3[nH]6)C=C5)C=C4)cc2)CCN1C(=O)N[C@@H]1CC[N@@H+]2CCCC[C@H]12
REMARK SMILES IDX 11 1 10 2 9 3 8 4 7 5 6 6 4 7 5 8 3 9 1 10 2 11 86 12 84 13
REMARK SMILES IDX 85 14 87 15 88 16 89 17 90 19 91 20 98 21 92 22 93 23 97 24
REMARK SMILES IDX 94 25 96 27 95 28 12 29 13 30 14 31 15 32 16 33 17 34 18 35
REMARK SMILES IDX 19 36 83 37 20 38 82 39 21 40 22 41 23 42 76 43 24 44 81 45
REMARK SMILES IDX 75 46 77 47 25 48 80 49 74 50 73 51 26 53 60 54 39 55 59 56
REMARK SMILES IDX 40 57 43 58 58 59 78 60 41 61 42 62 57 64 79 65 44 66 27 67
REMARK SMILES IDX 28 68 37 69 29 70 30 71 36 72 38 73 31 74 32 75 33 76 34 77
REMARK SMILES IDX 35 78 61 79 62 80 71 81 63 82 64 83 70 84 72 85 65 86 66 87
REMARK SMILES IDX 67 88 68 89 69 90 45 91 46 92 55 93 47 94 48 95 54 96 56 97
REMARK SMILES IDX 49 98 50 99 51 100 52 101 53 102
REMARK H PARENT 89 18 93 26 77 52 43 63
REMARK Flexibility Score: inf
ROOT
ATOM      1  C   UNL A   1      40.704  23.300  27.386  1.00  0.00     0.188 C 
ENDROOT
BRANCH   1   2
ATOM      2  C   UNL A   1      40.161  21.863  27.243  1.00  0.00     0.188 C 
BRANCH   2   3
ATOM      3  O   UNL A   1      39.616  21.589  25.957  1.00  0.00    -0.376 OA
BRANCH   3   4
ATOM      4  C   UNL A   1      38.333  22.161  25.726  1.00  0.00     0.202 C 
BRANCH   4   5
ATOM      5  C   UNL A   1      37.441  21.205  24.941  1.00  0.00     0.261 C 
BRANCH   5   6
ATOM      6  O   UNL A   1      36.324  21.870  24.322  1.00  0.00    -0.463 OA
BRANCH   6   7
ATOM      7  C   UNL A   1      35.074  21.481  24.689  1.00  0.00     0.311 C 
ATOM      8  O   UNL A   1      34.768  20.338  24.990  1.00  0.00    -0.252 OA
BRANCH   7   9
ATOM      9  C   UNL A   1      34.126  22.665  24.596  1.00  0.00     0.123 C 
ATOM     10  C   UNL A   1      34.400  22.916  27.182  1.00  0.00     0.032 C 
ATOM     11  C   UNL A   1      33.762  23.436  25.897  1.00  0.00     0.098 C 
ATOM     12  N   UNL A   1      32.301  23.361  25.982  1.00  0.00    -0.321 N 
ATOM     13  C   UNL A   1      32.788  22.203  24.013  1.00  0.00     0.039 C 
ATOM     14  C   UNL A   1      31.849  22.223  25.200  1.00  0.00     0.122 C 
BRANCH  12  15
ATOM     15  C   UNL A   1      31.378  24.064  26.690  1.00  0.00     0.318 C 
ATOM     16  O   UNL A   1      30.436  23.486  27.244  1.00  0.00    -0.249 OA
ATOM     17  N   UNL A   1      31.378  25.396  26.842  1.00  0.00    -0.329 N 
ATOM     18  H   UNL A   1      30.649  25.673  27.443  1.00  0.00     0.165 HD
BRANCH  17  19
ATOM     19  C   UNL A   1      32.132  26.556  26.387  1.00  0.00     0.147 C 
ATOM     20  C   UNL A   1      31.652  27.836  27.038  1.00  0.00     0.092 C 
ATOM     21  C   UNL A   1      32.008  26.922  24.874  1.00  0.00     0.207 C 
ATOM     22  C   UNL A   1      32.272  28.902  26.156  1.00  0.00     0.264 C 
ATOM     23  N   UNL A   1      32.102  28.410  24.783  1.00  0.00    -0.331 N 
ATOM     24  C   UNL A   1      30.776  26.352  24.155  1.00  0.00     0.067 C 
ATOM     25  C   UNL A   1      30.929  29.058  24.173  1.00  0.00     0.262 C 
ATOM     26  H   UNL A   1      32.884  28.641  24.170  1.00  0.00     0.348 HD
ATOM     27  C   UNL A   1      30.670  26.952  22.759  1.00  0.00     0.012 C 
ATOM     28  C   UNL A   1      30.536  28.470  22.818  1.00  0.00     0.062 C 
ENDBRANCH  17  19
ENDBRANCH  12  15
ENDBRANCH   7   9
ENDBRANCH   6   7
ENDBRANCH   5   6
ENDBRANCH   4   5
ENDBRANCH   3   4
ENDBRANCH   2   3
ENDBRANCH   1   2
BRANCH   1  29
ATOM     29  O   UNL A   1      42.096  23.521  27.185  1.00  0.00    -0.376 OA
BRANCH  29  30
ATOM     30  C   UNL A   1      42.556  23.584  25.839  1.00  0.00     0.202 C 
BRANCH  30  31
ATOM     31  C   UNL A   1      42.992  24.968  25.350  1.00  0.00     0.261 C 
BRANCH  31  32
ATOM     32  O   UNL A   1      41.867  25.848  25.175  1.00  0.00    -0.460 OA
BRANCH  32  33
ATOM     33  C   UNL A   1      42.117  27.153  25.430  1.00  0.00     0.338 C 
ATOM     34  O   UNL A   1      42.351  28.024  24.613  1.00  0.00    -0.246 OA
BRANCH  33  35
ATOM     35  C   UNL A   1      42.084  27.399  26.888  1.00  0.00     0.060 A 
ATOM     36  C   UNL A   1      41.069  26.867  27.683  1.00  0.00     0.016 A 
ATOM     37  C   UNL A   1      43.003  28.289  27.448  1.00  0.00     0.016 A 
ATOM     38  C   UNL A   1      40.947  27.263  29.014  1.00  0.00     0.010 A 
ATOM     39  C   UNL A   1      42.871  28.681  28.787  1.00  0.00     0.010 A 
ATOM     40  C   UNL A   1      41.802  28.217  29.571  1.00  0.00    -0.014 A 
BRANCH  40  41
ATOM     41  C   UNL A   1      41.457  28.873  30.869  1.00  0.00     0.031 A 
ATOM     42  C   UNL A   1      40.251  29.781  30.921  1.00  0.00     0.074 A 
ATOM     43  C   UNL A   1      42.093  28.602  32.027  1.00  0.00     0.049 A 
ATOM     44  N   UNL A   1      39.904  30.651  31.832  1.00  0.00    -0.248 NA
ATOM     45  C   UNL A   1      39.298  29.672  29.801  1.00  0.00     0.031 C 
ATOM     46  C   UNL A   1      43.144  27.603  32.214  1.00  0.00     0.029 A 
ATOM     47  N   UNL A   1      41.931  29.149  33.281  1.00  0.00    -0.354 N 
ATOM     48  C   UNL A   1      38.739  31.248  31.361  1.00  0.00     0.074 A 
ATOM     49  C   UNL A   1      38.415  30.612  30.103  1.00  0.00     0.031 C 
ATOM     50  C   UNL A   1      43.517  27.593  33.505  1.00  0.00     0.029 A 
ATOM     51  C   UNL A   1      42.823  28.668  34.212  1.00  0.00     0.049 A 
ATOM     52  H   UNL A   1      41.244  29.821  33.491  1.00  0.00     0.167 HD
ATOM     53  C   UNL A   1      38.020  32.251  31.917  1.00  0.00     0.037 A 
ATOM     54  C   UNL A   1      43.111  29.092  35.461  1.00  0.00     0.037 A 
ATOM     55  C   UNL A   1      38.316  32.845  33.191  1.00  0.00     0.049 A 
ATOM     56  C   UNL A   1      42.403  30.303  36.013  1.00  0.00     0.074 A 
ATOM     57  C   UNL A   1      37.698  33.919  33.807  1.00  0.00     0.029 A 
ATOM     58  N   UNL A   1      39.304  32.403  34.056  1.00  0.00    -0.354 N 
ATOM     59  N   UNL A   1      41.418  30.992  35.489  1.00  0.00    -0.248 NA
ATOM     60  C   UNL A   1      42.876  30.825  37.305  1.00  0.00     0.031 C 
ATOM     61  C   UNL A   1      38.336  34.148  35.031  1.00  0.00     0.029 A 
ATOM     62  C   UNL A   1      39.323  33.187  35.194  1.00  0.00     0.049 A 
ATOM     63  H   UNL A   1      39.904  31.641  33.885  1.00  0.00     0.167 HD
ATOM     64  C   UNL A   1      41.147  32.017  36.391  1.00  0.00     0.074 A 
ATOM     65  C   UNL A   1      42.064  31.856  37.499  1.00  0.00     0.031 C 
ATOM     66  C   UNL A   1      40.226  33.006  36.302  1.00  0.00     0.037 A 
BRANCH  53  67
ATOM     67  C   UNL A   1      36.898  32.831  31.107  1.00  0.00     0.058 A 
ATOM     68  C   UNL A   1      35.551  32.536  31.364  1.00  0.00     0.135 A 
ATOM     69  C   UNL A   1      37.189  33.725  30.063  1.00  0.00     0.135 A 
ATOM     70  F   UNL A   1      35.222  31.668  32.333  1.00  0.00    -0.206 F 
ATOM     71  C   UNL A   1      34.531  33.097  30.600  1.00  0.00     0.059 A 
ATOM     72  C   UNL A   1      36.186  34.313  29.302  1.00  0.00     0.059 A 
ATOM     73  F   UNL A   1      38.464  34.033  29.775  1.00  0.00    -0.206 F 
ATOM     74  C   UNL A   1      34.859  33.983  29.571  1.00  0.00     0.060 A 
BRANCH  74  75
ATOM     75  S   UNL A   1      33.528  34.704  28.587  1.00  0.00     0.124 S 
ATOM     76  O   UNL A   1      32.528  34.983  29.612  1.00  0.00    -0.237 OA
ATOM     77  O   UNL A   1      34.174  35.871  27.994  1.00  0.00    -0.237 OA
ATOM     78  O   UNL A   1      33.185  33.639  27.649  1.00  0.00    -0.744 OA
ENDBRANCH  74  75
ENDBRANCH  53  67
BRANCH  54  79
ATOM     79  C   UNL A   1      44.205  28.441  36.236  1.00  0.00     0.058 A 
ATOM     80  C   UNL A   1      45.533  28.882  36.141  1.00  0.00     0.135 A 
ATOM     81  C   UNL A   1      43.941  27.348  37.079  1.00  0.00     0.135 A 
ATOM     82  F   UNL A   1      45.844  29.904  35.330  1.00  0.00    -0.206 F 
ATOM     83  C   UNL A   1      46.559  28.265  36.854  1.00  0.00     0.059 A 
ATOM     84  C   UNL A   1      44.942  26.736  37.824  1.00  0.00     0.059 A 
ATOM     85  F   UNL A   1      42.689  26.881  37.203  1.00  0.00    -0.206 F 
ATOM     86  C   UNL A   1      46.251  27.194  37.696  1.00  0.00     0.060 A 
BRANCH  86  87
ATOM     87  S   UNL A   1      47.571  26.425  38.659  1.00  0.00     0.124 S 
ATOM     88  O   UNL A   1      47.030  25.090  38.884  1.00  0.00    -0.237 OA
ATOM     89  O   UNL A   1      48.710  26.510  37.748  1.00  0.00    -0.237 OA
ATOM     90  O   UNL A   1      47.661  27.279  39.841  1.00  0.00    -0.744 OA
ENDBRANCH  86  87
ENDBRANCH  54  79
BRANCH  66  91
ATOM     91  C   UNL A   1      40.116  33.980  37.441  1.00  0.00     0.058 A 
ATOM     92  C   UNL A   1      40.860  35.168  37.465  1.00  0.00     0.135 A 
ATOM     93  C   UNL A   1      39.172  33.773  38.460  1.00  0.00     0.135 A 
ATOM     94  F   UNL A   1      41.780  35.409  36.517  1.00  0.00    -0.206 F 
ATOM     95  C   UNL A   1      40.666  36.124  38.457  1.00  0.00     0.059 A 
ATOM     96  C   UNL A   1      38.948  34.724  39.451  1.00  0.00     0.059 A 
ATOM     97  F   UNL A   1      38.430  32.654  38.477  1.00  0.00    -0.206 F 
ATOM     98  C   UNL A   1      39.700  35.898  39.441  1.00  0.00     0.060 A 
BRANCH  98  99
ATOM     99  S   UNL A   1      39.398  37.184  40.672  1.00  0.00     0.124 S 
ATOM    100  O   UNL A   1      38.482  38.067  39.957  1.00  0.00    -0.237 OA
ATOM    101  O   UNL A   1      38.817  36.429  41.779  1.00  0.00    -0.237 OA
ATOM    102  O   UNL A   1      40.728  37.731  40.925  1.00  0.00    -0.744 OA
ENDBRANCH  98  99
ENDBRANCH  66  91
ENDBRANCH  40  41
ENDBRANCH  33  35
ENDBRANCH  32  33
ENDBRANCH  31  32
ENDBRANCH  30  31
ENDBRANCH  29  30
ENDBRANCH   1  29
TORSDOF 22
ENDMDL
MODEL 2
REMARK VINA RESULT:     -10.8      6.011     11.945
REMARK SMILES C[C@H]1[C@@H](C(=O)OCCOCCOCCOC(=O)c2ccc(-c3c4nc(c(-c5c(F)cc(S(=O)(=O)[O-])cc5F)c5ccc([nH]5)c(-c5c(F)cc(S(=O)(=O)[O-])cc5F)c5nc(c(-c6c(F)cc(S(=O)(=O)[O-])cc6F)c6ccc3[nH]6)C=C5)C=C4)cc2)CCN1C(=O)N[C@@H]1CC[N@@H+]2CCCC[C@H]12
REMARK SMILES IDX 11 1 10 2 9 3 8 4 7 5 6 6 4 7 5 8 3 9 1 10 2 11 86 12 84 13
REMARK SMILES IDX 85 14 87 15 88 16 89 17 90 19 91 20 98 21 92 22 93 23 97 24
REMARK SMILES IDX 94 25 96 27 95 28 12 29 13 30 14 31 15 32 16 33 17 34 18 35
REMARK SMILES IDX 19 36 83 37 20 38 82 39 21 40 22 41 23 42 76 43 24 44 81 45
REMARK SMILES IDX 75 46 77 47 25 48 80 49 74 50 73 51 26 53 60 54 39 55 59 56
REMARK SMILES IDX 40 57 43 58 58 59 78 60 41 61 42 62 57 64 79 65 44 66 27 67
REMARK SMILES IDX 28 68 37 69 29 70 30 71 36 72 38 73 31 74 32 75 33 76 34 77
REMARK SMILES IDX 35 78 61 79 62 80 71 81 63 82 64 83 70 84 72 85 65 86 66 87
REMARK SMILES IDX 67 88 68 89 69 90 45 91 46 92 55 93 47 94 48 95 54 96 56 97
REMARK SMILES IDX 49 98 50 99 51 100 52 101 53 102
REMARK H PARENT 89 18 93 26 77 52 43 63
REMARK Flexibility Score: inf
ROOT
ATOM      1  C   UNL A   1      35.471  32.668  29.152  1.00  0.00     0.188 C 
ENDROOT
BRANCH   1   2
ATOM      2  C   UNL A   1      35.567  31.673  27.976  1.00  0.00     0.188 C 
BRANCH   2   3
ATOM      3  O   UNL A   1      34.695  30.555  28.109  1.00  0.00    -0.376 OA
BRANCH   3   4
ATOM      4  C   UNL A   1      34.001  30.204  26.916  1.00  0.00     0.202 C 
BRANCH   4   5
ATOM      5  C   UNL A   1      32.495  30.380  27.088  1.00  0.00     0.261 C 
BRANCH   5   6
ATOM      6  O   UNL A   1      31.769  29.151  26.908  1.00  0.00    -0.463 OA
BRANCH   6   7
ATOM      7  C   UNL A   1      31.601  28.696  25.637  1.00  0.00     0.311 C 
ATOM      8  O   UNL A   1      31.003  29.300  24.761  1.00  0.00    -0.252 OA
BRANCH   7   9
ATOM      9  C   UNL A   1      32.212  27.309  25.509  1.00  0.00     0.123 C 
ATOM     10  C   UNL A   1      33.910  28.357  23.823  1.00  0.00     0.032 C 
ATOM     11  C   UNL A   1      33.429  27.112  24.563  1.00  0.00     0.098 C 
ATOM     12  N   UNL A   1      33.003  26.081  23.612  1.00  0.00    -0.321 N 
ATOM     13  C   UNL A   1      31.148  26.328  25.009  1.00  0.00     0.039 C 
ATOM     14  C   UNL A   1      31.550  26.057  23.576  1.00  0.00     0.122 C 
BRANCH  12  15
ATOM     15  C   UNL A   1      33.682  25.275  22.755  1.00  0.00     0.318 C 
ATOM     16  O   UNL A   1      33.586  25.432  21.532  1.00  0.00    -0.249 OA
ATOM     17  N   UNL A   1      34.477  24.259  23.123  1.00  0.00    -0.329 N 
ATOM     18  H   UNL A   1      34.907  23.857  22.334  1.00  0.00     0.165 HD
BRANCH  17  19
ATOM     19  C   UNL A   1      34.895  23.573  24.337  1.00  0.00     0.147 C 
ATOM     20  C   UNL A   1      36.199  22.827  24.147  1.00  0.00     0.092 C 
ATOM     21  C   UNL A   1      33.965  22.429  24.851  1.00  0.00     0.207 C 
ATOM     22  C   UNL A   1      36.225  21.906  25.350  1.00  0.00     0.264 C 
ATOM     23  N   UNL A   1      34.851  21.405  25.480  1.00  0.00    -0.331 N 
ATOM     24  C   UNL A   1      33.007  21.836  23.806  1.00  0.00     0.067 C 
ATOM     25  C   UNL A   1      34.760  20.066  24.875  1.00  0.00     0.262 C 
ATOM     26  H   UNL A   1      34.555  21.281  26.448  1.00  0.00     0.348 HD
ATOM     27  C   UNL A   1      32.317  20.606  24.379  1.00  0.00     0.012 C 
ATOM     28  C   UNL A   1      33.330  19.534  24.769  1.00  0.00     0.062 C 
ENDBRANCH  17  19
ENDBRANCH  12  15
ENDBRANCH   7   9
ENDBRANCH   6   7
ENDBRANCH   5   6
ENDBRANCH   4   5
ENDBRANCH   3   4
ENDBRANCH   2   3
ENDBRANCH   1   2
BRANCH   1  29
ATOM     29  O   UNL A   1      34.720  32.287  30.300  1.00  0.00    -0.376 OA
BRANCH  29  30
ATOM     30  C   UNL A   1      34.825  33.120  31.451  1.00  0.00     0.202 C 
BRANCH  30  31
ATOM     31  C   UNL A   1      35.618  32.536  32.622  1.00  0.00     0.261 C 
BRANCH  31  32
ATOM     32  O   UNL A   1      36.470  31.456  32.202  1.00  0.00    -0.460 OA
BRANCH  32  33
ATOM     33  C   UNL A   1      37.691  31.429  32.785  1.00  0.00     0.338 C 
ATOM     34  O   UNL A   1      37.998  31.914  33.858  1.00  0.00    -0.246 OA
BRANCH  33  35
ATOM     35  C   UNL A   1      38.652  30.719  31.913  1.00  0.00     0.060 A 
ATOM     36  C   UNL A   1      39.657  29.919  32.456  1.00  0.00     0.016 A 
ATOM     37  C   UNL A   1      38.634  30.966  30.540  1.00  0.00     0.016 A 
ATOM     38  C   UNL A   1      40.664  29.413  31.634  1.00  0.00     0.010 A 
ATOM     39  C   UNL A   1      39.652  30.454  29.722  1.00  0.00     0.010 A 
ATOM     40  C   UNL A   1      40.715  29.719  30.273  1.00  0.00    -0.014 A 
BRANCH  40  41
ATOM     41  C   UNL A   1      41.959  29.460  29.487  1.00  0.00     0.031 A 
ATOM     42  C   UNL A   1      42.141  28.102  28.849  1.00  0.00     0.074 A 
ATOM     43  C   UNL A   1      42.873  30.413  29.213  1.00  0.00     0.049 A 
ATOM     44  N   UNL A   1      43.219  27.555  28.353  1.00  0.00    -0.248 NA
ATOM     45  C   UNL A   1      40.936  27.262  28.739  1.00  0.00     0.031 C 
ATOM     46  C   UNL A   1      42.768  31.828  29.567  1.00  0.00     0.029 A 
ATOM     47  N   UNL A   1      44.080  30.327  28.553  1.00  0.00    -0.354 N 
ATOM     48  C   UNL A   1      42.841  26.280  27.943  1.00  0.00     0.074 A 
ATOM     49  C   UNL A   1      41.426  26.150  28.212  1.00  0.00     0.031 C 
ATOM     50  C   UNL A   1      43.849  32.478  29.105  1.00  0.00     0.029 A 
ATOM     51  C   UNL A   1      44.782  31.510  28.532  1.00  0.00     0.049 A 
ATOM     52  H   UNL A   1      44.408  29.499  28.137  1.00  0.00     0.167 HD
ATOM     53  C   UNL A   1      43.612  25.301  27.415  1.00  0.00     0.037 A 
ATOM     54  C   UNL A   1      46.056  31.774  28.173  1.00  0.00     0.037 A 
ATOM     55  C   UNL A   1      45.007  25.451  27.104  1.00  0.00     0.049 A 
ATOM     56  C   UNL A   1      46.948  30.645  27.723  1.00  0.00     0.074 A 
ATOM     57  C   UNL A   1      45.895  24.497  26.639  1.00  0.00     0.029 A 
ATOM     58  N   UNL A   1      45.713  26.639  27.206  1.00  0.00    -0.354 N 
ATOM     59  N   UNL A   1      46.642  29.388  27.510  1.00  0.00    -0.248 NA
ATOM     60  C   UNL A   1      48.370  30.957  27.511  1.00  0.00     0.031 C 
ATOM     61  C   UNL A   1      47.148  25.101  26.493  1.00  0.00     0.029 A 
ATOM     62  C   UNL A   1      47.028  26.442  26.826  1.00  0.00     0.049 A 
ATOM     63  H   UNL A   1      45.334  27.497  27.503  1.00  0.00     0.167 HD
ATOM     64  C   UNL A   1      47.826  28.766  27.127  1.00  0.00     0.074 A 
ATOM     65  C   UNL A   1      48.856  29.783  27.129  1.00  0.00     0.031 C 
ATOM     66  C   UNL A   1      48.041  27.466  26.810  1.00  0.00     0.037 A 
BRANCH  53  67
ATOM     67  C   UNL A   1      42.984  23.951  27.226  1.00  0.00     0.058 A 
ATOM     68  C   UNL A   1      42.813  23.044  28.282  1.00  0.00     0.135 A 
ATOM     69  C   UNL A   1      42.522  23.575  25.954  1.00  0.00     0.135 A 
ATOM     70  F   UNL A   1      43.260  23.346  29.511  1.00  0.00    -0.206 F 
ATOM     71  C   UNL A   1      42.219  21.802  28.078  1.00  0.00     0.059 A 
ATOM     72  C   UNL A   1      41.907  22.349  25.732  1.00  0.00     0.059 A 
ATOM     73  F   UNL A   1      42.670  24.407  24.910  1.00  0.00    -0.206 F 
ATOM     74  C   UNL A   1      41.771  21.463  26.799  1.00  0.00     0.060 A 
BRANCH  74  75
ATOM     75  S   UNL A   1      41.003  19.849  26.545  1.00  0.00     0.124 S 
ATOM     76  O   UNL A   1      39.728  20.226  25.943  1.00  0.00    -0.237 OA
ATOM     77  O   UNL A   1      41.953  19.186  25.658  1.00  0.00    -0.237 OA
ATOM     78  O   UNL A   1      40.920  19.297  27.894  1.00  0.00    -0.744 OA
ENDBRANCH  74  75
ENDBRANCH  53  67
BRANCH  54  79
ATOM     79  C   UNL A   1      46.608  33.149  28.337  1.00  0.00     0.058 A 
ATOM     80  C   UNL A   1      47.180  33.570  29.547  1.00  0.00     0.135 A 
ATOM     81  C   UNL A   1      46.558  34.078  27.284  1.00  0.00     0.135 A 
ATOM     82  F   UNL A   1      47.228  32.731  30.593  1.00  0.00    -0.206 F 
ATOM     83  C   UNL A   1      47.682  34.859  29.707  1.00  0.00     0.059 A 
ATOM     84  C   UNL A   1      47.081  35.359  27.409  1.00  0.00     0.059 A 
ATOM     85  F   UNL A   1      46.017  33.730  26.105  1.00  0.00    -0.206 F 
ATOM     86  C   UNL A   1      47.632  35.745  28.628  1.00  0.00     0.060 A 
BRANCH  86  87
ATOM     87  S   UNL A   1      48.328  37.401  28.817  1.00  0.00     0.124 S 
ATOM     88  O   UNL A   1      48.960  37.304  30.128  1.00  0.00    -0.237 OA
ATOM     89  O   UNL A   1      49.234  37.490  27.676  1.00  0.00    -0.237 OA
ATOM     90  O   UNL A   1      47.153  38.265  28.743  1.00  0.00    -0.744 OA
ENDBRANCH  86  87
ENDBRANCH  54  79
BRANCH  66  91
ATOM     91  C   UNL A   1      49.425  27.054  26.396  1.00  0.00     0.058 A 
ATOM     92  C   UNL A   1      50.375  26.628  27.334  1.00  0.00     0.135 A 
ATOM     93  C   UNL A   1      49.762  26.977  25.035  1.00  0.00     0.135 A 
ATOM     94  F   UNL A   1      50.103  26.689  28.648  1.00  0.00    -0.206 F 
ATOM     95  C   UNL A   1      51.613  26.132  26.937  1.00  0.00     0.059 A 
ATOM     96  C   UNL A   1      50.986  26.466  24.614  1.00  0.00     0.059 A 
ATOM     97  F   UNL A   1      48.883  27.366  24.097  1.00  0.00    -0.206 F 
ATOM     98  C   UNL A   1      51.906  26.045  25.574  1.00  0.00     0.060 A 
BRANCH  98  99
ATOM     99  S   UNL A   1      53.481  25.318  25.069  1.00  0.00     0.124 S 
ATOM    100  O   UNL A   1      53.585  25.773  23.686  1.00  0.00    -0.237 OA
ATOM    101  O   UNL A   1      54.420  25.922  26.009  1.00  0.00    -0.237 OA
ATOM    102  O   UNL A   1      53.264  23.885  25.244  1.00  0.00    -0.744 OA
ENDBRANCH  98  99
ENDBRANCH  66  91
ENDBRANCH  40  41
ENDBRANCH  33  35
ENDBRANCH  32  33
ENDBRANCH  31  32
ENDBRANCH  30  31
ENDBRANCH  29  30
ENDBRANCH   1  29
TORSDOF 22
ENDMDL
MODEL 3
REMARK VINA RESULT:     -10.6      6.465     11.728
REMARK SMILES C[C@H]1[C@@H](C(=O)OCCOCCOCCOC(=O)c2ccc(-c3c4nc(c(-c5c(F)cc(S(=O)(=O)[O-])cc5F)c5ccc([nH]5)c(-c5c(F)cc(S(=O)(=O)[O-])cc5F)c5nc(c(-c6c(F)cc(S(=O)(=O)[O-])cc6F)c6ccc3[nH]6)C=C5)C=C4)cc2)CCN1C(=O)N[C@@H]1CC[N@@H+]2CCCC[C@H]12
REMARK SMILES IDX 11 1 10 2 9 3 8 4 7 5 6 6 4 7 5 8 3 9 1 10 2 11 86 12 84 13
REMARK SMILES IDX 85 14 87 15 88 16 89 17 90 19 91 20 98 21 92 22 93 23 97 24
REMARK SMILES IDX 94 25 96 27 95 28 12 29 13 30 14 31 15 32 16 33 17 34 18 35
REMARK SMILES IDX 19 36 83 37 20 38 82 39 21 40 22 41 23 42 76 43 24 44 81 45
REMARK SMILES IDX 75 46 77 47 25 48 80 49 74 50 73 51 26 53 60 54 39 55 59 56
REMARK SMILES IDX 40 57 43 58 58 59 78 60 41 61 42 62 57 64 79 65 44 66 27 67
REMARK SMILES IDX 28 68 37 69 29 70 30 71 36 72 38 73 31 74 32 75 33 76 34 77
REMARK SMILES IDX 35 78 61 79 62 80 71 81 63 82 64 83 70 84 72 85 65 86 66 87
REMARK SMILES IDX 67 88 68 89 69 90 45 91 46 92 55 93 47 94 48 95 54 96 56 97
REMARK SMILES IDX 49 98 50 99 51 100 52 101 53 102
REMARK H PARENT 89 18 93 26 77 52 43 63
REMARK Flexibility Score: inf
ROOT
ATOM      1  C   UNL A   1      32.918  30.331  26.224  1.00  0.00     0.188 C 
ENDROOT
BRANCH   1   2
ATOM      2  C   UNL A   1      31.744  30.251  25.225  1.00  0.00     0.188 C 
BRANCH   2   3
ATOM      3  O   UNL A   1      31.196  28.943  25.100  1.00  0.00    -0.376 OA
BRANCH   3   4
ATOM      4  C   UNL A   1      30.491  28.714  23.884  1.00  0.00     0.202 C 
BRANCH   4   5
ATOM      5  C   UNL A   1      31.414  28.128  22.819  1.00  0.00     0.261 C 
BRANCH   5   6
ATOM      6  O   UNL A   1      32.027  26.894  23.233  1.00  0.00    -0.463 OA
BRANCH   6   7
ATOM      7  C   UNL A   1      33.155  26.500  22.585  1.00  0.00     0.311 C 
ATOM      8  O   UNL A   1      33.397  26.740  21.412  1.00  0.00    -0.252 OA
BRANCH   7   9
ATOM      9  C   UNL A   1      34.016  25.669  23.523  1.00  0.00     0.123 C 
ATOM     10  C   UNL A   1      32.771  23.570  22.591  1.00  0.00     0.032 C 
ATOM     11  C   UNL A   1      33.831  24.125  23.538  1.00  0.00     0.098 C 
ATOM     12  N   UNL A   1      33.500  23.800  24.928  1.00  0.00    -0.321 N 
ATOM     13  C   UNL A   1      33.776  26.118  24.967  1.00  0.00     0.039 C 
ATOM     14  C   UNL A   1      32.966  24.990  25.568  1.00  0.00     0.122 C 
BRANCH  12  15
ATOM     15  C   UNL A   1      33.517  22.640  25.636  1.00  0.00     0.318 C 
ATOM     16  O   UNL A   1      32.659  22.416  26.497  1.00  0.00    -0.249 OA
ATOM     17  N   UNL A   1      34.431  21.669  25.497  1.00  0.00    -0.329 N 
ATOM     18  H   UNL A   1      34.206  20.901  26.072  1.00  0.00     0.165 HD
BRANCH  17  19
ATOM     19  C   UNL A   1      35.654  21.407  24.753  1.00  0.00     0.147 C 
ATOM     20  C   UNL A   1      36.322  20.120  25.192  1.00  0.00     0.092 C 
ATOM     21  C   UNL A   1      36.819  22.430  24.939  1.00  0.00     0.207 C 
ATOM     22  C   UNL A   1      37.711  20.256  24.601  1.00  0.00     0.264 C 
ATOM     23  N   UNL A   1      38.092  21.656  24.835  1.00  0.00    -0.331 N 
ATOM     24  C   UNL A   1      36.744  23.295  26.206  1.00  0.00     0.067 C 
ATOM     25  C   UNL A   1      38.953  21.735  26.027  1.00  0.00     0.262 C 
ATOM     26  H   UNL A   1      38.646  22.056  24.078  1.00  0.00     0.348 HD
ATOM     27  C   UNL A   1      38.033  24.089  26.366  1.00  0.00     0.012 C 
ATOM     28  C   UNL A   1      39.241  23.165  26.484  1.00  0.00     0.062 C 
ENDBRANCH  17  19
ENDBRANCH  12  15
ENDBRANCH   7   9
ENDBRANCH   6   7
ENDBRANCH   5   6
ENDBRANCH   4   5
ENDBRANCH   3   4
ENDBRANCH   2   3
ENDBRANCH   1   2
BRANCH   1  29
ATOM     29  O   UNL A   1      32.665  30.854  27.524  1.00  0.00    -0.376 OA
BRANCH  29  30
ATOM     30  C   UNL A   1      33.428  31.987  27.928  1.00  0.00     0.202 C 
BRANCH  30  31
ATOM     31  C   UNL A   1      34.947  31.802  27.918  1.00  0.00     0.261 C 
BRANCH  31  32
ATOM     32  O   UNL A   1      35.392  30.995  29.023  1.00  0.00    -0.460 OA
BRANCH  32  33
ATOM     33  C   UNL A   1      36.509  31.440  29.643  1.00  0.00     0.338 C 
ATOM     34  O   UNL A   1      36.619  32.451  30.312  1.00  0.00    -0.246 OA
BRANCH  33  35
ATOM     35  C   UNL A   1      37.633  30.514  29.386  1.00  0.00     0.060 A 
ATOM     36  C   UNL A   1      38.415  30.027  30.432  1.00  0.00     0.016 A 
ATOM     37  C   UNL A   1      37.997  30.238  28.067  1.00  0.00     0.016 A 
ATOM     38  C   UNL A   1      39.581  29.311  30.156  1.00  0.00     0.010 A 
ATOM     39  C   UNL A   1      39.170  29.518  27.800  1.00  0.00     0.010 A 
ATOM     40  C   UNL A   1      40.010  29.097  28.845  1.00  0.00    -0.014 A 
BRANCH  40  41
ATOM     41  C   UNL A   1      41.405  28.637  28.573  1.00  0.00     0.031 A 
ATOM     42  C   UNL A   1      42.533  29.632  28.713  1.00  0.00     0.074 A 
ATOM     43  C   UNL A   1      41.725  27.350  28.329  1.00  0.00     0.049 A 
ATOM     44  N   UNL A   1      43.768  29.554  28.289  1.00  0.00    -0.248 NA
ATOM     45  C   UNL A   1      42.229  30.871  29.449  1.00  0.00     0.031 C 
ATOM     46  C   UNL A   1      40.802  26.217  28.358  1.00  0.00     0.029 A 
ATOM     47  N   UNL A   1      42.939  26.778  28.015  1.00  0.00    -0.354 N 
ATOM     48  C   UNL A   1      44.364  30.761  28.639  1.00  0.00     0.074 A 
ATOM     49  C   UNL A   1      43.369  31.538  29.344  1.00  0.00     0.031 C 
ATOM     50  C   UNL A   1      41.483  25.088  28.096  1.00  0.00     0.029 A 
ATOM     51  C   UNL A   1      42.863  25.428  27.758  1.00  0.00     0.049 A 
ATOM     52  H   UNL A   1      43.780  27.286  27.978  1.00  0.00     0.167 HD
ATOM     53  C   UNL A   1      45.620  31.190  28.372  1.00  0.00     0.037 A 
ATOM     54  C   UNL A   1      43.769  24.577  27.234  1.00  0.00     0.037 A 
ATOM     55  C   UNL A   1      46.621  30.396  27.715  1.00  0.00     0.049 A 
ATOM     56  C   UNL A   1      45.117  25.101  26.806  1.00  0.00     0.074 A 
ATOM     57  C   UNL A   1      47.898  30.765  27.328  1.00  0.00     0.029 A 
ATOM     58  N   UNL A   1      46.466  29.065  27.365  1.00  0.00    -0.354 N 
ATOM     59  N   UNL A   1      45.624  26.300  26.966  1.00  0.00    -0.248 NA
ATOM     60  C   UNL A   1      45.999  24.172  26.083  1.00  0.00     0.031 C 
ATOM     61  C   UNL A   1      48.502  29.664  26.713  1.00  0.00     0.029 A 
ATOM     62  C   UNL A   1      47.616  28.598  26.756  1.00  0.00     0.049 A 
ATOM     63  H   UNL A   1      45.655  28.529  27.528  1.00  0.00     0.167 HD
ATOM     64  C   UNL A   1      46.884  26.264  26.377  1.00  0.00     0.074 A 
ATOM     65  C   UNL A   1      47.070  24.924  25.864  1.00  0.00     0.031 C 
ATOM     66  C   UNL A   1      47.800  27.256  26.267  1.00  0.00     0.037 A 
BRANCH  53  67
ATOM     67  C   UNL A   1      45.952  32.614  28.710  1.00  0.00     0.058 A 
ATOM     68  C   UNL A   1      46.565  32.980  29.916  1.00  0.00     0.135 A 
ATOM     69  C   UNL A   1      45.666  33.630  27.781  1.00  0.00     0.135 A 
ATOM     70  F   UNL A   1      46.835  32.051  30.847  1.00  0.00    -0.206 F 
ATOM     71  C   UNL A   1      46.869  34.309  30.198  1.00  0.00     0.059 A 
ATOM     72  C   UNL A   1      45.980  34.959  28.032  1.00  0.00     0.059 A 
ATOM     73  F   UNL A   1      45.073  33.329  26.615  1.00  0.00    -0.206 F 
ATOM     74  C   UNL A   1      46.571  35.291  29.250  1.00  0.00     0.060 A 
BRANCH  74  75
ATOM     75  S   UNL A   1      46.969  37.012  29.625  1.00  0.00     0.124 S 
ATOM     76  O   UNL A   1      47.506  36.897  30.977  1.00  0.00    -0.237 OA
ATOM     77  O   UNL A   1      47.937  37.344  28.584  1.00  0.00    -0.237 OA
ATOM     78  O   UNL A   1      45.681  37.690  29.517  1.00  0.00    -0.744 OA
ENDBRANCH  74  75
ENDBRANCH  53  67
BRANCH  54  79
ATOM     79  C   UNL A   1      43.395  23.159  26.968  1.00  0.00     0.058 A 
ATOM     80  C   UNL A   1      43.109  22.707  25.671  1.00  0.00     0.135 A 
ATOM     81  C   UNL A   1      43.299  22.229  28.017  1.00  0.00     0.135 A 
ATOM     82  F   UNL A   1      43.159  23.561  24.637  1.00  0.00    -0.206 F 
ATOM     83  C   UNL A   1      42.744  21.386  25.423  1.00  0.00     0.059 A 
ATOM     84  C   UNL A   1      42.968  20.898  27.790  1.00  0.00     0.059 A 
ATOM     85  F   UNL A   1      43.556  22.608  29.278  1.00  0.00    -0.206 F 
ATOM     86  C   UNL A   1      42.681  20.488  26.491  1.00  0.00     0.060 A 
BRANCH  86  87
ATOM     87  S   UNL A   1      42.257  18.763  26.165  1.00  0.00     0.124 S 
ATOM     88  O   UNL A   1      42.496  18.151  27.467  1.00  0.00    -0.237 OA
ATOM     89  O   UNL A   1      40.860  18.859  25.751  1.00  0.00    -0.237 OA
ATOM     90  O   UNL A   1      43.191  18.386  25.108  1.00  0.00    -0.744 OA
ENDBRANCH  86  87
ENDBRANCH  54  79
BRANCH  66  91
ATOM     91  C   UNL A   1      49.111  26.942  25.605  1.00  0.00     0.058 A 
ATOM     92  C   UNL A   1      49.321  27.185  24.240  1.00  0.00     0.135 A 
ATOM     93  C   UNL A   1      50.203  26.501  26.370  1.00  0.00     0.135 A 
ATOM     94  F   UNL A   1      48.307  27.601  23.464  1.00  0.00    -0.206 F 
ATOM     95  C   UNL A   1      50.572  27.009  23.657  1.00  0.00     0.059 A 
ATOM     96  C   UNL A   1      51.467  26.337  25.812  1.00  0.00     0.059 A 
ATOM     97  F   UNL A   1      50.055  26.262  27.683  1.00  0.00    -0.206 F 
ATOM     98  C   UNL A   1      51.642  26.594  24.453  1.00  0.00     0.060 A 
BRANCH  98  99
ATOM     99  S   UNL A   1      53.279  26.454  23.702  1.00  0.00     0.124 S 
ATOM    100  O   UNL A   1      53.871  27.743  24.043  1.00  0.00    -0.237 OA
ATOM    101  O   UNL A   1      53.841  25.296  24.391  1.00  0.00    -0.237 OA
ATOM    102  O   UNL A   1      52.986  26.251  22.286  1.00  0.00    -0.744 OA
ENDBRANCH  98  99
ENDBRANCH  66  91
ENDBRANCH  40  41
ENDBRANCH  33  35
ENDBRANCH  32  33
ENDBRANCH  31  32
ENDBRANCH  30  31
ENDBRANCH  29  30
ENDBRANCH   1  29
TORSDOF 22
ENDMDL
