MODEL 1
REMARK VINA RESULT:     -11.4      0.000      0.000
REMARK SMILES COc1ccc(-c2cnc(N)c(C(=O)OCCOCCOCCOC(=O)c3ccc(-c4c5nc(c(-c6c(F)cc(S(=O)(=O)[O-])cc6F)c6ccc([nH]6)c(-c6c(F)cc(S(=O)(=O)[O-])cc6F)c6nc(c(-c7c(F)cc(S(=O)(=O)[O-])cc7F)c7ccc4[nH]7)C=C6)C=C5)cc3)c2)c(C)c1
REMARK SMILES IDX 20 1 19 2 18 3 17 4 16 5 15 6 13 7 14 8 12 9 7 10 8 11 93 12
REMARK SMILES IDX 9 13 10 14 6 15 3 16 4 17 96 18 5 19 94 20 95 21 2 22 1 23
REMARK SMILES IDX 11 24 21 27 22 28 23 29 24 30 25 31 26 32 27 33 28 34 92 35
REMARK SMILES IDX 29 36 91 37 30 38 31 39 32 40 85 41 33 42 90 43 84 44 86 45
REMARK SMILES IDX 34 46 89 47 83 48 82 49 35 51 69 52 48 53 68 54 49 55 52 56
REMARK SMILES IDX 67 57 87 58 50 59 51 60 66 62 88 63 53 64 36 65 37 66 46 67
REMARK SMILES IDX 38 68 39 69 45 70 47 71 40 72 41 73 42 74 43 75 44 76 70 77
REMARK SMILES IDX 71 78 80 79 72 80 73 81 79 82 81 83 74 84 75 85 76 86 77 87
REMARK SMILES IDX 78 88 54 89 55 90 64 91 56 92 57 93 63 94 65 95 58 96 59 97
REMARK SMILES IDX 60 98 61 99 62 100
REMARK H PARENT 11 25 11 26 86 50 52 61
REMARK Flexibility Score: inf
ROOT
ATOM      1  C   UNL A   1      35.241  22.906  25.344  1.00  0.00     0.188 C 
ENDROOT
BRANCH   1   2
ATOM      2  C   UNL A   1      33.946  23.049  24.576  1.00  0.00     0.188 C 
BRANCH   2   3
ATOM      3  O   UNL A   1      33.943  22.200  23.448  1.00  0.00    -0.376 OA
BRANCH   3   4
ATOM      4  C   UNL A   1      33.075  22.784  22.465  1.00  0.00     0.202 C 
BRANCH   4   5
ATOM      5  C   UNL A   1      33.111  24.392  22.513  1.00  0.00     0.261 C 
BRANCH   5   6
ATOM      6  O   UNL A   1      31.827  25.570  22.367  1.00  0.00    -0.460 OA
BRANCH   6   7
ATOM      7  C   UNL A   1      31.141  26.799  22.843  1.00  0.00     0.342 C 
ATOM      8  O   UNL A   1      30.460  27.634  22.245  1.00  0.00    -0.246 OA
BRANCH   7   9
ATOM      9  C   UNL A   1      31.043  27.208  24.245  1.00  0.00     0.102 A 
ATOM     10  C   UNL A   1      32.069  28.478  26.093  1.00  0.00     0.001 A 
ATOM     11  C   UNL A   1      31.369  27.570  26.886  1.00  0.00     0.122 A 
ATOM     12  C   UNL A   1      31.889  28.269  24.728  1.00  0.00     0.030 A 
ATOM     13  N   UNL A   1      30.586  26.524  26.449  1.00  0.00    -0.238 NA
ATOM     14  C   UNL A   1      30.458  26.333  25.123  1.00  0.00     0.138 A 
BRANCH  10  15
ATOM     15  C   UNL A   1      32.979  29.505  26.685  1.00  0.00    -0.014 A 
ATOM     16  C   UNL A   1      34.745  31.307  28.052  1.00  0.00     0.119 A 
ATOM     17  C   UNL A   1      35.134  29.997  27.812  1.00  0.00     0.047 A 
ATOM     18  C   UNL A   1      33.496  31.725  27.603  1.00  0.00     0.050 A 
ATOM     19  C   UNL A   1      34.264  29.115  27.137  1.00  0.00     0.013 A 
ATOM     20  C   UNL A   1      32.621  30.856  26.899  1.00  0.00    -0.040 A 
ATOM     21  C   UNL A   1      31.313  31.458  26.466  1.00  0.00     0.045 C 
BRANCH  16  22
ATOM     22  O   UNL A   1      35.463  32.205  28.795  1.00  0.00    -0.497 OA
ATOM     23  C   UNL A   1      34.736  32.790  29.873  1.00  0.00     0.278 C 
ENDBRANCH  16  22
ENDBRANCH  10  15
BRANCH  14  24
ATOM     24  N   UNL A   1      29.859  25.170  24.689  1.00  0.00    -0.383 N 
ATOM     25  H   UNL A   1      30.248  24.298  24.928  1.00  0.00     0.158 HD
ATOM     26  H   UNL A   1      29.043  25.212  24.140  1.00  0.00     0.158 HD
ENDBRANCH  14  24
ENDBRANCH   7   9
ENDBRANCH   6   7
ENDBRANCH   5   6
ENDBRANCH   4   5
ENDBRANCH   3   4
ENDBRANCH   2   3
ENDBRANCH   1   2
BRANCH   1  27
ATOM     27  O   UNL A   1      35.803  21.607  25.296  1.00  0.00    -0.376 OA
BRANCH  27  28
ATOM     28  C   UNL A   1      37.082  21.546  24.658  1.00  0.00     0.202 C 
BRANCH  28  29
ATOM     29  C   UNL A   1      38.181  20.798  25.454  1.00  0.00     0.261 C 
BRANCH  29  30
ATOM     30  O   UNL A   1      39.429  21.536  25.564  1.00  0.00    -0.460 OA
BRANCH  30  31
ATOM     31  C   UNL A   1      39.740  22.165  26.742  1.00  0.00     0.338 C 
ATOM     32  O   UNL A   1      40.397  21.686  27.654  1.00  0.00    -0.246 OA
BRANCH  31  33
ATOM     33  C   UNL A   1      39.625  23.633  26.485  1.00  0.00     0.060 A 
ATOM     34  C   UNL A   1      40.657  24.521  26.264  1.00  0.00     0.016 A 
ATOM     35  C   UNL A   1      38.466  24.207  26.880  1.00  0.00     0.016 A 
ATOM     36  C   UNL A   1      40.664  25.844  26.796  1.00  0.00     0.010 A 
ATOM     37  C   UNL A   1      38.572  25.451  27.534  1.00  0.00     0.010 A 
ATOM     38  C   UNL A   1      39.748  26.274  27.748  1.00  0.00    -0.014 A 
BRANCH  38  39
ATOM     39  C   UNL A   1      40.251  27.459  28.924  1.00  0.00     0.031 A 
ATOM     40  C   UNL A   1      39.660  29.017  29.535  1.00  0.00     0.074 A 
ATOM     41  C   UNL A   1      41.340  27.042  29.643  1.00  0.00     0.049 A 
ATOM     42  N   UNL A   1      40.458  30.003  29.895  1.00  0.00    -0.248 NA
ATOM     43  C   UNL A   1      38.245  29.684  29.560  1.00  0.00     0.031 C 
ATOM     44  C   UNL A   1      41.963  27.635  30.827  1.00  0.00     0.029 A 
ATOM     45  N   UNL A   1      42.167  25.936  29.401  1.00  0.00    -0.354 N 
ATOM     46  C   UNL A   1      39.650  31.131  30.167  1.00  0.00     0.074 A 
ATOM     47  C   UNL A   1      38.459  30.978  29.487  1.00  0.00     0.031 C 
ATOM     48  C   UNL A   1      43.188  27.100  30.991  1.00  0.00     0.029 A 
ATOM     49  C   UNL A   1      43.451  26.229  29.858  1.00  0.00     0.049 A 
ATOM     50  H   UNL A   1      41.887  25.092  28.978  1.00  0.00     0.167 HD
ATOM     51  C   UNL A   1      39.853  32.043  31.147  1.00  0.00     0.037 A 
ATOM     52  C   UNL A   1      44.436  26.400  28.923  1.00  0.00     0.037 A 
ATOM     53  C   UNL A   1      41.250  31.939  31.474  1.00  0.00     0.049 A 
ATOM     54  C   UNL A   1      44.816  27.883  28.799  1.00  0.00     0.074 A 
ATOM     55  C   UNL A   1      41.925  31.231  32.444  1.00  0.00     0.029 A 
ATOM     56  N   UNL A   1      42.133  32.108  30.410  1.00  0.00    -0.354 N 
ATOM     57  N   UNL A   1      44.157  28.868  29.369  1.00  0.00    -0.248 NA
ATOM     58  C   UNL A   1      45.997  28.371  28.095  1.00  0.00     0.031 C 
ATOM     59  C   UNL A   1      43.159  30.802  31.854  1.00  0.00     0.029 A 
ATOM     60  C   UNL A   1      43.261  31.319  30.569  1.00  0.00     0.049 A 
ATOM     61  H   UNL A   1      41.977  32.709  29.646  1.00  0.00     0.167 HD
ATOM     62  C   UNL A   1      44.748  30.075  29.091  1.00  0.00     0.074 A 
ATOM     63  C   UNL A   1      45.920  29.697  28.318  1.00  0.00     0.031 C 
ATOM     64  C   UNL A   1      44.257  31.292  29.494  1.00  0.00     0.037 A 
BRANCH  51  65
ATOM     65  C   UNL A   1      38.718  32.836  31.859  1.00  0.00     0.058 A 
ATOM     66  C   UNL A   1      37.955  32.192  32.849  1.00  0.00     0.135 A 
ATOM     67  C   UNL A   1      38.231  34.157  31.565  1.00  0.00     0.135 A 
ATOM     68  F   UNL A   1      38.251  30.939  33.219  1.00  0.00    -0.206 F 
ATOM     69  C   UNL A   1      36.831  32.778  33.473  1.00  0.00     0.059 A 
ATOM     70  C   UNL A   1      37.155  34.778  32.213  1.00  0.00     0.059 A 
ATOM     71  F   UNL A   1      38.697  34.929  30.577  1.00  0.00    -0.206 F 
ATOM     72  C   UNL A   1      36.439  34.074  33.152  1.00  0.00     0.060 A 
BRANCH  72  73
ATOM     73  S   UNL A   1      34.971  34.805  33.910  1.00  0.00     0.124 S 
ATOM     74  O   UNL A   1      33.903  33.976  33.363  1.00  0.00    -0.237 OA
ATOM     75  O   UNL A   1      35.244  34.640  35.333  1.00  0.00    -0.237 OA
ATOM     76  O   UNL A   1      34.986  36.186  33.432  1.00  0.00    -0.744 OA
ENDBRANCH  72  73
ENDBRANCH  51  65
BRANCH  52  77
ATOM     77  C   UNL A   1      44.478  25.267  27.906  1.00  0.00     0.058 A 
ATOM     78  C   UNL A   1      44.165  25.607  26.562  1.00  0.00     0.135 A 
ATOM     79  C   UNL A   1      45.109  24.023  28.071  1.00  0.00     0.135 A 
ATOM     80  F   UNL A   1      43.516  26.755  26.303  1.00  0.00    -0.206 F 
ATOM     81  C   UNL A   1      44.601  24.871  25.453  1.00  0.00     0.059 A 
ATOM     82  C   UNL A   1      45.530  23.242  26.962  1.00  0.00     0.059 A 
ATOM     83  F   UNL A   1      45.478  23.612  29.293  1.00  0.00    -0.206 F 
ATOM     84  C   UNL A   1      45.313  23.698  25.655  1.00  0.00     0.060 A 
BRANCH  84  85
ATOM     85  S   UNL A   1      46.188  22.968  24.213  1.00  0.00     0.124 S 
ATOM     86  O   UNL A   1      47.150  24.006  23.870  1.00  0.00    -0.237 OA
ATOM     87  O   UNL A   1      46.756  21.747  24.785  1.00  0.00    -0.237 OA
ATOM     88  O   UNL A   1      45.110  22.744  23.256  1.00  0.00    -0.744 OA
ENDBRANCH  84  85
ENDBRANCH  52  77
BRANCH  64  89
ATOM     89  C   UNL A   1      44.701  32.632  28.911  1.00  0.00     0.058 A 
ATOM     90  C   UNL A   1      44.381  33.075  27.616  1.00  0.00     0.135 A 
ATOM     91  C   UNL A   1      45.353  33.595  29.727  1.00  0.00     0.135 A 
ATOM     92  F   UNL A   1      43.641  32.332  26.782  1.00  0.00    -0.206 F 
ATOM     93  C   UNL A   1      44.785  34.320  27.129  1.00  0.00     0.059 A 
ATOM     94  C   UNL A   1      45.663  34.880  29.297  1.00  0.00     0.059 A 
ATOM     95  F   UNL A   1      45.715  33.327  30.991  1.00  0.00    -0.206 F 
ATOM     96  C   UNL A   1      45.434  35.212  27.976  1.00  0.00     0.060 A 
BRANCH  96  97
ATOM     97  S   UNL A   1      46.013  36.793  27.346  1.00  0.00     0.124 S 
ATOM     98  O   UNL A   1      47.402  36.482  27.036  1.00  0.00    -0.237 OA
ATOM     99  O   UNL A   1      45.143  37.031  26.203  1.00  0.00    -0.237 OA
ATOM    100  O   UNL A   1      45.807  37.697  28.483  1.00  0.00    -0.744 OA
ENDBRANCH  96  97
ENDBRANCH  64  89
ENDBRANCH  38  39
ENDBRANCH  31  33
ENDBRANCH  30  31
ENDBRANCH  29  30
ENDBRANCH  28  29
ENDBRANCH  27  28
ENDBRANCH   1  27
TORSDOF 23
ENDMDL
MODEL 2
REMARK VINA RESULT:     -11.3      3.611     11.042
REMARK SMILES COc1ccc(-c2cnc(N)c(C(=O)OCCOCCOCCOC(=O)c3ccc(-c4c5nc(c(-c6c(F)cc(S(=O)(=O)[O-])cc6F)c6ccc([nH]6)c(-c6c(F)cc(S(=O)(=O)[O-])cc6F)c6nc(c(-c7c(F)cc(S(=O)(=O)[O-])cc7F)c7ccc4[nH]7)C=C6)C=C5)cc3)c2)c(C)c1
REMARK SMILES IDX 20 1 19 2 18 3 17 4 16 5 15 6 13 7 14 8 12 9 7 10 8 11 93 12
REMARK SMILES IDX 9 13 10 14 6 15 3 16 4 17 96 18 5 19 94 20 95 21 2 22 1 23
REMARK SMILES IDX 11 24 21 27 22 28 23 29 24 30 25 31 26 32 27 33 28 34 92 35
REMARK SMILES IDX 29 36 91 37 30 38 31 39 32 40 85 41 33 42 90 43 84 44 86 45
REMARK SMILES IDX 34 46 89 47 83 48 82 49 35 51 69 52 48 53 68 54 49 55 52 56
REMARK SMILES IDX 67 57 87 58 50 59 51 60 66 62 88 63 53 64 36 65 37 66 46 67
REMARK SMILES IDX 38 68 39 69 45 70 47 71 40 72 41 73 42 74 43 75 44 76 70 77
REMARK SMILES IDX 71 78 80 79 72 80 73 81 79 82 81 83 74 84 75 85 76 86 77 87
REMARK SMILES IDX 78 88 54 89 55 90 64 91 56 92 57 93 63 94 65 95 58 96 59 97
REMARK SMILES IDX 60 98 61 99 62 100
REMARK H PARENT 11 25 11 26 86 50 52 61
REMARK Flexibility Score: inf
ROOT
ATOM      1  C   UNL A   1      33.790  32.018  27.611  1.00  0.00     0.188 C 
ENDROOT
BRANCH   1   2
ATOM      2  C   UNL A   1      32.502  31.503  27.007  1.00  0.00     0.188 C 
BRANCH   2   3
ATOM      3  O   UNL A   1      32.369  30.116  27.233  1.00  0.00    -0.376 OA
BRANCH   3   4
ATOM      4  C   UNL A   1      32.474  29.454  25.963  1.00  0.00     0.202 C 
BRANCH   4   5
ATOM      5  C   UNL A   1      31.371  28.294  25.800  1.00  0.00     0.261 C 
BRANCH   5   6
ATOM      6  O   UNL A   1      31.401  26.809  24.877  1.00  0.00    -0.460 OA
BRANCH   6   7
ATOM      7  C   UNL A   1      30.745  25.851  23.950  1.00  0.00     0.342 C 
ATOM      8  O   UNL A   1      29.566  25.721  23.615  1.00  0.00    -0.246 OA
BRANCH   7   9
ATOM      9  C   UNL A   1      31.455  24.890  23.105  1.00  0.00     0.102 A 
ATOM     10  C   UNL A   1      32.579  22.698  22.981  1.00  0.00     0.001 A 
ATOM     11  C   UNL A   1      33.260  23.293  21.919  1.00  0.00     0.122 A 
ATOM     12  C   UNL A   1      31.652  23.545  23.583  1.00  0.00     0.030 A 
ATOM     13  N   UNL A   1      33.119  24.587  21.468  1.00  0.00    -0.238 NA
ATOM     14  C   UNL A   1      32.235  25.387  22.093  1.00  0.00     0.138 A 
BRANCH  10  15
ATOM     15  C   UNL A   1      32.901  21.317  23.450  1.00  0.00    -0.014 A 
ATOM     16  C   UNL A   1      33.240  18.635  24.413  1.00  0.00     0.119 A 
ATOM     17  C   UNL A   1      32.353  18.898  23.380  1.00  0.00     0.047 A 
ATOM     18  C   UNL A   1      33.967  19.691  24.954  1.00  0.00     0.050 A 
ATOM     19  C   UNL A   1      32.191  20.217  22.907  1.00  0.00     0.013 A 
ATOM     20  C   UNL A   1      33.833  21.020  24.471  1.00  0.00    -0.040 A 
ATOM     21  C   UNL A   1      34.695  22.050  25.147  1.00  0.00     0.045 C 
BRANCH  16  22
ATOM     22  O   UNL A   1      33.386  17.416  25.019  1.00  0.00    -0.497 OA
ATOM     23  C   UNL A   1      33.720  16.354  24.128  1.00  0.00     0.278 C 
ENDBRANCH  16  22
ENDBRANCH  10  15
BRANCH  14  24
ATOM     24  N   UNL A   1      32.247  26.731  21.788  1.00  0.00    -0.383 N 
ATOM     25  H   UNL A   1      31.415  27.181  21.516  1.00  0.00     0.158 HD
ATOM     26  H   UNL A   1      33.088  27.240  21.839  1.00  0.00     0.158 HD
ENDBRANCH  14  24
ENDBRANCH   7   9
ENDBRANCH   6   7
ENDBRANCH   5   6
ENDBRANCH   4   5
ENDBRANCH   3   4
ENDBRANCH   2   3
ENDBRANCH   1   2
BRANCH   1  27
ATOM     27  O   UNL A   1      33.685  33.309  28.184  1.00  0.00    -0.376 OA
BRANCH  27  28
ATOM     28  C   UNL A   1      34.419  33.469  29.401  1.00  0.00     0.202 C 
BRANCH  28  29
ATOM     29  C   UNL A   1      34.933  32.154  30.040  1.00  0.00     0.261 C 
BRANCH  29  30
ATOM     30  O   UNL A   1      36.105  32.331  30.882  1.00  0.00    -0.460 OA
BRANCH  30  31
ATOM     31  C   UNL A   1      37.354  32.250  30.326  1.00  0.00     0.338 C 
ATOM     32  O   UNL A   1      38.295  32.990  30.573  1.00  0.00    -0.246 OA
BRANCH  31  33
ATOM     33  C   UNL A   1      37.511  30.849  29.829  1.00  0.00     0.060 A 
ATOM     34  C   UNL A   1      37.866  29.740  30.569  1.00  0.00     0.016 A 
ATOM     35  C   UNL A   1      37.699  30.718  28.497  1.00  0.00     0.016 A 
ATOM     36  C   UNL A   1      38.736  28.725  30.071  1.00  0.00     0.010 A 
ATOM     37  C   UNL A   1      38.685  29.797  28.090  1.00  0.00     0.010 A 
ATOM     38  C   UNL A   1      39.461  28.872  28.895  1.00  0.00    -0.014 A 
BRANCH  38  39
ATOM     39  C   UNL A   1      41.022  28.105  28.770  1.00  0.00     0.031 A 
ATOM     40  C   UNL A   1      41.654  26.504  28.339  1.00  0.00     0.074 A 
ATOM     41  C   UNL A   1      42.049  28.992  28.959  1.00  0.00     0.049 A 
ATOM     42  N   UNL A   1      42.711  25.965  28.912  1.00  0.00    -0.248 NA
ATOM     43  C   UNL A   1      41.075  25.324  27.490  1.00  0.00     0.031 C 
ATOM     44  C   UNL A   1      43.488  28.813  28.764  1.00  0.00     0.029 A 
ATOM     45  N   UNL A   1      41.979  30.312  29.426  1.00  0.00    -0.354 N 
ATOM     46  C   UNL A   1      42.822  24.634  28.444  1.00  0.00     0.074 A 
ATOM     47  C   UNL A   1      41.575  24.228  28.013  1.00  0.00     0.031 C 
ATOM     48  C   UNL A   1      44.142  29.813  29.388  1.00  0.00     0.029 A 
ATOM     49  C   UNL A   1      43.160  30.610  30.105  1.00  0.00     0.049 A 
ATOM     50  H   UNL A   1      41.221  30.927  29.297  1.00  0.00     0.167 HD
ATOM     51  C   UNL A   1      43.973  23.977  28.168  1.00  0.00     0.037 A 
ATOM     52  C   UNL A   1      43.091  30.771  31.462  1.00  0.00     0.037 A 
ATOM     53  C   UNL A   1      44.990  24.669  28.912  1.00  0.00     0.049 A 
ATOM     54  C   UNL A   1      43.713  29.567  32.184  1.00  0.00     0.074 A 
ATOM     55  C   UNL A   1      45.867  25.675  28.570  1.00  0.00     0.029 A 
ATOM     56  N   UNL A   1      44.765  24.780  30.283  1.00  0.00    -0.354 N 
ATOM     57  N   UNL A   1      44.084  28.454  31.589  1.00  0.00    -0.248 NA
ATOM     58  C   UNL A   1      44.035  29.540  33.607  1.00  0.00     0.031 C 
ATOM     59  C   UNL A   1      45.999  26.514  29.724  1.00  0.00     0.029 A 
ATOM     60  C   UNL A   1      45.274  25.970  30.776  1.00  0.00     0.049 A 
ATOM     61  H   UNL A   1      44.307  24.101  30.829  1.00  0.00     0.167 HD
ATOM     62  C   UNL A   1      44.620  27.573  32.494  1.00  0.00     0.074 A 
ATOM     63  C   UNL A   1      44.597  28.324  33.738  1.00  0.00     0.031 C 
ATOM     64  C   UNL A   1      45.041  26.302  32.185  1.00  0.00     0.037 A 
BRANCH  51  65
ATOM     65  C   UNL A   1      44.110  22.858  27.094  1.00  0.00     0.058 A 
ATOM     66  C   UNL A   1      43.362  21.676  27.243  1.00  0.00     0.135 A 
ATOM     67  C   UNL A   1      45.013  22.796  25.977  1.00  0.00     0.135 A 
ATOM     68  F   UNL A   1      42.496  21.550  28.258  1.00  0.00    -0.206 F 
ATOM     69  C   UNL A   1      43.497  20.555  26.395  1.00  0.00     0.059 A 
ATOM     70  C   UNL A   1      45.120  21.717  25.089  1.00  0.00     0.059 A 
ATOM     71  F   UNL A   1      45.924  23.734  25.693  1.00  0.00    -0.206 F 
ATOM     72  C   UNL A   1      44.376  20.583  25.317  1.00  0.00     0.060 A 
BRANCH  72  73
ATOM     73  S   UNL A   1      44.588  19.132  24.263  1.00  0.00     0.124 S 
ATOM     74  O   UNL A   1      45.955  18.728  24.575  1.00  0.00    -0.237 OA
ATOM     75  O   UNL A   1      43.534  18.246  24.742  1.00  0.00    -0.237 OA
ATOM     76  O   UNL A   1      44.393  19.654  22.911  1.00  0.00    -0.744 OA
ENDBRANCH  72  73
ENDBRANCH  51  65
BRANCH  52  77
ATOM     77  C   UNL A   1      41.982  31.727  31.881  1.00  0.00     0.058 A 
ATOM     78  C   UNL A   1      40.871  31.153  32.559  1.00  0.00     0.135 A 
ATOM     79  C   UNL A   1      42.079  33.124  31.979  1.00  0.00     0.135 A 
ATOM     80  F   UNL A   1      40.661  29.828  32.484  1.00  0.00    -0.206 F 
ATOM     81  C   UNL A   1      40.030  31.872  33.418  1.00  0.00     0.059 A 
ATOM     82  C   UNL A   1      41.216  33.880  32.816  1.00  0.00     0.059 A 
ATOM     83  F   UNL A   1      43.104  33.770  31.404  1.00  0.00    -0.206 F 
ATOM     84  C   UNL A   1      40.223  33.238  33.569  1.00  0.00     0.060 A 
BRANCH  84  85
ATOM     85  S   UNL A   1      39.369  34.074  34.966  1.00  0.00     0.124 S 
ATOM     86  O   UNL A   1      40.473  34.691  35.686  1.00  0.00    -0.237 OA
ATOM     87  O   UNL A   1      38.475  34.999  34.268  1.00  0.00    -0.237 OA
ATOM     88  O   UNL A   1      38.692  32.972  35.641  1.00  0.00    -0.744 OA
ENDBRANCH  84  85
ENDBRANCH  52  77
BRANCH  64  89
ATOM     89  C   UNL A   1      45.310  25.213  33.221  1.00  0.00     0.058 A 
ATOM     90  C   UNL A   1      44.306  24.502  33.899  1.00  0.00     0.135 A 
ATOM     91  C   UNL A   1      46.632  24.741  33.447  1.00  0.00     0.135 A 
ATOM     92  F   UNL A   1      43.005  24.737  33.675  1.00  0.00    -0.206 F 
ATOM     93  C   UNL A   1      44.594  23.494  34.821  1.00  0.00     0.059 A 
ATOM     94  C   UNL A   1      46.930  23.665  34.274  1.00  0.00     0.059 A 
ATOM     95  F   UNL A   1      47.699  25.310  32.864  1.00  0.00    -0.206 F 
ATOM     96  C   UNL A   1      45.910  23.089  35.008  1.00  0.00     0.060 A 
BRANCH  96  97
ATOM     97  S   UNL A   1      46.302  21.834  36.235  1.00  0.00     0.124 S 
ATOM     98  O   UNL A   1      45.602  22.352  37.403  1.00  0.00    -0.237 OA
ATOM     99  O   UNL A   1      45.752  20.619  35.650  1.00  0.00    -0.237 OA
ATOM    100  O   UNL A   1      47.767  21.884  36.303  1.00  0.00    -0.744 OA
ENDBRANCH  96  97
ENDBRANCH  64  89
ENDBRANCH  38  39
ENDBRANCH  31  33
ENDBRANCH  30  31
ENDBRANCH  29  30
ENDBRANCH  28  29
ENDBRANCH  27  28
ENDBRANCH   1  27
TORSDOF 23
ENDMDL
MODEL 3
REMARK VINA RESULT:     -11.1      3.601      7.001
REMARK SMILES COc1ccc(-c2cnc(N)c(C(=O)OCCOCCOCCOC(=O)c3ccc(-c4c5nc(c(-c6c(F)cc(S(=O)(=O)[O-])cc6F)c6ccc([nH]6)c(-c6c(F)cc(S(=O)(=O)[O-])cc6F)c6nc(c(-c7c(F)cc(S(=O)(=O)[O-])cc7F)c7ccc4[nH]7)C=C6)C=C5)cc3)c2)c(C)c1
REMARK SMILES IDX 20 1 19 2 18 3 17 4 16 5 15 6 13 7 14 8 12 9 7 10 8 11 93 12
REMARK SMILES IDX 9 13 10 14 6 15 3 16 4 17 96 18 5 19 94 20 95 21 2 22 1 23
REMARK SMILES IDX 11 24 21 27 22 28 23 29 24 30 25 31 26 32 27 33 28 34 92 35
REMARK SMILES IDX 29 36 91 37 30 38 31 39 32 40 85 41 33 42 90 43 84 44 86 45
REMARK SMILES IDX 34 46 89 47 83 48 82 49 35 51 69 52 48 53 68 54 49 55 52 56
REMARK SMILES IDX 67 57 87 58 50 59 51 60 66 62 88 63 53 64 36 65 37 66 46 67
REMARK SMILES IDX 38 68 39 69 45 70 47 71 40 72 41 73 42 74 43 75 44 76 70 77
REMARK SMILES IDX 71 78 80 79 72 80 73 81 79 82 81 83 74 84 75 85 76 86 77 87
REMARK SMILES IDX 78 88 54 89 55 90 64 91 56 92 57 93 63 94 65 95 58 96 59 97
REMARK SMILES IDX 60 98 61 99 62 100
REMARK H PARENT 11 25 11 26 86 50 52 61
REMARK Flexibility Score: inf
ROOT
ATOM      1  C   UNL A   1      34.946  23.797  25.942  1.00  0.00     0.188 C 
ENDROOT
BRANCH   1   2
ATOM      2  C   UNL A   1      33.526  23.362  26.231  1.00  0.00     0.188 C 
BRANCH   2   3
ATOM      3  O   UNL A   1      33.439  21.953  26.275  1.00  0.00    -0.376 OA
BRANCH   3   4
ATOM      4  C   UNL A   1      32.430  21.548  25.338  1.00  0.00     0.202 C 
BRANCH   4   5
ATOM      5  C   UNL A   1      32.976  21.571  23.824  1.00  0.00     0.261 C 
BRANCH   5   6
ATOM      6  O   UNL A   1      33.131  22.889  22.684  1.00  0.00    -0.460 OA
BRANCH   6   7
ATOM      7  C   UNL A   1      32.964  24.324  22.338  1.00  0.00     0.342 C 
ATOM      8  O   UNL A   1      33.350  24.977  21.367  1.00  0.00    -0.246 OA
BRANCH   7   9
ATOM      9  C   UNL A   1      32.138  25.270  23.089  1.00  0.00     0.102 A 
ATOM     10  C   UNL A   1      32.096  27.106  24.737  1.00  0.00     0.001 A 
ATOM     11  C   UNL A   1      30.800  26.646  24.968  1.00  0.00     0.122 A 
ATOM     12  C   UNL A   1      32.772  26.375  23.762  1.00  0.00     0.030 A 
ATOM     13  N   UNL A   1      30.185  25.570  24.367  1.00  0.00    -0.238 NA
ATOM     14  C   UNL A   1      30.879  24.868  23.452  1.00  0.00     0.138 A 
BRANCH  10  15
ATOM     15  C   UNL A   1      32.693  28.218  25.534  1.00  0.00    -0.014 A 
ATOM     16  C   UNL A   1      33.800  30.192  27.299  1.00  0.00     0.119 A 
ATOM     17  C   UNL A   1      34.347  28.918  27.247  1.00  0.00     0.047 A 
ATOM     18  C   UNL A   1      32.723  30.491  26.471  1.00  0.00     0.050 A 
ATOM     19  C   UNL A   1      33.801  27.952  26.376  1.00  0.00     0.013 A 
ATOM     20  C   UNL A   1      32.181  29.536  25.570  1.00  0.00    -0.040 A 
ATOM     21  C   UNL A   1      31.028  30.012  24.730  1.00  0.00     0.045 C 
BRANCH  16  22
ATOM     22  O   UNL A   1      34.179  31.162  28.187  1.00  0.00    -0.497 OA
ATOM     23  C   UNL A   1      35.384  31.839  27.839  1.00  0.00     0.278 C 
ENDBRANCH  16  22
ENDBRANCH  10  15
BRANCH  14  24
ATOM     24  N   UNL A   1      30.350  23.674  23.012  1.00  0.00    -0.383 N 
ATOM     25  H   UNL A   1      30.949  22.939  22.745  1.00  0.00     0.158 HD
ATOM     26  H   UNL A   1      29.374  23.555  22.964  1.00  0.00     0.158 HD
ENDBRANCH  14  24
ENDBRANCH   7   9
ENDBRANCH   6   7
ENDBRANCH   5   6
ENDBRANCH   4   5
ENDBRANCH   3   4
ENDBRANCH   2   3
ENDBRANCH   1   2
BRANCH   1  27
ATOM     27  O   UNL A   1      35.811  22.742  25.565  1.00  0.00    -0.376 OA
BRANCH  27  28
ATOM     28  C   UNL A   1      37.115  23.169  25.164  1.00  0.00     0.202 C 
BRANCH  28  29
ATOM     29  C   UNL A   1      38.105  23.447  26.324  1.00  0.00     0.261 C 
BRANCH  29  30
ATOM     30  O   UNL A   1      38.401  24.857  26.515  1.00  0.00    -0.460 OA
BRANCH  30  31
ATOM     31  C   UNL A   1      39.324  25.232  27.457  1.00  0.00     0.338 C 
ATOM     32  O   UNL A   1      39.904  24.480  28.225  1.00  0.00    -0.246 OA
BRANCH  31  33
ATOM     33  C   UNL A   1      39.870  26.552  27.017  1.00  0.00     0.060 A 
ATOM     34  C   UNL A   1      40.861  26.770  26.083  1.00  0.00     0.016 A 
ATOM     35  C   UNL A   1      39.662  27.583  27.866  1.00  0.00     0.016 A 
ATOM     36  C   UNL A   1      41.861  27.776  26.238  1.00  0.00     0.010 A 
ATOM     37  C   UNL A   1      40.752  28.450  28.080  1.00  0.00     0.010 A 
ATOM     38  C   UNL A   1      42.049  28.467  27.429  1.00  0.00    -0.014 A 
BRANCH  38  39
ATOM     39  C   UNL A   1      43.658  28.988  27.853  1.00  0.00     0.031 A 
ATOM     40  C   UNL A   1      44.715  30.367  27.496  1.00  0.00     0.074 A 
ATOM     41  C   UNL A   1      44.235  28.169  28.789  1.00  0.00     0.049 A 
ATOM     42  N   UNL A   1      46.023  30.262  27.363  1.00  0.00    -0.248 NA
ATOM     43  C   UNL A   1      44.432  31.832  27.027  1.00  0.00     0.031 C 
ATOM     44  C   UNL A   1      45.478  28.339  29.542  1.00  0.00     0.029 A 
ATOM     45  N   UNL A   1      43.785  26.922  29.245  1.00  0.00    -0.354 N 
ATOM     46  C   UNL A   1      46.512  31.514  26.922  1.00  0.00     0.074 A 
ATOM     47  C   UNL A   1      45.474  32.186  26.309  1.00  0.00     0.031 C 
ATOM     48  C   UNL A   1      45.827  27.155  30.083  1.00  0.00     0.029 A 
ATOM     49  C   UNL A   1      44.890  26.152  29.606  1.00  0.00     0.049 A 
ATOM     50  H   UNL A   1      42.844  26.637  29.301  1.00  0.00     0.167 HD
ATOM     51  C   UNL A   1      47.677  32.094  27.295  1.00  0.00     0.037 A 
ATOM     52  C   UNL A   1      45.196  25.072  28.824  1.00  0.00     0.037 A 
ATOM     53  C   UNL A   1      48.502  31.013  27.765  1.00  0.00     0.049 A 
ATOM     54  C   UNL A   1      46.449  25.351  27.980  1.00  0.00     0.074 A 
ATOM     55  C   UNL A   1      48.733  30.503  29.023  1.00  0.00     0.029 A 
ATOM     56  N   UNL A   1      48.700  29.969  26.864  1.00  0.00    -0.354 N 
ATOM     57  N   UNL A   1      47.032  26.526  27.881  1.00  0.00    -0.248 NA
ATOM     58  C   UNL A   1      47.188  24.328  27.246  1.00  0.00     0.031 C 
ATOM     59  C   UNL A   1      48.870  29.084  28.872  1.00  0.00     0.029 A 
ATOM     60  C   UNL A   1      48.806  28.756  27.524  1.00  0.00     0.049 A 
ATOM     61  H   UNL A   1      48.758  30.079  25.888  1.00  0.00     0.167 HD
ATOM     62  C   UNL A   1      48.138  26.454  27.072  1.00  0.00     0.074 A 
ATOM     63  C   UNL A   1      48.207  25.043  26.733  1.00  0.00     0.031 C 
ATOM     64  C   UNL A   1      48.919  27.530  26.727  1.00  0.00     0.037 A 
BRANCH  51  65
ATOM     65  C   UNL A   1      47.910  33.631  27.369  1.00  0.00     0.058 A 
ATOM     66  C   UNL A   1      47.174  34.387  28.300  1.00  0.00     0.135 A 
ATOM     67  C   UNL A   1      48.719  34.455  26.512  1.00  0.00     0.135 A 
ATOM     68  F   UNL A   1      46.340  33.779  29.154  1.00  0.00    -0.206 F 
ATOM     69  C   UNL A   1      47.221  35.797  28.371  1.00  0.00     0.059 A 
ATOM     70  C   UNL A   1      48.824  35.850  26.604  1.00  0.00     0.059 A 
ATOM     71  F   UNL A   1      49.412  33.998  25.464  1.00  0.00    -0.206 F 
ATOM     72  C   UNL A   1      48.052  36.522  27.522  1.00  0.00     0.060 A 
BRANCH  72  73
ATOM     73  S   UNL A   1      48.073  38.327  27.577  1.00  0.00     0.124 S 
ATOM     74  O   UNL A   1      48.974  38.653  26.477  1.00  0.00    -0.237 OA
ATOM     75  O   UNL A   1      46.668  38.659  27.373  1.00  0.00    -0.237 OA
ATOM     76  O   UNL A   1      48.594  38.628  28.909  1.00  0.00    -0.744 OA
ENDBRANCH  72  73
ENDBRANCH  51  65
BRANCH  52  77
ATOM     77  C   UNL A   1      43.990  24.181  28.561  1.00  0.00     0.058 A 
ATOM     78  C   UNL A   1      43.511  24.138  27.223  1.00  0.00     0.135 A 
ATOM     79  C   UNL A   1      43.515  23.154  29.393  1.00  0.00     0.135 A 
ATOM     80  F   UNL A   1      43.867  25.105  26.360  1.00  0.00    -0.206 F 
ATOM     81  C   UNL A   1      42.774  23.070  26.695  1.00  0.00     0.059 A 
ATOM     82  C   UNL A   1      42.737  22.078  28.889  1.00  0.00     0.059 A 
ATOM     83  F   UNL A   1      43.925  23.078  30.667  1.00  0.00    -0.206 F 
ATOM     84  C   UNL A   1      42.411  22.021  27.528  1.00  0.00     0.060 A 
BRANCH  84  85
ATOM     85  S   UNL A   1      41.788  20.480  26.741  1.00  0.00     0.124 S 
ATOM     86  O   UNL A   1      42.132  19.463  27.724  1.00  0.00    -0.237 OA
ATOM     87  O   UNL A   1      40.360  20.764  26.602  1.00  0.00    -0.237 OA
ATOM     88  O   UNL A   1      42.523  20.437  25.481  1.00  0.00    -0.744 OA
ENDBRANCH  84  85
ENDBRANCH  52  77
BRANCH  64  89
ATOM     89  C   UNL A   1      49.923  27.527  25.576  1.00  0.00     0.058 A 
ATOM     90  C   UNL A   1      51.317  27.485  25.746  1.00  0.00     0.135 A 
ATOM     91  C   UNL A   1      49.481  27.408  24.231  1.00  0.00     0.135 A 
ATOM     92  F   UNL A   1      51.877  27.442  26.963  1.00  0.00    -0.206 F 
ATOM     93  C   UNL A   1      52.203  27.458  24.666  1.00  0.00     0.059 A 
ATOM     94  C   UNL A   1      50.344  27.265  23.151  1.00  0.00     0.059 A 
ATOM     95  F   UNL A   1      48.179  27.422  23.908  1.00  0.00    -0.206 F 
ATOM     96  C   UNL A   1      51.705  27.357  23.372  1.00  0.00     0.060 A 
BRANCH  96  97
ATOM     97  S   UNL A   1      52.830  27.381  21.970  1.00  0.00     0.124 S 
ATOM     98  O   UNL A   1      53.422  28.705  22.104  1.00  0.00    -0.237 OA
ATOM     99  O   UNL A   1      53.716  26.257  22.239  1.00  0.00    -0.237 OA
ATOM    100  O   UNL A   1      51.932  27.203  20.823  1.00  0.00    -0.744 OA
ENDBRANCH  96  97
ENDBRANCH  64  89
ENDBRANCH  38  39
ENDBRANCH  31  33
ENDBRANCH  30  31
ENDBRANCH  29  30
ENDBRANCH  28  29
ENDBRANCH  27  28
ENDBRANCH   1  27
TORSDOF 23
ENDMDL
