MODEL 1
REMARK VINA RESULT:      -9.7      0.000      0.000
REMARK SMILES CC1(C)CC[NH+](CC[C@H]2CCC[C@]2([NH3+])C(=O)OCCOCCOCCOC(=O)c2ccc(-c3c4nc(c(-c5c(F)cc(S(=O)(=O)[O-])cc5F)c5ccc([nH]5)c(-c5c(F)cc(S(=O)(=O)[O-])cc5F)c5nc(c(-c6c(F)cc(S(=O)(=O)[O-])cc6F)c6ccc3[nH]6)C=C5)C=C4)cc2)CC1
REMARK SMILES IDX 21 1 20 2 19 3 18 4 17 5 15 6 16 7 13 8 9 9 10 10 11 11
REMARK SMILES IDX 12 12 8 13 7 14 6 15 1 16 2 17 3 18 4 19 96 20 5 21 95 22
REMARK SMILES IDX 14 24 22 28 23 29 24 30 25 31 26 32 27 33 28 34 29 35 30 36
REMARK SMILES IDX 94 37 31 38 93 39 32 40 33 41 34 42 87 43 35 44 92 45 86 46
REMARK SMILES IDX 88 47 36 48 91 49 85 50 84 51 37 53 71 54 50 55 70 56 51 57
REMARK SMILES IDX 54 58 69 59 89 60 52 61 53 62 68 64 90 65 55 66 38 67 39 68
REMARK SMILES IDX 48 69 40 70 41 71 47 72 49 73 42 74 43 75 44 76 45 77 46 78
REMARK SMILES IDX 72 79 73 80 82 81 74 82 75 83 81 84 83 85 76 86 77 87 78 88
REMARK SMILES IDX 79 89 80 90 56 91 57 92 66 93 58 94 59 95 65 96 67 97 60 98
REMARK SMILES IDX 61 99 62 100 63 101 64 102
REMARK H PARENT 6 23 14 25 14 26 14 27 88 52 54 63
REMARK Flexibility Score: inf
ROOT
ATOM      1  C   UNL A   1      33.432  30.840  27.269  1.00  0.00     0.188 C 
ENDROOT
BRANCH   1   2
ATOM      2  O   UNL A   1      33.299  29.587  26.643  1.00  0.00    -0.376 OA
BRANCH   2   3
ATOM      3  C   UNL A   1      32.809  29.585  25.324  1.00  0.00     0.202 C 
BRANCH   3   4
ATOM      4  C   UNL A   1      31.354  29.241  24.957  1.00  0.00     0.261 C 
BRANCH   4   5
ATOM      5  O   UNL A   1      30.948  27.895  24.591  1.00  0.00    -0.459 OA
BRANCH   5   6
ATOM      6  C   UNL A   1      31.599  27.274  23.550  1.00  0.00     0.368 C 
ATOM      7  O   UNL A   1      31.718  27.826  22.458  1.00  0.00    -0.245 OA
BRANCH   6   8
ATOM      8  C   UNL A   1      32.133  25.775  23.857  1.00  0.00     0.195 C 
ATOM      9  C   UNL A   1      31.476  24.967  25.037  1.00  0.00     0.068 C 
ATOM     10  C   UNL A   1      32.573  24.998  26.142  1.00  0.00     0.011 C 
ATOM     11  C   UNL A   1      33.640  25.983  25.695  1.00  0.00     0.008 C 
ATOM     12  C   UNL A   1      33.629  25.892  24.197  1.00  0.00     0.081 C 
BRANCH   9  13
ATOM     13  C   UNL A   1      31.074  23.458  24.806  1.00  0.00     0.072 C 
BRANCH  13  14
ATOM     14  C   UNL A   1      31.708  22.315  25.659  1.00  0.00     0.262 C 
BRANCH  14  15
ATOM     15  N   UNL A   1      33.143  22.173  25.476  1.00  0.00    -0.335 N 
ATOM     16  C   UNL A   1      37.071  21.560  24.323  1.00  0.00     0.011 C 
ATOM     17  C   UNL A   1      35.953  22.378  24.988  1.00  0.00    -0.025 C 
ATOM     18  C   UNL A   1      36.647  23.748  25.285  1.00  0.00     0.011 C 
ATOM     19  C   UNL A   1      34.838  22.525  23.932  1.00  0.00     0.068 C 
ATOM     20  C   UNL A   1      35.430  21.765  26.331  1.00  0.00     0.068 C 
ATOM     21  C   UNL A   1      33.540  21.781  24.132  1.00  0.00     0.262 C 
ATOM     22  C   UNL A   1      33.923  21.364  26.411  1.00  0.00     0.262 C 
ATOM     23  H   UNL A   1      33.385  23.142  25.686  1.00  0.00     0.348 HD
ENDBRANCH  14  15
ENDBRANCH  13  14
ENDBRANCH   9  13
BRANCH   8  24
ATOM     24  N   UNL A   1      32.123  24.979  22.625  1.00  0.00    -0.343 N 
ATOM     25  H   UNL A   1      31.293  25.210  22.079  1.00  0.00     0.345 HD
ATOM     26  H   UNL A   1      32.110  23.987  22.861  1.00  0.00     0.345 HD
ATOM     27  H   UNL A   1      32.959  25.188  22.079  1.00  0.00     0.345 HD
ENDBRANCH   8  24
ENDBRANCH   6   8
ENDBRANCH   5   6
ENDBRANCH   4   5
ENDBRANCH   3   4
ENDBRANCH   2   3
ENDBRANCH   1   2
BRANCH   1  28
ATOM     28  C   UNL A   1      34.832  31.050  27.883  1.00  0.00     0.188 C 
BRANCH  28  29
ATOM     29  O   UNL A   1      35.591  32.190  27.524  1.00  0.00    -0.376 OA
BRANCH  29  30
ATOM     30  C   UNL A   1      35.636  33.252  28.466  1.00  0.00     0.202 C 
BRANCH  30  31
ATOM     31  C   UNL A   1      35.626  32.952  29.986  1.00  0.00     0.261 C 
BRANCH  31  32
ATOM     32  O   UNL A   1      36.908  32.710  30.616  1.00  0.00    -0.460 OA
BRANCH  32  33
ATOM     33  C   UNL A   1      37.113  31.464  31.130  1.00  0.00     0.338 C 
ATOM     34  O   UNL A   1      36.307  30.827  31.802  1.00  0.00    -0.246 OA
BRANCH  33  35
ATOM     35  C   UNL A   1      38.309  30.822  30.509  1.00  0.00     0.060 A 
ATOM     36  C   UNL A   1      39.365  30.443  31.355  1.00  0.00     0.016 A 
ATOM     37  C   UNL A   1      38.414  30.564  29.143  1.00  0.00     0.016 A 
ATOM     38  C   UNL A   1      40.508  29.808  30.856  1.00  0.00     0.010 A 
ATOM     39  C   UNL A   1      39.597  29.987  28.629  1.00  0.00     0.010 A 
ATOM     40  C   UNL A   1      40.661  29.625  29.480  1.00  0.00    -0.014 A 
BRANCH  40  41
ATOM     41  C   UNL A   1      42.042  29.423  28.952  1.00  0.00     0.031 A 
ATOM     42  C   UNL A   1      42.379  28.033  28.466  1.00  0.00     0.074 A 
ATOM     43  C   UNL A   1      42.949  30.407  28.793  1.00  0.00     0.049 A 
ATOM     44  N   UNL A   1      43.508  27.548  28.019  1.00  0.00    -0.248 NA
ATOM     45  C   UNL A   1      41.272  27.063  28.479  1.00  0.00     0.031 C 
ATOM     46  C   UNL A   1      42.731  31.826  29.064  1.00  0.00     0.029 A 
ATOM     47  N   UNL A   1      44.251  30.350  28.346  1.00  0.00    -0.354 N 
ATOM     48  C   UNL A   1      43.248  26.217  27.712  1.00  0.00     0.074 A 
ATOM     49  C   UNL A   1      41.863  25.967  28.040  1.00  0.00     0.031 C 
ATOM     50  C   UNL A   1      43.865  32.502  28.790  1.00  0.00     0.029 A 
ATOM     51  C   UNL A   1      44.904  31.562  28.365  1.00  0.00     0.049 A 
ATOM     52  H   UNL A   1      44.677  29.516  28.041  1.00  0.00     0.167 HD
ATOM     53  C   UNL A   1      44.081  25.277  27.206  1.00  0.00     0.037 A 
ATOM     54  C   UNL A   1      46.192  31.868  28.096  1.00  0.00     0.037 A 
ATOM     55  C   UNL A   1      45.467  25.507  26.904  1.00  0.00     0.049 A 
ATOM     56  C   UNL A   1      47.153  30.773  27.684  1.00  0.00     0.074 A 
ATOM     57  C   UNL A   1      46.409  24.603  26.446  1.00  0.00     0.029 A 
ATOM     58  N   UNL A   1      46.114  26.726  27.040  1.00  0.00    -0.354 N 
ATOM     59  N   UNL A   1      46.916  29.501  27.460  1.00  0.00    -0.248 NA
ATOM     60  C   UNL A   1      48.563  31.156  27.499  1.00  0.00     0.031 C 
ATOM     61  C   UNL A   1      47.640  25.263  26.358  1.00  0.00     0.029 A 
ATOM     62  C   UNL A   1      47.449  26.594  26.694  1.00  0.00     0.049 A 
ATOM     63  H   UNL A   1      45.688  27.562  27.338  1.00  0.00     0.167 HD
ATOM     64  C   UNL A   1      48.133  28.948  27.060  1.00  0.00     0.074 A 
ATOM     65  C   UNL A   1      49.104  30.019  27.081  1.00  0.00     0.031 C 
ATOM     66  C   UNL A   1      48.412  27.669  26.698  1.00  0.00     0.037 A 
BRANCH  53  67
ATOM     67  C   UNL A   1      43.512  23.895  27.033  1.00  0.00     0.058 A 
ATOM     68  C   UNL A   1      43.084  23.415  25.784  1.00  0.00     0.135 A 
ATOM     69  C   UNL A   1      43.332  23.063  28.150  1.00  0.00     0.135 A 
ATOM     70  F   UNL A   1      43.205  24.181  24.687  1.00  0.00    -0.206 F 
ATOM     71  C   UNL A   1      42.447  22.185  25.659  1.00  0.00     0.059 A 
ATOM     72  C   UNL A   1      42.731  21.814  28.042  1.00  0.00     0.059 A 
ATOM     73  F   UNL A   1      43.719  23.473  29.368  1.00  0.00    -0.206 F 
ATOM     74  C   UNL A   1      42.265  21.397  26.796  1.00  0.00     0.060 A 
BRANCH  74  75
ATOM     75  S   UNL A   1      41.385  19.830  26.630  1.00  0.00     0.124 S 
ATOM     76  O   UNL A   1      41.910  19.081  27.768  1.00  0.00    -0.237 OA
ATOM     77  O   UNL A   1      39.990  20.244  26.732  1.00  0.00    -0.237 OA
ATOM     78  O   UNL A   1      41.798  19.346  25.316  1.00  0.00    -0.744 OA
ENDBRANCH  74  75
ENDBRANCH  53  67
BRANCH  54  79
ATOM     79  C   UNL A   1      46.679  33.275  28.216  1.00  0.00     0.058 A 
ATOM     80  C   UNL A   1      47.101  33.794  29.450  1.00  0.00     0.135 A 
ATOM     81  C   UNL A   1      46.703  34.138  27.109  1.00  0.00     0.135 A 
ATOM     82  F   UNL A   1      47.067  33.024  30.549  1.00  0.00    -0.206 F 
ATOM     83  C   UNL A   1      47.527  35.114  29.584  1.00  0.00     0.059 A 
ATOM     84  C   UNL A   1      47.151  35.455  27.212  1.00  0.00     0.059 A 
ATOM     85  F   UNL A   1      46.297  33.702  25.906  1.00  0.00    -0.206 F 
ATOM     86  C   UNL A   1      47.557  35.935  28.456  1.00  0.00     0.060 A 
BRANCH  86  87
ATOM     87  S   UNL A   1      48.173  37.625  28.629  1.00  0.00     0.124 S 
ATOM     88  O   UNL A   1      49.059  37.503  29.781  1.00  0.00    -0.237 OA
ATOM     89  O   UNL A   1      48.828  37.844  27.342  1.00  0.00    -0.237 OA
ATOM     90  O   UNL A   1      46.959  38.406  28.847  1.00  0.00    -0.744 OA
ENDBRANCH  86  87
ENDBRANCH  54  79
BRANCH  66  91
ATOM     91  C   UNL A   1      49.808  27.354  26.223  1.00  0.00     0.058 A 
ATOM     92  C   UNL A   1      50.840  26.996  27.103  1.00  0.00     0.135 A 
ATOM     93  C   UNL A   1      50.097  27.349  24.846  1.00  0.00     0.135 A 
ATOM     94  F   UNL A   1      50.624  26.982  28.428  1.00  0.00    -0.206 F 
ATOM     95  C   UNL A   1      52.114  26.670  26.641  1.00  0.00     0.059 A 
ATOM     96  C   UNL A   1      51.352  26.996  24.360  1.00  0.00     0.059 A 
ATOM     97  F   UNL A   1      49.145  27.668  23.954  1.00  0.00    -0.206 F 
ATOM     98  C   UNL A   1      52.360  26.670  25.266  1.00  0.00     0.060 A 
BRANCH  98  99
ATOM     99  S   UNL A   1      54.005  26.217  24.676  1.00  0.00     0.124 S 
ATOM    100  O   UNL A   1      53.934  24.759  24.696  1.00  0.00    -0.237 OA
ATOM    101  O   UNL A   1      54.043  26.831  23.353  1.00  0.00    -0.237 OA
ATOM    102  O   UNL A   1      54.899  26.814  25.664  1.00  0.00    -0.744 OA
ENDBRANCH  98  99
ENDBRANCH  66  91
ENDBRANCH  40  41
ENDBRANCH  33  35
ENDBRANCH  32  33
ENDBRANCH  31  32
ENDBRANCH  30  31
ENDBRANCH  29  30
ENDBRANCH  28  29
ENDBRANCH   1  28
TORSDOF 24
ENDMDL
MODEL 2
REMARK VINA RESULT:      -9.3      1.912      8.350
REMARK SMILES CC1(C)CC[NH+](CC[C@H]2CCC[C@]2([NH3+])C(=O)OCCOCCOCCOC(=O)c2ccc(-c3c4nc(c(-c5c(F)cc(S(=O)(=O)[O-])cc5F)c5ccc([nH]5)c(-c5c(F)cc(S(=O)(=O)[O-])cc5F)c5nc(c(-c6c(F)cc(S(=O)(=O)[O-])cc6F)c6ccc3[nH]6)C=C5)C=C4)cc2)CC1
REMARK SMILES IDX 21 1 20 2 19 3 18 4 17 5 15 6 16 7 13 8 9 9 10 10 11 11
REMARK SMILES IDX 12 12 8 13 7 14 6 15 1 16 2 17 3 18 4 19 96 20 5 21 95 22
REMARK SMILES IDX 14 24 22 28 23 29 24 30 25 31 26 32 27 33 28 34 29 35 30 36
REMARK SMILES IDX 94 37 31 38 93 39 32 40 33 41 34 42 87 43 35 44 92 45 86 46
REMARK SMILES IDX 88 47 36 48 91 49 85 50 84 51 37 53 71 54 50 55 70 56 51 57
REMARK SMILES IDX 54 58 69 59 89 60 52 61 53 62 68 64 90 65 55 66 38 67 39 68
REMARK SMILES IDX 48 69 40 70 41 71 47 72 49 73 42 74 43 75 44 76 45 77 46 78
REMARK SMILES IDX 72 79 73 80 82 81 74 82 75 83 81 84 83 85 76 86 77 87 78 88
REMARK SMILES IDX 79 89 80 90 56 91 57 92 66 93 58 94 59 95 65 96 67 97 60 98
REMARK SMILES IDX 61 99 62 100 63 101 64 102
REMARK H PARENT 6 23 14 25 14 26 14 27 88 52 54 63
REMARK Flexibility Score: inf
ROOT
ATOM      1  C   UNL A   1      33.528  32.785  28.053  1.00  0.00     0.188 C 
ENDROOT
BRANCH   1   2
ATOM      2  O   UNL A   1      33.966  31.485  27.742  1.00  0.00    -0.376 OA
BRANCH   2   3
ATOM      3  C   UNL A   1      33.215  30.772  26.789  1.00  0.00     0.202 C 
BRANCH   3   4
ATOM      4  C   UNL A   1      32.900  29.269  26.905  1.00  0.00     0.261 C 
BRANCH   4   5
ATOM      5  O   UNL A   1      32.408  28.495  25.778  1.00  0.00    -0.459 OA
BRANCH   5   6
ATOM      6  C   UNL A   1      32.670  27.145  25.746  1.00  0.00     0.368 C 
ATOM      7  O   UNL A   1      33.785  26.709  26.024  1.00  0.00    -0.245 OA
BRANCH   6   8
ATOM      8  C   UNL A   1      31.435  26.207  25.274  1.00  0.00     0.195 C 
ATOM      9  C   UNL A   1      31.748  24.911  24.438  1.00  0.00     0.068 C 
ATOM     10  C   UNL A   1      31.292  25.298  23.001  1.00  0.00     0.011 C 
ATOM     11  C   UNL A   1      31.004  26.790  23.001  1.00  0.00     0.008 C 
ATOM     12  C   UNL A   1      30.522  27.076  24.393  1.00  0.00     0.081 C 
BRANCH   9  13
ATOM     13  C   UNL A   1      31.030  23.558  24.818  1.00  0.00     0.072 C 
BRANCH  13  14
ATOM     14  C   UNL A   1      31.732  22.499  25.725  1.00  0.00     0.262 C 
BRANCH  14  15
ATOM     15  N   UNL A   1      33.154  22.351  25.461  1.00  0.00    -0.335 N 
ATOM     16  C   UNL A   1      37.014  21.827  24.059  1.00  0.00     0.011 C 
ATOM     17  C   UNL A   1      35.949  22.558  24.893  1.00  0.00    -0.025 C 
ATOM     18  C   UNL A   1      36.698  23.843  25.375  1.00  0.00     0.011 C 
ATOM     19  C   UNL A   1      34.801  22.901  23.922  1.00  0.00     0.068 C 
ATOM     20  C   UNL A   1      35.457  21.751  26.142  1.00  0.00     0.068 C 
ATOM     21  C   UNL A   1      33.487  22.169  24.056  1.00  0.00     0.262 C 
ATOM     22  C   UNL A   1      33.942  21.382  26.221  1.00  0.00     0.262 C 
ATOM     23  H   UNL A   1      33.435  23.267  25.812  1.00  0.00     0.348 HD
ENDBRANCH  14  15
ENDBRANCH  13  14
ENDBRANCH   9  13
BRANCH   8  24
ATOM     24  N   UNL A   1      30.589  25.879  26.427  1.00  0.00    -0.343 N 
ATOM     25  H   UNL A   1      29.847  26.574  26.511  1.00  0.00     0.345 HD
ATOM     26  H   UNL A   1      31.155  25.881  27.275  1.00  0.00     0.345 HD
ATOM     27  H   UNL A   1      30.177  24.956  26.294  1.00  0.00     0.345 HD
ENDBRANCH   8  24
ENDBRANCH   6   8
ENDBRANCH   5   6
ENDBRANCH   4   5
ENDBRANCH   3   4
ENDBRANCH   2   3
ENDBRANCH   1   2
BRANCH   1  28
ATOM     28  C   UNL A   1      34.653  33.834  27.935  1.00  0.00     0.188 C 
BRANCH  28  29
ATOM     29  O   UNL A   1      34.599  35.011  28.720  1.00  0.00    -0.376 OA
BRANCH  29  30
ATOM     30  C   UNL A   1      33.722  34.996  29.838  1.00  0.00     0.202 C 
BRANCH  30  31
ATOM     31  C   UNL A   1      34.219  34.494  31.217  1.00  0.00     0.261 C 
BRANCH  31  32
ATOM     32  O   UNL A   1      34.393  33.064  31.371  1.00  0.00    -0.460 OA
BRANCH  32  33
ATOM     33  C   UNL A   1      35.340  32.655  32.262  1.00  0.00     0.338 C 
ATOM     34  O   UNL A   1      35.226  32.669  33.484  1.00  0.00    -0.246 OA
BRANCH  33  35
ATOM     35  C   UNL A   1      36.414  31.876  31.576  1.00  0.00     0.060 A 
ATOM     36  C   UNL A   1      37.216  31.031  32.362  1.00  0.00     0.016 A 
ATOM     37  C   UNL A   1      36.640  31.934  30.201  1.00  0.00     0.016 A 
ATOM     38  C   UNL A   1      38.224  30.246  31.791  1.00  0.00     0.010 A 
ATOM     39  C   UNL A   1      37.702  31.195  29.636  1.00  0.00     0.010 A 
ATOM     40  C   UNL A   1      38.516  30.362  30.430  1.00  0.00    -0.014 A 
BRANCH  40  41
ATOM     41  C   UNL A   1      39.864  29.921  29.965  1.00  0.00     0.031 A 
ATOM     42  C   UNL A   1      40.978  30.934  30.075  1.00  0.00     0.074 A 
ATOM     43  C   UNL A   1      40.157  28.670  29.557  1.00  0.00     0.049 A 
ATOM     44  N   UNL A   1      42.226  30.859  29.693  1.00  0.00    -0.248 NA
ATOM     45  C   UNL A   1      40.624  32.209  30.722  1.00  0.00     0.031 C 
ATOM     46  C   UNL A   1      39.236  27.536  29.540  1.00  0.00     0.029 A 
ATOM     47  N   UNL A   1      41.339  28.147  29.083  1.00  0.00    -0.354 N 
ATOM     48  C   UNL A   1      42.799  32.077  30.042  1.00  0.00     0.074 A 
ATOM     49  C   UNL A   1      41.760  32.878  30.648  1.00  0.00     0.031 C 
ATOM     50  C   UNL A   1      39.887  26.454  29.067  1.00  0.00     0.029 A 
ATOM     51  C   UNL A   1      41.257  26.825  28.706  1.00  0.00     0.049 A 
ATOM     52  H   UNL A   1      42.171  28.671  29.020  1.00  0.00     0.167 HD
ATOM     53  C   UNL A   1      44.073  32.502  29.875  1.00  0.00     0.037 A 
ATOM     54  C   UNL A   1      42.171  26.022  28.118  1.00  0.00     0.037 A 
ATOM     55  C   UNL A   1      45.107  31.725  29.247  1.00  0.00     0.049 A 
ATOM     56  C   UNL A   1      43.545  26.564  27.790  1.00  0.00     0.074 A 
ATOM     57  C   UNL A   1      46.413  32.090  28.975  1.00  0.00     0.029 A 
ATOM     58  N   UNL A   1      44.948  30.427  28.783  1.00  0.00    -0.354 N 
ATOM     59  N   UNL A   1      44.061  27.741  28.063  1.00  0.00    -0.248 NA
ATOM     60  C   UNL A   1      44.461  25.669  27.063  1.00  0.00     0.031 C 
ATOM     61  C   UNL A   1      47.029  31.033  28.295  1.00  0.00     0.029 A 
ATOM     62  C   UNL A   1      46.127  29.983  28.207  1.00  0.00     0.049 A 
ATOM     63  H   UNL A   1      44.120  29.899  28.852  1.00  0.00     0.167 HD
ATOM     64  C   UNL A   1      45.372  27.707  27.587  1.00  0.00     0.074 A 
ATOM     65  C   UNL A   1      45.568  26.398  27.002  1.00  0.00     0.031 C 
ATOM     66  C   UNL A   1      46.326  28.671  27.641  1.00  0.00     0.037 A 
BRANCH  53  67
ATOM     67  C   UNL A   1      44.377  33.909  30.312  1.00  0.00     0.058 A 
ATOM     68  C   UNL A   1      44.207  35.010  29.455  1.00  0.00     0.135 A 
ATOM     69  C   UNL A   1      44.911  34.150  31.588  1.00  0.00     0.135 A 
ATOM     70  F   UNL A   1      43.728  34.833  28.213  1.00  0.00    -0.206 F 
ATOM     71  C   UNL A   1      44.608  36.288  29.828  1.00  0.00     0.059 A 
ATOM     72  C   UNL A   1      45.285  35.425  31.995  1.00  0.00     0.059 A 
ATOM     73  F   UNL A   1      45.099  33.135  32.445  1.00  0.00    -0.206 F 
ATOM     74  C   UNL A   1      45.157  36.483  31.096  1.00  0.00     0.060 A 
BRANCH  74  75
ATOM     75  S   UNL A   1      45.728  38.135  31.546  1.00  0.00     0.124 S 
ATOM     76  O   UNL A   1      44.686  38.972  30.958  1.00  0.00    -0.237 OA
ATOM     77  O   UNL A   1      45.745  38.073  33.004  1.00  0.00    -0.237 OA
ATOM     78  O   UNL A   1      47.039  38.226  30.910  1.00  0.00    -0.744 OA
ENDBRANCH  74  75
ENDBRANCH  53  67
BRANCH  54  79
ATOM     79  C   UNL A   1      41.830  24.609  27.775  1.00  0.00     0.058 A 
ATOM     80  C   UNL A   1      41.014  24.306  26.673  1.00  0.00     0.135 A 
ATOM     81  C   UNL A   1      42.285  23.535  28.556  1.00  0.00     0.135 A 
ATOM     82  F   UNL A   1      40.523  25.295  25.910  1.00  0.00    -0.206 F 
ATOM     83  C   UNL A   1      40.661  22.995  26.360  1.00  0.00     0.059 A 
ATOM     84  C   UNL A   1      41.968  22.214  28.247  1.00  0.00     0.059 A 
ATOM     85  F   UNL A   1      43.056  23.765  29.631  1.00  0.00    -0.206 F 
ATOM     86  C   UNL A   1      41.152  21.953  27.148  1.00  0.00     0.060 A 
BRANCH  86  87
ATOM     87  S   UNL A   1      40.741  20.253  26.693  1.00  0.00     0.124 S 
ATOM     88  O   UNL A   1      41.839  19.911  25.797  1.00  0.00    -0.237 OA
ATOM     89  O   UNL A   1      40.743  19.582  27.990  1.00  0.00    -0.237 OA
ATOM     90  O   UNL A   1      39.429  20.380  26.063  1.00  0.00    -0.744 OA
ENDBRANCH  86  87
ENDBRANCH  54  79
BRANCH  66  91
ATOM     91  C   UNL A   1      47.702  28.339  27.120  1.00  0.00     0.058 A 
ATOM     92  C   UNL A   1      48.770  28.013  27.969  1.00  0.00     0.135 A 
ATOM     93  C   UNL A   1      47.933  28.282  25.734  1.00  0.00     0.135 A 
ATOM     94  F   UNL A   1      48.609  28.048  29.302  1.00  0.00    -0.206 F 
ATOM     95  C   UNL A   1      50.024  27.669  27.467  1.00  0.00     0.059 A 
ATOM     96  C   UNL A   1      49.167  27.911  25.209  1.00  0.00     0.059 A 
ATOM     97  F   UNL A   1      46.945  28.569  24.871  1.00  0.00    -0.206 F 
ATOM     98  C   UNL A   1      50.212  27.619  26.084  1.00  0.00     0.060 A 
BRANCH  98  99
ATOM     99  S   UNL A   1      51.832  27.143  25.444  1.00  0.00     0.124 S 
ATOM    100  O   UNL A   1      52.203  26.063  26.352  1.00  0.00    -0.237 OA
ATOM    101  O   UNL A   1      51.522  26.742  24.075  1.00  0.00    -0.237 OA
ATOM    102  O   UNL A   1      52.621  28.365  25.568  1.00  0.00    -0.744 OA
ENDBRANCH  98  99
ENDBRANCH  66  91
ENDBRANCH  40  41
ENDBRANCH  33  35
ENDBRANCH  32  33
ENDBRANCH  31  32
ENDBRANCH  30  31
ENDBRANCH  29  30
ENDBRANCH  28  29
ENDBRANCH   1  28
TORSDOF 24
ENDMDL
MODEL 3
REMARK VINA RESULT:      -9.2      1.556      8.234
REMARK SMILES CC1(C)CC[NH+](CC[C@H]2CCC[C@]2([NH3+])C(=O)OCCOCCOCCOC(=O)c2ccc(-c3c4nc(c(-c5c(F)cc(S(=O)(=O)[O-])cc5F)c5ccc([nH]5)c(-c5c(F)cc(S(=O)(=O)[O-])cc5F)c5nc(c(-c6c(F)cc(S(=O)(=O)[O-])cc6F)c6ccc3[nH]6)C=C5)C=C4)cc2)CC1
REMARK SMILES IDX 21 1 20 2 19 3 18 4 17 5 15 6 16 7 13 8 9 9 10 10 11 11
REMARK SMILES IDX 12 12 8 13 7 14 6 15 1 16 2 17 3 18 4 19 96 20 5 21 95 22
REMARK SMILES IDX 14 24 22 28 23 29 24 30 25 31 26 32 27 33 28 34 29 35 30 36
REMARK SMILES IDX 94 37 31 38 93 39 32 40 33 41 34 42 87 43 35 44 92 45 86 46
REMARK SMILES IDX 88 47 36 48 91 49 85 50 84 51 37 53 71 54 50 55 70 56 51 57
REMARK SMILES IDX 54 58 69 59 89 60 52 61 53 62 68 64 90 65 55 66 38 67 39 68
REMARK SMILES IDX 48 69 40 70 41 71 47 72 49 73 42 74 43 75 44 76 45 77 46 78
REMARK SMILES IDX 72 79 73 80 82 81 74 82 75 83 81 84 83 85 76 86 77 87 78 88
REMARK SMILES IDX 79 89 80 90 56 91 57 92 66 93 58 94 59 95 65 96 67 97 60 98
REMARK SMILES IDX 61 99 62 100 63 101 64 102
REMARK H PARENT 6 23 14 25 14 26 14 27 88 52 54 63
REMARK Flexibility Score: inf
ROOT
ATOM      1  C   UNL A   1      34.024  32.004  28.278  1.00  0.00     0.188 C 
ENDROOT
BRANCH   1   2
ATOM      2  O   UNL A   1      33.869  31.053  27.252  1.00  0.00    -0.376 OA
BRANCH   2   3
ATOM      3  C   UNL A   1      32.553  30.655  26.949  1.00  0.00     0.202 C 
BRANCH   3   4
ATOM      4  C   UNL A   1      32.096  29.185  26.912  1.00  0.00     0.261 C 
BRANCH   4   5
ATOM      5  O   UNL A   1      31.662  28.543  25.683  1.00  0.00    -0.459 OA
BRANCH   5   6
ATOM      6  C   UNL A   1      32.267  27.364  25.310  1.00  0.00     0.368 C 
ATOM      7  O   UNL A   1      33.424  27.350  24.895  1.00  0.00    -0.245 OA
BRANCH   6   8
ATOM      8  C   UNL A   1      31.337  26.042  25.411  1.00  0.00     0.195 C 
ATOM      9  C   UNL A   1      31.728  24.777  24.559  1.00  0.00     0.068 C 
ATOM     10  C   UNL A   1      30.665  24.774  23.422  1.00  0.00     0.011 C 
ATOM     11  C   UNL A   1      29.916  26.094  23.495  1.00  0.00     0.008 C 
ATOM     12  C   UNL A   1      29.926  26.448  24.953  1.00  0.00     0.081 C 
BRANCH   9  13
ATOM     13  C   UNL A   1      31.703  23.353  25.240  1.00  0.00     0.072 C 
BRANCH  13  14
ATOM     14  C   UNL A   1      32.421  22.133  24.584  1.00  0.00     0.262 C 
BRANCH  14  15
ATOM     15  N   UNL A   1      33.870  22.179  24.692  1.00  0.00    -0.335 N 
ATOM     16  C   UNL A   1      37.886  22.565  25.624  1.00  0.00     0.011 C 
ATOM     17  C   UNL A   1      36.681  21.796  25.060  1.00  0.00    -0.025 C 
ATOM     18  C   UNL A   1      37.260  20.365  24.808  1.00  0.00     0.011 C 
ATOM     19  C   UNL A   1      35.613  21.787  26.173  1.00  0.00     0.068 C 
ATOM     20  C   UNL A   1      36.135  22.373  23.709  1.00  0.00     0.068 C 
ATOM     21  C   UNL A   1      34.362  22.612  25.991  1.00  0.00     0.262 C 
ATOM     22  C   UNL A   1      34.658  22.878  23.677  1.00  0.00     0.262 C 
ATOM     23  H   UNL A   1      34.033  21.185  24.526  1.00  0.00     0.348 HD
ENDBRANCH  14  15
ENDBRANCH  13  14
ENDBRANCH   9  13
BRANCH   8  24
ATOM     24  N   UNL A   1      31.147  25.671  26.818  1.00  0.00    -0.343 N 
ATOM     25  H   UNL A   1      31.214  26.506  27.400  1.00  0.00     0.345 HD
ATOM     26  H   UNL A   1      31.868  25.005  27.094  1.00  0.00     0.345 HD
ATOM     27  H   UNL A   1      30.228  25.246  26.936  1.00  0.00     0.345 HD
ENDBRANCH   8  24
ENDBRANCH   6   8
ENDBRANCH   5   6
ENDBRANCH   4   5
ENDBRANCH   3   4
ENDBRANCH   2   3
ENDBRANCH   1   2
BRANCH   1  28
ATOM     28  C   UNL A   1      34.963  33.161  27.876  1.00  0.00     0.188 C 
BRANCH  28  29
ATOM     29  O   UNL A   1      35.049  34.311  28.698  1.00  0.00    -0.376 OA
BRANCH  29  30
ATOM     30  C   UNL A   1      34.339  34.273  29.928  1.00  0.00     0.202 C 
BRANCH  30  31
ATOM     31  C   UNL A   1      35.027  33.750  31.214  1.00  0.00     0.261 C 
BRANCH  31  32
ATOM     32  O   UNL A   1      35.269  32.324  31.294  1.00  0.00    -0.460 OA
BRANCH  32  33
ATOM     33  C   UNL A   1      36.279  31.919  32.116  1.00  0.00     0.338 C 
ATOM     34  O   UNL A   1      36.242  31.910  33.343  1.00  0.00    -0.246 OA
BRANCH  33  35
ATOM     35  C   UNL A   1      37.323  31.177  31.350  1.00  0.00     0.060 A 
ATOM     36  C   UNL A   1      38.166  30.307  32.062  1.00  0.00     0.016 A 
ATOM     37  C   UNL A   1      37.484  31.291  29.969  1.00  0.00     0.016 A 
ATOM     38  C   UNL A   1      39.150  29.551  31.414  1.00  0.00     0.010 A 
ATOM     39  C   UNL A   1      38.523  30.583  29.326  1.00  0.00     0.010 A 
ATOM     40  C   UNL A   1      39.377  29.724  30.047  1.00  0.00    -0.014 A 
BRANCH  40  41
ATOM     41  C   UNL A   1      40.704  29.312  29.502  1.00  0.00     0.031 A 
ATOM     42  C   UNL A   1      41.792  30.359  29.518  1.00  0.00     0.074 A 
ATOM     43  C   UNL A   1      41.007  28.061  29.100  1.00  0.00     0.049 A 
ATOM     44  N   UNL A   1      43.014  30.310  29.055  1.00  0.00    -0.248 NA
ATOM     45  C   UNL A   1      41.444  31.636  30.162  1.00  0.00     0.031 C 
ATOM     46  C   UNL A   1      40.121  26.901  29.166  1.00  0.00     0.029 A 
ATOM     47  N   UNL A   1      42.170  27.562  28.559  1.00  0.00    -0.354 N 
ATOM     48  C   UNL A   1      43.573  31.551  29.342  1.00  0.00     0.074 A 
ATOM     49  C   UNL A   1      42.552  32.335  30.000  1.00  0.00     0.031 C 
ATOM     50  C   UNL A   1      40.771  25.828  28.672  1.00  0.00     0.029 A 
ATOM     51  C   UNL A   1      42.102  26.231  28.214  1.00  0.00     0.049 A 
ATOM     52  H   UNL A   1      42.980  28.108  28.430  1.00  0.00     0.167 HD
ATOM     53  C   UNL A   1      44.820  32.009  29.082  1.00  0.00     0.037 A 
ATOM     54  C   UNL A   1      42.999  25.441  27.583  1.00  0.00     0.037 A 
ATOM     55  C   UNL A   1      45.832  31.248  28.402  1.00  0.00     0.049 A 
ATOM     56  C   UNL A   1      44.332  26.015  27.154  1.00  0.00     0.074 A 
ATOM     57  C   UNL A   1      47.106  31.644  28.037  1.00  0.00     0.029 A 
ATOM     58  N   UNL A   1      45.682  29.937  27.975  1.00  0.00    -0.354 N 
ATOM     59  N   UNL A   1      44.830  27.211  27.368  1.00  0.00    -0.248 NA
ATOM     60  C   UNL A   1      45.224  25.130  26.385  1.00  0.00     0.031 C 
ATOM     61  C   UNL A   1      47.707  30.590  27.338  1.00  0.00     0.029 A 
ATOM     62  C   UNL A   1      46.834  29.514  27.331  1.00  0.00     0.049 A 
ATOM     63  H   UNL A   1      44.876  29.387  28.110  1.00  0.00     0.167 HD
ATOM     64  C   UNL A   1      46.107  27.204  26.807  1.00  0.00     0.074 A 
ATOM     65  C   UNL A   1      46.303  25.889  26.237  1.00  0.00     0.031 C 
ATOM     66  C   UNL A   1      47.034  28.196  26.779  1.00  0.00     0.037 A 
BRANCH  53  67
ATOM     67  C   UNL A   1      45.110  33.433  29.470  1.00  0.00     0.058 A 
ATOM     68  C   UNL A   1      45.642  33.770  30.726  1.00  0.00     0.135 A 
ATOM     69  C   UNL A   1      44.788  34.481  28.592  1.00  0.00     0.135 A 
ATOM     70  F   UNL A   1      45.941  32.809  31.615  1.00  0.00    -0.206 F 
ATOM     71  C   UNL A   1      45.789  35.097  31.118  1.00  0.00     0.059 A 
ATOM     72  C   UNL A   1      44.961  35.813  28.950  1.00  0.00     0.059 A 
ATOM     73  F   UNL A   1      44.273  34.216  27.382  1.00  0.00    -0.206 F 
ATOM     74  C   UNL A   1      45.435  36.111  30.227  1.00  0.00     0.060 A 
BRANCH  74  75
ATOM     75  S   UNL A   1      45.576  37.826  30.770  1.00  0.00     0.124 S 
ATOM     76  O   UNL A   1      44.240  38.071  31.306  1.00  0.00    -0.237 OA
ATOM     77  O   UNL A   1      46.651  37.755  31.754  1.00  0.00    -0.237 OA
ATOM     78  O   UNL A   1      45.900  38.545  29.542  1.00  0.00    -0.744 OA
ENDBRANCH  74  75
ENDBRANCH  53  67
BRANCH  54  79
ATOM     79  C   UNL A   1      42.679  24.012  27.290  1.00  0.00     0.058 A 
ATOM     80  C   UNL A   1      42.893  23.009  28.249  1.00  0.00     0.135 A 
ATOM     81  C   UNL A   1      42.183  23.614  26.038  1.00  0.00     0.135 A 
ATOM     82  F   UNL A   1      43.397  23.327  29.451  1.00  0.00    -0.206 F 
ATOM     83  C   UNL A   1      42.630  21.668  27.979  1.00  0.00     0.059 A 
ATOM     84  C   UNL A   1      41.887  22.282  25.754  1.00  0.00     0.059 A 
ATOM     85  F   UNL A   1      41.973  24.526  25.077  1.00  0.00    -0.206 F 
ATOM     86  C   UNL A   1      42.117  21.314  26.731  1.00  0.00     0.060 A 
BRANCH  86  87
ATOM     87  S   UNL A   1      41.718  19.580  26.415  1.00  0.00     0.124 S 
ATOM     88  O   UNL A   1      40.301  19.657  26.082  1.00  0.00    -0.237 OA
ATOM     89  O   UNL A   1      42.616  19.257  25.310  1.00  0.00    -0.237 OA
ATOM     90  O   UNL A   1      42.034  18.925  27.682  1.00  0.00    -0.744 OA
ENDBRANCH  86  87
ENDBRANCH  54  79
BRANCH  66  91
ATOM     91  C   UNL A   1      48.382  27.891  26.174  1.00  0.00     0.058 A 
ATOM     92  C   UNL A   1      48.582  27.800  24.789  1.00  0.00     0.135 A 
ATOM     93  C   UNL A   1      49.509  27.754  27.004  1.00  0.00     0.135 A 
ATOM     94  F   UNL A   1      47.544  27.924  23.946  1.00  0.00    -0.206 F 
ATOM     95  C   UNL A   1      49.843  27.558  24.248  1.00  0.00     0.059 A 
ATOM     96  C   UNL A   1      50.783  27.543  26.485  1.00  0.00     0.059 A 
ATOM     97  F   UNL A   1      49.383  27.847  28.338  1.00  0.00    -0.206 F 
ATOM     98  C   UNL A   1      50.939  27.433  25.105  1.00  0.00     0.060 A 
BRANCH  98  99
ATOM     99  S   UNL A   1      52.573  27.149  24.391  1.00  0.00     0.124 S 
ATOM    100  O   UNL A   1      53.064  26.045  25.209  1.00  0.00    -0.237 OA
ATOM    101  O   UNL A   1      52.255  26.819  23.006  1.00  0.00    -0.237 OA
ATOM    102  O   UNL A   1      53.256  28.424  24.584  1.00  0.00    -0.744 OA
ENDBRANCH  98  99
ENDBRANCH  66  91
ENDBRANCH  40  41
ENDBRANCH  33  35
ENDBRANCH  32  33
ENDBRANCH  31  32
ENDBRANCH  30  31
ENDBRANCH  29  30
ENDBRANCH  28  29
ENDBRANCH   1  28
TORSDOF 24
ENDMDL
