MODEL 1
REMARK VINA RESULT:     -12.5      0.000      0.000
REMARK SMILES Cc1cccc(-n2ncc(C(=O)Nc3cccc(C(=O)OCCOCCOCCOC(=O)c4ccc(-c5c6nc(c(-c7c(F)cc(S(=O)(=O)[O-])cc7F)c7ccc([nH]7)c(-c7c(F)cc(S(=O)(=O)[O-])cc7F)c7nc(c(-c8c(F)cc(S(=O)(=O)[O-])cc8F)c8ccc5[nH]8)C=C7)C=C6)cc4)c3C)c2C)c1
REMARK SMILES IDX 25 1 24 2 23 3 22 4 21 5 19 6 20 7 18 8 14 9 15 10 99 11
REMARK SMILES IDX 16 12 100 13 17 14 13 15 11 16 12 17 10 19 7 20 8 21 101 22
REMARK SMILES IDX 9 23 102 24 6 25 1 26 2 27 3 28 103 29 4 30 5 31 26 32 27 33
REMARK SMILES IDX 28 34 29 35 30 36 31 37 32 38 33 39 34 40 98 41 35 42 97 43
REMARK SMILES IDX 36 44 37 45 38 46 91 47 39 48 96 49 90 50 92 51 40 52 95 53
REMARK SMILES IDX 89 54 88 55 41 57 75 58 54 59 74 60 55 61 58 62 73 63 93 64
REMARK SMILES IDX 56 65 57 66 72 68 94 69 59 70 42 71 43 72 52 73 44 74 45 75
REMARK SMILES IDX 51 76 53 77 46 78 47 79 48 80 49 81 50 82 76 83 77 84 86 85
REMARK SMILES IDX 78 86 79 87 85 88 87 89 80 90 81 91 82 92 83 93 84 94 60 95
REMARK SMILES IDX 61 96 70 97 62 98 63 99 69 100 71 101 64 102 65 103 66 104
REMARK SMILES IDX 67 105 68 106
REMARK H PARENT 13 18 92 56 58 67
REMARK Flexibility Score: inf
ROOT
ATOM      1  C   UNL A   1      34.062  33.822  28.503  1.00  0.00     0.188 C 
ENDROOT
BRANCH   1   2
ATOM      2  O   UNL A   1      34.567  32.592  28.032  1.00  0.00    -0.376 OA
BRANCH   2   3
ATOM      3  C   UNL A   1      33.640  31.560  27.633  1.00  0.00     0.202 C 
BRANCH   3   4
ATOM      4  C   UNL A   1      33.985  29.962  27.048  1.00  0.00     0.261 C 
BRANCH   4   5
ATOM      5  O   UNL A   1      33.367  29.078  25.563  1.00  0.00    -0.460 OA
BRANCH   5   6
ATOM      6  C   UNL A   1      33.356  27.908  24.584  1.00  0.00     0.338 C 
ATOM      7  O   UNL A   1      34.276  27.703  23.789  1.00  0.00    -0.246 OA
BRANCH   6   8
ATOM      8  C   UNL A   1      32.399  26.745  24.170  1.00  0.00     0.065 A 
ATOM      9  C   UNL A   1      30.650  25.116  24.720  1.00  0.00     0.045 A 
ATOM     10  C   UNL A   1      30.627  24.651  23.403  1.00  0.00     0.026 A 
ATOM     11  C   UNL A   1      31.425  26.245  25.085  1.00  0.00    -0.013 A 
ATOM     12  C   UNL A   1      31.610  25.073  22.535  1.00  0.00     0.003 A 
ATOM     13  C   UNL A   1      31.217  26.841  26.447  1.00  0.00     0.047 C 
ATOM     14  C   UNL A   1      32.567  25.976  22.997  1.00  0.00     0.016 A 
BRANCH   9  15
ATOM     15  N   UNL A   1      30.059  24.315  25.714  1.00  0.00    -0.322 N 
ATOM     16  C   UNL A   1      30.464  23.024  26.045  1.00  0.00     0.259 C 
ATOM     17  O   UNL A   1      29.765  22.356  26.808  1.00  0.00    -0.269 OA
ATOM     18  H   UNL A   1      29.300  24.695  26.213  1.00  0.00     0.170 HD
BRANCH  16  19
ATOM     19  C   UNL A   1      31.732  22.517  25.509  1.00  0.00     0.081 A 
ATOM     20  N   UNL A   1      33.866  21.969  25.191  1.00  0.00    -0.237 N 
ATOM     21  N   UNL A   1      33.195  21.359  24.199  1.00  0.00    -0.175 NA
ATOM     22  C   UNL A   1      33.028  22.769  25.958  1.00  0.00     0.054 A 
ATOM     23  C   UNL A   1      31.975  21.851  24.292  1.00  0.00     0.149 A 
ATOM     24  C   UNL A   1      33.488  23.869  26.842  1.00  0.00     0.068 C 
BRANCH  20  25
ATOM     25  C   UNL A   1      35.269  21.853  25.168  1.00  0.00     0.065 A 
ATOM     26  C   UNL A   1      38.066  24.198  26.166  1.00  0.00     0.044 C 
ATOM     27  C   UNL A   1      37.364  22.977  25.656  1.00  0.00    -0.049 A 
ATOM     28  C   UNL A   1      38.032  21.784  25.375  1.00  0.00     0.003 A 
ATOM     29  C   UNL A   1      35.985  23.011  25.507  1.00  0.00     0.031 A 
ATOM     30  C   UNL A   1      37.325  20.645  24.961  1.00  0.00     0.002 A 
ATOM     31  C   UNL A   1      35.931  20.668  24.869  1.00  0.00     0.028 A 
ENDBRANCH  20  25
ENDBRANCH  16  19
ENDBRANCH   9  15
ENDBRANCH   6   8
ENDBRANCH   5   6
ENDBRANCH   4   5
ENDBRANCH   3   4
ENDBRANCH   2   3
ENDBRANCH   1   2
BRANCH   1  32
ATOM     32  C   UNL A   1      34.003  34.282  29.982  1.00  0.00     0.188 C 
BRANCH  32  33
ATOM     33  O   UNL A   1      35.216  34.640  30.584  1.00  0.00    -0.376 OA
BRANCH  33  34
ATOM     34  C   UNL A   1      35.468  33.835  31.743  1.00  0.00     0.202 C 
BRANCH  34  35
ATOM     35  C   UNL A   1      34.933  32.322  31.769  1.00  0.00     0.261 C 
BRANCH  35  36
ATOM     36  O   UNL A   1      35.907  31.369  31.103  1.00  0.00    -0.460 OA
BRANCH  36  37
ATOM     37  C   UNL A   1      36.926  31.311  30.232  1.00  0.00     0.338 C 
ATOM     38  O   UNL A   1      37.612  32.286  29.906  1.00  0.00    -0.246 OA
BRANCH  37  39
ATOM     39  C   UNL A   1      37.082  30.107  29.258  1.00  0.00     0.060 A 
ATOM     40  C   UNL A   1      37.192  28.944  30.009  1.00  0.00     0.016 A 
ATOM     41  C   UNL A   1      37.986  30.078  28.212  1.00  0.00     0.016 A 
ATOM     42  C   UNL A   1      38.479  28.675  30.456  1.00  0.00     0.010 A 
ATOM     43  C   UNL A   1      39.197  29.447  28.444  1.00  0.00     0.010 A 
ATOM     44  C   UNL A   1      39.531  29.245  29.764  1.00  0.00    -0.014 A 
BRANCH  44  45
ATOM     45  C   UNL A   1      40.804  29.920  30.308  1.00  0.00     0.031 A 
ATOM     46  C   UNL A   1      40.356  30.968  31.693  1.00  0.00     0.074 A 
ATOM     47  C   UNL A   1      42.103  29.664  29.649  1.00  0.00     0.049 A 
ATOM     48  N   UNL A   1      40.802  32.196  31.812  1.00  0.00    -0.248 NA
ATOM     49  C   UNL A   1      39.428  30.829  32.836  1.00  0.00     0.031 C 
ATOM     50  C   UNL A   1      43.616  30.127  29.862  1.00  0.00     0.029 A 
ATOM     51  N   UNL A   1      42.403  28.881  28.520  1.00  0.00    -0.354 N 
ATOM     52  C   UNL A   1      40.537  32.890  32.922  1.00  0.00     0.074 A 
ATOM     53  C   UNL A   1      39.521  32.021  33.488  1.00  0.00     0.031 C 
ATOM     54  C   UNL A   1      44.527  29.676  29.025  1.00  0.00     0.029 A 
ATOM     55  C   UNL A   1      43.707  29.198  28.010  1.00  0.00     0.049 A 
ATOM     56  H   UNL A   1      41.800  28.205  28.134  1.00  0.00     0.167 HD
ATOM     57  C   UNL A   1      41.274  34.040  33.149  1.00  0.00     0.037 A 
ATOM     58  C   UNL A   1      43.947  29.687  26.780  1.00  0.00     0.037 A 
ATOM     59  C   UNL A   1      42.516  34.230  32.220  1.00  0.00     0.049 A 
ATOM     60  C   UNL A   1      44.121  31.330  26.836  1.00  0.00     0.074 A 
ATOM     61  C   UNL A   1      43.868  33.952  32.428  1.00  0.00     0.029 A 
ATOM     62  N   UNL A   1      42.503  34.591  30.846  1.00  0.00    -0.354 N 
ATOM     63  N   UNL A   1      44.279  32.088  27.941  1.00  0.00    -0.248 NA
ATOM     64  C   UNL A   1      44.078  32.209  25.665  1.00  0.00     0.031 C 
ATOM     65  C   UNL A   1      44.605  33.992  31.182  1.00  0.00     0.029 A 
ATOM     66  C   UNL A   1      43.763  34.356  30.145  1.00  0.00     0.049 A 
ATOM     67  H   UNL A   1      41.709  34.967  30.401  1.00  0.00     0.167 HD
ATOM     68  C   UNL A   1      44.143  33.481  27.688  1.00  0.00     0.074 A 
ATOM     69  C   UNL A   1      44.056  33.449  26.208  1.00  0.00     0.031 C 
ATOM     70  C   UNL A   1      43.946  34.570  28.610  1.00  0.00     0.037 A 
BRANCH  57  71
ATOM     71  C   UNL A   1      41.093  34.828  34.464  1.00  0.00     0.058 A 
ATOM     72  C   UNL A   1      42.177  35.089  35.329  1.00  0.00     0.135 A 
ATOM     73  C   UNL A   1      39.856  35.327  34.943  1.00  0.00     0.135 A 
ATOM     74  F   UNL A   1      43.435  34.800  34.972  1.00  0.00    -0.206 F 
ATOM     75  C   UNL A   1      42.028  35.659  36.606  1.00  0.00     0.059 A 
ATOM     76  C   UNL A   1      39.671  35.856  36.230  1.00  0.00     0.059 A 
ATOM     77  F   UNL A   1      38.770  35.369  34.159  1.00  0.00    -0.206 F 
ATOM     78  C   UNL A   1      40.764  36.002  37.067  1.00  0.00     0.060 A 
BRANCH  78  79
ATOM     79  S   UNL A   1      40.575  36.653  38.743  1.00  0.00     0.124 S 
ATOM     80  O   UNL A   1      39.273  37.311  38.670  1.00  0.00    -0.237 OA
ATOM     81  O   UNL A   1      40.631  35.443  39.555  1.00  0.00    -0.237 OA
ATOM     82  O   UNL A   1      41.715  37.555  38.892  1.00  0.00    -0.744 OA
ENDBRANCH  78  79
ENDBRANCH  57  71
BRANCH  58  83
ATOM     83  C   UNL A   1      43.593  28.409  25.991  1.00  0.00     0.058 A 
ATOM     84  C   UNL A   1      44.550  27.340  26.192  1.00  0.00     0.135 A 
ATOM     85  C   UNL A   1      42.273  27.923  25.863  1.00  0.00     0.135 A 
ATOM     86  F   UNL A   1      45.847  27.650  26.387  1.00  0.00    -0.206 F 
ATOM     87  C   UNL A   1      44.203  25.994  26.460  1.00  0.00     0.059 A 
ATOM     88  C   UNL A   1      41.909  26.539  26.057  1.00  0.00     0.059 A 
ATOM     89  F   UNL A   1      41.281  28.802  25.663  1.00  0.00    -0.206 F 
ATOM     90  C   UNL A   1      42.877  25.575  26.391  1.00  0.00     0.060 A 
BRANCH  90  91
ATOM     91  S   UNL A   1      42.567  23.740  26.721  1.00  0.00     0.124 S 
ATOM     92  O   UNL A   1      42.847  23.192  25.397  1.00  0.00    -0.237 OA
ATOM     93  O   UNL A   1      43.574  23.435  27.745  1.00  0.00    -0.237 OA
ATOM     94  O   UNL A   1      41.192  23.508  27.149  1.00  0.00    -0.744 OA
ENDBRANCH  90  91
ENDBRANCH  58  83
BRANCH  70  95
ATOM     95  C   UNL A   1      43.739  36.049  28.118  1.00  0.00     0.058 A 
ATOM     96  C   UNL A   1      44.684  37.074  28.311  1.00  0.00     0.135 A 
ATOM     97  C   UNL A   1      42.537  36.520  27.509  1.00  0.00     0.135 A 
ATOM     98  F   UNL A   1      45.748  36.889  29.108  1.00  0.00    -0.206 F 
ATOM     99  C   UNL A   1      44.551  38.368  27.778  1.00  0.00     0.059 A 
ATOM    100  C   UNL A   1      42.346  37.827  27.037  1.00  0.00     0.059 A 
ATOM    101  F   UNL A   1      41.452  35.752  27.365  1.00  0.00    -0.206 F 
ATOM    102  C   UNL A   1      43.379  38.736  27.131  1.00  0.00     0.060 A 
BRANCH 102 103
ATOM    103  S   UNL A   1      43.184  40.432  26.546  1.00  0.00     0.124 S 
ATOM    104  O   UNL A   1      44.248  40.539  25.551  1.00  0.00    -0.237 OA
ATOM    105  O   UNL A   1      41.825  40.414  26.016  1.00  0.00    -0.237 OA
ATOM    106  O   UNL A   1      43.377  41.240  27.746  1.00  0.00    -0.744 OA
ENDBRANCH 102 103
ENDBRANCH  70  95
ENDBRANCH  44  45
ENDBRANCH  37  39
ENDBRANCH  36  37
ENDBRANCH  35  36
ENDBRANCH  34  35
ENDBRANCH  33  34
ENDBRANCH  32  33
ENDBRANCH   1  32
TORSDOF 23
ENDMDL
MODEL 2
REMARK VINA RESULT:     -12.5      4.984     11.340
REMARK SMILES Cc1cccc(-n2ncc(C(=O)Nc3cccc(C(=O)OCCOCCOCCOC(=O)c4ccc(-c5c6nc(c(-c7c(F)cc(S(=O)(=O)[O-])cc7F)c7ccc([nH]7)c(-c7c(F)cc(S(=O)(=O)[O-])cc7F)c7nc(c(-c8c(F)cc(S(=O)(=O)[O-])cc8F)c8ccc5[nH]8)C=C7)C=C6)cc4)c3C)c2C)c1
REMARK SMILES IDX 25 1 24 2 23 3 22 4 21 5 19 6 20 7 18 8 14 9 15 10 99 11
REMARK SMILES IDX 16 12 100 13 17 14 13 15 11 16 12 17 10 19 7 20 8 21 101 22
REMARK SMILES IDX 9 23 102 24 6 25 1 26 2 27 3 28 103 29 4 30 5 31 26 32 27 33
REMARK SMILES IDX 28 34 29 35 30 36 31 37 32 38 33 39 34 40 98 41 35 42 97 43
REMARK SMILES IDX 36 44 37 45 38 46 91 47 39 48 96 49 90 50 92 51 40 52 95 53
REMARK SMILES IDX 89 54 88 55 41 57 75 58 54 59 74 60 55 61 58 62 73 63 93 64
REMARK SMILES IDX 56 65 57 66 72 68 94 69 59 70 42 71 43 72 52 73 44 74 45 75
REMARK SMILES IDX 51 76 53 77 46 78 47 79 48 80 49 81 50 82 76 83 77 84 86 85
REMARK SMILES IDX 78 86 79 87 85 88 87 89 80 90 81 91 82 92 83 93 84 94 60 95
REMARK SMILES IDX 61 96 70 97 62 98 63 99 69 100 71 101 64 102 65 103 66 104
REMARK SMILES IDX 67 105 68 106
REMARK H PARENT 13 18 92 56 58 67
REMARK Flexibility Score: inf
ROOT
ATOM      1  C   UNL A   1      40.160  22.021  26.945  1.00  0.00     0.188 C 
ENDROOT
BRANCH   1   2
ATOM      2  O   UNL A   1      39.009  22.642  26.415  1.00  0.00    -0.376 OA
BRANCH   2   3
ATOM      3  C   UNL A   1      38.275  21.979  25.364  1.00  0.00     0.202 C 
BRANCH   3   4
ATOM      4  C   UNL A   1      36.620  21.454  25.364  1.00  0.00     0.261 C 
BRANCH   4   5
ATOM      5  O   UNL A   1      35.101  22.304  25.945  1.00  0.00    -0.460 OA
BRANCH   5   6
ATOM      6  C   UNL A   1      33.592  22.402  26.150  1.00  0.00     0.338 C 
ATOM      7  O   UNL A   1      32.973  21.626  26.882  1.00  0.00    -0.246 OA
BRANCH   6   8
ATOM      8  C   UNL A   1      32.398  23.260  25.623  1.00  0.00     0.065 A 
ATOM      9  C   UNL A   1      31.103  24.213  23.772  1.00  0.00     0.045 A 
ATOM     10  C   UNL A   1      30.197  24.792  24.663  1.00  0.00     0.026 A 
ATOM     11  C   UNL A   1      32.121  23.338  24.225  1.00  0.00    -0.013 A 
ATOM     12  C   UNL A   1      30.497  24.785  26.008  1.00  0.00     0.003 A 
ATOM     13  C   UNL A   1      32.900  22.561  23.204  1.00  0.00     0.047 C 
ATOM     14  C   UNL A   1      31.675  24.169  26.428  1.00  0.00     0.016 A 
BRANCH   9  15
ATOM     15  N   UNL A   1      31.117  24.684  22.445  1.00  0.00    -0.322 N 
ATOM     16  C   UNL A   1      31.597  25.928  22.044  1.00  0.00     0.259 C 
ATOM     17  O   UNL A   1      31.400  26.300  20.887  1.00  0.00    -0.269 OA
ATOM     18  H   UNL A   1      30.759  24.089  21.748  1.00  0.00     0.170 HD
BRANCH  16  19
ATOM     19  C   UNL A   1      32.360  26.739  23.001  1.00  0.00     0.081 A 
ATOM     20  N   UNL A   1      32.985  28.085  24.660  1.00  0.00    -0.237 N 
ATOM     21  N   UNL A   1      34.128  27.571  24.174  1.00  0.00    -0.175 NA
ATOM     22  C   UNL A   1      31.886  27.683  23.911  1.00  0.00     0.054 A 
ATOM     23  C   UNL A   1      33.752  26.937  23.081  1.00  0.00     0.149 A 
ATOM     24  C   UNL A   1      30.569  28.368  23.909  1.00  0.00     0.068 C 
BRANCH  20  25
ATOM     25  C   UNL A   1      33.109  29.051  25.677  1.00  0.00     0.065 A 
ATOM     26  C   UNL A   1      35.852  29.847  28.158  1.00  0.00     0.044 C 
ATOM     27  C   UNL A   1      34.549  29.923  27.425  1.00  0.00    -0.049 A 
ATOM     28  C   UNL A   1      33.641  30.969  27.605  1.00  0.00     0.003 A 
ATOM     29  C   UNL A   1      34.250  28.946  26.487  1.00  0.00     0.031 A 
ATOM     30  C   UNL A   1      32.461  31.034  26.849  1.00  0.00     0.002 A 
ATOM     31  C   UNL A   1      32.193  30.080  25.865  1.00  0.00     0.028 A 
ENDBRANCH  20  25
ENDBRANCH  16  19
ENDBRANCH   9  15
ENDBRANCH   6   8
ENDBRANCH   5   6
ENDBRANCH   4   5
ENDBRANCH   3   4
ENDBRANCH   2   3
ENDBRANCH   1   2
BRANCH   1  32
ATOM     32  C   UNL A   1      41.405  21.565  26.143  1.00  0.00     0.188 C 
BRANCH  32  33
ATOM     33  O   UNL A   1      42.621  21.506  26.839  1.00  0.00    -0.376 OA
BRANCH  33  34
ATOM     34  C   UNL A   1      42.531  22.210  28.085  1.00  0.00     0.202 C 
BRANCH  34  35
ATOM     35  C   UNL A   1      43.399  23.544  28.287  1.00  0.00     0.261 C 
BRANCH  35  36
ATOM     36  O   UNL A   1      42.704  24.762  27.708  1.00  0.00    -0.460 OA
BRANCH  36  37
ATOM     37  C   UNL A   1      41.872  25.161  26.734  1.00  0.00     0.338 C 
ATOM     38  O   UNL A   1      42.223  25.362  25.566  1.00  0.00    -0.246 OA
BRANCH  37  39
ATOM     39  C   UNL A   1      40.486  25.784  27.068  1.00  0.00     0.060 A 
ATOM     40  C   UNL A   1      40.403  27.029  26.457  1.00  0.00     0.016 A 
ATOM     41  C   UNL A   1      39.963  25.852  28.346  1.00  0.00     0.016 A 
ATOM     42  C   UNL A   1      40.979  28.060  27.188  1.00  0.00     0.010 A 
ATOM     43  C   UNL A   1      40.141  27.040  29.036  1.00  0.00     0.010 A 
ATOM     44  C   UNL A   1      41.117  27.881  28.551  1.00  0.00    -0.014 A 
BRANCH  44  45
ATOM     45  C   UNL A   1      42.312  28.217  29.463  1.00  0.00     0.031 A 
ATOM     46  C   UNL A   1      43.824  27.706  28.644  1.00  0.00     0.074 A 
ATOM     47  C   UNL A   1      42.069  28.827  30.787  1.00  0.00     0.049 A 
ATOM     48  N   UNL A   1      44.761  27.031  29.267  1.00  0.00    -0.248 NA
ATOM     49  C   UNL A   1      44.320  27.774  27.253  1.00  0.00     0.031 C 
ATOM     50  C   UNL A   1      42.967  29.323  32.012  1.00  0.00     0.029 A 
ATOM     51  N   UNL A   1      40.858  29.156  31.421  1.00  0.00    -0.354 N 
ATOM     52  C   UNL A   1      45.918  26.782  28.648  1.00  0.00     0.074 A 
ATOM     53  C   UNL A   1      45.529  27.149  27.298  1.00  0.00     0.031 C 
ATOM     54  C   UNL A   1      42.357  29.818  33.068  1.00  0.00     0.029 A 
ATOM     55  C   UNL A   1      41.060  29.383  32.825  1.00  0.00     0.049 A 
ATOM     56  H   UNL A   1      39.989  29.222  30.963  1.00  0.00     0.167 HD
ATOM     57  C   UNL A   1      46.982  26.358  29.426  1.00  0.00     0.037 A 
ATOM     58  C   UNL A   1      40.488  28.661  33.805  1.00  0.00     0.037 A 
ATOM     59  C   UNL A   1      46.776  26.492  30.969  1.00  0.00     0.049 A 
ATOM     60  C   UNL A   1      41.532  27.504  34.355  1.00  0.00     0.074 A 
ATOM     61  C   UNL A   1      47.192  27.476  31.868  1.00  0.00     0.029 A 
ATOM     62  N   UNL A   1      45.942  25.685  31.789  1.00  0.00    -0.354 N 
ATOM     63  N   UNL A   1      42.854  27.419  34.094  1.00  0.00    -0.248 NA
ATOM     64  C   UNL A   1      41.143  26.359  35.181  1.00  0.00     0.031 C 
ATOM     65  C   UNL A   1      46.502  27.348  33.135  1.00  0.00     0.029 A 
ATOM     66  C   UNL A   1      45.668  26.244  33.110  1.00  0.00     0.049 A 
ATOM     67  H   UNL A   1      45.577  24.821  31.490  1.00  0.00     0.167 HD
ATOM     68  C   UNL A   1      43.425  26.180  34.494  1.00  0.00     0.074 A 
ATOM     69  C   UNL A   1      42.262  25.597  35.205  1.00  0.00     0.031 C 
ATOM     70  C   UNL A   1      44.688  25.589  34.135  1.00  0.00     0.037 A 
BRANCH  57  71
ATOM     71  C   UNL A   1      48.374  26.157  28.789  1.00  0.00     0.058 A 
ATOM     72  C   UNL A   1      49.446  27.036  29.055  1.00  0.00     0.135 A 
ATOM     73  C   UNL A   1      48.703  25.125  27.876  1.00  0.00     0.135 A 
ATOM     74  F   UNL A   1      49.347  27.989  29.990  1.00  0.00    -0.206 F 
ATOM     75  C   UNL A   1      50.676  26.983  28.376  1.00  0.00     0.059 A 
ATOM     76  C   UNL A   1      49.904  25.076  27.150  1.00  0.00     0.059 A 
ATOM     77  F   UNL A   1      47.888  24.080  27.680  1.00  0.00    -0.206 F 
ATOM     78  C   UNL A   1      50.883  26.024  27.392  1.00  0.00     0.060 A 
BRANCH  78  79
ATOM     79  S   UNL A   1      52.435  26.021  26.465  1.00  0.00     0.124 S 
ATOM     80  O   UNL A   1      52.327  24.785  25.694  1.00  0.00    -0.237 OA
ATOM     81  O   UNL A   1      52.343  27.258  25.699  1.00  0.00    -0.237 OA
ATOM     82  O   UNL A   1      53.458  26.010  27.508  1.00  0.00    -0.744 OA
ENDBRANCH  78  79
ENDBRANCH  57  71
BRANCH  58  83
ATOM     83  C   UNL A   1      39.044  29.167  33.600  1.00  0.00     0.058 A 
ATOM     84  C   UNL A   1      38.887  30.569  33.927  1.00  0.00     0.135 A 
ATOM     85  C   UNL A   1      38.242  28.783  32.502  1.00  0.00     0.135 A 
ATOM     86  F   UNL A   1      39.631  31.099  34.918  1.00  0.00    -0.206 F 
ATOM     87  C   UNL A   1      38.200  31.507  33.119  1.00  0.00     0.059 A 
ATOM     88  C   UNL A   1      37.472  29.715  31.713  1.00  0.00     0.059 A 
ATOM     89  F   UNL A   1      38.279  27.507  32.094  1.00  0.00    -0.206 F 
ATOM     90  C   UNL A   1      37.479  31.091  32.004  1.00  0.00     0.060 A 
BRANCH  90  91
ATOM     91  S   UNL A   1      36.567  32.444  31.050  1.00  0.00     0.124 S 
ATOM     92  O   UNL A   1      36.516  33.485  32.072  1.00  0.00    -0.237 OA
ATOM     93  O   UNL A   1      37.486  32.711  29.937  1.00  0.00    -0.237 OA
ATOM     94  O   UNL A   1      35.243  31.994  30.636  1.00  0.00    -0.744 OA
ENDBRANCH  90  91
ENDBRANCH  58  83
BRANCH  70  95
ATOM     95  C   UNL A   1      45.107  24.155  34.627  1.00  0.00     0.058 A 
ATOM     96  C   UNL A   1      46.241  23.905  35.423  1.00  0.00     0.135 A 
ATOM     97  C   UNL A   1      44.432  22.958  34.243  1.00  0.00     0.135 A 
ATOM     98  F   UNL A   1      47.151  24.865  35.647  1.00  0.00    -0.206 F 
ATOM     99  C   UNL A   1      46.556  22.643  35.955  1.00  0.00     0.059 A 
ATOM    100  C   UNL A   1      44.771  21.675  34.697  1.00  0.00     0.059 A 
ATOM    101  F   UNL A   1      43.418  22.949  33.372  1.00  0.00    -0.206 F 
ATOM    102  C   UNL A   1      45.809  21.530  35.594  1.00  0.00     0.060 A 
BRANCH 102 103
ATOM    103  S   UNL A   1      46.292  19.901  36.204  1.00  0.00     0.124 S 
ATOM    104  O   UNL A   1      45.658  19.864  37.520  1.00  0.00    -0.237 OA
ATOM    105  O   UNL A   1      45.710  19.018  35.200  1.00  0.00    -0.237 OA
ATOM    106  O   UNL A   1      47.751  19.953  36.222  1.00  0.00    -0.744 OA
ENDBRANCH 102 103
ENDBRANCH  70  95
ENDBRANCH  44  45
ENDBRANCH  37  39
ENDBRANCH  36  37
ENDBRANCH  35  36
ENDBRANCH  34  35
ENDBRANCH  33  34
ENDBRANCH  32  33
ENDBRANCH   1  32
TORSDOF 23
ENDMDL
MODEL 3
REMARK VINA RESULT:     -12.4      1.990      4.017
REMARK SMILES Cc1cccc(-n2ncc(C(=O)Nc3cccc(C(=O)OCCOCCOCCOC(=O)c4ccc(-c5c6nc(c(-c7c(F)cc(S(=O)(=O)[O-])cc7F)c7ccc([nH]7)c(-c7c(F)cc(S(=O)(=O)[O-])cc7F)c7nc(c(-c8c(F)cc(S(=O)(=O)[O-])cc8F)c8ccc5[nH]8)C=C7)C=C6)cc4)c3C)c2C)c1
REMARK SMILES IDX 25 1 24 2 23 3 22 4 21 5 19 6 20 7 18 8 14 9 15 10 99 11
REMARK SMILES IDX 16 12 100 13 17 14 13 15 11 16 12 17 10 19 7 20 8 21 101 22
REMARK SMILES IDX 9 23 102 24 6 25 1 26 2 27 3 28 103 29 4 30 5 31 26 32 27 33
REMARK SMILES IDX 28 34 29 35 30 36 31 37 32 38 33 39 34 40 98 41 35 42 97 43
REMARK SMILES IDX 36 44 37 45 38 46 91 47 39 48 96 49 90 50 92 51 40 52 95 53
REMARK SMILES IDX 89 54 88 55 41 57 75 58 54 59 74 60 55 61 58 62 73 63 93 64
REMARK SMILES IDX 56 65 57 66 72 68 94 69 59 70 42 71 43 72 52 73 44 74 45 75
REMARK SMILES IDX 51 76 53 77 46 78 47 79 48 80 49 81 50 82 76 83 77 84 86 85
REMARK SMILES IDX 78 86 79 87 85 88 87 89 80 90 81 91 82 92 83 93 84 94 60 95
REMARK SMILES IDX 61 96 70 97 62 98 63 99 69 100 71 101 64 102 65 103 66 104
REMARK SMILES IDX 67 105 68 106
REMARK H PARENT 13 18 92 56 58 67
REMARK Flexibility Score: inf
ROOT
ATOM      1  C   UNL A   1      33.938  34.663  29.354  1.00  0.00     0.188 C 
ENDROOT
BRANCH   1   2
ATOM      2  O   UNL A   1      34.316  33.765  28.333  1.00  0.00    -0.376 OA
BRANCH   2   3
ATOM      3  C   UNL A   1      33.942  32.376  28.446  1.00  0.00     0.202 C 
BRANCH   3   4
ATOM      4  C   UNL A   1      34.456  31.033  27.473  1.00  0.00     0.261 C 
BRANCH   4   5
ATOM      5  O   UNL A   1      33.775  29.335  27.331  1.00  0.00    -0.460 OA
BRANCH   5   6
ATOM      6  C   UNL A   1      32.627  28.334  27.247  1.00  0.00     0.338 C 
ATOM      7  O   UNL A   1      31.590  28.461  27.902  1.00  0.00    -0.246 OA
BRANCH   6   8
ATOM      8  C   UNL A   1      32.312  26.981  26.532  1.00  0.00     0.065 A 
ATOM      9  C   UNL A   1      32.679  25.395  24.699  1.00  0.00     0.045 A 
ATOM     10  C   UNL A   1      31.765  24.496  25.253  1.00  0.00     0.026 A 
ATOM     11  C   UNL A   1      33.063  26.570  25.391  1.00  0.00    -0.013 A 
ATOM     12  C   UNL A   1      30.984  24.913  26.308  1.00  0.00     0.003 A 
ATOM     13  C   UNL A   1      34.223  27.361  24.861  1.00  0.00     0.047 C 
ATOM     14  C   UNL A   1      31.163  26.204  26.804  1.00  0.00     0.016 A 
BRANCH   9  15
ATOM     15  N   UNL A   1      33.046  25.217  23.352  1.00  0.00    -0.322 N 
ATOM     16  C   UNL A   1      32.352  25.733  22.260  1.00  0.00     0.259 C 
ATOM     17  O   UNL A   1      32.666  25.369  21.126  1.00  0.00    -0.269 OA
ATOM     18  H   UNL A   1      33.855  24.687  23.167  1.00  0.00     0.170 HD
BRANCH  16  19
ATOM     19  C   UNL A   1      31.296  26.725  22.492  1.00  0.00     0.081 A 
ATOM     20  N   UNL A   1      30.090  28.592  22.615  1.00  0.00    -0.237 N 
ATOM     21  N   UNL A   1      29.242  27.603  22.946  1.00  0.00    -0.175 NA
ATOM     22  C   UNL A   1      31.381  28.116  22.427  1.00  0.00     0.054 A 
ATOM     23  C   UNL A   1      30.018  26.543  23.055  1.00  0.00     0.149 A 
ATOM     24  C   UNL A   1      32.605  28.955  22.463  1.00  0.00     0.068 C 
BRANCH  20  25
ATOM     25  C   UNL A   1      29.592  29.906  22.702  1.00  0.00     0.065 A 
ATOM     26  C   UNL A   1      27.965  32.219  20.189  1.00  0.00     0.044 C 
ATOM     27  C   UNL A   1      28.532  31.715  21.480  1.00  0.00    -0.049 A 
ATOM     28  C   UNL A   1      28.398  32.407  22.685  1.00  0.00     0.003 A 
ATOM     29  C   UNL A   1      29.169  30.483  21.496  1.00  0.00     0.031 A 
ATOM     30  C   UNL A   1      28.889  31.866  23.883  1.00  0.00     0.002 A 
ATOM     31  C   UNL A   1      29.477  30.599  23.902  1.00  0.00     0.028 A 
ENDBRANCH  20  25
ENDBRANCH  16  19
ENDBRANCH   9  15
ENDBRANCH   6   8
ENDBRANCH   5   6
ENDBRANCH   4   5
ENDBRANCH   3   4
ENDBRANCH   2   3
ENDBRANCH   1   2
BRANCH   1  32
ATOM     32  C   UNL A   1      34.258  34.521  30.863  1.00  0.00     0.188 C 
BRANCH  32  33
ATOM     33  O   UNL A   1      35.612  34.478  31.223  1.00  0.00    -0.376 OA
BRANCH  33  34
ATOM     34  C   UNL A   1      35.847  33.458  32.204  1.00  0.00     0.202 C 
BRANCH  34  35
ATOM     35  C   UNL A   1      35.189  32.010  31.991  1.00  0.00     0.261 C 
BRANCH  35  36
ATOM     36  O   UNL A   1      36.064  31.115  31.133  1.00  0.00    -0.460 OA
BRANCH  36  37
ATOM     37  C   UNL A   1      37.000  31.132  30.173  1.00  0.00     0.338 C 
ATOM     38  O   UNL A   1      37.554  32.160  29.767  1.00  0.00    -0.246 OA
BRANCH  37  39
ATOM     39  C   UNL A   1      37.187  29.922  29.212  1.00  0.00     0.060 A 
ATOM     40  C   UNL A   1      37.298  28.767  29.974  1.00  0.00     0.016 A 
ATOM     41  C   UNL A   1      38.108  29.896  28.180  1.00  0.00     0.016 A 
ATOM     42  C   UNL A   1      38.581  28.517  30.444  1.00  0.00     0.010 A 
ATOM     43  C   UNL A   1      39.322  29.281  28.438  1.00  0.00     0.010 A 
ATOM     44  C   UNL A   1      39.637  29.094  29.764  1.00  0.00    -0.014 A 
BRANCH  44  45
ATOM     45  C   UNL A   1      40.893  29.789  30.323  1.00  0.00     0.031 A 
ATOM     46  C   UNL A   1      40.415  30.812  31.718  1.00  0.00     0.074 A 
ATOM     47  C   UNL A   1      42.200  29.567  29.669  1.00  0.00     0.049 A 
ATOM     48  N   UNL A   1      40.835  32.047  31.852  1.00  0.00    -0.248 NA
ATOM     49  C   UNL A   1      39.484  30.641  32.853  1.00  0.00     0.031 C 
ATOM     50  C   UNL A   1      43.703  30.059  29.896  1.00  0.00     0.029 A 
ATOM     51  N   UNL A   1      42.523  28.803  28.534  1.00  0.00    -0.354 N 
ATOM     52  C   UNL A   1      40.550  32.723  32.969  1.00  0.00     0.074 A 
ATOM     53  C   UNL A   1      39.549  31.827  33.519  1.00  0.00     0.031 C 
ATOM     54  C   UNL A   1      44.627  29.636  29.060  1.00  0.00     0.029 A 
ATOM     55  C   UNL A   1      43.823  29.153  28.035  1.00  0.00     0.049 A 
ATOM     56  H   UNL A   1      41.936  28.120  28.136  1.00  0.00     0.167 HD
ATOM     57  C   UNL A   1      41.262  33.885  33.213  1.00  0.00     0.037 A 
ATOM     58  C   UNL A   1      44.060  29.660  26.812  1.00  0.00     0.037 A 
ATOM     59  C   UNL A   1      42.505  34.111  32.294  1.00  0.00     0.049 A 
ATOM     60  C   UNL A   1      44.200  31.305  26.887  1.00  0.00     0.074 A 
ATOM     61  C   UNL A   1      43.862  33.859  32.506  1.00  0.00     0.029 A 
ATOM     62  N   UNL A   1      42.492  34.487  30.923  1.00  0.00    -0.354 N 
ATOM     63  N   UNL A   1      44.336  32.054  28.001  1.00  0.00    -0.248 NA
ATOM     64  C   UNL A   1      44.146  32.196  25.726  1.00  0.00     0.031 C 
ATOM     65  C   UNL A   1      44.605  33.928  31.265  1.00  0.00     0.029 A 
ATOM     66  C   UNL A   1      43.761  34.286  30.228  1.00  0.00     0.049 A 
ATOM     67  H   UNL A   1      41.693  34.852  30.478  1.00  0.00     0.167 HD
ATOM     68  C   UNL A   1      44.173  33.447  27.763  1.00  0.00     0.074 A 
ATOM     69  C   UNL A   1      44.095  33.430  26.283  1.00  0.00     0.031 C 
ATOM     70  C   UNL A   1      43.948  34.521  28.696  1.00  0.00     0.037 A 
BRANCH  57  71
ATOM     71  C   UNL A   1      41.057  34.654  34.535  1.00  0.00     0.058 A 
ATOM     72  C   UNL A   1      42.110  34.842  35.456  1.00  0.00     0.135 A 
ATOM     73  C   UNL A   1      39.825  35.206  34.966  1.00  0.00     0.135 A 
ATOM     74  F   UNL A   1      43.368  34.497  35.153  1.00  0.00    -0.206 F 
ATOM     75  C   UNL A   1      41.928  35.393  36.737  1.00  0.00     0.059 A 
ATOM     76  C   UNL A   1      39.605  35.718  36.255  1.00  0.00     0.059 A 
ATOM     77  F   UNL A   1      38.782  35.319  34.134  1.00  0.00    -0.206 F 
ATOM     78  C   UNL A   1      40.662  35.791  37.146  1.00  0.00     0.060 A 
BRANCH  78  79
ATOM     79  S   UNL A   1      40.425  36.416  38.826  1.00  0.00     0.124 S 
ATOM     80  O   UNL A   1      39.871  35.251  39.510  1.00  0.00    -0.237 OA
ATOM     81  O   UNL A   1      41.779  36.795  39.211  1.00  0.00    -0.237 OA
ATOM     82  O   UNL A   1      39.494  37.528  38.650  1.00  0.00    -0.744 OA
ENDBRANCH  78  79
ENDBRANCH  57  71
BRANCH  58  83
ATOM     83  C   UNL A   1      43.737  28.384  26.006  1.00  0.00     0.058 A 
ATOM     84  C   UNL A   1      44.583  27.263  26.364  1.00  0.00     0.135 A 
ATOM     85  C   UNL A   1      42.419  27.979  25.701  1.00  0.00     0.135 A 
ATOM     86  F   UNL A   1      45.856  27.496  26.737  1.00  0.00    -0.206 F 
ATOM     87  C   UNL A   1      44.112  25.950  26.607  1.00  0.00     0.059 A 
ATOM     88  C   UNL A   1      41.940  26.627  25.869  1.00  0.00     0.059 A 
ATOM     89  F   UNL A   1      41.527  28.912  25.343  1.00  0.00    -0.206 F 
ATOM     90  C   UNL A   1      42.784  25.614  26.357  1.00  0.00     0.060 A 
BRANCH  90  91
ATOM     91  S   UNL A   1      42.309  23.813  26.676  1.00  0.00     0.124 S 
ATOM     92  O   UNL A   1      43.136  23.534  27.846  1.00  0.00    -0.237 OA
ATOM     93  O   UNL A   1      40.869  23.915  26.944  1.00  0.00    -0.237 OA
ATOM     94  O   UNL A   1      42.645  22.971  25.533  1.00  0.00    -0.744 OA
ENDBRANCH  90  91
ENDBRANCH  58  83
BRANCH  70  95
ATOM     95  C   UNL A   1      43.713  36.001  28.219  1.00  0.00     0.058 A 
ATOM     96  C   UNL A   1      44.737  36.964  28.135  1.00  0.00     0.135 A 
ATOM     97  C   UNL A   1      42.428  36.539  27.912  1.00  0.00     0.135 A 
ATOM     98  F   UNL A   1      45.953  36.724  28.649  1.00  0.00    -0.206 F 
ATOM     99  C   UNL A   1      44.552  38.254  27.607  1.00  0.00     0.059 A 
ATOM    100  C   UNL A   1      42.204  37.847  27.456  1.00  0.00     0.059 A 
ATOM    101  F   UNL A   1      41.298  35.843  28.068  1.00  0.00    -0.206 F 
ATOM    102  C   UNL A   1      43.280  38.687  27.259  1.00  0.00     0.060 A 
BRANCH 102 103
ATOM    103  S   UNL A   1      43.046  40.381  26.682  1.00  0.00     0.124 S 
ATOM    104  O   UNL A   1      41.680  40.344  26.164  1.00  0.00    -0.237 OA
ATOM    105  O   UNL A   1      43.234  41.147  27.909  1.00  0.00    -0.237 OA
ATOM    106  O   UNL A   1      44.085  40.552  25.671  1.00  0.00    -0.744 OA
ENDBRANCH 102 103
ENDBRANCH  70  95
ENDBRANCH  44  45
ENDBRANCH  37  39
ENDBRANCH  36  37
ENDBRANCH  35  36
ENDBRANCH  34  35
ENDBRANCH  33  34
ENDBRANCH  32  33
ENDBRANCH   1  32
TORSDOF 23
ENDMDL
