MODEL 1
REMARK VINA RESULT:      -8.9      0.000      0.000
REMARK SMILES CN(CC(N)=O)C(=O)Cn1cccc1C(=O)OCCOCCOCCOC(=O)c1ccc(-c2c3nc(c(-c4c(F)cc(S(=O)(=O)[O-])cc4F)c4ccc([nH]4)c(-c4c(F)cc(S(=O)(=O)[O-])cc4F)c4nc(c(-c5c(F)cc(S(=O)(=O)[O-])cc5F)c5ccc2[nH]5)C=C4)C=C3)cc1
REMARK SMILES IDX 21 1 20 2 19 3 18 4 17 5 15 6 16 7 14 8 10 9 11 10 12 11
REMARK SMILES IDX 13 12 9 13 7 14 8 15 2 16 1 17 3 18 4 19 5 20 6 21 22 24
REMARK SMILES IDX 23 25 24 26 25 27 26 28 27 29 28 30 29 31 30 32 94 33 31 34
REMARK SMILES IDX 93 35 32 36 33 37 34 38 87 39 35 40 92 41 86 42 88 43 36 44
REMARK SMILES IDX 91 45 85 46 84 47 37 49 71 50 50 51 70 52 51 53 54 54 69 55
REMARK SMILES IDX 89 56 52 57 53 58 68 60 90 61 55 62 38 63 39 64 48 65 40 66
REMARK SMILES IDX 41 67 47 68 49 69 42 70 43 71 44 72 45 73 46 74 72 75 73 76
REMARK SMILES IDX 82 77 74 78 75 79 81 80 83 81 76 82 77 83 78 84 79 85 80 86
REMARK SMILES IDX 56 87 57 88 66 89 58 90 59 91 65 92 67 93 60 94 61 95 62 96
REMARK SMILES IDX 63 97 64 98
REMARK H PARENT 5 22 5 23 88 48 54 59
REMARK Flexibility Score: inf
ROOT
ATOM      1  C   UNL A   1      33.499  29.118  25.973  1.00  0.00     0.188 C 
ENDROOT
BRANCH   1   2
ATOM      2  O   UNL A   1      32.131  28.945  26.331  1.00  0.00    -0.376 OA
BRANCH   2   3
ATOM      3  C   UNL A   1      31.398  28.072  25.476  1.00  0.00     0.202 C 
BRANCH   3   4
ATOM      4  C   UNL A   1      31.107  28.696  24.113  1.00  0.00     0.261 C 
BRANCH   4   5
ATOM      5  O   UNL A   1      31.289  27.712  23.077  1.00  0.00    -0.459 OA
BRANCH   5   6
ATOM      6  C   UNL A   1      32.547  27.557  22.600  1.00  0.00     0.355 C 
ATOM      7  O   UNL A   1      33.390  28.454  22.547  1.00  0.00    -0.244 OA
BRANCH   6   8
ATOM      8  C   UNL A   1      32.844  26.154  22.388  1.00  0.00     0.128 A 
ATOM      9  N   UNL A   1      33.597  25.254  23.125  1.00  0.00    -0.333 N 
ATOM     10  C   UNL A   1      33.556  24.016  22.497  1.00  0.00     0.087 A 
ATOM     11  C   UNL A   1      32.838  24.125  21.336  1.00  0.00     0.020 A 
ATOM     12  C   UNL A   1      32.387  25.455  21.272  1.00  0.00     0.035 A 
BRANCH   9  13
ATOM     13  C   UNL A   1      34.275  25.364  24.419  1.00  0.00     0.222 C 
BRANCH  13  14
ATOM     14  C   UNL A   1      34.801  24.126  25.099  1.00  0.00     0.242 C 
ATOM     15  O   UNL A   1      34.013  23.388  25.700  1.00  0.00    -0.273 OA
BRANCH  14  16
ATOM     16  N   UNL A   1      36.138  23.802  24.945  1.00  0.00    -0.335 N 
ATOM     17  C   UNL A   1      36.601  23.241  23.684  1.00  0.00     0.147 C 
BRANCH  16  18
ATOM     18  C   UNL A   1      37.104  23.794  26.039  1.00  0.00     0.218 C 
BRANCH  18  19
ATOM     19  C   UNL A   1      38.286  22.835  26.003  1.00  0.00     0.237 C 
ATOM     20  N   UNL A   1      39.509  23.436  26.132  1.00  0.00    -0.368 N 
ATOM     21  O   UNL A   1      38.173  21.616  25.926  1.00  0.00    -0.273 OA
ATOM     22  H   UNL A   1      39.571  24.416  26.194  1.00  0.00     0.159 HD
ATOM     23  H   UNL A   1      40.326  22.887  26.165  1.00  0.00     0.159 HD
ENDBRANCH  18  19
ENDBRANCH  16  18
ENDBRANCH  14  16
ENDBRANCH  13  14
ENDBRANCH   9  13
ENDBRANCH   6   8
ENDBRANCH   5   6
ENDBRANCH   4   5
ENDBRANCH   3   4
ENDBRANCH   2   3
ENDBRANCH   1   2
BRANCH   1  24
ATOM     24  C   UNL A   1      34.306  29.809  27.063  1.00  0.00     0.188 C 
BRANCH  24  25
ATOM     25  O   UNL A   1      33.516  30.788  27.754  1.00  0.00    -0.376 OA
BRANCH  25  26
ATOM     26  C   UNL A   1      33.901  32.167  27.649  1.00  0.00     0.202 C 
BRANCH  26  27
ATOM     27  C   UNL A   1      34.110  32.923  28.951  1.00  0.00     0.261 C 
BRANCH  27  28
ATOM     28  O   UNL A   1      35.415  32.700  29.401  1.00  0.00    -0.460 OA
BRANCH  28  29
ATOM     29  C   UNL A   1      35.490  31.895  30.480  1.00  0.00     0.338 C 
ATOM     30  O   UNL A   1      34.970  32.034  31.580  1.00  0.00    -0.246 OA
BRANCH  29  31
ATOM     31  C   UNL A   1      36.360  30.791  30.097  1.00  0.00     0.060 A 
ATOM     32  C   UNL A   1      36.594  29.823  31.074  1.00  0.00     0.016 A 
ATOM     33  C   UNL A   1      37.237  31.071  29.047  1.00  0.00     0.016 A 
ATOM     34  C   UNL A   1      37.873  29.359  31.177  1.00  0.00     0.010 A 
ATOM     35  C   UNL A   1      38.539  30.793  29.279  1.00  0.00     0.010 A 
ATOM     36  C   UNL A   1      38.833  29.942  30.342  1.00  0.00    -0.014 A 
BRANCH  36  37
ATOM     37  C   UNL A   1      40.209  29.524  30.466  1.00  0.00     0.031 A 
ATOM     38  C   UNL A   1      40.958  30.671  31.188  1.00  0.00     0.074 A 
ATOM     39  C   UNL A   1      40.449  28.303  29.889  1.00  0.00     0.049 A 
ATOM     40  N   UNL A   1      42.139  31.143  30.964  1.00  0.00    -0.248 NA
ATOM     41  C   UNL A   1      40.249  31.538  32.193  1.00  0.00     0.031 C 
ATOM     42  C   UNL A   1      39.432  27.403  29.266  1.00  0.00     0.029 A 
ATOM     43  N   UNL A   1      41.579  27.555  29.700  1.00  0.00    -0.354 N 
ATOM     44  C   UNL A   1      42.393  32.122  31.948  1.00  0.00     0.074 A 
ATOM     45  C   UNL A   1      41.140  32.470  32.524  1.00  0.00     0.031 C 
ATOM     46  C   UNL A   1      40.014  26.326  28.685  1.00  0.00     0.029 A 
ATOM     47  C   UNL A   1      41.446  26.390  28.891  1.00  0.00     0.049 A 
ATOM     48  H   UNL A   1      42.440  27.809  30.103  1.00  0.00     0.167 HD
ATOM     49  C   UNL A   1      43.651  32.418  32.381  1.00  0.00     0.037 A 
ATOM     50  C   UNL A   1      42.453  25.601  28.389  1.00  0.00     0.037 A 
ATOM     51  C   UNL A   1      44.578  31.582  31.689  1.00  0.00     0.049 A 
ATOM     52  C   UNL A   1      43.664  26.183  28.992  1.00  0.00     0.074 A 
ATOM     53  C   UNL A   1      44.974  31.586  30.376  1.00  0.00     0.029 A 
ATOM     54  N   UNL A   1      44.793  30.333  32.234  1.00  0.00    -0.354 N 
ATOM     55  N   UNL A   1      43.987  26.098  30.249  1.00  0.00    -0.248 NA
ATOM     56  C   UNL A   1      44.469  27.094  28.169  1.00  0.00     0.031 C 
ATOM     57  C   UNL A   1      44.916  30.220  30.038  1.00  0.00     0.029 A 
ATOM     58  C   UNL A   1      44.836  29.435  31.196  1.00  0.00     0.049 A 
ATOM     59  H   UNL A   1      44.897  30.125  33.190  1.00  0.00     0.167 HD
ATOM     60  C   UNL A   1      44.808  27.187  30.417  1.00  0.00     0.074 A 
ATOM     61  C   UNL A   1      45.304  27.538  29.102  1.00  0.00     0.031 C 
ATOM     62  C   UNL A   1      44.621  28.031  31.468  1.00  0.00     0.037 A 
BRANCH  49  63
ATOM     63  C   UNL A   1      44.162  33.178  33.564  1.00  0.00     0.058 A 
ATOM     64  C   UNL A   1      43.844  32.656  34.840  1.00  0.00     0.135 A 
ATOM     65  C   UNL A   1      44.623  34.502  33.527  1.00  0.00     0.135 A 
ATOM     66  F   UNL A   1      43.470  31.374  34.983  1.00  0.00    -0.206 F 
ATOM     67  C   UNL A   1      43.821  33.443  35.981  1.00  0.00     0.059 A 
ATOM     68  C   UNL A   1      44.657  35.299  34.675  1.00  0.00     0.059 A 
ATOM     69  F   UNL A   1      44.971  35.087  32.373  1.00  0.00    -0.206 F 
ATOM     70  C   UNL A   1      44.198  34.776  35.882  1.00  0.00     0.060 A 
BRANCH  70  71
ATOM     71  S   UNL A   1      44.037  35.808  37.351  1.00  0.00     0.124 S 
ATOM     72  O   UNL A   1      44.443  37.113  36.842  1.00  0.00    -0.237 OA
ATOM     73  O   UNL A   1      42.619  35.665  37.670  1.00  0.00    -0.237 OA
ATOM     74  O   UNL A   1      44.952  35.183  38.301  1.00  0.00    -0.744 OA
ENDBRANCH  70  71
ENDBRANCH  49  63
BRANCH  50  75
ATOM     75  C   UNL A   1      42.671  24.524  27.337  1.00  0.00     0.058 A 
ATOM     76  C   UNL A   1      42.924  24.712  25.973  1.00  0.00     0.135 A 
ATOM     77  C   UNL A   1      42.745  23.159  27.748  1.00  0.00     0.135 A 
ATOM     78  F   UNL A   1      42.745  25.911  25.402  1.00  0.00    -0.206 F 
ATOM     79  C   UNL A   1      43.379  23.664  25.135  1.00  0.00     0.059 A 
ATOM     80  C   UNL A   1      43.246  22.124  26.966  1.00  0.00     0.059 A 
ATOM     81  F   UNL A   1      42.351  22.764  28.968  1.00  0.00    -0.206 F 
ATOM     82  C   UNL A   1      43.598  22.389  25.661  1.00  0.00     0.060 A 
BRANCH  82  83
ATOM     83  S   UNL A   1      44.450  21.106  24.710  1.00  0.00     0.124 S 
ATOM     84  O   UNL A   1      45.740  21.030  25.384  1.00  0.00    -0.237 OA
ATOM     85  O   UNL A   1      43.570  19.955  24.882  1.00  0.00    -0.237 OA
ATOM     86  O   UNL A   1      44.479  21.655  23.356  1.00  0.00    -0.744 OA
ENDBRANCH  82  83
ENDBRANCH  50  75
BRANCH  62  87
ATOM     87  C   UNL A   1      43.916  27.426  32.677  1.00  0.00     0.058 A 
ATOM     88  C   UNL A   1      44.486  26.319  33.327  1.00  0.00     0.135 A 
ATOM     89  C   UNL A   1      42.668  27.842  33.181  1.00  0.00     0.135 A 
ATOM     90  F   UNL A   1      45.683  25.858  32.930  1.00  0.00    -0.206 F 
ATOM     91  C   UNL A   1      43.863  25.668  34.398  1.00  0.00     0.059 A 
ATOM     92  C   UNL A   1      42.017  27.208  34.248  1.00  0.00     0.059 A 
ATOM     93  F   UNL A   1      42.042  28.891  32.652  1.00  0.00    -0.206 F 
ATOM     94  C   UNL A   1      42.627  26.120  34.858  1.00  0.00     0.060 A 
BRANCH  94  95
ATOM     95  S   UNL A   1      41.868  25.300  36.280  1.00  0.00     0.124 S 
ATOM     96  O   UNL A   1      40.706  26.142  36.547  1.00  0.00    -0.237 OA
ATOM     97  O   UNL A   1      41.576  23.975  35.744  1.00  0.00    -0.237 OA
ATOM     98  O   UNL A   1      42.911  25.341  37.302  1.00  0.00    -0.744 OA
ENDBRANCH  94  95
ENDBRANCH  62  87
ENDBRANCH  36  37
ENDBRANCH  29  31
ENDBRANCH  28  29
ENDBRANCH  27  28
ENDBRANCH  26  27
ENDBRANCH  25  26
ENDBRANCH  24  25
ENDBRANCH   1  24
TORSDOF 25
ENDMDL
MODEL 2
REMARK VINA RESULT:      -8.8      8.823     14.287
REMARK SMILES CN(CC(N)=O)C(=O)Cn1cccc1C(=O)OCCOCCOCCOC(=O)c1ccc(-c2c3nc(c(-c4c(F)cc(S(=O)(=O)[O-])cc4F)c4ccc([nH]4)c(-c4c(F)cc(S(=O)(=O)[O-])cc4F)c4nc(c(-c5c(F)cc(S(=O)(=O)[O-])cc5F)c5ccc2[nH]5)C=C4)C=C3)cc1
REMARK SMILES IDX 21 1 20 2 19 3 18 4 17 5 15 6 16 7 14 8 10 9 11 10 12 11
REMARK SMILES IDX 13 12 9 13 7 14 8 15 2 16 1 17 3 18 4 19 5 20 6 21 22 24
REMARK SMILES IDX 23 25 24 26 25 27 26 28 27 29 28 30 29 31 30 32 94 33 31 34
REMARK SMILES IDX 93 35 32 36 33 37 34 38 87 39 35 40 92 41 86 42 88 43 36 44
REMARK SMILES IDX 91 45 85 46 84 47 37 49 71 50 50 51 70 52 51 53 54 54 69 55
REMARK SMILES IDX 89 56 52 57 53 58 68 60 90 61 55 62 38 63 39 64 48 65 40 66
REMARK SMILES IDX 41 67 47 68 49 69 42 70 43 71 44 72 45 73 46 74 72 75 73 76
REMARK SMILES IDX 82 77 74 78 75 79 81 80 83 81 76 82 77 83 78 84 79 85 80 86
REMARK SMILES IDX 56 87 57 88 66 89 58 90 59 91 65 92 67 93 60 94 61 95 62 96
REMARK SMILES IDX 63 97 64 98
REMARK H PARENT 5 22 5 23 88 48 54 59
REMARK Flexibility Score: inf
ROOT
ATOM      1  C   UNL A   1      44.583  42.438  25.640  1.00  0.00     0.188 C 
ENDROOT
BRANCH   1   2
ATOM      2  O   UNL A   1      44.078  41.953  24.399  1.00  0.00    -0.376 OA
BRANCH   2   3
ATOM      3  C   UNL A   1      42.685  42.173  24.197  1.00  0.00     0.202 C 
BRANCH   3   4
ATOM      4  C   UNL A   1      42.408  43.307  23.213  1.00  0.00     0.261 C 
BRANCH   4   5
ATOM      5  O   UNL A   1      43.412  43.311  22.180  1.00  0.00    -0.459 OA
BRANCH   5   6
ATOM      6  C   UNL A   1      43.127  42.618  21.052  1.00  0.00     0.355 C 
ATOM      7  O   UNL A   1      43.079  41.390  20.980  1.00  0.00    -0.244 OA
BRANCH   6   8
ATOM      8  C   UNL A   1      42.653  43.509  20.011  1.00  0.00     0.128 A 
ATOM      9  N   UNL A   1      43.333  44.256  19.063  1.00  0.00    -0.333 N 
ATOM     10  C   UNL A   1      42.409  44.937  18.281  1.00  0.00     0.087 A 
ATOM     11  C   UNL A   1      41.149  44.685  18.754  1.00  0.00     0.020 A 
ATOM     12  C   UNL A   1      41.300  43.789  19.827  1.00  0.00     0.035 A 
BRANCH   9  13
ATOM     13  C   UNL A   1      44.752  44.340  18.707  1.00  0.00     0.222 C 
BRANCH  13  14
ATOM     14  C   UNL A   1      45.689  45.170  19.545  1.00  0.00     0.242 C 
ATOM     15  O   UNL A   1      46.720  44.652  19.987  1.00  0.00    -0.273 OA
BRANCH  14  16
ATOM     16  N   UNL A   1      45.415  46.517  19.711  1.00  0.00    -0.335 N 
ATOM     17  C   UNL A   1      45.337  47.073  21.054  1.00  0.00     0.147 C 
BRANCH  16  18
ATOM     18  C   UNL A   1      44.994  47.401  18.629  1.00  0.00     0.218 C 
BRANCH  18  19
ATOM     19  C   UNL A   1      44.995  48.909  18.837  1.00  0.00     0.237 C 
ATOM     20  N   UNL A   1      43.758  49.491  18.775  1.00  0.00    -0.368 N 
ATOM     21  O   UNL A   1      46.000  49.562  19.097  1.00  0.00    -0.273 OA
ATOM     22  H   UNL A   1      42.967  48.944  18.565  1.00  0.00     0.159 HD
ATOM     23  H   UNL A   1      43.659  50.457  18.942  1.00  0.00     0.159 HD
ENDBRANCH  18  19
ENDBRANCH  16  18
ENDBRANCH  14  16
ENDBRANCH  13  14
ENDBRANCH   9  13
ENDBRANCH   6   8
ENDBRANCH   5   6
ENDBRANCH   4   5
ENDBRANCH   3   4
ENDBRANCH   2   3
ENDBRANCH   1   2
BRANCH   1  24
ATOM     24  C   UNL A   1      44.125  41.599  26.825  1.00  0.00     0.188 C 
BRANCH  24  25
ATOM     25  O   UNL A   1      45.210  41.334  27.725  1.00  0.00    -0.376 OA
BRANCH  25  26
ATOM     26  C   UNL A   1      45.659  39.977  27.866  1.00  0.00     0.202 C 
BRANCH  26  27
ATOM     27  C   UNL A   1      44.612  38.943  28.248  1.00  0.00     0.261 C 
BRANCH  27  28
ATOM     28  O   UNL A   1      45.259  37.762  28.627  1.00  0.00    -0.460 OA
BRANCH  28  29
ATOM     29  C   UNL A   1      44.763  37.205  29.750  1.00  0.00     0.338 C 
ATOM     30  O   UNL A   1      44.428  37.750  30.795  1.00  0.00    -0.246 OA
BRANCH  29  31
ATOM     31  C   UNL A   1      44.716  35.771  29.501  1.00  0.00     0.060 A 
ATOM     32  C   UNL A   1      44.184  35.375  28.273  1.00  0.00     0.016 A 
ATOM     33  C   UNL A   1      44.712  34.975  30.649  1.00  0.00     0.016 A 
ATOM     34  C   UNL A   1      43.351  34.294  28.292  1.00  0.00     0.010 A 
ATOM     35  C   UNL A   1      43.726  34.053  30.722  1.00  0.00     0.010 A 
ATOM     36  C   UNL A   1      43.063  33.731  29.540  1.00  0.00    -0.014 A 
BRANCH  36  37
ATOM     37  C   UNL A   1      42.135  32.627  29.607  1.00  0.00     0.031 A 
ATOM     38  C   UNL A   1      42.797  31.444  28.859  1.00  0.00     0.074 A 
ATOM     39  C   UNL A   1      40.966  32.952  30.247  1.00  0.00     0.049 A 
ATOM     40  N   UNL A   1      42.261  30.578  28.063  1.00  0.00    -0.248 NA
ATOM     41  C   UNL A   1      44.293  31.285  28.846  1.00  0.00     0.031 C 
ATOM     42  C   UNL A   1      40.652  34.253  30.911  1.00  0.00     0.029 A 
ATOM     43  N   UNL A   1      39.800  32.276  30.481  1.00  0.00    -0.354 N 
ATOM     44  C   UNL A   1      43.268  29.654  27.711  1.00  0.00     0.074 A 
ATOM     45  C   UNL A   1      44.516  30.252  28.034  1.00  0.00     0.031 C 
ATOM     46  C   UNL A   1      39.369  34.289  31.346  1.00  0.00     0.029 A 
ATOM     47  C   UNL A   1      38.729  33.025  31.047  1.00  0.00     0.049 A 
ATOM     48  H   UNL A   1      39.706  31.318  30.270  1.00  0.00     0.167 HD
ATOM     49  C   UNL A   1      42.993  28.360  27.383  1.00  0.00     0.037 A 
ATOM     50  C   UNL A   1      37.417  32.639  31.183  1.00  0.00     0.037 A 
ATOM     51  C   UNL A   1      41.584  28.157  27.478  1.00  0.00     0.049 A 
ATOM     52  C   UNL A   1      37.432  31.241  30.721  1.00  0.00     0.074 A 
ATOM     53  C   UNL A   1      40.560  28.626  26.695  1.00  0.00     0.029 A 
ATOM     54  N   UNL A   1      41.100  27.836  28.729  1.00  0.00    -0.354 N 
ATOM     55  N   UNL A   1      37.973  30.248  31.363  1.00  0.00    -0.248 NA
ATOM     56  C   UNL A   1      36.986  30.968  29.349  1.00  0.00     0.031 C 
ATOM     57  C   UNL A   1      39.624  29.063  27.651  1.00  0.00     0.029 A 
ATOM     58  C   UNL A   1      39.939  28.546  28.915  1.00  0.00     0.049 A 
ATOM     59  H   UNL A   1      41.511  27.212  29.371  1.00  0.00     0.167 HD
ATOM     60  C   UNL A   1      38.225  29.347  30.356  1.00  0.00     0.074 A 
ATOM     61  C   UNL A   1      37.337  29.689  29.263  1.00  0.00     0.031 C 
ATOM     62  C   UNL A   1      39.443  28.750  30.258  1.00  0.00     0.037 A 
BRANCH  49  63
ATOM     63  C   UNL A   1      43.855  27.144  27.249  1.00  0.00     0.058 A 
ATOM     64  C   UNL A   1      44.416  26.902  25.972  1.00  0.00     0.135 A 
ATOM     65  C   UNL A   1      43.878  26.075  28.156  1.00  0.00     0.135 A 
ATOM     66  F   UNL A   1      44.509  27.888  25.065  1.00  0.00    -0.206 F 
ATOM     67  C   UNL A   1      44.819  25.640  25.565  1.00  0.00     0.059 A 
ATOM     68  C   UNL A   1      44.328  24.806  27.781  1.00  0.00     0.059 A 
ATOM     69  F   UNL A   1      43.392  26.203  29.397  1.00  0.00    -0.206 F 
ATOM     70  C   UNL A   1      44.738  24.588  26.468  1.00  0.00     0.060 A 
BRANCH  70  71
ATOM     71  S   UNL A   1      45.147  22.936  25.874  1.00  0.00     0.124 S 
ATOM     72  O   UNL A   1      45.038  23.105  24.430  1.00  0.00    -0.237 OA
ATOM     73  O   UNL A   1      46.501  22.753  26.390  1.00  0.00    -0.237 OA
ATOM     74  O   UNL A   1      44.128  22.095  26.495  1.00  0.00    -0.744 OA
ENDBRANCH  70  71
ENDBRANCH  49  63
BRANCH  50  75
ATOM     75  C   UNL A   1      36.050  33.244  31.464  1.00  0.00     0.058 A 
ATOM     76  C   UNL A   1      35.350  33.228  32.677  1.00  0.00     0.135 A 
ATOM     77  C   UNL A   1      35.413  34.019  30.447  1.00  0.00     0.135 A 
ATOM     78  F   UNL A   1      35.735  32.427  33.679  1.00  0.00    -0.206 F 
ATOM     79  C   UNL A   1      34.217  34.046  32.907  1.00  0.00     0.059 A 
ATOM     80  C   UNL A   1      34.341  34.877  30.664  1.00  0.00     0.059 A 
ATOM     81  F   UNL A   1      35.834  33.999  29.174  1.00  0.00    -0.206 F 
ATOM     82  C   UNL A   1      33.762  34.915  31.913  1.00  0.00     0.060 A 
BRANCH  82  83
ATOM     83  S   UNL A   1      32.515  36.180  32.258  1.00  0.00     0.124 S 
ATOM     84  O   UNL A   1      31.367  35.377  32.661  1.00  0.00    -0.237 OA
ATOM     85  O   UNL A   1      33.149  36.964  33.312  1.00  0.00    -0.237 OA
ATOM     86  O   UNL A   1      32.378  36.874  30.979  1.00  0.00    -0.744 OA
ENDBRANCH  82  83
ENDBRANCH  50  75
BRANCH  62  87
ATOM     87  C   UNL A   1      40.241  28.671  31.554  1.00  0.00     0.058 A 
ATOM     88  C   UNL A   1      39.716  27.960  32.647  1.00  0.00     0.135 A 
ATOM     89  C   UNL A   1      41.465  29.323  31.795  1.00  0.00     0.135 A 
ATOM     90  F   UNL A   1      38.561  27.290  32.510  1.00  0.00    -0.206 F 
ATOM     91  C   UNL A   1      40.357  27.901  33.889  1.00  0.00     0.059 A 
ATOM     92  C   UNL A   1      42.129  29.288  33.029  1.00  0.00     0.059 A 
ATOM     93  F   UNL A   1      42.063  30.015  30.827  1.00  0.00    -0.206 F 
ATOM     94  C   UNL A   1      41.568  28.566  34.074  1.00  0.00     0.060 A 
BRANCH  94  95
ATOM     95  S   UNL A   1      42.408  28.430  35.670  1.00  0.00     0.124 S 
ATOM     96  O   UNL A   1      42.835  29.803  35.921  1.00  0.00    -0.237 OA
ATOM     97  O   UNL A   1      41.340  27.935  36.533  1.00  0.00    -0.237 OA
ATOM     98  O   UNL A   1      43.490  27.482  35.414  1.00  0.00    -0.744 OA
ENDBRANCH  94  95
ENDBRANCH  62  87
ENDBRANCH  36  37
ENDBRANCH  29  31
ENDBRANCH  28  29
ENDBRANCH  27  28
ENDBRANCH  26  27
ENDBRANCH  25  26
ENDBRANCH  24  25
ENDBRANCH   1  24
TORSDOF 25
ENDMDL
MODEL 3
REMARK VINA RESULT:      -8.2      3.525      9.590
REMARK SMILES CN(CC(N)=O)C(=O)Cn1cccc1C(=O)OCCOCCOCCOC(=O)c1ccc(-c2c3nc(c(-c4c(F)cc(S(=O)(=O)[O-])cc4F)c4ccc([nH]4)c(-c4c(F)cc(S(=O)(=O)[O-])cc4F)c4nc(c(-c5c(F)cc(S(=O)(=O)[O-])cc5F)c5ccc2[nH]5)C=C4)C=C3)cc1
REMARK SMILES IDX 21 1 20 2 19 3 18 4 17 5 15 6 16 7 14 8 10 9 11 10 12 11
REMARK SMILES IDX 13 12 9 13 7 14 8 15 2 16 1 17 3 18 4 19 5 20 6 21 22 24
REMARK SMILES IDX 23 25 24 26 25 27 26 28 27 29 28 30 29 31 30 32 94 33 31 34
REMARK SMILES IDX 93 35 32 36 33 37 34 38 87 39 35 40 92 41 86 42 88 43 36 44
REMARK SMILES IDX 91 45 85 46 84 47 37 49 71 50 50 51 70 52 51 53 54 54 69 55
REMARK SMILES IDX 89 56 52 57 53 58 68 60 90 61 55 62 38 63 39 64 48 65 40 66
REMARK SMILES IDX 41 67 47 68 49 69 42 70 43 71 44 72 45 73 46 74 72 75 73 76
REMARK SMILES IDX 82 77 74 78 75 79 81 80 83 81 76 82 77 83 78 84 79 85 80 86
REMARK SMILES IDX 56 87 57 88 66 89 58 90 59 91 65 92 67 93 60 94 61 95 62 96
REMARK SMILES IDX 63 97 64 98
REMARK H PARENT 5 22 5 23 88 48 54 59
REMARK Flexibility Score: inf
ROOT
ATOM      1  C   UNL A   1      32.726  29.207  25.481  1.00  0.00     0.188 C 
ENDROOT
BRANCH   1   2
ATOM      2  O   UNL A   1      31.396  28.722  25.647  1.00  0.00    -0.376 OA
BRANCH   2   3
ATOM      3  C   UNL A   1      30.815  28.165  24.471  1.00  0.00     0.202 C 
BRANCH   3   4
ATOM      4  C   UNL A   1      31.493  28.655  23.195  1.00  0.00     0.261 C 
BRANCH   4   5
ATOM      5  O   UNL A   1      31.814  27.532  22.351  1.00  0.00    -0.459 OA
BRANCH   5   6
ATOM      6  C   UNL A   1      33.080  27.059  22.423  1.00  0.00     0.355 C 
ATOM      7  O   UNL A   1      34.035  27.685  22.885  1.00  0.00    -0.244 OA
BRANCH   6   8
ATOM      8  C   UNL A   1      33.116  25.643  22.111  1.00  0.00     0.128 A 
ATOM      9  N   UNL A   1      33.464  24.544  22.879  1.00  0.00    -0.333 N 
ATOM     10  C   UNL A   1      33.312  23.396  22.112  1.00  0.00     0.087 A 
ATOM     11  C   UNL A   1      32.931  23.750  20.845  1.00  0.00     0.020 A 
ATOM     12  C   UNL A   1      32.800  25.149  20.847  1.00  0.00     0.035 A 
BRANCH   9  13
ATOM     13  C   UNL A   1      33.822  24.402  24.293  1.00  0.00     0.222 C 
BRANCH  13  14
ATOM     14  C   UNL A   1      33.612  23.084  24.993  1.00  0.00     0.242 C 
ATOM     15  O   UNL A   1      34.169  22.073  24.552  1.00  0.00    -0.273 OA
BRANCH  14  16
ATOM     16  N   UNL A   1      32.879  23.065  26.167  1.00  0.00    -0.335 N 
ATOM     17  C   UNL A   1      33.537  22.716  27.419  1.00  0.00     0.147 C 
BRANCH  16  18
ATOM     18  C   UNL A   1      31.426  23.178  26.222  1.00  0.00     0.218 C 
BRANCH  18  19
ATOM     19  C   UNL A   1      30.779  24.519  26.539  1.00  0.00     0.237 C 
ATOM     20  N   UNL A   1      29.411  24.514  26.498  1.00  0.00    -0.368 N 
ATOM     21  O   UNL A   1      31.408  25.520  26.866  1.00  0.00    -0.273 OA
ATOM     22  H   UNL A   1      28.930  23.696  26.233  1.00  0.00     0.159 HD
ATOM     23  H   UNL A   1      28.908  25.327  26.733  1.00  0.00     0.159 HD
ENDBRANCH  18  19
ENDBRANCH  16  18
ENDBRANCH  14  16
ENDBRANCH  13  14
ENDBRANCH   9  13
ENDBRANCH   6   8
ENDBRANCH   5   6
ENDBRANCH   4   5
ENDBRANCH   3   4
ENDBRANCH   2   3
ENDBRANCH   1   2
BRANCH   1  24
ATOM     24  C   UNL A   1      33.152  30.142  26.604  1.00  0.00     0.188 C 
BRANCH  24  25
ATOM     25  O   UNL A   1      32.024  30.822  27.172  1.00  0.00    -0.376 OA
BRANCH  25  26
ATOM     26  C   UNL A   1      31.524  31.987  26.499  1.00  0.00     0.202 C 
BRANCH  26  27
ATOM     27  C   UNL A   1      31.611  33.305  27.251  1.00  0.00     0.261 C 
BRANCH  27  28
ATOM     28  O   UNL A   1      32.944  33.726  27.278  1.00  0.00    -0.460 OA
BRANCH  28  29
ATOM     29  C   UNL A   1      33.457  33.833  28.520  1.00  0.00     0.338 C 
ATOM     30  O   UNL A   1      33.127  34.589  29.426  1.00  0.00    -0.246 OA
BRANCH  29  31
ATOM     31  C   UNL A   1      34.541  32.862  28.592  1.00  0.00     0.060 A 
ATOM     32  C   UNL A   1      34.463  31.925  29.623  1.00  0.00     0.016 A 
ATOM     33  C   UNL A   1      35.736  33.271  27.995  1.00  0.00     0.016 A 
ATOM     34  C   UNL A   1      35.626  31.640  30.276  1.00  0.00     0.010 A 
ATOM     35  C   UNL A   1      36.842  33.172  28.765  1.00  0.00     0.010 A 
ATOM     36  C   UNL A   1      36.765  32.358  29.893  1.00  0.00    -0.014 A 
BRANCH  36  37
ATOM     37  C   UNL A   1      38.001  32.131  30.604  1.00  0.00     0.031 A 
ATOM     38  C   UNL A   1      38.722  30.967  29.882  1.00  0.00     0.074 A 
ATOM     39  C   UNL A   1      38.145  32.949  31.696  1.00  0.00     0.049 A 
ATOM     40  N   UNL A   1      39.383  29.978  30.386  1.00  0.00    -0.248 NA
ATOM     41  C   UNL A   1      38.556  30.762  28.401  1.00  0.00     0.031 C 
ATOM     42  C   UNL A   1      37.215  34.042  32.113  1.00  0.00     0.029 A 
ATOM     43  N   UNL A   1      39.086  33.047  32.684  1.00  0.00    -0.354 N 
ATOM     44  C   UNL A   1      39.919  29.240  29.309  1.00  0.00     0.074 A 
ATOM     45  C   UNL A   1      39.209  29.631  28.141  1.00  0.00     0.031 C 
ATOM     46  C   UNL A   1      37.585  34.581  33.300  1.00  0.00     0.029 A 
ATOM     47  C   UNL A   1      38.793  33.931  33.762  1.00  0.00     0.049 A 
ATOM     48  H   UNL A   1      39.925  32.532  32.651  1.00  0.00     0.167 HD
ATOM     49  C   UNL A   1      41.070  28.519  29.415  1.00  0.00     0.037 A 
ATOM     50  C   UNL A   1      39.466  34.048  34.954  1.00  0.00     0.037 A 
ATOM     51  C   UNL A   1      41.581  28.669  30.738  1.00  0.00     0.049 A 
ATOM     52  C   UNL A   1      40.611  33.138  34.782  1.00  0.00     0.074 A 
ATOM     53  C   UNL A   1      41.112  28.191  31.935  1.00  0.00     0.029 A 
ATOM     54  N   UNL A   1      42.374  29.776  30.961  1.00  0.00    -0.354 N 
ATOM     55  N   UNL A   1      41.621  33.351  33.991  1.00  0.00    -0.248 NA
ATOM     56  C   UNL A   1      40.523  31.803  35.387  1.00  0.00     0.031 C 
ATOM     57  C   UNL A   1      41.203  29.322  32.769  1.00  0.00     0.029 A 
ATOM     58  C   UNL A   1      42.016  30.299  32.179  1.00  0.00     0.049 A 
ATOM     59  H   UNL A   1      43.068  30.126  30.358  1.00  0.00     0.167 HD
ATOM     60  C   UNL A   1      42.085  32.079  33.755  1.00  0.00     0.074 A 
ATOM     61  C   UNL A   1      41.607  31.256  34.847  1.00  0.00     0.031 C 
ATOM     62  C   UNL A   1      42.353  31.671  32.486  1.00  0.00     0.037 A 
BRANCH  49  63
ATOM     63  C   UNL A   1      41.975  27.900  28.396  1.00  0.00     0.058 A 
ATOM     64  C   UNL A   1      42.130  26.494  28.456  1.00  0.00     0.135 A 
ATOM     65  C   UNL A   1      42.917  28.601  27.630  1.00  0.00     0.135 A 
ATOM     66  F   UNL A   1      41.232  25.732  29.101  1.00  0.00    -0.206 F 
ATOM     67  C   UNL A   1      43.238  25.846  27.933  1.00  0.00     0.059 A 
ATOM     68  C   UNL A   1      44.014  27.959  27.049  1.00  0.00     0.059 A 
ATOM     69  F   UNL A   1      42.851  29.932  27.490  1.00  0.00    -0.206 F 
ATOM     70  C   UNL A   1      44.195  26.594  27.259  1.00  0.00     0.060 A 
BRANCH  70  71
ATOM     71  S   UNL A   1      45.685  25.747  26.701  1.00  0.00     0.124 S 
ATOM     72  O   UNL A   1      45.391  25.530  25.289  1.00  0.00    -0.237 OA
ATOM     73  O   UNL A   1      46.722  26.735  26.988  1.00  0.00    -0.237 OA
ATOM     74  O   UNL A   1      45.723  24.549  27.535  1.00  0.00    -0.744 OA
ENDBRANCH  70  71
ENDBRANCH  49  63
BRANCH  50  75
ATOM     75  C   UNL A   1      39.278  34.643  36.341  1.00  0.00     0.058 A 
ATOM     76  C   UNL A   1      38.653  34.045  37.443  1.00  0.00     0.135 A 
ATOM     77  C   UNL A   1      39.879  35.903  36.642  1.00  0.00     0.135 A 
ATOM     78  F   UNL A   1      37.915  32.937  37.292  1.00  0.00    -0.206 F 
ATOM     79  C   UNL A   1      38.768  34.566  38.754  1.00  0.00     0.059 A 
ATOM     80  C   UNL A   1      40.059  36.406  37.926  1.00  0.00     0.059 A 
ATOM     81  F   UNL A   1      40.357  36.707  35.682  1.00  0.00    -0.206 F 
ATOM     82  C   UNL A   1      39.529  35.713  38.992  1.00  0.00     0.060 A 
BRANCH  82  83
ATOM     83  S   UNL A   1      39.945  36.244  40.671  1.00  0.00     0.124 S 
ATOM     84  O   UNL A   1      41.205  35.552  40.908  1.00  0.00    -0.237 OA
ATOM     85  O   UNL A   1      40.027  37.694  40.528  1.00  0.00    -0.237 OA
ATOM     86  O   UNL A   1      38.810  35.773  41.462  1.00  0.00    -0.744 OA
ENDBRANCH  82  83
ENDBRANCH  50  75
BRANCH  62  87
ATOM     87  C   UNL A   1      42.672  32.784  31.493  1.00  0.00     0.058 A 
ATOM     88  C   UNL A   1      43.793  33.603  31.708  1.00  0.00     0.135 A 
ATOM     89  C   UNL A   1      41.882  33.127  30.378  1.00  0.00     0.135 A 
ATOM     90  F   UNL A   1      44.617  33.345  32.736  1.00  0.00    -0.206 F 
ATOM     91  C   UNL A   1      44.108  34.686  30.880  1.00  0.00     0.059 A 
ATOM     92  C   UNL A   1      42.168  34.208  29.533  1.00  0.00     0.059 A 
ATOM     93  F   UNL A   1      40.803  32.410  30.070  1.00  0.00    -0.206 F 
ATOM     94  C   UNL A   1      43.292  34.982  29.789  1.00  0.00     0.060 A 
BRANCH  94  95
ATOM     95  S   UNL A   1      43.749  36.351  28.699  1.00  0.00     0.124 S 
ATOM     96  O   UNL A   1      42.670  36.347  27.717  1.00  0.00    -0.237 OA
ATOM     97  O   UNL A   1      43.760  37.482  29.620  1.00  0.00    -0.237 OA
ATOM     98  O   UNL A   1      45.058  35.959  28.181  1.00  0.00    -0.744 OA
ENDBRANCH  94  95
ENDBRANCH  62  87
ENDBRANCH  36  37
ENDBRANCH  29  31
ENDBRANCH  28  29
ENDBRANCH  27  28
ENDBRANCH  26  27
ENDBRANCH  25  26
ENDBRANCH  24  25
ENDBRANCH   1  24
TORSDOF 25
ENDMDL
