MODEL 1
REMARK VINA RESULT:     -11.4      0.000      0.000
REMARK SMILES O=C1O[C@@H](c2ccc(O)c(O)c2)[C@H](C(=O)OCCOCCOCCOC(=O)c2ccc(-c3c4nc(c(-c5c(F)cc(S(=O)(=O)[O-])cc5F)c5ccc([nH]5)c(-c5c(F)cc(S(=O)(=O)[O-])cc5F)c5nc(c(-c6c(F)cc(S(=O)(=O)[O-])cc6F)c6ccc3[nH]6)C=C5)C=C4)cc2)/C1=C\c1ccc(O)c(O)c1
REMARK SMILES IDX 21 1 20 2 19 3 18 4 17 5 16 6 14 7 15 8 13 9 1 10 2 11 3 12
REMARK SMILES IDX 94 13 4 14 95 15 5 16 6 17 12 18 7 19 10 20 8 21 11 22 9 24
REMARK SMILES IDX 96 26 97 27 103 28 98 29 101 30 99 31 102 32 100 34 22 36
REMARK SMILES IDX 23 37 24 38 25 39 26 40 27 41 28 42 29 43 93 44 30 45 92 46
REMARK SMILES IDX 31 47 32 48 33 49 86 50 34 51 91 52 85 53 87 54 35 55 90 56
REMARK SMILES IDX 84 57 83 58 36 60 70 61 49 62 69 63 50 64 53 65 68 66 88 67
REMARK SMILES IDX 51 68 52 69 67 71 89 72 54 73 37 74 38 75 47 76 39 77 40 78
REMARK SMILES IDX 46 79 48 80 41 81 42 82 43 83 44 84 45 85 71 86 72 87 81 88
REMARK SMILES IDX 73 89 74 90 80 91 82 92 75 93 76 94 77 95 78 96 79 97 55 98
REMARK SMILES IDX 56 99 65 100 57 101 58 102 64 103 66 104 59 105 60 106
REMARK SMILES IDX 61 107 62 108 63 109
REMARK H PARENT 11 23 9 25 102 33 100 35 87 59 53 70
REMARK Flexibility Score: inf
ROOT
ATOM      1  C   UNL A   1      31.693  29.552  25.156  1.00  0.00     0.188 C 
ENDROOT
BRANCH   1   2
ATOM      2  C   UNL A   1      31.533  28.081  24.697  1.00  0.00     0.188 C 
BRANCH   2   3
ATOM      3  O   UNL A   1      32.602  27.474  24.024  1.00  0.00    -0.376 OA
BRANCH   3   4
ATOM      4  C   UNL A   1      33.481  26.629  24.723  1.00  0.00     0.202 C 
BRANCH   4   5
ATOM      5  C   UNL A   1      33.047  25.616  25.803  1.00  0.00     0.261 C 
BRANCH   5   6
ATOM      6  O   UNL A   1      32.746  24.272  25.390  1.00  0.00    -0.463 OA
BRANCH   6   7
ATOM      7  C   UNL A   1      33.265  23.259  26.151  1.00  0.00     0.317 C 
ATOM      8  O   UNL A   1      33.153  23.183  27.365  1.00  0.00    -0.251 OA
BRANCH   7   9
ATOM      9  C   UNL A   1      33.965  22.233  25.255  1.00  0.00     0.182 C 
ATOM     10  O   UNL A   1      34.036  23.835  22.117  1.00  0.00    -0.247 OA
ATOM     11  C   UNL A   1      33.850  23.117  23.080  1.00  0.00     0.335 C 
ATOM     12  O   UNL A   1      32.720  22.378  23.302  1.00  0.00    -0.453 OA
ATOM     13  C   UNL A   1      34.795  22.865  24.199  1.00  0.00     0.056 C 
ATOM     14  C   UNL A   1      32.888  21.533  24.453  1.00  0.00     0.226 C 
ATOM     15  C   UNL A   1      36.119  23.100  24.086  1.00  0.00     0.020 C 
BRANCH  14  16
ATOM     16  C   UNL A   1      33.196  20.090  24.062  1.00  0.00    -0.002 A 
ATOM     17  C   UNL A   1      34.265  19.385  24.657  1.00  0.00     0.012 A 
ATOM     18  C   UNL A   1      32.369  19.402  23.160  1.00  0.00     0.057 A 
ATOM     19  C   UNL A   1      34.510  18.039  24.345  1.00  0.00     0.050 A 
ATOM     20  C   UNL A   1      32.612  18.067  22.866  1.00  0.00     0.157 A 
ATOM     21  C   UNL A   1      33.673  17.386  23.451  1.00  0.00     0.157 A 
BRANCH  20  22
ATOM     22  O   UNL A   1      31.779  17.420  21.999  1.00  0.00    -0.504 OA
ATOM     23  H   UNL A   1      31.880  16.499  21.853  1.00  0.00     0.293 HD
ENDBRANCH  20  22
BRANCH  21  24
ATOM     24  O   UNL A   1      33.840  16.069  23.126  1.00  0.00    -0.504 OA
ATOM     25  H   UNL A   1      34.072  15.828  22.251  1.00  0.00     0.293 HD
ENDBRANCH  21  24
ENDBRANCH  14  16
BRANCH  15  26
ATOM     26  C   UNL A   1      37.208  22.819  25.058  1.00  0.00    -0.021 A 
ATOM     27  C   UNL A   1      38.036  21.249  25.006  1.00  0.00     0.012 A 
ATOM     28  C   UNL A   1      37.704  24.113  26.127  1.00  0.00     0.058 A 
ATOM     29  C   UNL A   1      39.418  20.823  26.030  1.00  0.00     0.051 A 
ATOM     30  C   UNL A   1      39.099  23.859  27.246  1.00  0.00     0.157 A 
ATOM     31  C   UNL A   1      40.041  22.055  27.204  1.00  0.00     0.157 A 
BRANCH  30  32
ATOM     32  O   UNL A   1      39.163  25.034  28.003  1.00  0.00    -0.504 OA
ATOM     33  H   UNL A   1      38.424  25.609  28.040  1.00  0.00     0.293 HD
ENDBRANCH  30  32
BRANCH  31  34
ATOM     34  O   UNL A   1      41.017  21.423  27.976  1.00  0.00    -0.504 OA
ATOM     35  H   UNL A   1      41.041  20.488  28.026  1.00  0.00     0.293 HD
ENDBRANCH  31  34
ENDBRANCH  15  26
ENDBRANCH   7   9
ENDBRANCH   6   7
ENDBRANCH   5   6
ENDBRANCH   4   5
ENDBRANCH   3   4
ENDBRANCH   2   3
ENDBRANCH   1   2
BRANCH   1  36
ATOM     36  O   UNL A   1      31.760  29.829  26.532  1.00  0.00    -0.376 OA
BRANCH  36  37
ATOM     37  C   UNL A   1      32.854  29.279  27.248  1.00  0.00     0.202 C 
BRANCH  37  38
ATOM     38  C   UNL A   1      34.107  30.084  27.666  1.00  0.00     0.261 C 
BRANCH  38  39
ATOM     39  O   UNL A   1      35.316  29.344  27.886  1.00  0.00    -0.460 OA
BRANCH  39  40
ATOM     40  C   UNL A   1      36.297  30.007  28.543  1.00  0.00     0.338 C 
ATOM     41  O   UNL A   1      36.182  30.990  29.257  1.00  0.00    -0.246 OA
BRANCH  40  42
ATOM     42  C   UNL A   1      37.562  29.275  28.453  1.00  0.00     0.060 A 
ATOM     43  C   UNL A   1      38.490  28.796  29.942  1.00  0.00     0.016 A 
ATOM     44  C   UNL A   1      38.400  29.350  26.916  1.00  0.00     0.016 A 
ATOM     45  C   UNL A   1      40.466  28.397  29.730  1.00  0.00     0.010 A 
ATOM     46  C   UNL A   1      40.130  29.007  26.744  1.00  0.00     0.010 A 
ATOM     47  C   UNL A   1      41.180  28.553  28.084  1.00  0.00    -0.014 A 
BRANCH  47  48
ATOM     48  C   UNL A   1      42.615  28.381  27.841  1.00  0.00     0.031 A 
ATOM     49  C   UNL A   1      43.540  29.550  27.998  1.00  0.00     0.074 A 
ATOM     50  C   UNL A   1      43.031  27.180  27.414  1.00  0.00     0.049 A 
ATOM     51  N   UNL A   1      44.821  29.624  27.755  1.00  0.00    -0.248 NA
ATOM     52  C   UNL A   1      42.955  30.816  28.462  1.00  0.00     0.031 C 
ATOM     53  C   UNL A   1      42.163  26.026  27.180  1.00  0.00     0.029 A 
ATOM     54  N   UNL A   1      44.273  26.726  27.080  1.00  0.00    -0.354 N 
ATOM     55  C   UNL A   1      45.180  30.941  28.027  1.00  0.00     0.074 A 
ATOM     56  C   UNL A   1      43.981  31.648  28.396  1.00  0.00     0.031 C 
ATOM     57  C   UNL A   1      42.900  24.984  26.777  1.00  0.00     0.029 A 
ATOM     58  C   UNL A   1      44.281  25.419  26.656  1.00  0.00     0.049 A 
ATOM     59  H   UNL A   1      45.085  27.281  27.136  1.00  0.00     0.167 HD
ATOM     60  C   UNL A   1      46.411  31.497  27.981  1.00  0.00     0.037 A 
ATOM     61  C   UNL A   1      45.293  24.668  26.192  1.00  0.00     0.037 A 
ATOM     62  C   UNL A   1      47.574  30.753  27.582  1.00  0.00     0.049 A 
ATOM     63  C   UNL A   1      46.645  25.312  26.125  1.00  0.00     0.074 A 
ATOM     64  C   UNL A   1      48.887  31.173  27.504  1.00  0.00     0.029 A 
ATOM     65  N   UNL A   1      47.549  29.423  27.176  1.00  0.00    -0.354 N 
ATOM     66  N   UNL A   1      46.983  26.544  26.435  1.00  0.00    -0.248 NA
ATOM     67  C   UNL A   1      47.752  24.477  25.657  1.00  0.00     0.031 C 
ATOM     68  C   UNL A   1      49.643  30.118  26.985  1.00  0.00     0.029 A 
ATOM     69  C   UNL A   1      48.819  29.013  26.819  1.00  0.00     0.049 A 
ATOM     70  H   UNL A   1      46.744  28.856  27.147  1.00  0.00     0.167 HD
ATOM     71  C   UNL A   1      48.349  26.627  26.224  1.00  0.00     0.074 A 
ATOM     72  C   UNL A   1      48.775  25.310  25.782  1.00  0.00     0.031 C 
ATOM     73  C   UNL A   1      49.184  27.686  26.379  1.00  0.00     0.037 A 
BRANCH  60  74
ATOM     74  C   UNL A   1      46.540  32.957  28.337  1.00  0.00     0.058 A 
ATOM     75  C   UNL A   1      46.774  33.385  29.656  1.00  0.00     0.135 A 
ATOM     76  C   UNL A   1      46.431  33.945  27.346  1.00  0.00     0.135 A 
ATOM     77  F   UNL A   1      46.862  32.492  30.655  1.00  0.00    -0.206 F 
ATOM     78  C   UNL A   1      46.870  34.736  29.980  1.00  0.00     0.059 A 
ATOM     79  C   UNL A   1      46.559  35.301  27.641  1.00  0.00     0.059 A 
ATOM     80  F   UNL A   1      46.189  33.601  26.071  1.00  0.00    -0.206 F 
ATOM     81  C   UNL A   1      46.768  35.686  28.964  1.00  0.00     0.060 A 
BRANCH  81  82
ATOM     82  S   UNL A   1      46.927  37.431  29.399  1.00  0.00     0.124 S 
ATOM     83  O   UNL A   1      45.930  38.045  28.526  1.00  0.00    -0.237 OA
ATOM     84  O   UNL A   1      46.601  37.424  30.822  1.00  0.00    -0.237 OA
ATOM     85  O   UNL A   1      48.316  37.740  29.077  1.00  0.00    -0.744 OA
ENDBRANCH  81  82
ENDBRANCH  60  74
BRANCH  61  86
ATOM     86  C   UNL A   1      45.052  23.259  25.778  1.00  0.00     0.058 A 
ATOM     87  C   UNL A   1      45.186  22.863  24.440  1.00  0.00     0.135 A 
ATOM     88  C   UNL A   1      44.729  22.267  26.720  1.00  0.00     0.135 A 
ATOM     89  F   UNL A   1      45.503  23.769  23.502  1.00  0.00    -0.206 F 
ATOM     90  C   UNL A   1      44.981  21.545  24.045  1.00  0.00     0.059 A 
ATOM     91  C   UNL A   1      44.555  20.937  26.355  1.00  0.00     0.059 A 
ATOM     92  F   UNL A   1      44.620  22.583  28.021  1.00  0.00    -0.206 F 
ATOM     93  C   UNL A   1      44.668  20.588  25.012  1.00  0.00     0.060 A 
BRANCH  93  94
ATOM     94  S   UNL A   1      44.419  18.878  24.488  1.00  0.00     0.124 S 
ATOM     95  O   UNL A   1      45.520  18.203  25.166  1.00  0.00    -0.237 OA
ATOM     96  O   UNL A   1      43.084  18.594  25.002  1.00  0.00    -0.237 OA
ATOM     97  O   UNL A   1      44.525  18.951  23.035  1.00  0.00    -0.744 OA
ENDBRANCH  93  94
ENDBRANCH  61  86
BRANCH  73  98
ATOM     98  C   UNL A   1      50.638  27.435  26.108  1.00  0.00     0.058 A 
ATOM     99  C   UNL A   1      51.516  27.010  27.116  1.00  0.00     0.135 A 
ATOM    100  C   UNL A   1      51.144  27.594  24.809  1.00  0.00     0.135 A 
ATOM    101  F   UNL A   1      51.079  26.851  28.375  1.00  0.00    -0.206 F 
ATOM    102  C   UNL A   1      52.861  26.793  26.852  1.00  0.00     0.059 A 
ATOM    103  C   UNL A   1      52.475  27.338  24.514  1.00  0.00     0.059 A 
ATOM    104  F   UNL A   1      50.338  27.987  23.809  1.00  0.00    -0.206 F 
ATOM    105  C   UNL A   1      53.329  26.955  25.546  1.00  0.00     0.060 A 
BRANCH 105 106
ATOM    106  S   UNL A   1      55.072  26.645  25.215  1.00  0.00     0.124 S 
ATOM    107  O   UNL A   1      55.049  26.329  23.791  1.00  0.00    -0.237 OA
ATOM    108  O   UNL A   1      55.685  27.921  25.572  1.00  0.00    -0.237 OA
ATOM    109  O   UNL A   1      55.394  25.530  26.101  1.00  0.00    -0.744 OA
ENDBRANCH 105 106
ENDBRANCH  73  98
ENDBRANCH  47  48
ENDBRANCH  40  42
ENDBRANCH  39  40
ENDBRANCH  38  39
ENDBRANCH  37  38
ENDBRANCH  36  37
ENDBRANCH   1  36
TORSDOF 26
ENDMDL
MODEL 2
REMARK VINA RESULT:     -11.1      1.568      8.089
REMARK SMILES O=C1O[C@@H](c2ccc(O)c(O)c2)[C@H](C(=O)OCCOCCOCCOC(=O)c2ccc(-c3c4nc(c(-c5c(F)cc(S(=O)(=O)[O-])cc5F)c5ccc([nH]5)c(-c5c(F)cc(S(=O)(=O)[O-])cc5F)c5nc(c(-c6c(F)cc(S(=O)(=O)[O-])cc6F)c6ccc3[nH]6)C=C5)C=C4)cc2)/C1=C\c1ccc(O)c(O)c1
REMARK SMILES IDX 21 1 20 2 19 3 18 4 17 5 16 6 14 7 15 8 13 9 1 10 2 11 3 12
REMARK SMILES IDX 94 13 4 14 95 15 5 16 6 17 12 18 7 19 10 20 8 21 11 22 9 24
REMARK SMILES IDX 96 26 97 27 103 28 98 29 101 30 99 31 102 32 100 34 22 36
REMARK SMILES IDX 23 37 24 38 25 39 26 40 27 41 28 42 29 43 93 44 30 45 92 46
REMARK SMILES IDX 31 47 32 48 33 49 86 50 34 51 91 52 85 53 87 54 35 55 90 56
REMARK SMILES IDX 84 57 83 58 36 60 70 61 49 62 69 63 50 64 53 65 68 66 88 67
REMARK SMILES IDX 51 68 52 69 67 71 89 72 54 73 37 74 38 75 47 76 39 77 40 78
REMARK SMILES IDX 46 79 48 80 41 81 42 82 43 83 44 84 45 85 71 86 72 87 81 88
REMARK SMILES IDX 73 89 74 90 80 91 82 92 75 93 76 94 77 95 78 96 79 97 55 98
REMARK SMILES IDX 56 99 65 100 57 101 58 102 64 103 66 104 59 105 60 106
REMARK SMILES IDX 61 107 62 108 63 109
REMARK H PARENT 11 23 9 25 102 33 100 35 87 59 53 70
REMARK Flexibility Score: inf
ROOT
ATOM      1  C   UNL A   1      31.482  28.830  25.121  1.00  0.00     0.188 C 
ENDROOT
BRANCH   1   2
ATOM      2  C   UNL A   1      31.461  27.513  24.306  1.00  0.00     0.188 C 
BRANCH   2   3
ATOM      3  O   UNL A   1      32.644  27.100  23.678  1.00  0.00    -0.376 OA
BRANCH   3   4
ATOM      4  C   UNL A   1      33.634  26.431  24.420  1.00  0.00     0.202 C 
BRANCH   4   5
ATOM      5  C   UNL A   1      33.350  25.500  25.617  1.00  0.00     0.261 C 
BRANCH   5   6
ATOM      6  O   UNL A   1      32.765  24.214  25.352  1.00  0.00    -0.463 OA
BRANCH   6   7
ATOM      7  C   UNL A   1      33.235  23.157  26.085  1.00  0.00     0.317 C 
ATOM      8  O   UNL A   1      33.136  23.063  27.299  1.00  0.00    -0.251 OA
BRANCH   7   9
ATOM      9  C   UNL A   1      33.861  22.111  25.159  1.00  0.00     0.182 C 
ATOM     10  O   UNL A   1      33.632  23.622  21.984  1.00  0.00    -0.247 OA
ATOM     11  C   UNL A   1      33.541  22.931  22.979  1.00  0.00     0.335 C 
ATOM     12  O   UNL A   1      32.443  22.190  23.323  1.00  0.00    -0.453 OA
ATOM     13  C   UNL A   1      34.587  22.718  24.014  1.00  0.00     0.056 C 
ATOM     14  C   UNL A   1      32.723  21.381  24.478  1.00  0.00     0.226 C 
ATOM     15  C   UNL A   1      35.892  22.959  23.775  1.00  0.00     0.020 C 
BRANCH  14  16
ATOM     16  C   UNL A   1      33.008  19.929  24.101  1.00  0.00    -0.002 A 
ATOM     17  C   UNL A   1      32.284  19.286  23.073  1.00  0.00     0.012 A 
ATOM     18  C   UNL A   1      34.058  19.224  24.713  1.00  0.00     0.057 A 
ATOM     19  C   UNL A   1      32.587  17.972  22.683  1.00  0.00     0.050 A 
ATOM     20  C   UNL A   1      34.358  17.929  24.313  1.00  0.00     0.157 A 
ATOM     21  C   UNL A   1      33.631  17.303  23.307  1.00  0.00     0.157 A 
BRANCH  20  22
ATOM     22  O   UNL A   1      35.395  17.276  24.914  1.00  0.00    -0.504 OA
ATOM     23  H   UNL A   1      35.230  16.519  25.442  1.00  0.00     0.293 HD
ENDBRANCH  20  22
BRANCH  21  24
ATOM     24  O   UNL A   1      33.996  16.034  22.955  1.00  0.00    -0.504 OA
ATOM     25  H   UNL A   1      34.415  15.877  22.132  1.00  0.00     0.293 HD
ENDBRANCH  21  24
ENDBRANCH  14  16
BRANCH  15  26
ATOM     26  C   UNL A   1      37.067  22.714  24.652  1.00  0.00    -0.021 A 
ATOM     27  C   UNL A   1      37.609  23.992  25.758  1.00  0.00     0.012 A 
ATOM     28  C   UNL A   1      37.779  21.115  24.635  1.00  0.00     0.058 A 
ATOM     29  C   UNL A   1      38.922  23.797  26.932  1.00  0.00     0.051 A 
ATOM     30  C   UNL A   1      39.135  20.732  25.767  1.00  0.00     0.157 A 
ATOM     31  C   UNL A   1      39.772  22.199  27.026  1.00  0.00     0.157 A 
BRANCH  30  32
ATOM     32  O   UNL A   1      39.518  19.428  25.431  1.00  0.00    -0.504 OA
ATOM     33  H   UNL A   1      39.920  19.257  24.602  1.00  0.00     0.293 HD
ENDBRANCH  30  32
BRANCH  31  34
ATOM     34  O   UNL A   1      40.842  22.360  27.908  1.00  0.00    -0.504 OA
ATOM     35  H   UNL A   1      40.871  21.864  28.702  1.00  0.00     0.293 HD
ENDBRANCH  31  34
ENDBRANCH  15  26
ENDBRANCH   7   9
ENDBRANCH   6   7
ENDBRANCH   5   6
ENDBRANCH   4   5
ENDBRANCH   3   4
ENDBRANCH   2   3
ENDBRANCH   1   2
BRANCH   1  36
ATOM     36  O   UNL A   1      31.348  28.764  26.518  1.00  0.00    -0.376 OA
BRANCH  36  37
ATOM     37  C   UNL A   1      32.545  28.734  27.280  1.00  0.00     0.202 C 
BRANCH  37  38
ATOM     38  C   UNL A   1      33.523  29.926  27.403  1.00  0.00     0.261 C 
BRANCH  38  39
ATOM     39  O   UNL A   1      34.920  29.646  27.233  1.00  0.00    -0.460 OA
BRANCH  39  40
ATOM     40  C   UNL A   1      35.741  30.174  28.171  1.00  0.00     0.338 C 
ATOM     41  O   UNL A   1      35.472  31.028  29.001  1.00  0.00    -0.246 OA
BRANCH  40  42
ATOM     42  C   UNL A   1      37.009  29.443  28.215  1.00  0.00     0.060 A 
ATOM     43  C   UNL A   1      37.672  28.784  29.774  1.00  0.00     0.016 A 
ATOM     44  C   UNL A   1      38.097  29.689  26.863  1.00  0.00     0.016 A 
ATOM     45  C   UNL A   1      39.659  28.390  29.859  1.00  0.00     0.010 A 
ATOM     46  C   UNL A   1      39.835  29.349  26.951  1.00  0.00     0.010 A 
ATOM     47  C   UNL A   1      40.643  28.730  28.389  1.00  0.00    -0.014 A 
BRANCH  47  48
ATOM     48  C   UNL A   1      42.100  28.572  28.377  1.00  0.00     0.031 A 
ATOM     49  C   UNL A   1      42.705  27.299  27.869  1.00  0.00     0.074 A 
ATOM     50  C   UNL A   1      42.835  29.567  28.896  1.00  0.00     0.049 A 
ATOM     51  N   UNL A   1      43.958  26.933  27.849  1.00  0.00    -0.248 NA
ATOM     52  C   UNL A   1      41.788  26.281  27.336  1.00  0.00     0.031 C 
ATOM     53  C   UNL A   1      42.295  30.801  29.466  1.00  0.00     0.029 A 
ATOM     54  N   UNL A   1      44.184  29.700  29.052  1.00  0.00    -0.354 N 
ATOM     55  C   UNL A   1      43.968  25.648  27.314  1.00  0.00     0.074 A 
ATOM     56  C   UNL A   1      42.599  25.270  27.077  1.00  0.00     0.031 C 
ATOM     57  C   UNL A   1      43.299  31.585  29.875  1.00  0.00     0.029 A 
ATOM     58  C   UNL A   1      44.550  30.877  29.662  1.00  0.00     0.049 A 
ATOM     59  H   UNL A   1      44.832  29.020  28.757  1.00  0.00     0.167 HD
ATOM     60  C   UNL A   1      45.035  24.867  27.038  1.00  0.00     0.037 A 
ATOM     61  C   UNL A   1      45.763  31.316  30.034  1.00  0.00     0.037 A 
ATOM     62  C   UNL A   1      46.382  25.283  27.317  1.00  0.00     0.049 A 
ATOM     63  C   UNL A   1      46.930  30.422  29.741  1.00  0.00     0.074 A 
ATOM     64  C   UNL A   1      47.564  24.610  27.077  1.00  0.00     0.029 A 
ATOM     65  N   UNL A   1      46.719  26.490  27.919  1.00  0.00    -0.354 N 
ATOM     66  N   UNL A   1      46.932  29.229  29.188  1.00  0.00    -0.248 NA
ATOM     67  C   UNL A   1      48.254  30.922  30.112  1.00  0.00     0.031 C 
ATOM     68  C   UNL A   1      48.608  25.380  27.598  1.00  0.00     0.029 A 
ATOM     69  C   UNL A   1      48.088  26.571  28.085  1.00  0.00     0.049 A 
ATOM     70  H   UNL A   1      46.075  27.185  28.188  1.00  0.00     0.167 HD
ATOM     71  C   UNL A   1      48.261  28.845  29.118  1.00  0.00     0.074 A 
ATOM     72  C   UNL A   1      49.033  29.946  29.668  1.00  0.00     0.031 C 
ATOM     73  C   UNL A   1      48.803  27.694  28.646  1.00  0.00     0.037 A 
BRANCH  60  74
ATOM     74  C   UNL A   1      44.778  23.505  26.444  1.00  0.00     0.058 A 
ATOM     75  C   UNL A   1      45.067  23.210  25.100  1.00  0.00     0.135 A 
ATOM     76  C   UNL A   1      44.236  22.475  27.230  1.00  0.00     0.135 A 
ATOM     77  F   UNL A   1      45.562  24.158  24.288  1.00  0.00    -0.206 F 
ATOM     78  C   UNL A   1      44.807  21.956  24.554  1.00  0.00     0.059 A 
ATOM     79  C   UNL A   1      43.999  21.203  26.714  1.00  0.00     0.059 A 
ATOM     80  F   UNL A   1      43.921  22.699  28.515  1.00  0.00    -0.206 F 
ATOM     81  C   UNL A   1      44.278  20.956  25.371  1.00  0.00     0.060 A 
BRANCH  81  82
ATOM     82  S   UNL A   1      43.977  19.328  24.652  1.00  0.00     0.124 S 
ATOM     83  O   UNL A   1      42.565  19.124  24.965  1.00  0.00    -0.237 OA
ATOM     84  O   UNL A   1      44.285  19.552  23.243  1.00  0.00    -0.237 OA
ATOM     85  O   UNL A   1      44.908  18.460  25.366  1.00  0.00    -0.744 OA
ENDBRANCH  81  82
ENDBRANCH  60  74
BRANCH  61  86
ATOM     86  C   UNL A   1      45.909  32.639  30.697  1.00  0.00     0.058 A 
ATOM     87  C   UNL A   1      45.884  32.757  32.094  1.00  0.00     0.135 A 
ATOM     88  C   UNL A   1      46.126  33.809  29.950  1.00  0.00     0.135 A 
ATOM     89  F   UNL A   1      45.691  31.669  32.855  1.00  0.00    -0.206 F 
ATOM     90  C   UNL A   1      46.039  33.987  32.725  1.00  0.00     0.059 A 
ATOM     91  C   UNL A   1      46.320  35.045  30.559  1.00  0.00     0.059 A 
ATOM     92  F   UNL A   1      46.193  33.751  28.610  1.00  0.00    -0.206 F 
ATOM     93  C   UNL A   1      46.259  35.126  31.948  1.00  0.00     0.060 A 
BRANCH  93  94
ATOM     94  S   UNL A   1      46.474  36.714  32.780  1.00  0.00     0.124 S 
ATOM     95  O   UNL A   1      47.059  36.301  34.050  1.00  0.00    -0.237 OA
ATOM     96  O   UNL A   1      47.366  37.418  31.865  1.00  0.00    -0.237 OA
ATOM     97  O   UNL A   1      45.116  37.242  32.855  1.00  0.00    -0.744 OA
ENDBRANCH  93  94
ENDBRANCH  61  86
BRANCH  73  98
ATOM     98  C   UNL A   1      50.300  27.604  28.669  1.00  0.00     0.058 A 
ATOM     99  C   UNL A   1      50.992  27.047  29.755  1.00  0.00     0.135 A 
ATOM    100  C   UNL A   1      51.044  28.055  27.568  1.00  0.00     0.135 A 
ATOM    101  F   UNL A   1      50.323  26.609  30.833  1.00  0.00    -0.206 F 
ATOM    102  C   UNL A   1      52.378  26.982  29.767  1.00  0.00     0.059 A 
ATOM    103  C   UNL A   1      52.428  27.956  27.539  1.00  0.00     0.059 A 
ATOM    104  F   UNL A   1      50.425  28.584  26.500  1.00  0.00    -0.206 F 
ATOM    105  C   UNL A   1      53.086  27.435  28.651  1.00  0.00     0.060 A 
BRANCH 105 106
ATOM    106  S   UNL A   1      54.883  27.319  28.671  1.00  0.00     0.124 S 
ATOM    107  O   UNL A   1      55.214  28.104  29.856  1.00  0.00    -0.237 OA
ATOM    108  O   UNL A   1      55.099  25.880  28.783  1.00  0.00    -0.237 OA
ATOM    109  O   UNL A   1      55.277  27.911  27.396  1.00  0.00    -0.744 OA
ENDBRANCH 105 106
ENDBRANCH  73  98
ENDBRANCH  47  48
ENDBRANCH  40  42
ENDBRANCH  39  40
ENDBRANCH  38  39
ENDBRANCH  37  38
ENDBRANCH  36  37
ENDBRANCH   1  36
TORSDOF 26
ENDMDL
MODEL 3
REMARK VINA RESULT:     -10.4      5.479      9.673
REMARK SMILES O=C1O[C@@H](c2ccc(O)c(O)c2)[C@H](C(=O)OCCOCCOCCOC(=O)c2ccc(-c3c4nc(c(-c5c(F)cc(S(=O)(=O)[O-])cc5F)c5ccc([nH]5)c(-c5c(F)cc(S(=O)(=O)[O-])cc5F)c5nc(c(-c6c(F)cc(S(=O)(=O)[O-])cc6F)c6ccc3[nH]6)C=C5)C=C4)cc2)/C1=C\c1ccc(O)c(O)c1
REMARK SMILES IDX 21 1 20 2 19 3 18 4 17 5 16 6 14 7 15 8 13 9 1 10 2 11 3 12
REMARK SMILES IDX 94 13 4 14 95 15 5 16 6 17 12 18 7 19 10 20 8 21 11 22 9 24
REMARK SMILES IDX 96 26 97 27 103 28 98 29 101 30 99 31 102 32 100 34 22 36
REMARK SMILES IDX 23 37 24 38 25 39 26 40 27 41 28 42 29 43 93 44 30 45 92 46
REMARK SMILES IDX 31 47 32 48 33 49 86 50 34 51 91 52 85 53 87 54 35 55 90 56
REMARK SMILES IDX 84 57 83 58 36 60 70 61 49 62 69 63 50 64 53 65 68 66 88 67
REMARK SMILES IDX 51 68 52 69 67 71 89 72 54 73 37 74 38 75 47 76 39 77 40 78
REMARK SMILES IDX 46 79 48 80 41 81 42 82 43 83 44 84 45 85 71 86 72 87 81 88
REMARK SMILES IDX 73 89 74 90 80 91 82 92 75 93 76 94 77 95 78 96 79 97 55 98
REMARK SMILES IDX 56 99 65 100 57 101 58 102 64 103 66 104 59 105 60 106
REMARK SMILES IDX 61 107 62 108 63 109
REMARK H PARENT 11 23 9 25 102 33 100 35 87 59 53 70
REMARK Flexibility Score: inf
ROOT
ATOM      1  C   UNL A   1      31.417  28.965  24.941  1.00  0.00     0.188 C 
ENDROOT
BRANCH   1   2
ATOM      2  C   UNL A   1      31.581  27.891  23.835  1.00  0.00     0.188 C 
BRANCH   2   3
ATOM      3  O   UNL A   1      32.859  27.671  23.306  1.00  0.00    -0.376 OA
BRANCH   3   4
ATOM      4  C   UNL A   1      33.668  26.647  23.829  1.00  0.00     0.202 C 
BRANCH   4   5
ATOM      5  C   UNL A   1      33.289  25.763  25.034  1.00  0.00     0.261 C 
BRANCH   5   6
ATOM      6  O   UNL A   1      32.635  24.508  24.776  1.00  0.00    -0.463 OA
BRANCH   6   7
ATOM      7  C   UNL A   1      32.866  23.495  25.668  1.00  0.00     0.317 C 
ATOM      8  O   UNL A   1      32.620  23.560  26.863  1.00  0.00    -0.251 OA
BRANCH   7   9
ATOM      9  C   UNL A   1      33.436  22.274  24.941  1.00  0.00     0.182 C 
ATOM     10  O   UNL A   1      33.489  23.307  21.573  1.00  0.00    -0.247 OA
ATOM     11  C   UNL A   1      33.291  22.782  22.651  1.00  0.00     0.335 C 
ATOM     12  O   UNL A   1      32.116  22.195  23.034  1.00  0.00    -0.453 OA
ATOM     13  C   UNL A   1      34.265  22.641  23.765  1.00  0.00     0.056 C 
ATOM     14  C   UNL A   1      32.269  21.547  24.309  1.00  0.00     0.226 C 
ATOM     15  C   UNL A   1      35.596  22.735  23.570  1.00  0.00     0.020 C 
BRANCH  14  16
ATOM     16  C   UNL A   1      32.439  20.036  24.164  1.00  0.00    -0.002 A 
ATOM     17  C   UNL A   1      32.316  19.405  22.906  1.00  0.00     0.012 A 
ATOM     18  C   UNL A   1      32.805  19.249  25.268  1.00  0.00     0.057 A 
ATOM     19  C   UNL A   1      32.534  18.026  22.761  1.00  0.00     0.050 A 
ATOM     20  C   UNL A   1      33.029  17.887  25.112  1.00  0.00     0.157 A 
ATOM     21  C   UNL A   1      32.896  17.276  23.872  1.00  0.00     0.157 A 
BRANCH  20  22
ATOM     22  O   UNL A   1      33.401  17.152  26.201  1.00  0.00    -0.504 OA
ATOM     23  H   UNL A   1      32.757  16.672  26.684  1.00  0.00     0.293 HD
ENDBRANCH  20  22
BRANCH  21  24
ATOM     24  O   UNL A   1      33.150  15.935  23.793  1.00  0.00    -0.504 OA
ATOM     25  H   UNL A   1      34.034  15.624  23.811  1.00  0.00     0.293 HD
ENDBRANCH  21  24
ENDBRANCH  14  16
BRANCH  15  26
ATOM     26  C   UNL A   1      36.703  22.528  24.540  1.00  0.00    -0.021 A 
ATOM     27  C   UNL A   1      37.470  20.931  24.656  1.00  0.00     0.012 A 
ATOM     28  C   UNL A   1      37.280  23.918  25.432  1.00  0.00     0.058 A 
ATOM     29  C   UNL A   1      38.867  20.574  25.686  1.00  0.00     0.051 A 
ATOM     30  C   UNL A   1      38.698  23.743  26.537  1.00  0.00     0.157 A 
ATOM     31  C   UNL A   1      39.571  21.910  26.687  1.00  0.00     0.157 A 
BRANCH  30  32
ATOM     32  O   UNL A   1      38.829  24.997  27.146  1.00  0.00    -0.504 OA
ATOM     33  H   UNL A   1      38.960  25.761  26.621  1.00  0.00     0.293 HD
ENDBRANCH  30  32
BRANCH  31  34
ATOM     34  O   UNL A   1      40.546  21.336  27.504  1.00  0.00    -0.504 OA
ATOM     35  H   UNL A   1      40.946  20.525  27.256  1.00  0.00     0.293 HD
ENDBRANCH  31  34
ENDBRANCH  15  26
ENDBRANCH   7   9
ENDBRANCH   6   7
ENDBRANCH   5   6
ENDBRANCH   4   5
ENDBRANCH   3   4
ENDBRANCH   2   3
ENDBRANCH   1   2
BRANCH   1  36
ATOM     36  O   UNL A   1      31.408  28.558  26.285  1.00  0.00    -0.376 OA
BRANCH  36  37
ATOM     37  C   UNL A   1      31.968  29.452  27.234  1.00  0.00     0.202 C 
BRANCH  37  38
ATOM     38  C   UNL A   1      32.354  30.916  26.920  1.00  0.00     0.261 C 
BRANCH  38  39
ATOM     39  O   UNL A   1      33.716  31.299  27.160  1.00  0.00    -0.460 OA
BRANCH  39  40
ATOM     40  C   UNL A   1      33.887  32.451  27.851  1.00  0.00     0.338 C 
ATOM     41  O   UNL A   1      33.132  33.410  27.900  1.00  0.00    -0.246 OA
BRANCH  40  42
ATOM     42  C   UNL A   1      35.051  32.353  28.735  1.00  0.00     0.060 A 
ATOM     43  C   UNL A   1      35.343  33.564  30.058  1.00  0.00     0.016 A 
ATOM     44  C   UNL A   1      36.392  31.388  28.152  1.00  0.00     0.016 A 
ATOM     45  C   UNL A   1      37.233  33.741  30.771  1.00  0.00     0.010 A 
ATOM     46  C   UNL A   1      38.043  31.556  28.776  1.00  0.00     0.010 A 
ATOM     47  C   UNL A   1      38.504  32.696  30.039  1.00  0.00    -0.014 A 
BRANCH  47  48
ATOM     48  C   UNL A   1      39.916  32.813  30.413  1.00  0.00     0.031 A 
ATOM     49  C   UNL A   1      40.517  31.824  31.365  1.00  0.00     0.074 A 
ATOM     50  C   UNL A   1      40.599  33.862  29.931  1.00  0.00     0.049 A 
ATOM     51  N   UNL A   1      41.717  31.800  31.879  1.00  0.00    -0.248 NA
ATOM     52  C   UNL A   1      39.657  30.726  31.829  1.00  0.00     0.031 C 
ATOM     53  C   UNL A   1      40.045  34.894  29.055  1.00  0.00     0.029 A 
ATOM     54  N   UNL A   1      41.893  34.255  30.119  1.00  0.00    -0.354 N 
ATOM     55  C   UNL A   1      41.742  30.697  32.728  1.00  0.00     0.074 A 
ATOM     56  C   UNL A   1      40.427  30.109  32.709  1.00  0.00     0.031 C 
ATOM     57  C   UNL A   1      40.998  35.781  28.747  1.00  0.00     0.029 A 
ATOM     58  C   UNL A   1      42.210  35.420  29.463  1.00  0.00     0.049 A 
ATOM     59  H   UNL A   1      42.536  33.752  30.670  1.00  0.00     0.167 HD
ATOM     60  C   UNL A   1      42.782  30.220  33.446  1.00  0.00     0.037 A 
ATOM     61  C   UNL A   1      43.349  36.131  29.468  1.00  0.00     0.037 A 
ATOM     62  C   UNL A   1      44.069  30.859  33.449  1.00  0.00     0.049 A 
ATOM     63  C   UNL A   1      44.482  35.597  30.292  1.00  0.00     0.074 A 
ATOM     64  C   UNL A   1      45.221  30.483  34.111  1.00  0.00     0.029 A 
ATOM     65  N   UNL A   1      44.362  32.030  32.758  1.00  0.00    -0.354 N 
ATOM     66  N   UNL A   1      44.510  34.524  31.050  1.00  0.00    -0.248 NA
ATOM     67  C   UNL A   1      45.734  36.354  30.263  1.00  0.00     0.031 C 
ATOM     68  C   UNL A   1      46.189  31.465  33.874  1.00  0.00     0.029 A 
ATOM     69  C   UNL A   1      45.669  32.408  32.998  1.00  0.00     0.049 A 
ATOM     70  H   UNL A   1      43.729  32.518  32.182  1.00  0.00     0.167 HD
ATOM     71  C   UNL A   1      45.792  34.460  31.570  1.00  0.00     0.074 A 
ATOM     72  C   UNL A   1      46.513  35.594  31.018  1.00  0.00     0.031 C 
ATOM     73  C   UNL A   1      46.334  33.554  32.423  1.00  0.00     0.037 A 
BRANCH  60  74
ATOM     74  C   UNL A   1      42.553  28.989  34.288  1.00  0.00     0.058 A 
ATOM     75  C   UNL A   1      42.814  27.695  33.804  1.00  0.00     0.135 A 
ATOM     76  C   UNL A   1      42.068  29.104  35.600  1.00  0.00     0.135 A 
ATOM     77  F   UNL A   1      43.254  27.516  32.548  1.00  0.00    -0.206 F 
ATOM     78  C   UNL A   1      42.579  26.563  34.580  1.00  0.00     0.059 A 
ATOM     79  C   UNL A   1      41.858  27.987  36.407  1.00  0.00     0.059 A 
ATOM     80  F   UNL A   1      41.782  30.311  36.114  1.00  0.00    -0.206 F 
ATOM     81  C   UNL A   1      42.108  26.720  35.884  1.00  0.00     0.060 A 
BRANCH  81  82
ATOM     82  S   UNL A   1      41.840  25.241  36.884  1.00  0.00     0.124 S 
ATOM     83  O   UNL A   1      40.753  25.671  37.760  1.00  0.00    -0.237 OA
ATOM     84  O   UNL A   1      41.484  24.247  35.876  1.00  0.00    -0.237 OA
ATOM     85  O   UNL A   1      43.127  25.034  37.541  1.00  0.00    -0.744 OA
ENDBRANCH  81  82
ENDBRANCH  60  74
BRANCH  61  86
ATOM     86  C   UNL A   1      43.453  37.385  28.675  1.00  0.00     0.058 A 
ATOM     87  C   UNL A   1      43.467  38.640  29.300  1.00  0.00     0.135 A 
ATOM     88  C   UNL A   1      43.588  37.355  27.277  1.00  0.00     0.135 A 
ATOM     89  F   UNL A   1      43.351  38.726  30.634  1.00  0.00    -0.206 F 
ATOM     90  C   UNL A   1      43.582  39.818  28.569  1.00  0.00     0.059 A 
ATOM     91  C   UNL A   1      43.742  38.516  26.527  1.00  0.00     0.059 A 
ATOM     92  F   UNL A   1      43.614  36.179  26.627  1.00  0.00    -0.206 F 
ATOM     93  C   UNL A   1      43.722  39.746  27.182  1.00  0.00     0.060 A 
BRANCH  93  94
ATOM     94  S   UNL A   1      43.886  41.281  26.247  1.00  0.00     0.124 S 
ATOM     95  O   UNL A   1      44.944  40.936  25.303  1.00  0.00    -0.237 OA
ATOM     96  O   UNL A   1      42.551  41.436  25.679  1.00  0.00    -0.237 OA
ATOM     97  O   UNL A   1      44.247  42.260  27.266  1.00  0.00    -0.744 OA
ENDBRANCH  93  94
ENDBRANCH  61  86
BRANCH  73  98
ATOM     98  C   UNL A   1      47.782  33.741  32.763  1.00  0.00     0.058 A 
ATOM     99  C   UNL A   1      48.805  33.183  31.982  1.00  0.00     0.135 A 
ATOM    100  C   UNL A   1      48.144  34.521  33.873  1.00  0.00     0.135 A 
ATOM    101  F   UNL A   1      48.507  32.424  30.916  1.00  0.00    -0.206 F 
ATOM    102  C   UNL A   1      50.141  33.355  32.317  1.00  0.00     0.059 A 
ATOM    103  C   UNL A   1      49.474  34.744  34.199  1.00  0.00     0.059 A 
ATOM    104  F   UNL A   1      47.200  35.086  34.643  1.00  0.00    -0.206 F 
ATOM    105  C   UNL A   1      50.464  34.143  33.425  1.00  0.00     0.060 A 
BRANCH 105 106
ATOM    106  S   UNL A   1      52.203  34.377  33.831  1.00  0.00     0.124 S 
ATOM    107  O   UNL A   1      52.640  35.257  32.753  1.00  0.00    -0.237 OA
ATOM    108  O   UNL A   1      52.131  34.985  35.156  1.00  0.00    -0.237 OA
ATOM    109  O   UNL A   1      52.747  33.023  33.796  1.00  0.00    -0.744 OA
ENDBRANCH 105 106
ENDBRANCH  73  98
ENDBRANCH  47  48
ENDBRANCH  40  42
ENDBRANCH  39  40
ENDBRANCH  38  39
ENDBRANCH  37  38
ENDBRANCH  36  37
ENDBRANCH   1  36
TORSDOF 26
ENDMDL
