MODEL 1
REMARK VINA RESULT:     -10.5      0.000      0.000
REMARK SMILES C[C@H](NC(=O)N(C)C)c1ccc(/C=C/C(=O)OCCOCCOCCOC(=O)c2ccc(-c3c4nc(c(-c5c(F)cc(S(=O)(=O)[O-])cc5F)c5ccc([nH]5)c(-c5c(F)cc(S(=O)(=O)[O-])cc5F)c5nc(c(-c6c(F)cc(S(=O)(=O)[O-])cc6F)c6ccc3[nH]6)C=C5)C=C4)cc2)cc1
REMARK SMILES IDX 21 1 20 2 19 3 18 4 17 5 15 6 16 7 14 8 13 9 12 10 9 11
REMARK SMILES IDX 10 12 96 13 11 14 95 15 2 16 1 17 3 18 4 19 5 21 6 22 7 23
REMARK SMILES IDX 8 24 22 25 23 26 24 27 25 28 26 29 27 30 28 31 29 32 30 33
REMARK SMILES IDX 94 34 31 35 93 36 32 37 33 38 34 39 87 40 35 41 92 42 86 43
REMARK SMILES IDX 88 44 36 45 91 46 85 47 84 48 37 50 71 51 50 52 70 53 51 54
REMARK SMILES IDX 54 55 69 56 89 57 52 58 53 59 68 61 90 62 55 63 38 64 39 65
REMARK SMILES IDX 48 66 40 67 41 68 47 69 49 70 42 71 43 72 44 73 45 74 46 75
REMARK SMILES IDX 72 76 73 77 82 78 74 79 75 80 81 81 83 82 76 83 77 84 78 85
REMARK SMILES IDX 79 86 80 87 56 88 57 89 66 90 58 91 59 92 65 93 67 94 60 95
REMARK SMILES IDX 61 96 62 97 63 98 64 99
REMARK H PARENT 3 20 88 49 54 60
REMARK Flexibility Score: inf
ROOT
ATOM      1  C   UNL A   1      34.257  36.446  32.595  1.00  0.00     0.188 C 
ENDROOT
BRANCH   1   2
ATOM      2  O   UNL A   1      33.042  36.262  31.891  1.00  0.00    -0.376 OA
BRANCH   2   3
ATOM      3  C   UNL A   1      33.018  35.528  30.678  1.00  0.00     0.202 C 
BRANCH   3   4
ATOM      4  C   UNL A   1      34.229  34.743  30.144  1.00  0.00     0.261 C 
BRANCH   4   5
ATOM      5  O   UNL A   1      33.954  33.450  29.593  1.00  0.00    -0.460 OA
BRANCH   5   6
ATOM      6  C   UNL A   1      34.257  33.301  28.279  1.00  0.00     0.330 C 
ATOM      7  O   UNL A   1      35.030  33.992  27.634  1.00  0.00    -0.247 OA
BRANCH   6   8
ATOM      8  C   UNL A   1      33.619  32.105  27.686  1.00  0.00     0.094 C 
ATOM      9  C   UNL A   1      34.138  30.867  27.698  1.00  0.00     0.015 C 
BRANCH   9  10
ATOM     10  C   UNL A   1      33.464  29.691  27.123  1.00  0.00    -0.025 A 
ATOM     11  C   UNL A   1      32.250  27.323  26.128  1.00  0.00    -0.026 A 
ATOM     12  C   UNL A   1      31.481  28.459  26.420  1.00  0.00     0.006 A 
ATOM     13  C   UNL A   1      33.642  27.421  26.265  1.00  0.00     0.006 A 
ATOM     14  C   UNL A   1      32.081  29.628  26.909  1.00  0.00     0.008 A 
ATOM     15  C   UNL A   1      34.240  28.588  26.752  1.00  0.00     0.008 A 
BRANCH  11  16
ATOM     16  C   UNL A   1      31.640  26.002  25.692  1.00  0.00     0.111 C 
ATOM     17  C   UNL A   1      30.312  26.198  24.960  1.00  0.00     0.036 C 
BRANCH  16  18
ATOM     18  N   UNL A   1      31.465  25.070  26.798  1.00  0.00    -0.331 N 
ATOM     19  C   UNL A   1      31.393  23.717  26.732  1.00  0.00     0.317 C 
ATOM     20  H   UNL A   1      31.388  25.467  27.695  1.00  0.00     0.165 HD
ATOM     21  O   UNL A   1      30.642  23.135  27.514  1.00  0.00    -0.249 OA
ATOM     22  N   UNL A   1      32.132  23.051  25.785  1.00  0.00    -0.331 N 
ATOM     23  C   UNL A   1      33.457  23.472  25.356  1.00  0.00     0.148 C 
ATOM     24  C   UNL A   1      31.758  21.686  25.477  1.00  0.00     0.148 C 
ENDBRANCH  16  18
ENDBRANCH  11  16
ENDBRANCH   9  10
ENDBRANCH   6   8
ENDBRANCH   5   6
ENDBRANCH   4   5
ENDBRANCH   3   4
ENDBRANCH   2   3
ENDBRANCH   1   2
BRANCH   1  25
ATOM     25  C   UNL A   1      34.714  35.389  33.619  1.00  0.00     0.188 C 
BRANCH  25  26
ATOM     26  O   UNL A   1      36.100  35.255  33.824  1.00  0.00    -0.376 OA
BRANCH  26  27
ATOM     27  C   UNL A   1      36.747  34.017  33.575  1.00  0.00     0.202 C 
BRANCH  27  28
ATOM     28  C   UNL A   1      36.522  33.084  32.368  1.00  0.00     0.261 C 
BRANCH  28  29
ATOM     29  O   UNL A   1      37.491  32.074  32.086  1.00  0.00    -0.460 OA
BRANCH  29  30
ATOM     30  C   UNL A   1      37.157  31.192  31.116  1.00  0.00     0.338 C 
ATOM     31  O   UNL A   1      36.039  30.986  30.656  1.00  0.00    -0.246 OA
BRANCH  30  32
ATOM     32  C   UNL A   1      38.390  30.619  30.553  1.00  0.00     0.060 A 
ATOM     33  C   UNL A   1      39.437  30.284  31.422  1.00  0.00     0.016 A 
ATOM     34  C   UNL A   1      38.522  30.441  29.174  1.00  0.00     0.016 A 
ATOM     35  C   UNL A   1      40.631  29.782  30.908  1.00  0.00     0.010 A 
ATOM     36  C   UNL A   1      39.729  29.957  28.662  1.00  0.00     0.010 A 
ATOM     37  C   UNL A   1      40.796  29.648  29.523  1.00  0.00    -0.014 A 
BRANCH  37  38
ATOM     38  C   UNL A   1      42.135  29.339  28.964  1.00  0.00     0.031 A 
ATOM     39  C   UNL A   1      42.408  27.942  28.477  1.00  0.00     0.074 A 
ATOM     40  C   UNL A   1      43.088  30.284  28.882  1.00  0.00     0.049 A 
ATOM     41  N   UNL A   1      43.516  27.428  28.010  1.00  0.00    -0.248 NA
ATOM     42  C   UNL A   1      41.280  26.998  28.530  1.00  0.00     0.031 C 
ATOM     43  C   UNL A   1      42.932  31.681  29.285  1.00  0.00     0.029 A 
ATOM     44  N   UNL A   1      44.387  30.204  28.441  1.00  0.00    -0.354 N 
ATOM     45  C   UNL A   1      43.222  26.100  27.720  1.00  0.00     0.074 A 
ATOM     46  C   UNL A   1      41.841  25.882  28.092  1.00  0.00     0.031 C 
ATOM     47  C   UNL A   1      44.096  32.324  29.086  1.00  0.00     0.029 A 
ATOM     48  C   UNL A   1      45.088  31.378  28.578  1.00  0.00     0.049 A 
ATOM     49  H   UNL A   1      44.778  29.384  28.064  1.00  0.00     0.167 HD
ATOM     50  C   UNL A   1      44.028  25.153  27.187  1.00  0.00     0.037 A 
ATOM     51  C   UNL A   1      46.389  31.649  28.344  1.00  0.00     0.037 A 
ATOM     52  C   UNL A   1      45.404  25.376  26.825  1.00  0.00     0.049 A 
ATOM     53  C   UNL A   1      47.288  30.558  27.819  1.00  0.00     0.074 A 
ATOM     54  C   UNL A   1      46.300  24.485  26.260  1.00  0.00     0.029 A 
ATOM     55  N   UNL A   1      46.087  26.570  27.003  1.00  0.00    -0.354 N 
ATOM     56  N   UNL A   1      46.993  29.314  27.524  1.00  0.00    -0.248 NA
ATOM     57  C   UNL A   1      48.698  30.908  27.594  1.00  0.00     0.031 C 
ATOM     58  C   UNL A   1      47.539  25.124  26.148  1.00  0.00     0.029 A 
ATOM     59  C   UNL A   1      47.401  26.431  26.586  1.00  0.00     0.049 A 
ATOM     60  H   UNL A   1      45.696  27.396  27.371  1.00  0.00     0.167 HD
ATOM     61  C   UNL A   1      48.172  28.742  27.053  1.00  0.00     0.074 A 
ATOM     62  C   UNL A   1      49.181  29.780  27.093  1.00  0.00     0.031 C 
ATOM     63  C   UNL A   1      48.397  27.475  26.625  1.00  0.00     0.037 A 
BRANCH  50  64
ATOM     64  C   UNL A   1      43.450  23.778  26.993  1.00  0.00     0.058 A 
ATOM     65  C   UNL A   1      43.020  23.325  25.735  1.00  0.00     0.135 A 
ATOM     66  C   UNL A   1      43.351  22.889  28.076  1.00  0.00     0.135 A 
ATOM     67  F   UNL A   1      43.075  24.138  24.668  1.00  0.00    -0.206 F 
ATOM     68  C   UNL A   1      42.483  22.053  25.564  1.00  0.00     0.059 A 
ATOM     69  C   UNL A   1      42.845  21.602  27.923  1.00  0.00     0.059 A 
ATOM     70  F   UNL A   1      43.744  23.270  29.301  1.00  0.00    -0.206 F 
ATOM     71  C   UNL A   1      42.400  21.198  26.665  1.00  0.00     0.060 A 
BRANCH  71  72
ATOM     72  S   UNL A   1      41.701  19.551  26.427  1.00  0.00     0.124 S 
ATOM     73  O   UNL A   1      42.110  18.880  27.657  1.00  0.00    -0.237 OA
ATOM     74  O   UNL A   1      40.274  19.834  26.305  1.00  0.00    -0.237 OA
ATOM     75  O   UNL A   1      42.350  19.078  25.208  1.00  0.00    -0.744 OA
ENDBRANCH  71  72
ENDBRANCH  50  64
BRANCH  51  76
ATOM     76  C   UNL A   1      46.926  33.010  28.616  1.00  0.00     0.058 A 
ATOM     77  C   UNL A   1      47.404  33.361  29.887  1.00  0.00     0.135 A 
ATOM     78  C   UNL A   1      46.968  33.989  27.610  1.00  0.00     0.135 A 
ATOM     79  F   UNL A   1      47.372  32.467  30.886  1.00  0.00    -0.206 F 
ATOM     80  C   UNL A   1      47.894  34.636  30.155  1.00  0.00     0.059 A 
ATOM     81  C   UNL A   1      47.479  35.262  27.845  1.00  0.00     0.059 A 
ATOM     82  F   UNL A   1      46.529  33.703  26.374  1.00  0.00    -0.206 F 
ATOM     83  C   UNL A   1      47.932  35.579  29.126  1.00  0.00     0.060 A 
BRANCH  83  84
ATOM     84  S   UNL A   1      48.615  37.213  29.473  1.00  0.00     0.124 S 
ATOM     85  O   UNL A   1      47.411  37.979  29.774  1.00  0.00    -0.237 OA
ATOM     86  O   UNL A   1      49.497  36.942  30.605  1.00  0.00    -0.237 OA
ATOM     87  O   UNL A   1      49.294  37.566  28.229  1.00  0.00    -0.744 OA
ENDBRANCH  83  84
ENDBRANCH  51  76
BRANCH  63  88
ATOM     88  C   UNL A   1      49.779  27.140  26.128  1.00  0.00     0.058 A 
ATOM     89  C   UNL A   1      50.784  26.672  26.988  1.00  0.00     0.135 A 
ATOM     90  C   UNL A   1      50.082  27.233  24.758  1.00  0.00     0.135 A 
ATOM     91  F   UNL A   1      50.551  26.568  28.306  1.00  0.00    -0.206 F 
ATOM     92  C   UNL A   1      52.047  26.331  26.514  1.00  0.00     0.059 A 
ATOM     93  C   UNL A   1      51.329  26.870  24.259  1.00  0.00     0.059 A 
ATOM     94  F   UNL A   1      49.155  27.663  23.888  1.00  0.00    -0.206 F 
ATOM     95  C   UNL A   1      52.309  26.431  25.146  1.00  0.00     0.060 A 
BRANCH  95  96
ATOM     96  S   UNL A   1      53.941  25.952  24.541  1.00  0.00     0.124 S 
ATOM     97  O   UNL A   1      53.880  26.388  23.149  1.00  0.00    -0.237 OA
ATOM     98  O   UNL A   1      54.834  26.719  25.406  1.00  0.00    -0.237 OA
ATOM     99  O   UNL A   1      53.971  24.507  24.745  1.00  0.00    -0.744 OA
ENDBRANCH  95  96
ENDBRANCH  63  88
ENDBRANCH  37  38
ENDBRANCH  30  32
ENDBRANCH  29  30
ENDBRANCH  28  29
ENDBRANCH  27  28
ENDBRANCH  26  27
ENDBRANCH  25  26
ENDBRANCH   1  25
TORSDOF 23
ENDMDL
MODEL 2
REMARK VINA RESULT:     -10.2      6.007     13.113
REMARK SMILES C[C@H](NC(=O)N(C)C)c1ccc(/C=C/C(=O)OCCOCCOCCOC(=O)c2ccc(-c3c4nc(c(-c5c(F)cc(S(=O)(=O)[O-])cc5F)c5ccc([nH]5)c(-c5c(F)cc(S(=O)(=O)[O-])cc5F)c5nc(c(-c6c(F)cc(S(=O)(=O)[O-])cc6F)c6ccc3[nH]6)C=C5)C=C4)cc2)cc1
REMARK SMILES IDX 21 1 20 2 19 3 18 4 17 5 15 6 16 7 14 8 13 9 12 10 9 11
REMARK SMILES IDX 10 12 96 13 11 14 95 15 2 16 1 17 3 18 4 19 5 21 6 22 7 23
REMARK SMILES IDX 8 24 22 25 23 26 24 27 25 28 26 29 27 30 28 31 29 32 30 33
REMARK SMILES IDX 94 34 31 35 93 36 32 37 33 38 34 39 87 40 35 41 92 42 86 43
REMARK SMILES IDX 88 44 36 45 91 46 85 47 84 48 37 50 71 51 50 52 70 53 51 54
REMARK SMILES IDX 54 55 69 56 89 57 52 58 53 59 68 61 90 62 55 63 38 64 39 65
REMARK SMILES IDX 48 66 40 67 41 68 47 69 49 70 42 71 43 72 44 73 45 74 46 75
REMARK SMILES IDX 72 76 73 77 82 78 74 79 75 80 81 81 83 82 76 83 77 84 78 85
REMARK SMILES IDX 79 86 80 87 56 88 57 89 66 90 58 91 59 92 65 93 67 94 60 95
REMARK SMILES IDX 61 96 62 97 63 98 64 99
REMARK H PARENT 3 20 88 49 54 60
REMARK Flexibility Score: inf
ROOT
ATOM      1  C   UNL A   1      46.142  20.169  24.766  1.00  0.00     0.188 C 
ENDROOT
BRANCH   1   2
ATOM      2  O   UNL A   1      45.472  18.974  25.125  1.00  0.00    -0.376 OA
BRANCH   2   3
ATOM      3  C   UNL A   1      44.084  18.826  24.876  1.00  0.00     0.202 C 
BRANCH   3   4
ATOM      4  C   UNL A   1      43.069  18.439  25.965  1.00  0.00     0.261 C 
BRANCH   4   5
ATOM      5  O   UNL A   1      41.728  18.910  25.779  1.00  0.00    -0.460 OA
BRANCH   5   6
ATOM      6  C   UNL A   1      41.368  19.962  26.555  1.00  0.00     0.330 C 
ATOM      7  O   UNL A   1      42.050  20.486  27.422  1.00  0.00    -0.247 OA
BRANCH   6   8
ATOM      8  C   UNL A   1      40.052  20.520  26.173  1.00  0.00     0.094 C 
ATOM      9  C   UNL A   1      39.717  21.818  26.231  1.00  0.00     0.015 C 
BRANCH   9  10
ATOM     10  C   UNL A   1      38.406  22.346  25.815  1.00  0.00    -0.025 A 
ATOM     11  C   UNL A   1      35.806  23.217  25.074  1.00  0.00    -0.026 A 
ATOM     12  C   UNL A   1      36.680  24.066  25.767  1.00  0.00     0.006 A 
ATOM     13  C   UNL A   1      36.285  21.956  24.688  1.00  0.00     0.006 A 
ATOM     14  C   UNL A   1      37.964  23.636  26.131  1.00  0.00     0.008 A 
ATOM     15  C   UNL A   1      37.567  21.529  25.050  1.00  0.00     0.008 A 
BRANCH  11  16
ATOM     16  C   UNL A   1      34.373  23.596  24.744  1.00  0.00     0.111 C 
ATOM     17  C   UNL A   1      34.092  23.525  23.243  1.00  0.00     0.036 C 
BRANCH  16  18
ATOM     18  N   UNL A   1      34.006  24.911  25.257  1.00  0.00    -0.331 N 
ATOM     19  C   UNL A   1      32.758  25.376  25.511  1.00  0.00     0.317 C 
ATOM     20  H   UNL A   1      34.748  25.531  25.437  1.00  0.00     0.165 HD
ATOM     21  O   UNL A   1      32.526  26.566  25.298  1.00  0.00    -0.249 OA
ATOM     22  N   UNL A   1      31.797  24.507  25.966  1.00  0.00    -0.331 N 
ATOM     23  C   UNL A   1      32.076  23.397  26.866  1.00  0.00     0.148 C 
ATOM     24  C   UNL A   1      30.412  24.919  25.861  1.00  0.00     0.148 C 
ENDBRANCH  16  18
ENDBRANCH  11  16
ENDBRANCH   9  10
ENDBRANCH   6   8
ENDBRANCH   5   6
ENDBRANCH   4   5
ENDBRANCH   3   4
ENDBRANCH   2   3
ENDBRANCH   1   2
BRANCH   1  25
ATOM     25  C   UNL A   1      45.642  21.519  25.313  1.00  0.00     0.188 C 
BRANCH  25  26
ATOM     26  O   UNL A   1      45.442  22.554  24.380  1.00  0.00    -0.376 OA
BRANCH  26  27
ATOM     27  C   UNL A   1      44.673  23.695  24.725  1.00  0.00     0.202 C 
BRANCH  27  28
ATOM     28  C   UNL A   1      44.724  24.475  26.055  1.00  0.00     0.261 C 
BRANCH  28  29
ATOM     29  O   UNL A   1      43.620  24.377  26.955  1.00  0.00    -0.460 OA
BRANCH  29  30
ATOM     30  C   UNL A   1      42.480  24.986  26.557  1.00  0.00     0.338 C 
ATOM     31  O   UNL A   1      41.792  24.704  25.582  1.00  0.00    -0.246 OA
BRANCH  30  32
ATOM     32  C   UNL A   1      42.078  25.956  27.587  1.00  0.00     0.060 A 
ATOM     33  C   UNL A   1      42.897  27.067  27.827  1.00  0.00     0.016 A 
ATOM     34  C   UNL A   1      40.914  25.754  28.332  1.00  0.00     0.016 A 
ATOM     35  C   UNL A   1      42.560  27.975  28.829  1.00  0.00     0.010 A 
ATOM     36  C   UNL A   1      40.590  26.656  29.350  1.00  0.00     0.010 A 
ATOM     37  C   UNL A   1      41.424  27.756  29.619  1.00  0.00    -0.014 A 
BRANCH  37  38
ATOM     38  C   UNL A   1      41.192  28.584  30.828  1.00  0.00     0.031 A 
ATOM     39  C   UNL A   1      40.088  29.606  30.801  1.00  0.00     0.074 A 
ATOM     40  C   UNL A   1      41.943  28.427  31.932  1.00  0.00     0.049 A 
ATOM     41  N   UNL A   1      39.743  30.479  31.711  1.00  0.00    -0.248 NA
ATOM     42  C   UNL A   1      39.266  29.650  29.580  1.00  0.00     0.031 C 
ATOM     43  C   UNL A   1      43.016  27.446  32.093  1.00  0.00     0.029 A 
ATOM     44  N   UNL A   1      41.924  29.103  33.127  1.00  0.00    -0.354 N 
ATOM     45  C   UNL A   1      38.671  31.182  31.172  1.00  0.00     0.074 A 
ATOM     46  C   UNL A   1      38.442  30.652  29.845  1.00  0.00     0.031 C 
ATOM     47  C   UNL A   1      43.562  27.594  33.312  1.00  0.00     0.029 A 
ATOM     48  C   UNL A   1      42.904  28.702  34.003  1.00  0.00     0.049 A 
ATOM     49  H   UNL A   1      41.270  29.808  33.336  1.00  0.00     0.167 HD
ATOM     50  C   UNL A   1      37.941  32.172  31.736  1.00  0.00     0.037 A 
ATOM     51  C   UNL A   1      43.246  29.193  35.212  1.00  0.00     0.037 A 
ATOM     52  C   UNL A   1      38.178  32.699  33.055  1.00  0.00     0.049 A 
ATOM     53  C   UNL A   1      42.465  30.346  35.790  1.00  0.00     0.074 A 
ATOM     54  C   UNL A   1      37.481  33.690  33.723  1.00  0.00     0.029 A 
ATOM     55  N   UNL A   1      39.197  32.286  33.901  1.00  0.00    -0.354 N 
ATOM     56  N   UNL A   1      41.437  30.985  35.283  1.00  0.00    -0.248 NA
ATOM     57  C   UNL A   1      42.891  30.846  37.105  1.00  0.00     0.031 C 
ATOM     58  C   UNL A   1      38.113  33.916  34.951  1.00  0.00     0.029 A 
ATOM     59  C   UNL A   1      39.166  33.023  35.074  1.00  0.00     0.049 A 
ATOM     60  H   UNL A   1      39.846  31.574  33.699  1.00  0.00     0.167 HD
ATOM     61  C   UNL A   1      41.076  31.941  36.228  1.00  0.00     0.074 A 
ATOM     62  C   UNL A   1      41.990  31.790  37.342  1.00  0.00     0.031 C 
ATOM     63  C   UNL A   1      40.078  32.859  36.179  1.00  0.00     0.037 A 
BRANCH  50  64
ATOM     64  C   UNL A   1      36.835  32.774  30.913  1.00  0.00     0.058 A 
ATOM     65  C   UNL A   1      37.093  33.690  29.881  1.00  0.00     0.135 A 
ATOM     66  C   UNL A   1      35.498  32.407  31.142  1.00  0.00     0.135 A 
ATOM     67  F   UNL A   1      38.349  34.090  29.630  1.00  0.00    -0.206 F 
ATOM     68  C   UNL A   1      36.064  34.246  29.126  1.00  0.00     0.059 A 
ATOM     69  C   UNL A   1      34.456  32.927  30.380  1.00  0.00     0.059 A 
ATOM     70  F   UNL A   1      35.193  31.537  32.117  1.00  0.00    -0.206 F 
ATOM     71  C   UNL A   1      34.748  33.857  29.384  1.00  0.00     0.060 A 
BRANCH  71  72
ATOM     72  S   UNL A   1      33.425  34.586  28.396  1.00  0.00     0.124 S 
ATOM     73  O   UNL A   1      32.958  33.432  27.635  1.00  0.00    -0.237 OA
ATOM     74  O   UNL A   1      32.510  35.081  29.420  1.00  0.00    -0.237 OA
ATOM     75  O   UNL A   1      34.108  35.616  27.619  1.00  0.00    -0.744 OA
ENDBRANCH  71  72
ENDBRANCH  50  64
BRANCH  51  76
ATOM     76  C   UNL A   1      44.392  28.603  35.957  1.00  0.00     0.058 A 
ATOM     77  C   UNL A   1      44.205  27.548  36.861  1.00  0.00     0.135 A 
ATOM     78  C   UNL A   1      45.698  29.088  35.781  1.00  0.00     0.135 A 
ATOM     79  F   UNL A   1      42.975  27.060  37.077  1.00  0.00    -0.206 F 
ATOM     80  C   UNL A   1      45.268  27.001  37.574  1.00  0.00     0.059 A 
ATOM     81  C   UNL A   1      46.782  28.540  36.460  1.00  0.00     0.059 A 
ATOM     82  F   UNL A   1      45.934  30.092  34.922  1.00  0.00    -0.206 F 
ATOM     83  C   UNL A   1      46.555  27.501  37.363  1.00  0.00     0.060 A 
BRANCH  83  84
ATOM     84  S   UNL A   1      47.933  26.749  38.256  1.00  0.00     0.124 S 
ATOM     85  O   UNL A   1      47.376  25.452  38.620  1.00  0.00    -0.237 OA
ATOM     86  O   UNL A   1      48.981  26.731  37.240  1.00  0.00    -0.237 OA
ATOM     87  O   UNL A   1      48.159  27.673  39.364  1.00  0.00    -0.744 OA
ENDBRANCH  83  84
ENDBRANCH  51  76
BRANCH  63  88
ATOM     88  C   UNL A   1      39.892  33.752  37.378  1.00  0.00     0.058 A 
ATOM     89  C   UNL A   1      40.588  34.963  37.517  1.00  0.00     0.135 A 
ATOM     90  C   UNL A   1      38.956  33.419  38.373  1.00  0.00     0.135 A 
ATOM     91  F   UNL A   1      41.497  35.329  36.599  1.00  0.00    -0.206 F 
ATOM     92  C   UNL A   1      40.383  35.799  38.610  1.00  0.00     0.059 A 
ATOM     93  C   UNL A   1      38.713  34.255  39.459  1.00  0.00     0.059 A 
ATOM     94  F   UNL A   1      38.252  32.279  38.285  1.00  0.00    -0.206 F 
ATOM     95  C   UNL A   1      39.441  35.438  39.575  1.00  0.00     0.060 A 
BRANCH  95  96
ATOM     96  S   UNL A   1      39.159  36.549  40.969  1.00  0.00     0.124 S 
ATOM     97  O   UNL A   1      40.523  36.814  41.416  1.00  0.00    -0.237 OA
ATOM     98  O   UNL A   1      38.469  37.672  40.340  1.00  0.00    -0.237 OA
ATOM     99  O   UNL A   1      38.344  35.753  41.881  1.00  0.00    -0.744 OA
ENDBRANCH  95  96
ENDBRANCH  63  88
ENDBRANCH  37  38
ENDBRANCH  30  32
ENDBRANCH  29  30
ENDBRANCH  28  29
ENDBRANCH  27  28
ENDBRANCH  26  27
ENDBRANCH  25  26
ENDBRANCH   1  25
TORSDOF 23
ENDMDL
MODEL 3
REMARK VINA RESULT:     -10.1      6.816     13.041
REMARK SMILES C[C@H](NC(=O)N(C)C)c1ccc(/C=C/C(=O)OCCOCCOCCOC(=O)c2ccc(-c3c4nc(c(-c5c(F)cc(S(=O)(=O)[O-])cc5F)c5ccc([nH]5)c(-c5c(F)cc(S(=O)(=O)[O-])cc5F)c5nc(c(-c6c(F)cc(S(=O)(=O)[O-])cc6F)c6ccc3[nH]6)C=C5)C=C4)cc2)cc1
REMARK SMILES IDX 21 1 20 2 19 3 18 4 17 5 15 6 16 7 14 8 13 9 12 10 9 11
REMARK SMILES IDX 10 12 96 13 11 14 95 15 2 16 1 17 3 18 4 19 5 21 6 22 7 23
REMARK SMILES IDX 8 24 22 25 23 26 24 27 25 28 26 29 27 30 28 31 29 32 30 33
REMARK SMILES IDX 94 34 31 35 93 36 32 37 33 38 34 39 87 40 35 41 92 42 86 43
REMARK SMILES IDX 88 44 36 45 91 46 85 47 84 48 37 50 71 51 50 52 70 53 51 54
REMARK SMILES IDX 54 55 69 56 89 57 52 58 53 59 68 61 90 62 55 63 38 64 39 65
REMARK SMILES IDX 48 66 40 67 41 68 47 69 49 70 42 71 43 72 44 73 45 74 46 75
REMARK SMILES IDX 72 76 73 77 82 78 74 79 75 80 81 81 83 82 76 83 77 84 78 85
REMARK SMILES IDX 79 86 80 87 56 88 57 89 66 90 58 91 59 92 65 93 67 94 60 95
REMARK SMILES IDX 61 96 62 97 63 98 64 99
REMARK H PARENT 3 20 88 49 54 60
REMARK Flexibility Score: inf
ROOT
ATOM      1  C   UNL A   1      36.707  19.955  24.881  1.00  0.00     0.188 C 
ENDROOT
BRANCH   1   2
ATOM      2  O   UNL A   1      35.498  19.268  25.147  1.00  0.00    -0.376 OA
BRANCH   2   3
ATOM      3  C   UNL A   1      35.147  18.115  24.400  1.00  0.00     0.202 C 
BRANCH   3   4
ATOM      4  C   UNL A   1      33.784  17.413  24.523  1.00  0.00     0.261 C 
BRANCH   4   5
ATOM      5  O   UNL A   1      32.645  18.265  24.702  1.00  0.00    -0.460 OA
BRANCH   5   6
ATOM      6  C   UNL A   1      32.417  19.149  23.699  1.00  0.00     0.330 C 
ATOM      7  O   UNL A   1      32.077  18.875  22.559  1.00  0.00    -0.247 OA
BRANCH   6   8
ATOM      8  C   UNL A   1      32.518  20.554  24.152  1.00  0.00     0.094 C 
ATOM      9  C   UNL A   1      33.328  21.482  23.619  1.00  0.00     0.015 C 
BRANCH   9  10
ATOM     10  C   UNL A   1      33.384  22.881  24.075  1.00  0.00    -0.025 A 
ATOM     11  C   UNL A   1      33.397  25.623  24.816  1.00  0.00    -0.026 A 
ATOM     12  C   UNL A   1      33.090  24.626  25.752  1.00  0.00     0.006 A 
ATOM     13  C   UNL A   1      33.777  25.219  23.528  1.00  0.00     0.006 A 
ATOM     14  C   UNL A   1      33.085  23.272  25.386  1.00  0.00     0.008 A 
ATOM     15  C   UNL A   1      33.774  23.868  23.164  1.00  0.00     0.008 A 
BRANCH  11  16
ATOM     16  C   UNL A   1      33.320  27.106  25.133  1.00  0.00     0.111 C 
ATOM     17  C   UNL A   1      33.632  27.970  23.912  1.00  0.00     0.036 C 
BRANCH  16  18
ATOM     18  N   UNL A   1      34.179  27.490  26.247  1.00  0.00    -0.331 N 
ATOM     19  C   UNL A   1      34.218  28.688  26.881  1.00  0.00     0.317 C 
ATOM     20  H   UNL A   1      34.802  26.803  26.574  1.00  0.00     0.165 HD
ATOM     21  O   UNL A   1      35.307  29.098  27.283  1.00  0.00    -0.249 OA
ATOM     22  N   UNL A   1      33.058  29.408  27.028  1.00  0.00    -0.331 N 
ATOM     23  C   UNL A   1      31.756  28.800  27.255  1.00  0.00     0.148 C 
ATOM     24  C   UNL A   1      33.176  30.817  27.347  1.00  0.00     0.148 C 
ENDBRANCH  16  18
ENDBRANCH  11  16
ENDBRANCH   9  10
ENDBRANCH   6   8
ENDBRANCH   5   6
ENDBRANCH   4   5
ENDBRANCH   3   4
ENDBRANCH   2   3
ENDBRANCH   1   2
BRANCH   1  25
ATOM     25  C   UNL A   1      36.774  21.484  25.063  1.00  0.00     0.188 C 
BRANCH  25  26
ATOM     26  O   UNL A   1      38.045  22.083  24.983  1.00  0.00    -0.376 OA
BRANCH  26  27
ATOM     27  C   UNL A   1      38.877  22.160  26.130  1.00  0.00     0.202 C 
BRANCH  27  28
ATOM     28  C   UNL A   1      39.877  23.284  26.472  1.00  0.00     0.261 C 
BRANCH  28  29
ATOM     29  O   UNL A   1      39.422  24.637  26.468  1.00  0.00    -0.460 OA
BRANCH  29  30
ATOM     30  C   UNL A   1      40.384  25.582  26.364  1.00  0.00     0.338 C 
ATOM     31  O   UNL A   1      40.992  25.909  25.351  1.00  0.00    -0.246 OA
BRANCH  30  32
ATOM     32  C   UNL A   1      40.480  26.302  27.643  1.00  0.00     0.060 A 
ATOM     33  C   UNL A   1      39.515  26.060  28.629  1.00  0.00     0.016 A 
ATOM     34  C   UNL A   1      41.501  27.232  27.856  1.00  0.00     0.016 A 
ATOM     35  C   UNL A   1      39.559  26.764  29.831  1.00  0.00     0.010 A 
ATOM     36  C   UNL A   1      41.529  27.950  29.055  1.00  0.00     0.010 A 
ATOM     37  C   UNL A   1      40.546  27.737  30.037  1.00  0.00    -0.014 A 
BRANCH  37  38
ATOM     38  C   UNL A   1      40.457  28.644  31.207  1.00  0.00     0.031 A 
ATOM     39  C   UNL A   1      39.455  29.766  31.176  1.00  0.00     0.074 A 
ATOM     40  C   UNL A   1      41.247  28.471  32.282  1.00  0.00     0.049 A 
ATOM     41  N   UNL A   1      39.242  30.714  32.051  1.00  0.00    -0.248 NA
ATOM     42  C   UNL A   1      38.578  29.827  29.995  1.00  0.00     0.031 C 
ATOM     43  C   UNL A   1      42.229  27.400  32.447  1.00  0.00     0.029 A 
ATOM     44  N   UNL A   1      41.354  29.206  33.437  1.00  0.00    -0.354 N 
ATOM     45  C   UNL A   1      38.214  31.488  31.525  1.00  0.00     0.074 A 
ATOM     46  C   UNL A   1      37.867  30.916  30.242  1.00  0.00     0.031 C 
ATOM     47  C   UNL A   1      42.850  27.557  33.629  1.00  0.00     0.029 A 
ATOM     48  C   UNL A   1      42.337  28.757  34.287  1.00  0.00     0.049 A 
ATOM     49  H   UNL A   1      40.781  29.981  33.637  1.00  0.00     0.167 HD
ATOM     50  C   UNL A   1      37.611  32.572  32.066  1.00  0.00     0.037 A 
ATOM     51  C   UNL A   1      42.786  29.273  35.449  1.00  0.00     0.037 A 
ATOM     52  C   UNL A   1      37.966  33.140  33.341  1.00  0.00     0.049 A 
ATOM     53  C   UNL A   1      42.149  30.525  35.998  1.00  0.00     0.074 A 
ATOM     54  C   UNL A   1      37.402  34.227  33.986  1.00  0.00     0.029 A 
ATOM     55  N   UNL A   1      38.984  32.674  34.161  1.00  0.00    -0.354 N 
ATOM     56  N   UNL A   1      41.161  31.234  35.505  1.00  0.00    -0.248 NA
ATOM     57  C   UNL A   1      42.688  31.048  37.262  1.00  0.00     0.031 C 
ATOM     58  C   UNL A   1      38.115  34.453  35.167  1.00  0.00     0.029 A 
ATOM     59  C   UNL A   1      39.084  33.470  35.291  1.00  0.00     0.049 A 
ATOM     60  H   UNL A   1      39.552  31.894  33.968  1.00  0.00     0.167 HD
ATOM     61  C   UNL A   1      40.942  32.268  36.412  1.00  0.00     0.074 A 
ATOM     62  C   UNL A   1      41.894  32.086  37.488  1.00  0.00     0.031 C 
ATOM     63  C   UNL A   1      40.034  33.274  36.359  1.00  0.00     0.037 A 
BRANCH  50  64
ATOM     64  C   UNL A   1      36.525  33.236  31.264  1.00  0.00     0.058 A 
ATOM     65  C   UNL A   1      35.177  33.184  31.655  1.00  0.00     0.135 A 
ATOM     66  C   UNL A   1      36.841  33.957  30.101  1.00  0.00     0.135 A 
ATOM     67  F   UNL A   1      34.816  32.493  32.748  1.00  0.00    -0.206 F 
ATOM     68  C   UNL A   1      34.178  33.797  30.906  1.00  0.00     0.059 A 
ATOM     69  C   UNL A   1      35.861  34.604  29.353  1.00  0.00     0.059 A 
ATOM     70  F   UNL A   1      38.112  34.038  29.679  1.00  0.00    -0.206 F 
ATOM     71  C   UNL A   1      34.531  34.505  29.755  1.00  0.00     0.060 A 
BRANCH  71  72
ATOM     72  S   UNL A   1      33.223  35.295  28.794  1.00  0.00     0.124 S 
ATOM     73  O   UNL A   1      32.386  35.860  29.849  1.00  0.00    -0.237 OA
ATOM     74  O   UNL A   1      33.966  36.260  27.991  1.00  0.00    -0.237 OA
ATOM     75  O   UNL A   1      32.630  34.187  28.050  1.00  0.00    -0.744 OA
ENDBRANCH  71  72
ENDBRANCH  50  64
BRANCH  51  76
ATOM     76  C   UNL A   1      43.909  28.615  36.171  1.00  0.00     0.058 A 
ATOM     77  C   UNL A   1      43.695  27.479  36.965  1.00  0.00     0.135 A 
ATOM     78  C   UNL A   1      45.219  29.112  36.083  1.00  0.00     0.135 A 
ATOM     79  F   UNL A   1      42.459  26.974  37.094  1.00  0.00    -0.206 F 
ATOM     80  C   UNL A   1      44.736  26.864  37.655  1.00  0.00     0.059 A 
ATOM     81  C   UNL A   1      46.282  28.500  36.741  1.00  0.00     0.059 A 
ATOM     82  F   UNL A   1      45.481  30.193  35.331  1.00  0.00    -0.206 F 
ATOM     83  C   UNL A   1      46.028  27.380  37.533  1.00  0.00     0.060 A 
BRANCH  83  84
ATOM     84  S   UNL A   1      47.378  26.546  38.394  1.00  0.00     0.124 S 
ATOM     85  O   UNL A   1      47.848  25.616  37.374  1.00  0.00    -0.237 OA
ATOM     86  O   UNL A   1      48.273  27.655  38.707  1.00  0.00    -0.237 OA
ATOM     87  O   UNL A   1      46.717  25.938  39.546  1.00  0.00    -0.744 OA
ENDBRANCH  83  84
ENDBRANCH  51  76
BRANCH  63  88
ATOM     88  C   UNL A   1      39.995  34.242  37.513  1.00  0.00     0.058 A 
ATOM     89  C   UNL A   1      40.730  35.437  37.504  1.00  0.00     0.135 A 
ATOM     90  C   UNL A   1      39.162  33.995  38.619  1.00  0.00     0.135 A 
ATOM     91  F   UNL A   1      41.545  35.722  36.476  1.00  0.00    -0.206 F 
ATOM     92  C   UNL A   1      40.660  36.342  38.559  1.00  0.00     0.059 A 
ATOM     93  C   UNL A   1      39.055  34.900  39.670  1.00  0.00     0.059 A 
ATOM     94  F   UNL A   1      38.427  32.873  38.675  1.00  0.00    -0.206 F 
ATOM     95  C   UNL A   1      39.817  36.065  39.637  1.00  0.00     0.060 A 
BRANCH  95  96
ATOM     96  S   UNL A   1      39.710  37.265  40.983  1.00  0.00     0.124 S 
ATOM     97  O   UNL A   1      41.097  37.707  41.095  1.00  0.00    -0.237 OA
ATOM     98  O   UNL A   1      38.772  38.249  40.450  1.00  0.00    -0.237 OA
ATOM     99  O   UNL A   1      39.210  36.476  42.104  1.00  0.00    -0.744 OA
ENDBRANCH  95  96
ENDBRANCH  63  88
ENDBRANCH  37  38
ENDBRANCH  30  32
ENDBRANCH  29  30
ENDBRANCH  28  29
ENDBRANCH  27  28
ENDBRANCH  26  27
ENDBRANCH  25  26
ENDBRANCH   1  25
TORSDOF 23
ENDMDL
