MODEL 1
REMARK VINA RESULT:     -10.9      0.000      0.000
REMARK SMILES C[NH+]1CCC(C(=O)N2C[C@@H](C(=O)OCCOCCOCCOC(=O)c3ccc(-c4c5nc(c(-c6c(F)cc(S(=O)(=O)[O-])cc6F)c6ccc([nH]6)c(-c6c(F)cc(S(=O)(=O)[O-])cc6F)c6nc(c(-c7c(F)cc(S(=O)(=O)[O-])cc7F)c7ccc4[nH]7)C=C6)C=C5)cc3)[C@H](c3ccc4c(c3)OCO4)C2)CC1
REMARK SMILES IDX 18 1 17 2 16 3 15 4 14 5 13 6 11 7 12 8 10 9 8 10 9 11
REMARK SMILES IDX 101 12 91 13 6 14 7 15 5 16 1 17 2 18 3 19 103 20 4 22
REMARK SMILES IDX 102 23 92 24 93 25 97 26 94 27 96 28 95 29 98 30 100 31
REMARK SMILES IDX 99 32 19 33 20 34 21 35 22 36 23 37 24 38 25 39 26 40 90 41
REMARK SMILES IDX 27 42 89 43 28 44 29 45 30 46 83 47 31 48 88 49 82 50 84 51
REMARK SMILES IDX 32 52 87 53 81 54 80 55 33 57 67 58 46 59 66 60 47 61 50 62
REMARK SMILES IDX 65 63 85 64 48 65 49 66 64 68 86 69 51 70 34 71 35 72 44 73
REMARK SMILES IDX 36 74 37 75 43 76 45 77 38 78 39 79 40 80 41 81 42 82 68 83
REMARK SMILES IDX 69 84 78 85 70 86 71 87 77 88 79 89 72 90 73 91 74 92 75 93
REMARK SMILES IDX 76 94 52 95 53 96 62 97 54 98 55 99 61 100 63 101 56 102
REMARK SMILES IDX 57 103 58 104 59 105 60 106
REMARK H PARENT 2 21 84 56 50 67
REMARK Flexibility Score: inf
ROOT
ATOM      1  C   UNL A   1      39.994  21.177  26.489  1.00  0.00     0.188 C 
ENDROOT
BRANCH   1   2
ATOM      2  C   UNL A   1      39.797  19.734  25.974  1.00  0.00     0.188 C 
BRANCH   2   3
ATOM      3  O   UNL A   1      38.730  19.428  25.089  1.00  0.00    -0.376 OA
BRANCH   3   4
ATOM      4  C   UNL A   1      37.837  20.446  24.667  1.00  0.00     0.202 C 
BRANCH   4   5
ATOM      5  C   UNL A   1      36.376  20.453  25.135  1.00  0.00     0.261 C 
BRANCH   5   6
ATOM      6  O   UNL A   1      35.819  21.756  25.336  1.00  0.00    -0.463 OA
BRANCH   6   7
ATOM      7  C   UNL A   1      34.800  21.863  26.237  1.00  0.00     0.311 C 
ATOM      8  O   UNL A   1      34.856  21.530  27.411  1.00  0.00    -0.252 OA
BRANCH   7   9
ATOM      9  C   UNL A   1      33.577  22.432  25.566  1.00  0.00     0.128 C 
ATOM     10  N   UNL A   1      31.864  23.979  25.738  1.00  0.00    -0.341 N 
ATOM     11  C   UNL A   1      33.273  23.840  26.031  1.00  0.00     0.135 C 
ATOM     12  C   UNL A   1      31.202  22.693  25.940  1.00  0.00     0.128 C 
ATOM     13  C   UNL A   1      32.307  21.612  25.895  1.00  0.00     0.055 C 
BRANCH  10  14
ATOM     14  C   UNL A   1      31.125  25.143  25.780  1.00  0.00     0.226 C 
ATOM     15  O   UNL A   1      30.115  25.212  26.489  1.00  0.00    -0.275 OA
BRANCH  14  16
ATOM     16  C   UNL A   1      31.362  26.231  24.723  1.00  0.00     0.090 C 
ATOM     17  C   UNL A   1      30.638  29.461  21.969  1.00  0.00     0.332 C 
ATOM     18  N   UNL A   1      30.507  28.316  22.873  1.00  0.00    -0.337 N 
ATOM     19  C   UNL A   1      30.935  28.680  24.229  1.00  0.00     0.262 C 
ATOM     20  C   UNL A   1      31.295  27.174  22.384  1.00  0.00     0.262 C 
ATOM     21  H   UNL A   1      29.523  28.043  22.901  1.00  0.00     0.347 HD
ATOM     22  C   UNL A   1      30.678  27.523  25.191  1.00  0.00     0.075 C 
ATOM     23  C   UNL A   1      31.030  25.943  23.265  1.00  0.00     0.075 C 
ENDBRANCH  14  16
ENDBRANCH  10  14
BRANCH  13  24
ATOM     24  C   UNL A   1      32.233  20.468  24.883  1.00  0.00    -0.038 A 
ATOM     25  C   UNL A   1      32.105  20.662  23.492  1.00  0.00     0.008 A 
ATOM     26  C   UNL A   1      32.520  19.169  25.360  1.00  0.00     0.054 A 
ATOM     27  C   UNL A   1      32.381  19.624  22.590  1.00  0.00     0.051 A 
ATOM     28  C   UNL A   1      32.882  18.202  24.453  1.00  0.00     0.166 A 
ATOM     29  C   UNL A   1      32.830  18.428  23.102  1.00  0.00     0.165 A 
ATOM     30  O   UNL A   1      33.423  16.991  24.759  1.00  0.00    -0.454 OA
ATOM     31  O   UNL A   1      33.325  17.378  22.391  1.00  0.00    -0.454 OA
ATOM     32  C   UNL A   1      33.923  16.614  23.462  1.00  0.00     0.468 C 
ENDBRANCH  13  24
ENDBRANCH   7   9
ENDBRANCH   6   7
ENDBRANCH   5   6
ENDBRANCH   4   5
ENDBRANCH   3   4
ENDBRANCH   2   3
ENDBRANCH   1   2
BRANCH   1  33
ATOM     33  O   UNL A   1      40.838  21.309  27.605  1.00  0.00    -0.376 OA
BRANCH  33  34
ATOM     34  C   UNL A   1      42.231  21.485  27.416  1.00  0.00     0.202 C 
BRANCH  34  35
ATOM     35  C   UNL A   1      42.932  22.797  26.997  1.00  0.00     0.261 C 
BRANCH  35  36
ATOM     36  O   UNL A   1      42.146  23.981  26.836  1.00  0.00    -0.460 OA
BRANCH  36  37
ATOM     37  C   UNL A   1      42.827  25.145  26.720  1.00  0.00     0.338 C 
ATOM     38  O   UNL A   1      43.620  25.449  25.836  1.00  0.00    -0.246 OA
BRANCH  37  39
ATOM     39  C   UNL A   1      42.328  26.096  27.731  1.00  0.00     0.060 A 
ATOM     40  C   UNL A   1      43.075  27.251  27.988  1.00  0.00     0.016 A 
ATOM     41  C   UNL A   1      41.153  25.848  28.442  1.00  0.00     0.016 A 
ATOM     42  C   UNL A   1      42.658  28.154  28.966  1.00  0.00     0.010 A 
ATOM     43  C   UNL A   1      40.754  26.742  29.445  1.00  0.00     0.010 A 
ATOM     44  C   UNL A   1      41.519  27.887  29.732  1.00  0.00    -0.014 A 
BRANCH  44  45
ATOM     45  C   UNL A   1      41.257  28.694  30.952  1.00  0.00     0.031 A 
ATOM     46  C   UNL A   1      40.116  29.679  30.922  1.00  0.00     0.074 A 
ATOM     47  C   UNL A   1      41.976  28.534  32.079  1.00  0.00     0.049 A 
ATOM     48  N   UNL A   1      39.750  30.553  31.821  1.00  0.00    -0.248 NA
ATOM     49  C   UNL A   1      39.273  29.669  29.714  1.00  0.00     0.031 C 
ATOM     50  C   UNL A   1      43.050  27.558  32.269  1.00  0.00     0.029 A 
ATOM     51  N   UNL A   1      41.915  29.200  33.279  1.00  0.00    -0.354 N 
ATOM     52  C   UNL A   1      38.661  31.223  31.276  1.00  0.00     0.074 A 
ATOM     53  C   UNL A   1      38.423  30.654  29.968  1.00  0.00     0.031 C 
ATOM     54  C   UNL A   1      43.559  27.705  33.506  1.00  0.00     0.029 A 
ATOM     55  C   UNL A   1      42.883  28.812  34.180  1.00  0.00     0.049 A 
ATOM     56  H   UNL A   1      41.242  29.890  33.478  1.00  0.00     0.167 HD
ATOM     57  C   UNL A   1      37.928  32.226  31.815  1.00  0.00     0.037 A 
ATOM     58  C   UNL A   1      43.206  29.320  35.387  1.00  0.00     0.037 A 
ATOM     59  C   UNL A   1      38.151  32.771  33.128  1.00  0.00     0.049 A 
ATOM     60  C   UNL A   1      42.419  30.489  35.933  1.00  0.00     0.074 A 
ATOM     61  C   UNL A   1      37.442  33.769  33.773  1.00  0.00     0.029 A 
ATOM     62  N   UNL A   1      39.159  32.374  33.993  1.00  0.00    -0.354 N 
ATOM     63  N   UNL A   1      41.387  31.109  35.410  1.00  0.00    -0.248 NA
ATOM     64  C   UNL A   1      42.843  31.032  37.233  1.00  0.00     0.031 C 
ATOM     65  C   UNL A   1      38.059  34.019  35.002  1.00  0.00     0.029 A 
ATOM     66  C   UNL A   1      39.108  33.129  35.152  1.00  0.00     0.049 A 
ATOM     67  H   UNL A   1      39.812  31.660  33.810  1.00  0.00     0.167 HD
ATOM     68  C   UNL A   1      41.013  32.079  36.338  1.00  0.00     0.074 A 
ATOM     69  C   UNL A   1      41.926  31.963  37.453  1.00  0.00     0.031 C 
ATOM     70  C   UNL A   1      40.004  32.983  36.273  1.00  0.00     0.037 A 
BRANCH  57  71
ATOM     71  C   UNL A   1      36.843  32.841  30.977  1.00  0.00     0.058 A 
ATOM     72  C   UNL A   1      37.116  33.773  29.965  1.00  0.00     0.135 A 
ATOM     73  C   UNL A   1      35.511  32.423  31.143  1.00  0.00     0.135 A 
ATOM     74  F   UNL A   1      38.367  34.223  29.779  1.00  0.00    -0.206 F 
ATOM     75  C   UNL A   1      36.106  34.272  29.148  1.00  0.00     0.059 A 
ATOM     76  C   UNL A   1      34.491  32.888  30.320  1.00  0.00     0.059 A 
ATOM     77  F   UNL A   1      35.195  31.539  32.103  1.00  0.00    -0.206 F 
ATOM     78  C   UNL A   1      34.799  33.816  29.328  1.00  0.00     0.060 A 
BRANCH  78  79
ATOM     79  S   UNL A   1      33.509  34.436  28.228  1.00  0.00     0.124 S 
ATOM     80  O   UNL A   1      34.274  35.314  27.347  1.00  0.00    -0.237 OA
ATOM     81  O   UNL A   1      33.005  33.210  27.618  1.00  0.00    -0.237 OA
ATOM     82  O   UNL A   1      32.583  35.109  29.132  1.00  0.00    -0.744 OA
ENDBRANCH  78  79
ENDBRANCH  57  71
BRANCH  58  83
ATOM     83  C   UNL A   1      44.355  28.769  36.163  1.00  0.00     0.058 A 
ATOM     84  C   UNL A   1      45.657  29.267  35.992  1.00  0.00     0.135 A 
ATOM     85  C   UNL A   1      44.187  27.685  37.039  1.00  0.00     0.135 A 
ATOM     86  F   UNL A   1      45.877  30.292  35.154  1.00  0.00    -0.206 F 
ATOM     87  C   UNL A   1      46.752  28.688  36.628  1.00  0.00     0.059 A 
ATOM     88  C   UNL A   1      45.262  27.111  37.713  1.00  0.00     0.059 A 
ATOM     89  F   UNL A   1      42.965  27.169  37.247  1.00  0.00    -0.206 F 
ATOM     90  C   UNL A   1      46.544  27.606  37.483  1.00  0.00     0.060 A 
BRANCH  90  91
ATOM     91  S   UNL A   1      47.970  26.856  38.300  1.00  0.00     0.124 S 
ATOM     92  O   UNL A   1      48.730  26.357  37.161  1.00  0.00    -0.237 OA
ATOM     93  O   UNL A   1      48.552  27.993  39.008  1.00  0.00    -0.237 OA
ATOM     94  O   UNL A   1      47.369  25.836  39.154  1.00  0.00    -0.744 OA
ENDBRANCH  90  91
ENDBRANCH  58  83
BRANCH  70  95
ATOM     95  C   UNL A   1      39.776  33.872  37.467  1.00  0.00     0.058 A 
ATOM     96  C   UNL A   1      38.993  33.471  38.560  1.00  0.00     0.135 A 
ATOM     97  C   UNL A   1      40.407  35.126  37.540  1.00  0.00     0.135 A 
ATOM     98  F   UNL A   1      38.365  32.285  38.541  1.00  0.00    -0.206 F 
ATOM     99  C   UNL A   1      38.820  34.292  39.670  1.00  0.00     0.059 A 
ATOM    100  C   UNL A   1      40.276  35.949  38.654  1.00  0.00     0.059 A 
ATOM    101  F   UNL A   1      41.181  35.555  36.530  1.00  0.00    -0.206 F 
ATOM    102  C   UNL A   1      39.470  35.529  39.710  1.00  0.00     0.060 A 
BRANCH 102 103
ATOM    103  S   UNL A   1      39.265  36.569  41.171  1.00  0.00     0.124 S 
ATOM    104  O   UNL A   1      40.627  36.618  41.692  1.00  0.00    -0.237 OA
ATOM    105  O   UNL A   1      38.761  37.815  40.599  1.00  0.00    -0.237 OA
ATOM    106  O   UNL A   1      38.307  35.828  41.986  1.00  0.00    -0.744 OA
ENDBRANCH 102 103
ENDBRANCH  70  95
ENDBRANCH  44  45
ENDBRANCH  37  39
ENDBRANCH  36  37
ENDBRANCH  35  36
ENDBRANCH  34  35
ENDBRANCH  33  34
ENDBRANCH   1  33
TORSDOF 23
ENDMDL
MODEL 2
REMARK VINA RESULT:     -10.7      1.597      8.169
REMARK SMILES C[NH+]1CCC(C(=O)N2C[C@@H](C(=O)OCCOCCOCCOC(=O)c3ccc(-c4c5nc(c(-c6c(F)cc(S(=O)(=O)[O-])cc6F)c6ccc([nH]6)c(-c6c(F)cc(S(=O)(=O)[O-])cc6F)c6nc(c(-c7c(F)cc(S(=O)(=O)[O-])cc7F)c7ccc4[nH]7)C=C6)C=C5)cc3)[C@H](c3ccc4c(c3)OCO4)C2)CC1
REMARK SMILES IDX 18 1 17 2 16 3 15 4 14 5 13 6 11 7 12 8 10 9 8 10 9 11
REMARK SMILES IDX 101 12 91 13 6 14 7 15 5 16 1 17 2 18 3 19 103 20 4 22
REMARK SMILES IDX 102 23 92 24 93 25 97 26 94 27 96 28 95 29 98 30 100 31
REMARK SMILES IDX 99 32 19 33 20 34 21 35 22 36 23 37 24 38 25 39 26 40 90 41
REMARK SMILES IDX 27 42 89 43 28 44 29 45 30 46 83 47 31 48 88 49 82 50 84 51
REMARK SMILES IDX 32 52 87 53 81 54 80 55 33 57 67 58 46 59 66 60 47 61 50 62
REMARK SMILES IDX 65 63 85 64 48 65 49 66 64 68 86 69 51 70 34 71 35 72 44 73
REMARK SMILES IDX 36 74 37 75 43 76 45 77 38 78 39 79 40 80 41 81 42 82 68 83
REMARK SMILES IDX 69 84 78 85 70 86 71 87 77 88 79 89 72 90 73 91 74 92 75 93
REMARK SMILES IDX 76 94 52 95 53 96 62 97 54 98 55 99 61 100 63 101 56 102
REMARK SMILES IDX 57 103 58 104 59 105 60 106
REMARK H PARENT 2 21 84 56 50 67
REMARK Flexibility Score: inf
ROOT
ATOM      1  C   UNL A   1      37.693  21.823  24.843  1.00  0.00     0.188 C 
ENDROOT
BRANCH   1   2
ATOM      2  C   UNL A   1      36.250  21.275  24.780  1.00  0.00     0.188 C 
BRANCH   2   3
ATOM      3  O   UNL A   1      35.293  21.877  23.921  1.00  0.00    -0.376 OA
BRANCH   3   4
ATOM      4  C   UNL A   1      35.514  23.181  23.405  1.00  0.00     0.202 C 
BRANCH   4   5
ATOM      5  C   UNL A   1      34.837  24.402  24.041  1.00  0.00     0.261 C 
BRANCH   5   6
ATOM      6  O   UNL A   1      34.016  25.163  23.149  1.00  0.00    -0.463 OA
BRANCH   6   7
ATOM      7  C   UNL A   1      33.401  26.266  23.662  1.00  0.00     0.311 C 
ATOM      8  O   UNL A   1      33.967  27.278  24.047  1.00  0.00    -0.252 OA
BRANCH   7   9
ATOM      9  C   UNL A   1      31.910  26.049  23.709  1.00  0.00     0.128 C 
ATOM     10  N   UNL A   1      29.842  27.084  23.779  1.00  0.00    -0.341 N 
ATOM     11  C   UNL A   1      31.143  27.234  23.165  1.00  0.00     0.135 C 
ATOM     12  C   UNL A   1      30.005  26.527  25.118  1.00  0.00     0.128 C 
ATOM     13  C   UNL A   1      31.402  25.866  25.159  1.00  0.00     0.055 C 
BRANCH  10  14
ATOM     14  C   UNL A   1      28.698  27.787  23.465  1.00  0.00     0.226 C 
ATOM     15  O   UNL A   1      27.592  27.243  23.547  1.00  0.00    -0.275 OA
BRANCH  14  16
ATOM     16  C   UNL A   1      28.809  29.125  22.718  1.00  0.00     0.090 C 
ATOM     17  C   UNL A   1      28.077  33.197  21.525  1.00  0.00     0.332 C 
ATOM     18  N   UNL A   1      27.976  31.845  22.078  1.00  0.00    -0.337 N 
ATOM     19  C   UNL A   1      29.015  31.624  23.090  1.00  0.00     0.262 C 
ATOM     20  C   UNL A   1      28.087  30.837  21.012  1.00  0.00     0.262 C 
ATOM     21  H   UNL A   1      27.060  31.749  22.520  1.00  0.00     0.347 HD
ATOM     22  C   UNL A   1      28.825  30.261  23.751  1.00  0.00     0.075 C 
ATOM     23  C   UNL A   1      27.834  29.436  21.590  1.00  0.00     0.075 C 
ENDBRANCH  14  16
ENDBRANCH  10  14
BRANCH  13  24
ATOM     24  C   UNL A   1      31.550  24.384  25.505  1.00  0.00    -0.038 A 
ATOM     25  C   UNL A   1      31.375  23.341  24.572  1.00  0.00     0.008 A 
ATOM     26  C   UNL A   1      32.094  24.071  26.771  1.00  0.00     0.054 A 
ATOM     27  C   UNL A   1      31.845  22.047  24.838  1.00  0.00     0.051 A 
ATOM     28  C   UNL A   1      32.635  22.823  26.964  1.00  0.00     0.166 A 
ATOM     29  C   UNL A   1      32.527  21.839  26.015  1.00  0.00     0.165 A 
ATOM     30  O   UNL A   1      33.409  22.448  28.019  1.00  0.00    -0.454 OA
ATOM     31  O   UNL A   1      33.217  20.718  26.364  1.00  0.00    -0.454 OA
ATOM     32  C   UNL A   1      33.963  21.228  27.491  1.00  0.00     0.468 C 
ENDBRANCH  13  24
ENDBRANCH   7   9
ENDBRANCH   6   7
ENDBRANCH   5   6
ENDBRANCH   4   5
ENDBRANCH   3   4
ENDBRANCH   2   3
ENDBRANCH   1   2
BRANCH   1  33
ATOM     33  O   UNL A   1      38.320  21.725  26.098  1.00  0.00    -0.376 OA
BRANCH  33  34
ATOM     34  C   UNL A   1      39.721  21.531  26.170  1.00  0.00     0.202 C 
BRANCH  34  35
ATOM     35  C   UNL A   1      40.773  22.615  26.500  1.00  0.00     0.261 C 
BRANCH  35  36
ATOM     36  O   UNL A   1      40.396  23.993  26.412  1.00  0.00    -0.460 OA
BRANCH  36  37
ATOM     37  C   UNL A   1      41.407  24.888  26.311  1.00  0.00     0.338 C 
ATOM     38  O   UNL A   1      42.128  25.077  25.338  1.00  0.00    -0.246 OA
BRANCH  37  39
ATOM     39  C   UNL A   1      41.399  25.758  27.502  1.00  0.00     0.060 A 
ATOM     40  C   UNL A   1      40.278  25.735  28.339  1.00  0.00     0.016 A 
ATOM     41  C   UNL A   1      42.468  26.609  27.784  1.00  0.00     0.016 A 
ATOM     42  C   UNL A   1      40.215  26.574  29.452  1.00  0.00     0.010 A 
ATOM     43  C   UNL A   1      42.388  27.472  28.886  1.00  0.00     0.010 A 
ATOM     44  C   UNL A   1      41.249  27.479  29.711  1.00  0.00    -0.014 A 
BRANCH  44  45
ATOM     45  C   UNL A   1      41.039  28.558  30.712  1.00  0.00     0.031 A 
ATOM     46  C   UNL A   1      41.919  28.575  31.936  1.00  0.00     0.074 A 
ATOM     47  C   UNL A   1      40.124  29.530  30.529  1.00  0.00     0.049 A 
ATOM     48  N   UNL A   1      41.868  29.352  32.984  1.00  0.00    -0.248 NA
ATOM     49  C   UNL A   1      43.005  27.580  31.975  1.00  0.00     0.031 C 
ATOM     50  C   UNL A   1      39.268  29.679  29.352  1.00  0.00     0.029 A 
ATOM     51  N   UNL A   1      39.758  30.574  31.343  1.00  0.00    -0.354 N 
ATOM     52  C   UNL A   1      42.888  28.919  33.825  1.00  0.00     0.074 A 
ATOM     53  C   UNL A   1      43.543  27.813  33.165  1.00  0.00     0.031 C 
ATOM     54  C   UNL A   1      38.462  30.741  29.532  1.00  0.00     0.029 A 
ATOM     55  C   UNL A   1      38.710  31.320  30.850  1.00  0.00     0.049 A 
ATOM     56  H   UNL A   1      40.203  30.772  32.198  1.00  0.00     0.167 HD
ATOM     57  C   UNL A   1      43.243  29.400  35.040  1.00  0.00     0.037 A 
ATOM     58  C   UNL A   1      38.010  32.325  31.417  1.00  0.00     0.037 A 
ATOM     59  C   UNL A   1      42.606  30.519  35.682  1.00  0.00     0.049 A 
ATOM     60  C   UNL A   1      38.380  32.791  32.807  1.00  0.00     0.074 A 
ATOM     61  C   UNL A   1      42.915  31.097  36.901  1.00  0.00     0.029 A 
ATOM     62  N   UNL A   1      41.530  31.225  35.165  1.00  0.00    -0.354 N 
ATOM     63  N   UNL A   1      39.351  32.379  33.588  1.00  0.00    -0.248 NA
ATOM     64  C   UNL A   1      37.556  33.859  33.395  1.00  0.00     0.031 C 
ATOM     65  C   UNL A   1      41.987  32.112  37.151  1.00  0.00     0.029 A 
ATOM     66  C   UNL A   1      41.144  32.212  36.056  1.00  0.00     0.049 A 
ATOM     67  H   UNL A   1      41.105  31.050  34.295  1.00  0.00     0.167 HD
ATOM     68  C   UNL A   1      39.280  33.168  34.735  1.00  0.00     0.074 A 
ATOM     69  C   UNL A   1      38.176  34.082  34.545  1.00  0.00     0.031 C 
ATOM     70  C   UNL A   1      40.061  33.140  35.844  1.00  0.00     0.037 A 
BRANCH  57  71
ATOM     71  C   UNL A   1      44.340  28.695  35.788  1.00  0.00     0.058 A 
ATOM     72  C   UNL A   1      45.685  29.082  35.683  1.00  0.00     0.135 A 
ATOM     73  C   UNL A   1      44.021  27.664  36.687  1.00  0.00     0.135 A 
ATOM     74  F   UNL A   1      46.047  30.045  34.821  1.00  0.00    -0.206 F 
ATOM     75  C   UNL A   1      46.676  28.468  36.443  1.00  0.00     0.059 A 
ATOM     76  C   UNL A   1      44.992  27.055  37.476  1.00  0.00     0.059 A 
ATOM     77  F   UNL A   1      42.750  27.251  36.818  1.00  0.00    -0.206 F 
ATOM     78  C   UNL A   1      46.318  27.462  37.343  1.00  0.00     0.060 A 
BRANCH  78  79
ATOM     79  S   UNL A   1      47.609  26.710  38.356  1.00  0.00     0.124 S 
ATOM     80  O   UNL A   1      47.395  25.290  38.094  1.00  0.00    -0.237 OA
ATOM     81  O   UNL A   1      48.823  27.283  37.786  1.00  0.00    -0.237 OA
ATOM     82  O   UNL A   1      47.284  27.154  39.707  1.00  0.00    -0.744 OA
ENDBRANCH  78  79
ENDBRANCH  57  71
BRANCH  58  83
ATOM     83  C   UNL A   1      36.854  32.945  30.707  1.00  0.00     0.058 A 
ATOM     84  C   UNL A   1      37.041  33.956  29.751  1.00  0.00     0.135 A 
ATOM     85  C   UNL A   1      35.533  32.587  31.021  1.00  0.00     0.135 A 
ATOM     86  F   UNL A   1      38.283  34.349  29.426  1.00  0.00    -0.206 F 
ATOM     87  C   UNL A   1      35.966  34.616  29.164  1.00  0.00     0.059 A 
ATOM     88  C   UNL A   1      34.441  33.209  30.420  1.00  0.00     0.059 A 
ATOM     89  F   UNL A   1      35.292  31.622  31.923  1.00  0.00    -0.206 F 
ATOM     90  C   UNL A   1      34.668  34.239  29.510  1.00  0.00     0.060 A 
BRANCH  90  91
ATOM     91  S   UNL A   1      33.278  35.104  28.747  1.00  0.00     0.124 S 
ATOM     92  O   UNL A   1      32.540  35.560  29.919  1.00  0.00    -0.237 OA
ATOM     93  O   UNL A   1      33.950  36.142  27.971  1.00  0.00    -0.237 OA
ATOM     94  O   UNL A   1      32.627  34.063  27.958  1.00  0.00    -0.744 OA
ENDBRANCH  90  91
ENDBRANCH  58  83
BRANCH  70  95
ATOM     95  C   UNL A   1      39.807  34.171  36.911  1.00  0.00     0.058 A 
ATOM     96  C   UNL A   1      39.064  33.883  38.066  1.00  0.00     0.135 A 
ATOM     97  C   UNL A   1      40.371  35.453  36.799  1.00  0.00     0.135 A 
ATOM     98  F   UNL A   1      38.500  32.675  38.224  1.00  0.00    -0.206 F 
ATOM     99  C   UNL A   1      38.867  34.838  39.060  1.00  0.00     0.059 A 
ATOM    100  C   UNL A   1      40.216  36.412  37.795  1.00  0.00     0.059 A 
ATOM    101  F   UNL A   1      41.104  35.778  35.722  1.00  0.00    -0.206 F 
ATOM    102  C   UNL A   1      39.450  36.099  38.916  1.00  0.00     0.060 A 
BRANCH 102 103
ATOM    103  S   UNL A   1      39.215  37.318  40.228  1.00  0.00     0.124 S 
ATOM    104  O   UNL A   1      38.398  38.322  39.554  1.00  0.00    -0.237 OA
ATOM    105  O   UNL A   1      38.537  36.539  41.260  1.00  0.00    -0.237 OA
ATOM    106  O   UNL A   1      40.575  37.733  40.556  1.00  0.00    -0.744 OA
ENDBRANCH 102 103
ENDBRANCH  70  95
ENDBRANCH  44  45
ENDBRANCH  37  39
ENDBRANCH  36  37
ENDBRANCH  35  36
ENDBRANCH  34  35
ENDBRANCH  33  34
ENDBRANCH   1  33
TORSDOF 23
ENDMDL
MODEL 3
REMARK VINA RESULT:     -10.2      5.895     11.285
REMARK SMILES C[NH+]1CCC(C(=O)N2C[C@@H](C(=O)OCCOCCOCCOC(=O)c3ccc(-c4c5nc(c(-c6c(F)cc(S(=O)(=O)[O-])cc6F)c6ccc([nH]6)c(-c6c(F)cc(S(=O)(=O)[O-])cc6F)c6nc(c(-c7c(F)cc(S(=O)(=O)[O-])cc7F)c7ccc4[nH]7)C=C6)C=C5)cc3)[C@H](c3ccc4c(c3)OCO4)C2)CC1
REMARK SMILES IDX 18 1 17 2 16 3 15 4 14 5 13 6 11 7 12 8 10 9 8 10 9 11
REMARK SMILES IDX 101 12 91 13 6 14 7 15 5 16 1 17 2 18 3 19 103 20 4 22
REMARK SMILES IDX 102 23 92 24 93 25 97 26 94 27 96 28 95 29 98 30 100 31
REMARK SMILES IDX 99 32 19 33 20 34 21 35 22 36 23 37 24 38 25 39 26 40 90 41
REMARK SMILES IDX 27 42 89 43 28 44 29 45 30 46 83 47 31 48 88 49 82 50 84 51
REMARK SMILES IDX 32 52 87 53 81 54 80 55 33 57 67 58 46 59 66 60 47 61 50 62
REMARK SMILES IDX 65 63 85 64 48 65 49 66 64 68 86 69 51 70 34 71 35 72 44 73
REMARK SMILES IDX 36 74 37 75 43 76 45 77 38 78 39 79 40 80 41 81 42 82 68 83
REMARK SMILES IDX 69 84 78 85 70 86 71 87 77 88 79 89 72 90 73 91 74 92 75 93
REMARK SMILES IDX 76 94 52 95 53 96 62 97 54 98 55 99 61 100 63 101 56 102
REMARK SMILES IDX 57 103 58 104 59 105 60 106
REMARK H PARENT 2 21 84 56 50 67
REMARK Flexibility Score: inf
ROOT
ATOM      1  C   UNL A   1      32.691  30.336  26.337  1.00  0.00     0.188 C 
ENDROOT
BRANCH   1   2
ATOM      2  C   UNL A   1      33.594  29.162  26.776  1.00  0.00     0.188 C 
BRANCH   2   3
ATOM      3  O   UNL A   1      33.397  27.865  26.233  1.00  0.00    -0.376 OA
BRANCH   3   4
ATOM      4  C   UNL A   1      32.085  27.352  26.062  1.00  0.00     0.202 C 
BRANCH   4   5
ATOM      5  C   UNL A   1      31.669  26.026  26.711  1.00  0.00     0.261 C 
BRANCH   5   6
ATOM      6  O   UNL A   1      31.073  25.082  25.814  1.00  0.00    -0.463 OA
BRANCH   6   7
ATOM      7  C   UNL A   1      31.461  23.781  25.936  1.00  0.00     0.311 C 
ATOM      8  O   UNL A   1      31.677  23.202  26.990  1.00  0.00    -0.252 OA
BRANCH   7   9
ATOM      9  C   UNL A   1      31.609  23.158  24.572  1.00  0.00     0.128 C 
ATOM     10  N   UNL A   1      32.356  21.306  23.402  1.00  0.00    -0.341 N 
ATOM     11  C   UNL A   1      31.691  21.648  24.639  1.00  0.00     0.135 C 
ATOM     12  C   UNL A   1      33.326  22.347  23.074  1.00  0.00     0.128 C 
ATOM     13  C   UNL A   1      32.917  23.605  23.875  1.00  0.00     0.055 C 
BRANCH  10  14
ATOM     14  C   UNL A   1      32.501  20.043  22.866  1.00  0.00     0.226 C 
ATOM     15  O   UNL A   1      32.063  19.792  21.739  1.00  0.00    -0.275 OA
BRANCH  14  16
ATOM     16  C   UNL A   1      32.915  18.877  23.776  1.00  0.00     0.090 C 
ATOM     17  C   UNL A   1      32.976  15.005  25.660  1.00  0.00     0.332 C 
ATOM     18  N   UNL A   1      32.597  16.220  24.935  1.00  0.00    -0.337 N 
ATOM     19  C   UNL A   1      33.444  16.398  23.751  1.00  0.00     0.262 C 
ATOM     20  C   UNL A   1      32.697  17.400  25.809  1.00  0.00     0.262 C 
ATOM     21  H   UNL A   1      31.627  16.121  24.634  1.00  0.00     0.347 HD
ATOM     22  C   UNL A   1      32.963  17.594  22.934  1.00  0.00     0.075 C 
ATOM     23  C   UNL A   1      32.159  18.639  25.077  1.00  0.00     0.075 C 
ENDBRANCH  14  16
ENDBRANCH  10  14
BRANCH  13  24
ATOM     24  C   UNL A   1      32.617  24.920  23.156  1.00  0.00    -0.038 A 
ATOM     25  C   UNL A   1      31.321  25.327  22.777  1.00  0.00     0.008 A 
ATOM     26  C   UNL A   1      33.672  25.856  23.061  1.00  0.00     0.054 A 
ATOM     27  C   UNL A   1      31.053  26.661  22.436  1.00  0.00     0.051 A 
ATOM     28  C   UNL A   1      33.362  27.173  22.824  1.00  0.00     0.166 A 
ATOM     29  C   UNL A   1      32.082  27.570  22.534  1.00  0.00     0.165 A 
ATOM     30  O   UNL A   1      34.219  28.224  22.949  1.00  0.00    -0.454 OA
ATOM     31  O   UNL A   1      31.979  28.923  22.433  1.00  0.00    -0.454 OA
ATOM     32  C   UNL A   1      33.270  29.309  22.954  1.00  0.00     0.468 C 
ENDBRANCH  13  24
ENDBRANCH   7   9
ENDBRANCH   6   7
ENDBRANCH   5   6
ENDBRANCH   4   5
ENDBRANCH   3   4
ENDBRANCH   2   3
ENDBRANCH   1   2
BRANCH   1  33
ATOM     33  O   UNL A   1      32.712  31.460  27.181  1.00  0.00    -0.376 OA
BRANCH  33  34
ATOM     34  C   UNL A   1      33.856  31.724  27.973  1.00  0.00     0.202 C 
BRANCH  34  35
ATOM     35  C   UNL A   1      34.127  33.016  28.776  1.00  0.00     0.261 C 
BRANCH  35  36
ATOM     36  O   UNL A   1      35.368  33.149  29.476  1.00  0.00    -0.460 OA
BRANCH  36  37
ATOM     37  C   UNL A   1      35.609  32.240  30.449  1.00  0.00     0.338 C 
ATOM     38  O   UNL A   1      34.875  31.955  31.389  1.00  0.00    -0.246 OA
BRANCH  37  39
ATOM     39  C   UNL A   1      36.829  31.483  30.108  1.00  0.00     0.060 A 
ATOM     40  C   UNL A   1      37.638  31.015  31.150  1.00  0.00     0.016 A 
ATOM     41  C   UNL A   1      37.193  31.257  28.781  1.00  0.00     0.016 A 
ATOM     42  C   UNL A   1      38.821  30.331  30.868  1.00  0.00     0.010 A 
ATOM     43  C   UNL A   1      38.398  30.597  28.501  1.00  0.00     0.010 A 
ATOM     44  C   UNL A   1      39.233  30.154  29.543  1.00  0.00    -0.014 A 
BRANCH  44  45
ATOM     45  C   UNL A   1      40.619  29.695  29.268  1.00  0.00     0.031 A 
ATOM     46  C   UNL A   1      41.736  30.703  29.364  1.00  0.00     0.074 A 
ATOM     47  C   UNL A   1      40.899  28.409  28.983  1.00  0.00     0.049 A 
ATOM     48  N   UNL A   1      43.004  30.567  29.082  1.00  0.00    -0.248 NA
ATOM     49  C   UNL A   1      41.367  32.045  29.848  1.00  0.00     0.031 C 
ATOM     50  C   UNL A   1      39.925  27.317  28.942  1.00  0.00     0.029 A 
ATOM     51  N   UNL A   1      42.091  27.804  28.664  1.00  0.00    -0.354 N 
ATOM     52  C   UNL A   1      43.579  31.811  29.318  1.00  0.00     0.074 A 
ATOM     53  C   UNL A   1      42.523  32.690  29.767  1.00  0.00     0.031 C 
ATOM     54  C   UNL A   1      40.558  26.181  28.595  1.00  0.00     0.029 A 
ATOM     55  C   UNL A   1      41.969  26.470  28.345  1.00  0.00     0.049 A 
ATOM     56  H   UNL A   1      42.953  28.280  28.663  1.00  0.00     0.167 HD
ATOM     57  C   UNL A   1      44.871  32.187  29.169  1.00  0.00     0.037 A 
ATOM     58  C   UNL A   1      42.882  25.598  27.871  1.00  0.00     0.037 A 
ATOM     59  C   UNL A   1      45.925  31.302  28.747  1.00  0.00     0.049 A 
ATOM     60  C   UNL A   1      44.302  26.065  27.642  1.00  0.00     0.074 A 
ATOM     61  C   UNL A   1      47.271  31.585  28.595  1.00  0.00     0.029 A 
ATOM     62  N   UNL A   1      45.754  29.969  28.405  1.00  0.00    -0.354 N 
ATOM     63  N   UNL A   1      44.834  27.242  27.876  1.00  0.00    -0.248 NA
ATOM     64  C   UNL A   1      45.245  25.085  27.081  1.00  0.00     0.031 C 
ATOM     65  C   UNL A   1      47.904  30.441  28.100  1.00  0.00     0.029 A 
ATOM     66  C   UNL A   1      46.966  29.427  28.012  1.00  0.00     0.049 A 
ATOM     67  H   UNL A   1      44.900  29.482  28.437  1.00  0.00     0.167 HD
ATOM     68  C   UNL A   1      46.180  27.126  27.534  1.00  0.00     0.074 A 
ATOM     69  C   UNL A   1      46.381  25.768  27.081  1.00  0.00     0.031 C 
ATOM     70  C   UNL A   1      47.162  28.061  27.592  1.00  0.00     0.037 A 
BRANCH  57  71
ATOM     71  C   UNL A   1      45.223  33.627  29.414  1.00  0.00     0.058 A 
ATOM     72  C   UNL A   1      45.103  34.607  28.417  1.00  0.00     0.135 A 
ATOM     73  C   UNL A   1      45.611  34.042  30.699  1.00  0.00     0.135 A 
ATOM     74  F   UNL A   1      44.759  34.262  27.166  1.00  0.00    -0.206 F 
ATOM     75  C   UNL A   1      45.359  35.948  28.685  1.00  0.00     0.059 A 
ATOM     76  C   UNL A   1      45.846  35.381  30.996  1.00  0.00     0.059 A 
ATOM     77  F   UNL A   1      45.749  33.143  31.686  1.00  0.00    -0.206 F 
ATOM     78  C   UNL A   1      45.721  36.326  29.980  1.00  0.00     0.060 A 
BRANCH  78  79
ATOM     79  S   UNL A   1      46.001  38.076  30.323  1.00  0.00     0.124 S 
ATOM     80  O   UNL A   1      46.943  38.007  31.436  1.00  0.00    -0.237 OA
ATOM     81  O   UNL A   1      46.550  38.555  29.059  1.00  0.00    -0.237 OA
ATOM     82  O   UNL A   1      44.672  38.576  30.656  1.00  0.00    -0.744 OA
ENDBRANCH  78  79
ENDBRANCH  57  71
BRANCH  58  83
ATOM     83  C   UNL A   1      42.495  24.197  27.530  1.00  0.00     0.058 A 
ATOM     84  C   UNL A   1      42.725  23.139  28.422  1.00  0.00     0.135 A 
ATOM     85  C   UNL A   1      41.950  23.880  26.275  1.00  0.00     0.135 A 
ATOM     86  F   UNL A   1      43.260  23.384  29.629  1.00  0.00    -0.206 F 
ATOM     87  C   UNL A   1      42.469  21.816  28.071  1.00  0.00     0.059 A 
ATOM     88  C   UNL A   1      41.653  22.569  25.914  1.00  0.00     0.059 A 
ATOM     89  F   UNL A   1      41.703  24.852  25.382  1.00  0.00    -0.206 F 
ATOM     90  C   UNL A   1      41.938  21.541  26.811  1.00  0.00     0.060 A 
BRANCH  90  91
ATOM     91  S   UNL A   1      41.613  19.822  26.360  1.00  0.00     0.124 S 
ATOM     92  O   UNL A   1      41.919  19.130  27.606  1.00  0.00    -0.237 OA
ATOM     93  O   UNL A   1      40.204  19.865  25.981  1.00  0.00    -0.237 OA
ATOM     94  O   UNL A   1      42.544  19.582  25.261  1.00  0.00    -0.744 OA
ENDBRANCH  90  91
ENDBRANCH  58  83
BRANCH  70  95
ATOM     95  C   UNL A   1      48.561  27.637  27.231  1.00  0.00     0.058 A 
ATOM     96  C   UNL A   1      49.027  27.645  25.908  1.00  0.00     0.135 A 
ATOM     97  C   UNL A   1      49.469  27.275  28.241  1.00  0.00     0.135 A 
ATOM     98  F   UNL A   1      48.201  27.980  24.903  1.00  0.00    -0.206 F 
ATOM     99  C   UNL A   1      50.334  27.282  25.595  1.00  0.00     0.059 A 
ATOM    100  C   UNL A   1      50.789  26.941  27.956  1.00  0.00     0.059 A 
ATOM    101  F   UNL A   1      49.082  27.264  29.527  1.00  0.00    -0.206 F 
ATOM    102  C   UNL A   1      51.209  26.935  26.627  1.00  0.00     0.060 A 
BRANCH 102 103
ATOM    103  S   UNL A   1      52.911  26.500  26.211  1.00  0.00     0.124 S 
ATOM    104  O   UNL A   1      53.647  27.636  26.754  1.00  0.00    -0.237 OA
ATOM    105  O   UNL A   1      53.090  25.234  26.917  1.00  0.00    -0.237 OA
ATOM    106  O   UNL A   1      52.892  26.401  24.755  1.00  0.00    -0.744 OA
ENDBRANCH 102 103
ENDBRANCH  70  95
ENDBRANCH  44  45
ENDBRANCH  37  39
ENDBRANCH  36  37
ENDBRANCH  35  36
ENDBRANCH  34  35
ENDBRANCH  33  34
ENDBRANCH   1  33
TORSDOF 23
ENDMDL
