MODEL 1
REMARK VINA RESULT:     -10.1      0.000      0.000
REMARK SMILES COCc1nc2ccccc2n1CC(=O)OCCOCCOCCOC(=O)c1ccc(-c2c3nc(c(-c4c(F)cc(S(=O)(=O)[O-])cc4F)c4ccc([nH]4)c(-c4c(F)cc(S(=O)(=O)[O-])cc4F)c4nc(c(-c5c(F)cc(S(=O)(=O)[O-])cc5F)c5ccc2[nH]5)C=C4)C=C3)cc1
REMARK SMILES IDX 20 1 19 2 18 3 17 4 16 5 14 6 15 7 13 8 12 9 4 10 5 11 6 12
REMARK SMILES IDX 11 13 7 14 10 15 8 16 9 17 3 18 2 19 1 20 21 21 22 22 23 23
REMARK SMILES IDX 24 24 25 25 26 26 27 27 28 28 29 29 93 30 30 31 92 32 31 33
REMARK SMILES IDX 32 34 33 35 86 36 34 37 91 38 85 39 87 40 35 41 90 42 84 43
REMARK SMILES IDX 83 44 36 46 70 47 49 48 69 49 50 50 53 51 68 52 88 53 51 54
REMARK SMILES IDX 52 55 67 57 89 58 54 59 37 60 38 61 47 62 39 63 40 64 46 65
REMARK SMILES IDX 48 66 41 67 42 68 43 69 44 70 45 71 71 72 72 73 81 74 73 75
REMARK SMILES IDX 74 76 80 77 82 78 75 79 76 80 77 81 78 82 79 83 55 84 56 85
REMARK SMILES IDX 65 86 57 87 58 88 64 89 66 90 59 91 60 92 61 93 62 94 63 95
REMARK H PARENT 87 45 53 56
REMARK Flexibility Score: inf
ROOT
ATOM      1  C   UNL A   1      37.851  22.236  25.709  1.00  0.00     0.188 C 
ENDROOT
BRANCH   1   2
ATOM      2  O   UNL A   1      36.660  21.558  25.368  1.00  0.00    -0.376 OA
BRANCH   2   3
ATOM      3  C   UNL A   1      35.916  22.023  24.260  1.00  0.00     0.202 C 
BRANCH   3   4
ATOM      4  C   UNL A   1      35.350  23.437  24.390  1.00  0.00     0.261 C 
BRANCH   4   5
ATOM      5  O   UNL A   1      35.009  24.011  23.100  1.00  0.00    -0.462 OA
BRANCH   5   6
ATOM      6  C   UNL A   1      33.754  23.748  22.674  1.00  0.00     0.326 C 
ATOM      7  O   UNL A   1      33.524  23.216  21.590  1.00  0.00    -0.250 OA
BRANCH   6   8
ATOM      8  C   UNL A   1      32.632  23.932  23.667  1.00  0.00     0.246 C 
BRANCH   8   9
ATOM      9  N   UNL A   1      32.420  25.157  24.429  1.00  0.00    -0.315 N 
ATOM     10  C   UNL A   1      32.137  25.246  25.796  1.00  0.00     0.136 A 
ATOM     11  N   UNL A   1      31.944  26.505  26.138  1.00  0.00    -0.231 NA
ATOM     12  C   UNL A   1      31.601  27.113  24.966  1.00  0.00     0.089 A 
ATOM     13  C   UNL A   1      31.850  26.288  23.875  1.00  0.00     0.069 A 
ATOM     14  C   UNL A   1      30.961  28.343  24.778  1.00  0.00     0.030 A 
ATOM     15  C   UNL A   1      31.440  26.608  22.576  1.00  0.00     0.028 A 
ATOM     16  C   UNL A   1      30.513  28.668  23.494  1.00  0.00     0.002 A 
ATOM     17  C   UNL A   1      30.739  27.807  22.417  1.00  0.00     0.002 A 
BRANCH  10  18
ATOM     18  C   UNL A   1      31.928  24.079  26.697  1.00  0.00     0.235 C 
BRANCH  18  19
ATOM     19  O   UNL A   1      30.581  24.013  27.176  1.00  0.00    -0.377 OA
ATOM     20  C   UNL A   1      29.952  22.765  26.932  1.00  0.00     0.195 C 
ENDBRANCH  18  19
ENDBRANCH  10  18
ENDBRANCH   8   9
ENDBRANCH   6   8
ENDBRANCH   5   6
ENDBRANCH   4   5
ENDBRANCH   3   4
ENDBRANCH   2   3
ENDBRANCH   1   2
BRANCH   1  21
ATOM     21  C   UNL A   1      39.170  21.458  25.840  1.00  0.00     0.188 C 
BRANCH  21  22
ATOM     22  O   UNL A   1      39.976  21.702  26.981  1.00  0.00    -0.376 OA
BRANCH  22  23
ATOM     23  C   UNL A   1      40.970  20.724  27.272  1.00  0.00     0.202 C 
BRANCH  23  24
ATOM     24  C   UNL A   1      42.235  20.807  26.400  1.00  0.00     0.261 C 
BRANCH  24  25
ATOM     25  O   UNL A   1      42.997  21.981  26.764  1.00  0.00    -0.460 OA
BRANCH  25  26
ATOM     26  C   UNL A   1      43.081  22.953  25.815  1.00  0.00     0.338 C 
ATOM     27  O   UNL A   1      42.941  22.790  24.626  1.00  0.00    -0.246 OA
BRANCH  26  28
ATOM     28  C   UNL A   1      43.017  24.290  26.494  1.00  0.00     0.060 A 
ATOM     29  C   UNL A   1      43.671  24.617  27.688  1.00  0.00     0.016 A 
ATOM     30  C   UNL A   1      42.097  25.194  25.970  1.00  0.00     0.016 A 
ATOM     31  C   UNL A   1      43.290  25.760  28.428  1.00  0.00     0.010 A 
ATOM     32  C   UNL A   1      41.725  26.325  26.704  1.00  0.00     0.010 A 
ATOM     33  C   UNL A   1      42.264  26.597  27.971  1.00  0.00    -0.014 A 
BRANCH  33  34
ATOM     34  C   UNL A   1      41.994  27.929  28.564  1.00  0.00     0.031 A 
ATOM     35  C   UNL A   1      43.052  28.876  28.208  1.00  0.00     0.074 A 
ATOM     36  C   UNL A   1      40.981  28.450  29.300  1.00  0.00     0.049 A 
ATOM     37  N   UNL A   1      44.090  29.099  28.941  1.00  0.00    -0.248 NA
ATOM     38  C   UNL A   1      43.074  29.504  26.886  1.00  0.00     0.031 C 
ATOM     39  C   UNL A   1      39.812  27.755  29.780  1.00  0.00     0.029 A 
ATOM     40  N   UNL A   1      40.751  29.728  29.767  1.00  0.00    -0.354 N 
ATOM     41  C   UNL A   1      44.737  30.130  28.301  1.00  0.00     0.074 A 
ATOM     42  C   UNL A   1      44.244  30.146  26.945  1.00  0.00     0.031 C 
ATOM     43  C   UNL A   1      38.865  28.612  30.227  1.00  0.00     0.029 A 
ATOM     44  C   UNL A   1      39.467  29.934  30.282  1.00  0.00     0.049 A 
ATOM     45  H   UNL A   1      41.434  30.437  29.739  1.00  0.00     0.167 HD
ATOM     46  C   UNL A   1      45.342  31.102  29.027  1.00  0.00     0.037 A 
ATOM     47  C   UNL A   1      38.960  30.989  30.974  1.00  0.00     0.037 A 
ATOM     48  C   UNL A   1      45.423  30.772  30.430  1.00  0.00     0.049 A 
ATOM     49  C   UNL A   1      40.076  31.535  31.774  1.00  0.00     0.074 A 
ATOM     50  C   UNL A   1      46.096  29.845  31.197  1.00  0.00     0.029 A 
ATOM     51  N   UNL A   1      44.405  31.269  31.204  1.00  0.00    -0.354 N 
ATOM     52  N   UNL A   1      40.633  30.893  32.766  1.00  0.00    -0.248 NA
ATOM     53  C   UNL A   1      40.780  32.726  31.321  1.00  0.00     0.031 C 
ATOM     54  C   UNL A   1      45.343  29.681  32.396  1.00  0.00     0.029 A 
ATOM     55  C   UNL A   1      44.227  30.510  32.336  1.00  0.00     0.049 A 
ATOM     56  H   UNL A   1      43.871  32.065  30.979  1.00  0.00     0.167 HD
ATOM     57  C   UNL A   1      41.938  31.334  32.754  1.00  0.00     0.074 A 
ATOM     58  C   UNL A   1      41.925  32.571  31.989  1.00  0.00     0.031 C 
ATOM     59  C   UNL A   1      42.964  30.490  33.050  1.00  0.00     0.037 A 
BRANCH  46  60
ATOM     60  C   UNL A   1      45.461  32.516  28.545  1.00  0.00     0.058 A 
ATOM     61  C   UNL A   1      46.737  33.075  28.375  1.00  0.00     0.135 A 
ATOM     62  C   UNL A   1      44.370  33.412  28.474  1.00  0.00     0.135 A 
ATOM     63  F   UNL A   1      47.834  32.309  28.480  1.00  0.00    -0.206 F 
ATOM     64  C   UNL A   1      46.919  34.437  28.155  1.00  0.00     0.059 A 
ATOM     65  C   UNL A   1      44.523  34.758  28.185  1.00  0.00     0.059 A 
ATOM     66  F   UNL A   1      43.121  33.038  28.781  1.00  0.00    -0.206 F 
ATOM     67  C   UNL A   1      45.805  35.268  28.061  1.00  0.00     0.060 A 
BRANCH  67  68
ATOM     68  S   UNL A   1      46.039  37.037  27.839  1.00  0.00     0.124 S 
ATOM     69  O   UNL A   1      45.713  37.193  26.426  1.00  0.00    -0.237 OA
ATOM     70  O   UNL A   1      45.077  37.592  28.785  1.00  0.00    -0.237 OA
ATOM     71  O   UNL A   1      47.442  37.235  28.192  1.00  0.00    -0.744 OA
ENDBRANCH  67  68
ENDBRANCH  46  60
BRANCH  47  72
ATOM     72  C   UNL A   1      37.584  31.559  31.039  1.00  0.00     0.058 A 
ATOM     73  C   UNL A   1      36.762  31.372  32.171  1.00  0.00     0.135 A 
ATOM     74  C   UNL A   1      37.167  32.558  30.139  1.00  0.00     0.135 A 
ATOM     75  F   UNL A   1      37.064  30.435  33.082  1.00  0.00    -0.206 F 
ATOM     76  C   UNL A   1      35.663  32.191  32.447  1.00  0.00     0.059 A 
ATOM     77  C   UNL A   1      36.067  33.387  30.391  1.00  0.00     0.059 A 
ATOM     78  F   UNL A   1      37.878  32.815  29.030  1.00  0.00    -0.206 F 
ATOM     79  C   UNL A   1      35.345  33.224  31.570  1.00  0.00     0.060 A 
BRANCH  79  80
ATOM     80  S   UNL A   1      34.091  34.436  32.061  1.00  0.00     0.124 S 
ATOM     81  O   UNL A   1      33.323  33.696  33.055  1.00  0.00    -0.237 OA
ATOM     82  O   UNL A   1      34.908  35.531  32.575  1.00  0.00    -0.237 OA
ATOM     83  O   UNL A   1      33.389  34.721  30.812  1.00  0.00    -0.744 OA
ENDBRANCH  79  80
ENDBRANCH  47  72
BRANCH  59  84
ATOM     84  C   UNL A   1      42.707  29.376  34.024  1.00  0.00     0.058 A 
ATOM     85  C   UNL A   1      42.714  29.507  35.422  1.00  0.00     0.135 A 
ATOM     86  C   UNL A   1      42.331  28.131  33.495  1.00  0.00     0.135 A 
ATOM     87  F   UNL A   1      43.007  30.678  36.003  1.00  0.00    -0.206 F 
ATOM     88  C   UNL A   1      42.360  28.441  36.256  1.00  0.00     0.059 A 
ATOM     89  C   UNL A   1      41.950  27.065  34.305  1.00  0.00     0.059 A 
ATOM     90  F   UNL A   1      42.281  27.954  32.164  1.00  0.00    -0.206 F 
ATOM     91  C   UNL A   1      41.965  27.228  35.688  1.00  0.00     0.060 A 
BRANCH  91  92
ATOM     92  S   UNL A   1      41.380  25.896  36.761  1.00  0.00     0.124 S 
ATOM     93  O   UNL A   1      40.558  26.615  37.728  1.00  0.00    -0.237 OA
ATOM     94  O   UNL A   1      40.658  25.034  35.830  1.00  0.00    -0.237 OA
ATOM     95  O   UNL A   1      42.613  25.322  37.296  1.00  0.00    -0.744 OA
ENDBRANCH  91  92
ENDBRANCH  59  84
ENDBRANCH  33  34
ENDBRANCH  26  28
ENDBRANCH  25  26
ENDBRANCH  24  25
ENDBRANCH  23  24
ENDBRANCH  22  23
ENDBRANCH  21  22
ENDBRANCH   1  21
TORSDOF 23
ENDMDL
MODEL 2
REMARK VINA RESULT:      -9.7      1.333      2.154
REMARK SMILES COCc1nc2ccccc2n1CC(=O)OCCOCCOCCOC(=O)c1ccc(-c2c3nc(c(-c4c(F)cc(S(=O)(=O)[O-])cc4F)c4ccc([nH]4)c(-c4c(F)cc(S(=O)(=O)[O-])cc4F)c4nc(c(-c5c(F)cc(S(=O)(=O)[O-])cc5F)c5ccc2[nH]5)C=C4)C=C3)cc1
REMARK SMILES IDX 20 1 19 2 18 3 17 4 16 5 14 6 15 7 13 8 12 9 4 10 5 11 6 12
REMARK SMILES IDX 11 13 7 14 10 15 8 16 9 17 3 18 2 19 1 20 21 21 22 22 23 23
REMARK SMILES IDX 24 24 25 25 26 26 27 27 28 28 29 29 93 30 30 31 92 32 31 33
REMARK SMILES IDX 32 34 33 35 86 36 34 37 91 38 85 39 87 40 35 41 90 42 84 43
REMARK SMILES IDX 83 44 36 46 70 47 49 48 69 49 50 50 53 51 68 52 88 53 51 54
REMARK SMILES IDX 52 55 67 57 89 58 54 59 37 60 38 61 47 62 39 63 40 64 46 65
REMARK SMILES IDX 48 66 41 67 42 68 43 69 44 70 45 71 71 72 72 73 81 74 73 75
REMARK SMILES IDX 74 76 80 77 82 78 75 79 76 80 77 81 78 82 79 83 55 84 56 85
REMARK SMILES IDX 65 86 57 87 58 88 64 89 66 90 59 91 60 92 61 93 62 94 63 95
REMARK H PARENT 87 45 53 56
REMARK Flexibility Score: inf
ROOT
ATOM      1  C   UNL A   1      38.284  22.625  25.791  1.00  0.00     0.188 C 
ENDROOT
BRANCH   1   2
ATOM      2  O   UNL A   1      36.967  22.486  26.285  1.00  0.00    -0.376 OA
BRANCH   2   3
ATOM      3  C   UNL A   1      35.967  22.011  25.406  1.00  0.00     0.202 C 
BRANCH   3   4
ATOM      4  C   UNL A   1      35.111  23.087  24.736  1.00  0.00     0.261 C 
BRANCH   4   5
ATOM      5  O   UNL A   1      35.272  24.386  25.366  1.00  0.00    -0.462 OA
BRANCH   5   6
ATOM      6  C   UNL A   1      34.128  25.091  25.512  1.00  0.00     0.326 C 
ATOM      7  O   UNL A   1      33.139  24.632  26.081  1.00  0.00    -0.250 OA
BRANCH   6   8
ATOM      8  C   UNL A   1      34.164  26.554  25.145  1.00  0.00     0.246 C 
BRANCH   8   9
ATOM      9  N   UNL A   1      33.206  27.536  25.642  1.00  0.00    -0.315 N 
ATOM     10  C   UNL A   1      32.019  27.928  25.015  1.00  0.00     0.136 A 
ATOM     11  N   UNL A   1      31.432  28.880  25.713  1.00  0.00    -0.231 NA
ATOM     12  C   UNL A   1      32.446  29.423  26.446  1.00  0.00     0.089 A 
ATOM     13  C   UNL A   1      33.587  28.630  26.397  1.00  0.00     0.069 A 
ATOM     14  C   UNL A   1      32.487  30.664  27.093  1.00  0.00     0.030 A 
ATOM     15  C   UNL A   1      34.815  29.038  26.930  1.00  0.00     0.028 A 
ATOM     16  C   UNL A   1      33.712  31.106  27.601  1.00  0.00     0.002 A 
ATOM     17  C   UNL A   1      34.856  30.310  27.509  1.00  0.00     0.002 A 
BRANCH  10  18
ATOM     18  C   UNL A   1      31.570  27.455  23.678  1.00  0.00     0.235 C 
BRANCH  18  19
ATOM     19  O   UNL A   1      31.038  26.127  23.735  1.00  0.00    -0.377 OA
ATOM     20  C   UNL A   1      31.408  25.319  22.629  1.00  0.00     0.195 C 
ENDBRANCH  18  19
ENDBRANCH  10  18
ENDBRANCH   8   9
ENDBRANCH   6   8
ENDBRANCH   5   6
ENDBRANCH   4   5
ENDBRANCH   3   4
ENDBRANCH   2   3
ENDBRANCH   1   2
BRANCH   1  21
ATOM     21  C   UNL A   1      39.318  21.515  26.032  1.00  0.00     0.188 C 
BRANCH  21  22
ATOM     22  O   UNL A   1      40.021  21.516  27.264  1.00  0.00    -0.376 OA
BRANCH  22  23
ATOM     23  C   UNL A   1      41.054  20.545  27.402  1.00  0.00     0.202 C 
BRANCH  23  24
ATOM     24  C   UNL A   1      42.163  20.622  26.340  1.00  0.00     0.261 C 
BRANCH  24  25
ATOM     25  O   UNL A   1      43.051  21.723  26.647  1.00  0.00    -0.460 OA
BRANCH  25  26
ATOM     26  C   UNL A   1      43.096  22.725  25.726  1.00  0.00     0.338 C 
ATOM     27  O   UNL A   1      42.931  22.595  24.536  1.00  0.00    -0.246 OA
BRANCH  26  28
ATOM     28  C   UNL A   1      43.025  24.039  26.447  1.00  0.00     0.060 A 
ATOM     29  C   UNL A   1      43.516  24.276  27.736  1.00  0.00     0.016 A 
ATOM     30  C   UNL A   1      42.258  25.027  25.835  1.00  0.00     0.016 A 
ATOM     31  C   UNL A   1      43.111  25.419  28.463  1.00  0.00     0.010 A 
ATOM     32  C   UNL A   1      41.861  26.158  26.557  1.00  0.00     0.010 A 
ATOM     33  C   UNL A   1      42.224  26.346  27.899  1.00  0.00    -0.014 A 
BRANCH  33  34
ATOM     34  C   UNL A   1      41.963  27.675  28.504  1.00  0.00     0.031 A 
ATOM     35  C   UNL A   1      42.973  28.644  28.075  1.00  0.00     0.074 A 
ATOM     36  C   UNL A   1      40.990  28.174  29.304  1.00  0.00     0.049 A 
ATOM     37  N   UNL A   1      44.051  28.894  28.737  1.00  0.00    -0.248 NA
ATOM     38  C   UNL A   1      42.892  29.266  26.753  1.00  0.00     0.031 C 
ATOM     39  C   UNL A   1      39.871  27.455  29.863  1.00  0.00     0.029 A 
ATOM     40  N   UNL A   1      40.761  29.450  29.781  1.00  0.00    -0.354 N 
ATOM     41  C   UNL A   1      44.631  29.937  28.052  1.00  0.00     0.074 A 
ATOM     42  C   UNL A   1      44.048  29.935  26.733  1.00  0.00     0.031 C 
ATOM     43  C   UNL A   1      38.937  28.292  30.369  1.00  0.00     0.029 A 
ATOM     44  C   UNL A   1      39.509  29.628  30.380  1.00  0.00     0.049 A 
ATOM     45  H   UNL A   1      41.423  30.174  29.706  1.00  0.00     0.167 HD
ATOM     46  C   UNL A   1      45.259  30.926  28.733  1.00  0.00     0.037 A 
ATOM     47  C   UNL A   1      39.025  30.674  31.101  1.00  0.00     0.037 A 
ATOM     48  C   UNL A   1      45.441  30.605  30.129  1.00  0.00     0.049 A 
ATOM     49  C   UNL A   1      40.179  31.249  31.824  1.00  0.00     0.074 A 
ATOM     50  C   UNL A   1      46.185  29.696  30.853  1.00  0.00     0.029 A 
ATOM     51  N   UNL A   1      44.465  31.081  30.968  1.00  0.00    -0.354 N 
ATOM     52  N   UNL A   1      40.815  30.625  32.779  1.00  0.00    -0.248 NA
ATOM     53  C   UNL A   1      40.823  32.455  31.321  1.00  0.00     0.031 C 
ATOM     54  C   UNL A   1      45.518  29.521  32.100  1.00  0.00     0.029 A 
ATOM     55  C   UNL A   1      44.380  30.323  32.111  1.00  0.00     0.049 A 
ATOM     56  H   UNL A   1      43.899  31.864  30.776  1.00  0.00     0.167 HD
ATOM     57  C   UNL A   1      42.106  31.097  32.678  1.00  0.00     0.074 A 
ATOM     58  C   UNL A   1      42.013  32.329  31.911  1.00  0.00     0.031 C 
ATOM     59  C   UNL A   1      43.169  30.278  32.908  1.00  0.00     0.037 A 
BRANCH  46  60
ATOM     60  C   UNL A   1      45.313  32.340  28.241  1.00  0.00     0.058 A 
ATOM     61  C   UNL A   1      46.559  32.917  27.955  1.00  0.00     0.135 A 
ATOM     62  C   UNL A   1      44.207  33.220  28.267  1.00  0.00     0.135 A 
ATOM     63  F   UNL A   1      47.673  32.168  27.961  1.00  0.00    -0.206 F 
ATOM     64  C   UNL A   1      46.701  34.282  27.717  1.00  0.00     0.059 A 
ATOM     65  C   UNL A   1      44.312  34.567  27.963  1.00  0.00     0.059 A 
ATOM     66  F   UNL A   1      42.996  32.828  28.687  1.00  0.00    -0.206 F 
ATOM     67  C   UNL A   1      45.570  35.096  27.723  1.00  0.00     0.060 A 
BRANCH  67  68
ATOM     68  S   UNL A   1      45.756  36.867  27.477  1.00  0.00     0.124 S 
ATOM     69  O   UNL A   1      46.560  37.233  28.637  1.00  0.00    -0.237 OA
ATOM     70  O   UNL A   1      46.430  36.926  26.184  1.00  0.00    -0.237 OA
ATOM     71  O   UNL A   1      44.379  37.351  27.481  1.00  0.00    -0.744 OA
ENDBRANCH  67  68
ENDBRANCH  46  60
BRANCH  47  72
ATOM     72  C   UNL A   1      37.643  31.212  31.255  1.00  0.00     0.058 A 
ATOM     73  C   UNL A   1      36.998  31.234  32.510  1.00  0.00     0.135 A 
ATOM     74  C   UNL A   1      37.054  32.003  30.250  1.00  0.00     0.135 A 
ATOM     75  F   UNL A   1      37.472  30.504  33.531  1.00  0.00    -0.206 F 
ATOM     76  C   UNL A   1      35.905  32.065  32.781  1.00  0.00     0.059 A 
ATOM     77  C   UNL A   1      35.958  32.838  30.496  1.00  0.00     0.059 A 
ATOM     78  F   UNL A   1      37.589  32.052  29.021  1.00  0.00    -0.206 F 
ATOM     79  C   UNL A   1      35.416  32.896  31.777  1.00  0.00     0.060 A 
BRANCH  79  80
ATOM     80  S   UNL A   1      34.181  34.150  32.203  1.00  0.00     0.124 S 
ATOM     81  O   UNL A   1      33.335  33.437  33.153  1.00  0.00    -0.237 OA
ATOM     82  O   UNL A   1      35.006  35.216  32.762  1.00  0.00    -0.237 OA
ATOM     83  O   UNL A   1      33.556  34.460  30.920  1.00  0.00    -0.744 OA
ENDBRANCH  79  80
ENDBRANCH  47  72
BRANCH  59  84
ATOM     84  C   UNL A   1      43.003  29.163  33.900  1.00  0.00     0.058 A 
ATOM     85  C   UNL A   1      42.504  27.885  33.604  1.00  0.00     0.135 A 
ATOM     86  C   UNL A   1      43.479  29.382  35.203  1.00  0.00     0.135 A 
ATOM     87  F   UNL A   1      42.083  27.578  32.369  1.00  0.00    -0.206 F 
ATOM     88  C   UNL A   1      42.482  26.869  34.565  1.00  0.00     0.059 A 
ATOM     89  C   UNL A   1      43.491  28.379  36.168  1.00  0.00     0.059 A 
ATOM     90  F   UNL A   1      43.992  30.579  35.538  1.00  0.00    -0.206 F 
ATOM     91  C   UNL A   1      42.991  27.122  35.841  1.00  0.00     0.060 A 
BRANCH  91  92
ATOM     92  S   UNL A   1      43.085  25.772  37.040  1.00  0.00     0.124 S 
ATOM     93  O   UNL A   1      44.430  25.255  36.821  1.00  0.00    -0.237 OA
ATOM     94  O   UNL A   1      42.868  26.461  38.309  1.00  0.00    -0.237 OA
ATOM     95  O   UNL A   1      42.000  24.880  36.636  1.00  0.00    -0.744 OA
ENDBRANCH  91  92
ENDBRANCH  59  84
ENDBRANCH  33  34
ENDBRANCH  26  28
ENDBRANCH  25  26
ENDBRANCH  24  25
ENDBRANCH  23  24
ENDBRANCH  22  23
ENDBRANCH  21  22
ENDBRANCH   1  21
TORSDOF 23
ENDMDL
MODEL 3
REMARK VINA RESULT:      -9.6      1.465      2.962
REMARK SMILES COCc1nc2ccccc2n1CC(=O)OCCOCCOCCOC(=O)c1ccc(-c2c3nc(c(-c4c(F)cc(S(=O)(=O)[O-])cc4F)c4ccc([nH]4)c(-c4c(F)cc(S(=O)(=O)[O-])cc4F)c4nc(c(-c5c(F)cc(S(=O)(=O)[O-])cc5F)c5ccc2[nH]5)C=C4)C=C3)cc1
REMARK SMILES IDX 20 1 19 2 18 3 17 4 16 5 14 6 15 7 13 8 12 9 4 10 5 11 6 12
REMARK SMILES IDX 11 13 7 14 10 15 8 16 9 17 3 18 2 19 1 20 21 21 22 22 23 23
REMARK SMILES IDX 24 24 25 25 26 26 27 27 28 28 29 29 93 30 30 31 92 32 31 33
REMARK SMILES IDX 32 34 33 35 86 36 34 37 91 38 85 39 87 40 35 41 90 42 84 43
REMARK SMILES IDX 83 44 36 46 70 47 49 48 69 49 50 50 53 51 68 52 88 53 51 54
REMARK SMILES IDX 52 55 67 57 89 58 54 59 37 60 38 61 47 62 39 63 40 64 46 65
REMARK SMILES IDX 48 66 41 67 42 68 43 69 44 70 45 71 71 72 72 73 81 74 73 75
REMARK SMILES IDX 74 76 80 77 82 78 75 79 76 80 77 81 78 82 79 83 55 84 56 85
REMARK SMILES IDX 65 86 57 87 58 88 64 89 66 90 59 91 60 92 61 93 62 94 63 95
REMARK H PARENT 87 45 53 56
REMARK Flexibility Score: inf
ROOT
ATOM      1  C   UNL A   1      39.254  21.363  26.059  1.00  0.00     0.188 C 
ENDROOT
BRANCH   1   2
ATOM      2  O   UNL A   1      38.205  20.741  25.346  1.00  0.00    -0.376 OA
BRANCH   2   3
ATOM      3  C   UNL A   1      36.955  21.398  25.281  1.00  0.00     0.202 C 
BRANCH   3   4
ATOM      4  C   UNL A   1      36.992  22.912  25.493  1.00  0.00     0.261 C 
BRANCH   4   5
ATOM      5  O   UNL A   1      36.083  23.612  24.602  1.00  0.00    -0.462 OA
BRANCH   5   6
ATOM      6  C   UNL A   1      34.964  24.089  25.193  1.00  0.00     0.326 C 
ATOM      7  O   UNL A   1      34.809  25.283  25.441  1.00  0.00    -0.250 OA
BRANCH   6   8
ATOM      8  C   UNL A   1      33.803  23.138  25.348  1.00  0.00     0.246 C 
BRANCH   8   9
ATOM      9  N   UNL A   1      33.261  22.339  24.254  1.00  0.00    -0.315 N 
ATOM     10  C   UNL A   1      32.158  22.664  23.457  1.00  0.00     0.136 A 
ATOM     11  N   UNL A   1      31.910  21.686  22.608  1.00  0.00    -0.231 NA
ATOM     12  C   UNL A   1      32.483  20.594  23.189  1.00  0.00     0.089 A 
ATOM     13  C   UNL A   1      33.309  20.958  24.248  1.00  0.00     0.069 A 
ATOM     14  C   UNL A   1      32.248  19.240  22.922  1.00  0.00     0.030 A 
ATOM     15  C   UNL A   1      33.889  20.021  25.110  1.00  0.00     0.028 A 
ATOM     16  C   UNL A   1      32.790  18.290  23.791  1.00  0.00     0.002 A 
ATOM     17  C   UNL A   1      33.586  18.677  24.872  1.00  0.00     0.002 A 
BRANCH  10  18
ATOM     18  C   UNL A   1      31.297  23.863  23.648  1.00  0.00     0.235 C 
BRANCH  18  19
ATOM     19  O   UNL A   1      32.061  25.073  23.638  1.00  0.00    -0.377 OA
ATOM     20  C   UNL A   1      31.605  26.040  24.571  1.00  0.00     0.195 C 
ENDBRANCH  18  19
ENDBRANCH  10  18
ENDBRANCH   8   9
ENDBRANCH   6   8
ENDBRANCH   5   6
ENDBRANCH   4   5
ENDBRANCH   3   4
ENDBRANCH   2   3
ENDBRANCH   1   2
BRANCH   1  21
ATOM     21  C   UNL A   1      40.355  20.511  26.709  1.00  0.00     0.188 C 
BRANCH  21  22
ATOM     22  O   UNL A   1      41.438  20.091  25.896  1.00  0.00    -0.376 OA
BRANCH  22  23
ATOM     23  C   UNL A   1      42.700  20.693  26.165  1.00  0.00     0.202 C 
BRANCH  23  24
ATOM     24  C   UNL A   1      42.629  22.102  26.778  1.00  0.00     0.261 C 
BRANCH  24  25
ATOM     25  O   UNL A   1      42.338  23.066  25.740  1.00  0.00    -0.460 OA
BRANCH  25  26
ATOM     26  C   UNL A   1      43.367  23.883  25.382  1.00  0.00     0.338 C 
ATOM     27  O   UNL A   1      44.091  23.726  24.427  1.00  0.00    -0.246 OA
BRANCH  26  28
ATOM     28  C   UNL A   1      43.234  25.176  26.133  1.00  0.00     0.060 A 
ATOM     29  C   UNL A   1      43.899  25.483  27.326  1.00  0.00     0.016 A 
ATOM     30  C   UNL A   1      42.242  26.042  25.682  1.00  0.00     0.016 A 
ATOM     31  C   UNL A   1      43.466  26.558  28.136  1.00  0.00     0.010 A 
ATOM     32  C   UNL A   1      41.818  27.106  26.485  1.00  0.00     0.010 A 
ATOM     33  C   UNL A   1      42.374  27.347  27.751  1.00  0.00    -0.014 A 
BRANCH  33  34
ATOM     34  C   UNL A   1      42.035  28.626  28.421  1.00  0.00     0.031 A 
ATOM     35  C   UNL A   1      43.111  29.602  28.244  1.00  0.00     0.074 A 
ATOM     36  C   UNL A   1      40.951  29.081  29.096  1.00  0.00     0.049 A 
ATOM     37  N   UNL A   1      44.072  29.769  29.088  1.00  0.00    -0.248 NA
ATOM     38  C   UNL A   1      43.251  30.336  26.985  1.00  0.00     0.031 C 
ATOM     39  C   UNL A   1      39.749  28.345  29.406  1.00  0.00     0.029 A 
ATOM     40  N   UNL A   1      40.663  30.316  29.641  1.00  0.00    -0.354 N 
ATOM     41  C   UNL A   1      44.766  30.850  28.598  1.00  0.00     0.074 A 
ATOM     42  C   UNL A   1      44.402  30.975  27.207  1.00  0.00     0.031 C 
ATOM     43  C   UNL A   1      38.755  29.160  29.828  1.00  0.00     0.029 A 
ATOM     44  C   UNL A   1      39.334  30.475  30.047  1.00  0.00     0.049 A 
ATOM     45  H   UNL A   1      41.338  31.028  29.735  1.00  0.00     0.167 HD
ATOM     46  C   UNL A   1      45.288  31.763  29.454  1.00  0.00     0.037 A 
ATOM     47  C   UNL A   1      38.752  31.469  30.770  1.00  0.00     0.037 A 
ATOM     48  C   UNL A   1      45.240  31.319  30.827  1.00  0.00     0.049 A 
ATOM     49  C   UNL A   1      39.782  31.951  31.714  1.00  0.00     0.074 A 
ATOM     50  C   UNL A   1      45.848  30.335  31.578  1.00  0.00     0.029 A 
ATOM     51  N   UNL A   1      44.147  31.748  31.539  1.00  0.00    -0.354 N 
ATOM     52  N   UNL A   1      40.250  31.233  32.700  1.00  0.00    -0.248 NA
ATOM     53  C   UNL A   1      40.511  33.178  31.428  1.00  0.00     0.031 C 
ATOM     54  C   UNL A   1      44.987  30.071  32.683  1.00  0.00     0.029 A 
ATOM     55  C   UNL A   1      43.872  30.899  32.583  1.00  0.00     0.049 A 
ATOM     56  H   UNL A   1      43.629  32.558  31.329  1.00  0.00     0.167 HD
ATOM     57  C   UNL A   1      41.545  31.678  32.848  1.00  0.00     0.074 A 
ATOM     58  C   UNL A   1      41.590  32.973  32.187  1.00  0.00     0.031 C 
ATOM     59  C   UNL A   1      42.548  30.817  33.170  1.00  0.00     0.037 A 
BRANCH  46  60
ATOM     60  C   UNL A   1      45.436  33.211  29.102  1.00  0.00     0.058 A 
ATOM     61  C   UNL A   1      44.286  33.974  28.847  1.00  0.00     0.135 A 
ATOM     62  C   UNL A   1      46.672  33.814  28.775  1.00  0.00     0.135 A 
ATOM     63  F   UNL A   1      43.066  33.462  29.076  1.00  0.00    -0.206 F 
ATOM     64  C   UNL A   1      44.357  35.250  28.296  1.00  0.00     0.059 A 
ATOM     65  C   UNL A   1      46.772  35.109  28.294  1.00  0.00     0.059 A 
ATOM     66  F   UNL A   1      47.827  33.135  28.814  1.00  0.00    -0.206 F 
ATOM     67  C   UNL A   1      45.606  35.807  28.025  1.00  0.00     0.060 A 
BRANCH  67  68
ATOM     68  S   UNL A   1      45.700  37.430  27.257  1.00  0.00     0.124 S 
ATOM     69  O   UNL A   1      46.327  38.212  28.316  1.00  0.00    -0.237 OA
ATOM     70  O   UNL A   1      46.523  37.163  26.082  1.00  0.00    -0.237 OA
ATOM     71  O   UNL A   1      44.303  37.747  26.976  1.00  0.00    -0.744 OA
ENDBRANCH  67  68
ENDBRANCH  46  60
BRANCH  47  72
ATOM     72  C   UNL A   1      37.370  32.026  30.749  1.00  0.00     0.058 A 
ATOM     73  C   UNL A   1      36.430  31.700  31.750  1.00  0.00     0.135 A 
ATOM     74  C   UNL A   1      37.042  33.130  29.939  1.00  0.00     0.135 A 
ATOM     75  F   UNL A   1      36.640  30.657  32.567  1.00  0.00    -0.206 F 
ATOM     76  C   UNL A   1      35.295  32.479  32.000  1.00  0.00     0.059 A 
ATOM     77  C   UNL A   1      35.910  33.921  30.166  1.00  0.00     0.059 A 
ATOM     78  F   UNL A   1      37.869  33.523  28.957  1.00  0.00    -0.206 F 
ATOM     79  C   UNL A   1      35.063  33.614  31.227  1.00  0.00     0.060 A 
BRANCH  79  80
ATOM     80  S   UNL A   1      33.746  34.755  31.720  1.00  0.00     0.124 S 
ATOM     81  O   UNL A   1      33.105  34.030  32.810  1.00  0.00    -0.237 OA
ATOM     82  O   UNL A   1      34.500  35.945  32.104  1.00  0.00    -0.237 OA
ATOM     83  O   UNL A   1      32.947  34.894  30.505  1.00  0.00    -0.744 OA
ENDBRANCH  79  80
ENDBRANCH  47  72
BRANCH  59  84
ATOM     84  C   UNL A   1      42.213  29.626  34.022  1.00  0.00     0.058 A 
ATOM     85  C   UNL A   1      41.939  28.337  33.539  1.00  0.00     0.135 A 
ATOM     86  C   UNL A   1      42.277  29.791  35.416  1.00  0.00     0.135 A 
ATOM     87  F   UNL A   1      41.916  28.085  32.223  1.00  0.00    -0.206 F 
ATOM     88  C   UNL A   1      41.741  27.259  34.407  1.00  0.00     0.059 A 
ATOM     89  C   UNL A   1      42.109  28.727  36.297  1.00  0.00     0.059 A 
ATOM     90  F   UNL A   1      42.560  30.997  35.937  1.00  0.00    -0.206 F 
ATOM     91  C   UNL A   1      41.841  27.460  35.785  1.00  0.00     0.060 A 
BRANCH  91  92
ATOM     92  S   UNL A   1      41.717  26.043  36.899  1.00  0.00     0.124 S 
ATOM     93  O   UNL A   1      41.741  24.916  35.973  1.00  0.00    -0.237 OA
ATOM     94  O   UNL A   1      42.899  26.198  37.742  1.00  0.00    -0.237 OA
ATOM     95  O   UNL A   1      40.444  26.258  37.586  1.00  0.00    -0.744 OA
ENDBRANCH  91  92
ENDBRANCH  59  84
ENDBRANCH  33  34
ENDBRANCH  26  28
ENDBRANCH  25  26
ENDBRANCH  24  25
ENDBRANCH  23  24
ENDBRANCH  22  23
ENDBRANCH  21  22
ENDBRANCH   1  21
TORSDOF 23
ENDMDL
