MODEL 1
REMARK VINA RESULT:     -11.3      0.000      0.000
REMARK SMILES CC1(C)O[C@@H]2C[C@@H]3[C@H]4CCC5=CC(=O)C=C[C@@]5(C)[C@]4(F)[C@H](O)C[C@]3(C)[C@]2(C(=O)OCCOCCOCCOC(=O)c2ccc(-c3c4nc(c(-c5c(F)cc(S(=O)(=O)[O-])cc5F)c5ccc([nH]5)c(-c5c(F)cc(S(=O)(=O)[O-])cc5F)c5nc(c(-c6c(F)cc(S(=O)(=O)[O-])cc6F)c6ccc3[nH]6)C=C5)C=C4)cc2)O1
REMARK SMILES IDX 34 1 33 2 32 3 31 4 30 5 29 6 27 7 28 8 26 9 1 10 2 11 4 12
REMARK SMILES IDX 107 13 3 14 5 15 6 16 24 17 7 18 23 19 25 20 8 21 21 22 9 23
REMARK SMILES IDX 19 24 10 25 17 26 20 27 11 28 16 29 18 30 12 31 15 32 13 33
REMARK SMILES IDX 14 34 22 35 35 37 36 38 37 39 38 40 39 41 40 42 41 43 42 44
REMARK SMILES IDX 106 45 43 46 105 47 44 48 45 49 46 50 99 51 47 52 104 53
REMARK SMILES IDX 98 54 100 55 48 56 103 57 97 58 96 59 49 61 83 62 62 63
REMARK SMILES IDX 82 64 63 65 66 66 81 67 101 68 64 69 65 70 80 72 102 73
REMARK SMILES IDX 67 74 50 75 51 76 60 77 52 78 53 79 59 80 61 81 54 82 55 83
REMARK SMILES IDX 56 84 57 85 58 86 84 87 85 88 94 89 86 90 87 91 93 92 95 93
REMARK SMILES IDX 88 94 89 95 90 96 91 97 92 98 68 99 69 100 78 101 70 102
REMARK SMILES IDX 71 103 77 104 79 105 72 106 73 107 74 108 75 109 76 110
REMARK H PARENT 22 36 100 60 66 71
REMARK Flexibility Score: inf
ROOT
ATOM      1  C   UNL A   1      36.317  33.131  28.488  1.00  0.00     0.188 C 
ENDROOT
BRANCH   1   2
ATOM      2  C   UNL A   1      36.178  31.641  28.209  1.00  0.00     0.188 C 
BRANCH   2   3
ATOM      3  O   UNL A   1      35.130  31.420  27.276  1.00  0.00    -0.376 OA
BRANCH   3   4
ATOM      4  C   UNL A   1      34.159  30.450  27.660  1.00  0.00     0.202 C 
BRANCH   4   5
ATOM      5  C   UNL A   1      32.719  30.446  27.076  1.00  0.00     0.261 C 
BRANCH   5   6
ATOM      6  O   UNL A   1      32.227  29.251  26.420  1.00  0.00    -0.461 OA
BRANCH   6   7
ATOM      7  C   UNL A   1      31.522  29.405  25.274  1.00  0.00     0.341 C 
ATOM      8  O   UNL A   1      31.057  30.491  24.950  1.00  0.00    -0.249 OA
BRANCH   7   9
ATOM      9  C   UNL A   1      31.464  28.107  24.397  1.00  0.00     0.200 C 
ATOM     10  C   UNL A   1      28.030  27.720  23.723  1.00  0.00     0.075 C 
ATOM     11  C   UNL A   1      29.453  27.241  23.434  1.00  0.00     0.165 C 
ATOM     12  O   UNL A   1      30.055  28.077  22.445  1.00  0.00    -0.344 OA
ATOM     13  O   UNL A   1      30.270  27.289  24.637  1.00  0.00    -0.329 OA
ATOM     14  C   UNL A   1      29.255  25.803  22.875  1.00  0.00     0.075 C 
ATOM     15  C   UNL A   1      31.422  28.266  22.844  1.00  0.00     0.166 C 
ATOM     16  C   UNL A   1      32.307  27.077  22.240  1.00  0.00     0.040 C 
ATOM     17  C   UNL A   1      32.838  27.272  24.582  1.00  0.00     0.016 C 
ATOM     18  C   UNL A   1      32.559  26.214  23.495  1.00  0.00     0.008 C 
ATOM     19  C   UNL A   1      33.217  26.684  25.955  1.00  0.00     0.046 C 
ATOM     20  C   UNL A   1      34.061  28.180  24.188  1.00  0.00     0.015 C 
ATOM     21  C   UNL A   1      32.512  24.696  23.783  1.00  0.00     0.035 C 
ATOM     22  C   UNL A   1      32.763  25.264  26.253  1.00  0.00     0.154 C 
ATOM     23  C   UNL A   1      32.832  23.775  22.616  1.00  0.00     0.012 C 
ATOM     24  C   UNL A   1      33.141  24.260  25.112  1.00  0.00     0.152 C 
ATOM     25  C   UNL A   1      32.209  22.406  22.907  1.00  0.00     0.032 C 
ATOM     26  C   UNL A   1      32.749  22.750  25.432  1.00  0.00     0.044 C 
ATOM     27  F   UNL A   1      34.500  24.333  24.928  1.00  0.00    -0.239 F 
ATOM     28  C   UNL A   1      32.675  21.828  24.211  1.00  0.00    -0.053 C 
ATOM     29  C   UNL A   1      33.717  22.133  26.422  1.00  0.00    -0.009 C 
ATOM     30  C   UNL A   1      31.344  22.661  26.110  1.00  0.00     0.024 C 
ATOM     31  C   UNL A   1      32.879  20.501  24.341  1.00  0.00     0.052 C 
ATOM     32  C   UNL A   1      33.633  20.831  26.731  1.00  0.00     0.048 C 
ATOM     33  C   UNL A   1      33.168  19.905  25.674  1.00  0.00     0.178 C 
ATOM     34  O   UNL A   1      33.105  18.697  25.847  1.00  0.00    -0.290 OA
BRANCH  22  35
ATOM     35  O   UNL A   1      31.365  25.359  26.522  1.00  0.00    -0.390 OA
ATOM     36  H   UNL A   1      31.050  26.246  26.289  1.00  0.00     0.211 HD
ENDBRANCH  22  35
ENDBRANCH   7   9
ENDBRANCH   6   7
ENDBRANCH   5   6
ENDBRANCH   4   5
ENDBRANCH   3   4
ENDBRANCH   2   3
ENDBRANCH   1   2
BRANCH   1  37
ATOM     37  O   UNL A   1      35.113  33.842  28.274  1.00  0.00    -0.376 OA
BRANCH  37  38
ATOM     38  C   UNL A   1      34.163  33.839  29.317  1.00  0.00     0.202 C 
BRANCH  38  39
ATOM     39  C   UNL A   1      33.225  35.040  29.540  1.00  0.00     0.261 C 
BRANCH  39  40
ATOM     40  O   UNL A   1      32.373  35.041  30.700  1.00  0.00    -0.460 OA
BRANCH  40  41
ATOM     41  C   UNL A   1      32.763  35.735  31.788  1.00  0.00     0.338 C 
ATOM     42  O   UNL A   1      32.170  36.684  32.298  1.00  0.00    -0.246 OA
BRANCH  41  43
ATOM     43  C   UNL A   1      33.906  35.018  32.407  1.00  0.00     0.060 A 
ATOM     44  C   UNL A   1      35.171  35.617  32.408  1.00  0.00     0.016 A 
ATOM     45  C   UNL A   1      33.734  33.761  32.998  1.00  0.00     0.016 A 
ATOM     46  C   UNL A   1      36.264  34.949  32.970  1.00  0.00     0.010 A 
ATOM     47  C   UNL A   1      34.837  33.092  33.553  1.00  0.00     0.010 A 
ATOM     48  C   UNL A   1      36.116  33.673  33.531  1.00  0.00    -0.014 A 
BRANCH  48  49
ATOM     49  C   UNL A   1      37.319  32.877  33.905  1.00  0.00     0.031 A 
ATOM     50  C   UNL A   1      37.992  33.181  35.219  1.00  0.00     0.074 A 
ATOM     51  C   UNL A   1      37.806  31.888  33.131  1.00  0.00     0.049 A 
ATOM     52  N   UNL A   1      39.092  32.686  35.725  1.00  0.00    -0.248 NA
ATOM     53  C   UNL A   1      37.327  34.176  36.075  1.00  0.00     0.031 C 
ATOM     54  C   UNL A   1      37.223  31.430  31.872  1.00  0.00     0.029 A 
ATOM     55  N   UNL A   1      38.914  31.086  33.294  1.00  0.00    -0.354 N 
ATOM     56  C   UNL A   1      39.254  33.311  36.957  1.00  0.00     0.074 A 
ATOM     57  C   UNL A   1      38.149  34.233  37.111  1.00  0.00     0.031 C 
ATOM     58  C   UNL A   1      37.980  30.435  31.374  1.00  0.00     0.029 A 
ATOM     59  C   UNL A   1      39.133  30.216  32.250  1.00  0.00     0.049 A 
ATOM     60  H   UNL A   1      39.497  31.133  34.085  1.00  0.00     0.167 HD
ATOM     61  C   UNL A   1      40.234  33.140  37.875  1.00  0.00     0.037 A 
ATOM     62  C   UNL A   1      40.157  29.368  32.011  1.00  0.00     0.037 A 
ATOM     63  C   UNL A   1      41.351  32.244  37.720  1.00  0.00     0.049 A 
ATOM     64  C   UNL A   1      41.302  29.279  32.997  1.00  0.00     0.074 A 
ATOM     65  C   UNL A   1      42.409  32.032  38.586  1.00  0.00     0.029 A 
ATOM     66  N   UNL A   1      41.562  31.420  36.625  1.00  0.00    -0.354 N 
ATOM     67  N   UNL A   1      41.455  29.893  34.146  1.00  0.00    -0.248 NA
ATOM     68  C   UNL A   1      42.422  28.389  32.645  1.00  0.00     0.031 C 
ATOM     69  C   UNL A   1      43.290  31.126  37.989  1.00  0.00     0.029 A 
ATOM     70  C   UNL A   1      42.748  30.720  36.781  1.00  0.00     0.049 A 
ATOM     71  H   UNL A   1      40.958  31.343  35.851  1.00  0.00     0.167 HD
ATOM     72  C   UNL A   1      42.664  29.434  34.669  1.00  0.00     0.074 A 
ATOM     73  C   UNL A   1      43.200  28.489  33.715  1.00  0.00     0.031 C 
ATOM     74  C   UNL A   1      43.272  29.765  35.836  1.00  0.00     0.037 A 
BRANCH  61  75
ATOM     75  C   UNL A   1      40.170  33.985  39.117  1.00  0.00     0.058 A 
ATOM     76  C   UNL A   1      39.534  33.540  40.287  1.00  0.00     0.135 A 
ATOM     77  C   UNL A   1      40.772  35.255  39.141  1.00  0.00     0.135 A 
ATOM     78  F   UNL A   1      38.922  32.345  40.310  1.00  0.00    -0.206 F 
ATOM     79  C   UNL A   1      39.473  34.334  41.427  1.00  0.00     0.059 A 
ATOM     80  C   UNL A   1      40.749  36.052  40.280  1.00  0.00     0.059 A 
ATOM     81  F   UNL A   1      41.389  35.731  38.048  1.00  0.00    -0.206 F 
ATOM     82  C   UNL A   1      40.083  35.590  41.413  1.00  0.00     0.060 A 
BRANCH  82  83
ATOM     83  S   UNL A   1      39.988  36.611  42.897  1.00  0.00     0.124 S 
ATOM     84  O   UNL A   1      38.774  36.099  43.525  1.00  0.00    -0.237 OA
ATOM     85  O   UNL A   1      41.237  36.289  43.578  1.00  0.00    -0.237 OA
ATOM     86  O   UNL A   1      39.896  37.969  42.372  1.00  0.00    -0.744 OA
ENDBRANCH  82  83
ENDBRANCH  61  75
BRANCH  62  87
ATOM     87  C   UNL A   1      40.190  28.550  30.764  1.00  0.00     0.058 A 
ATOM     88  C   UNL A   1      39.388  27.406  30.621  1.00  0.00     0.135 A 
ATOM     89  C   UNL A   1      41.062  28.864  29.709  1.00  0.00     0.135 A 
ATOM     90  F   UNL A   1      38.548  27.050  31.606  1.00  0.00    -0.206 F 
ATOM     91  C   UNL A   1      39.463  26.594  29.492  1.00  0.00     0.059 A 
ATOM     92  C   UNL A   1      41.134  28.087  28.557  1.00  0.00     0.059 A 
ATOM     93  F   UNL A   1      41.852  29.946  29.790  1.00  0.00    -0.206 F 
ATOM     94  C   UNL A   1      40.339  26.945  28.464  1.00  0.00     0.060 A 
BRANCH  94  95
ATOM     95  S   UNL A   1      40.403  25.909  26.986  1.00  0.00     0.124 S 
ATOM     96  O   UNL A   1      41.423  24.934  27.351  1.00  0.00    -0.237 OA
ATOM     97  O   UNL A   1      39.035  25.405  26.907  1.00  0.00    -0.237 OA
ATOM     98  O   UNL A   1      40.778  26.849  25.933  1.00  0.00    -0.744 OA
ENDBRANCH  94  95
ENDBRANCH  62  87
BRANCH  74  99
ATOM     99  C   UNL A   1      44.565  29.072  36.188  1.00  0.00     0.058 A 
ATOM    100  C   UNL A   1      44.594  27.849  36.877  1.00  0.00     0.135 A 
ATOM    101  C   UNL A   1      45.794  29.608  35.763  1.00  0.00     0.135 A 
ATOM    102  F   UNL A   1      43.454  27.290  37.310  1.00  0.00    -0.206 F 
ATOM    103  C   UNL A   1      45.793  27.192  37.146  1.00  0.00     0.059 A 
ATOM    104  C   UNL A   1      47.001  28.954  35.995  1.00  0.00     0.059 A 
ATOM    105  F   UNL A   1      45.828  30.769  35.089  1.00  0.00    -0.206 F 
ATOM    106  C   UNL A   1      46.992  27.749  36.696  1.00  0.00     0.060 A 
BRANCH 106 107
ATOM    107  S   UNL A   1      48.533  26.862  37.013  1.00  0.00     0.124 S 
ATOM    108  O   UNL A   1      48.868  27.319  38.357  1.00  0.00    -0.237 OA
ATOM    109  O   UNL A   1      48.118  25.467  36.903  1.00  0.00    -0.237 OA
ATOM    110  O   UNL A   1      49.422  27.331  35.952  1.00  0.00    -0.744 OA
ENDBRANCH 106 107
ENDBRANCH  74  99
ENDBRANCH  48  49
ENDBRANCH  41  43
ENDBRANCH  40  41
ENDBRANCH  39  40
ENDBRANCH  38  39
ENDBRANCH  37  38
ENDBRANCH   1  37
TORSDOF 21
ENDMDL
MODEL 2
REMARK VINA RESULT:     -11.0      2.402      3.143
REMARK SMILES CC1(C)O[C@@H]2C[C@@H]3[C@H]4CCC5=CC(=O)C=C[C@@]5(C)[C@]4(F)[C@H](O)C[C@]3(C)[C@]2(C(=O)OCCOCCOCCOC(=O)c2ccc(-c3c4nc(c(-c5c(F)cc(S(=O)(=O)[O-])cc5F)c5ccc([nH]5)c(-c5c(F)cc(S(=O)(=O)[O-])cc5F)c5nc(c(-c6c(F)cc(S(=O)(=O)[O-])cc6F)c6ccc3[nH]6)C=C5)C=C4)cc2)O1
REMARK SMILES IDX 34 1 33 2 32 3 31 4 30 5 29 6 27 7 28 8 26 9 1 10 2 11 4 12
REMARK SMILES IDX 107 13 3 14 5 15 6 16 24 17 7 18 23 19 25 20 8 21 21 22 9 23
REMARK SMILES IDX 19 24 10 25 17 26 20 27 11 28 16 29 18 30 12 31 15 32 13 33
REMARK SMILES IDX 14 34 22 35 35 37 36 38 37 39 38 40 39 41 40 42 41 43 42 44
REMARK SMILES IDX 106 45 43 46 105 47 44 48 45 49 46 50 99 51 47 52 104 53
REMARK SMILES IDX 98 54 100 55 48 56 103 57 97 58 96 59 49 61 83 62 62 63
REMARK SMILES IDX 82 64 63 65 66 66 81 67 101 68 64 69 65 70 80 72 102 73
REMARK SMILES IDX 67 74 50 75 51 76 60 77 52 78 53 79 59 80 61 81 54 82 55 83
REMARK SMILES IDX 56 84 57 85 58 86 84 87 85 88 94 89 86 90 87 91 93 92 95 93
REMARK SMILES IDX 88 94 89 95 90 96 91 97 92 98 68 99 69 100 78 101 70 102
REMARK SMILES IDX 71 103 77 104 79 105 72 106 73 107 74 108 75 109 76 110
REMARK H PARENT 22 36 100 60 66 71
REMARK Flexibility Score: inf
ROOT
ATOM      1  C   UNL A   1      35.892  32.539  28.018  1.00  0.00     0.188 C 
ENDROOT
BRANCH   1   2
ATOM      2  C   UNL A   1      35.415  31.421  28.934  1.00  0.00     0.188 C 
BRANCH   2   3
ATOM      3  O   UNL A   1      35.096  30.270  28.165  1.00  0.00    -0.376 OA
BRANCH   3   4
ATOM      4  C   UNL A   1      34.176  30.481  27.096  1.00  0.00     0.202 C 
BRANCH   4   5
ATOM      5  C   UNL A   1      32.655  30.199  27.247  1.00  0.00     0.261 C 
BRANCH   5   6
ATOM      6  O   UNL A   1      32.074  29.068  26.552  1.00  0.00    -0.461 OA
BRANCH   6   7
ATOM      7  C   UNL A   1      31.532  29.289  25.330  1.00  0.00     0.341 C 
ATOM      8  O   UNL A   1      31.213  30.414  24.966  1.00  0.00    -0.249 OA
BRANCH   7   9
ATOM      9  C   UNL A   1      31.465  28.004  24.435  1.00  0.00     0.200 C 
ATOM     10  C   UNL A   1      28.027  27.647  23.765  1.00  0.00     0.075 C 
ATOM     11  C   UNL A   1      29.446  27.163  23.465  1.00  0.00     0.165 C 
ATOM     12  O   UNL A   1      30.050  28.009  22.487  1.00  0.00    -0.344 OA
ATOM     13  O   UNL A   1      30.266  27.190  24.668  1.00  0.00    -0.329 OA
ATOM     14  C   UNL A   1      29.238  25.734  22.887  1.00  0.00     0.075 C 
ATOM     15  C   UNL A   1      31.420  28.184  22.885  1.00  0.00     0.166 C 
ATOM     16  C   UNL A   1      32.296  26.999  22.262  1.00  0.00     0.040 C 
ATOM     17  C   UNL A   1      32.834  27.157  24.605  1.00  0.00     0.016 C 
ATOM     18  C   UNL A   1      32.546  26.117  23.505  1.00  0.00     0.008 C 
ATOM     19  C   UNL A   1      33.212  26.548  25.970  1.00  0.00     0.046 C 
ATOM     20  C   UNL A   1      34.061  28.063  24.221  1.00  0.00     0.015 C 
ATOM     21  C   UNL A   1      32.489  24.595  23.772  1.00  0.00     0.035 C 
ATOM     22  C   UNL A   1      32.751  25.128  26.249  1.00  0.00     0.154 C 
ATOM     23  C   UNL A   1      32.801  23.688  22.592  1.00  0.00     0.012 C 
ATOM     24  C   UNL A   1      33.119  24.137  25.093  1.00  0.00     0.152 C 
ATOM     25  C   UNL A   1      32.170  22.319  22.866  1.00  0.00     0.032 C 
ATOM     26  C   UNL A   1      32.719  22.625  25.393  1.00  0.00     0.044 C 
ATOM     27  F   UNL A   1      34.478  24.204  24.907  1.00  0.00    -0.239 F 
ATOM     28  C   UNL A   1      32.635  21.720  24.160  1.00  0.00    -0.053 C 
ATOM     29  C   UNL A   1      33.686  21.988  26.373  1.00  0.00    -0.009 C 
ATOM     30  C   UNL A   1      31.315  22.536  26.073  1.00  0.00     0.024 C 
ATOM     31  C   UNL A   1      32.832  20.390  24.272  1.00  0.00     0.052 C 
ATOM     32  C   UNL A   1      33.593  20.683  26.664  1.00  0.00     0.048 C 
ATOM     33  C   UNL A   1      33.121  19.774  25.595  1.00  0.00     0.178 C 
ATOM     34  O   UNL A   1      33.050  18.564  25.752  1.00  0.00    -0.290 OA
BRANCH  22  35
ATOM     35  O   UNL A   1      31.353  25.227  26.522  1.00  0.00    -0.390 OA
ATOM     36  H   UNL A   1      30.960  25.905  25.952  1.00  0.00     0.211 HD
ENDBRANCH  22  35
ENDBRANCH   7   9
ENDBRANCH   6   7
ENDBRANCH   5   6
ENDBRANCH   4   5
ENDBRANCH   3   4
ENDBRANCH   2   3
ENDBRANCH   1   2
BRANCH   1  37
ATOM     37  O   UNL A   1      35.447  33.815  28.436  1.00  0.00    -0.376 OA
BRANCH  37  38
ATOM     38  C   UNL A   1      34.286  34.332  27.823  1.00  0.00     0.202 C 
BRANCH  38  39
ATOM     39  C   UNL A   1      33.324  35.253  28.596  1.00  0.00     0.261 C 
BRANCH  39  40
ATOM     40  O   UNL A   1      32.750  34.771  29.825  1.00  0.00    -0.460 OA
BRANCH  40  41
ATOM     41  C   UNL A   1      32.895  35.515  30.940  1.00  0.00     0.338 C 
ATOM     42  O   UNL A   1      32.110  36.366  31.356  1.00  0.00    -0.246 OA
BRANCH  41  43
ATOM     43  C   UNL A   1      34.044  34.975  31.709  1.00  0.00     0.060 A 
ATOM     44  C   UNL A   1      34.795  35.837  32.516  1.00  0.00     0.016 A 
ATOM     45  C   UNL A   1      34.378  33.617  31.648  1.00  0.00     0.016 A 
ATOM     46  C   UNL A   1      35.892  35.350  33.234  1.00  0.00     0.010 A 
ATOM     47  C   UNL A   1      35.485  33.135  32.364  1.00  0.00     0.010 A 
ATOM     48  C   UNL A   1      36.263  34.001  33.152  1.00  0.00    -0.014 A 
BRANCH  48  49
ATOM     49  C   UNL A   1      37.563  33.546  33.722  1.00  0.00     0.031 A 
ATOM     50  C   UNL A   1      37.707  33.510  35.222  1.00  0.00     0.074 A 
ATOM     51  C   UNL A   1      38.595  33.148  32.953  1.00  0.00     0.049 A 
ATOM     52  N   UNL A   1      38.757  33.233  35.951  1.00  0.00    -0.248 NA
ATOM     53  C   UNL A   1      36.499  33.827  35.999  1.00  0.00     0.031 C 
ATOM     54  C   UNL A   1      38.581  33.059  31.495  1.00  0.00     0.029 A 
ATOM     55  N   UNL A   1      39.865  32.742  33.299  1.00  0.00    -0.354 N 
ATOM     56  C   UNL A   1      38.339  33.344  37.272  1.00  0.00     0.074 A 
ATOM     57  C   UNL A   1      36.945  33.731  37.242  1.00  0.00     0.031 C 
ATOM     58  C   UNL A   1      39.786  32.631  31.070  1.00  0.00     0.029 A 
ATOM     59  C   UNL A   1      40.675  32.465  32.221  1.00  0.00     0.049 A 
ATOM     60  H   UNL A   1      40.165  32.658  34.232  1.00  0.00     0.167 HD
ATOM     61  C   UNL A   1      39.048  33.148  38.409  1.00  0.00     0.037 A 
ATOM     62  C   UNL A   1      41.988  32.149  32.166  1.00  0.00     0.037 A 
ATOM     63  C   UNL A   1      40.441  32.788  38.450  1.00  0.00     0.049 A 
ATOM     64  C   UNL A   1      42.790  32.050  33.446  1.00  0.00     0.074 A 
ATOM     65  C   UNL A   1      41.248  32.601  39.558  1.00  0.00     0.029 A 
ATOM     66  N   UNL A   1      41.238  32.569  37.336  1.00  0.00    -0.354 N 
ATOM     67  N   UNL A   1      42.388  32.181  34.687  1.00  0.00    -0.248 NA
ATOM     68  C   UNL A   1      44.231  31.772  33.314  1.00  0.00     0.031 C 
ATOM     69  C   UNL A   1      42.546  32.329  39.116  1.00  0.00     0.029 A 
ATOM     70  C   UNL A   1      42.534  32.278  37.731  1.00  0.00     0.049 A 
ATOM     71  H   UNL A   1      40.929  32.613  36.403  1.00  0.00     0.167 HD
ATOM     72  C   UNL A   1      43.513  31.963  35.481  1.00  0.00     0.074 A 
ATOM     73  C   UNL A   1      44.611  31.688  34.582  1.00  0.00     0.031 C 
ATOM     74  C   UNL A   1      43.624  31.987  36.833  1.00  0.00     0.037 A 
BRANCH  61  75
ATOM     75  C   UNL A   1      38.335  33.374  39.714  1.00  0.00     0.058 A 
ATOM     76  C   UNL A   1      38.409  34.598  40.398  1.00  0.00     0.135 A 
ATOM     77  C   UNL A   1      37.551  32.354  40.278  1.00  0.00     0.135 A 
ATOM     78  F   UNL A   1      39.164  35.598  39.915  1.00  0.00    -0.206 F 
ATOM     79  C   UNL A   1      37.752  34.793  41.608  1.00  0.00     0.059 A 
ATOM     80  C   UNL A   1      36.861  32.539  41.471  1.00  0.00     0.059 A 
ATOM     81  F   UNL A   1      37.450  31.163  39.668  1.00  0.00    -0.206 F 
ATOM     82  C   UNL A   1      36.982  33.757  42.137  1.00  0.00     0.060 A 
BRANCH  82  83
ATOM     83  S   UNL A   1      36.143  34.024  43.713  1.00  0.00     0.124 S 
ATOM     84  O   UNL A   1      34.750  34.112  43.289  1.00  0.00    -0.237 OA
ATOM     85  O   UNL A   1      36.503  32.826  44.464  1.00  0.00    -0.237 OA
ATOM     86  O   UNL A   1      36.728  35.267  44.204  1.00  0.00    -0.744 OA
ENDBRANCH  82  83
ENDBRANCH  61  75
BRANCH  62  87
ATOM     87  C   UNL A   1      42.663  31.939  30.852  1.00  0.00     0.058 A 
ATOM     88  C   UNL A   1      43.234  33.009  30.145  1.00  0.00     0.135 A 
ATOM     89  C   UNL A   1      42.706  30.670  30.250  1.00  0.00     0.135 A 
ATOM     90  F   UNL A   1      43.205  34.246  30.667  1.00  0.00    -0.206 F 
ATOM     91  C   UNL A   1      43.801  32.837  28.885  1.00  0.00     0.059 A 
ATOM     92  C   UNL A   1      43.295  30.465  29.007  1.00  0.00     0.059 A 
ATOM     93  F   UNL A   1      42.177  29.610  30.880  1.00  0.00    -0.206 F 
ATOM     94  C   UNL A   1      43.829  31.558  28.325  1.00  0.00     0.060 A 
BRANCH  94  95
ATOM     95  S   UNL A   1      44.601  31.335  26.708  1.00  0.00     0.124 S 
ATOM     96  O   UNL A   1      43.830  32.256  25.882  1.00  0.00    -0.237 OA
ATOM     97  O   UNL A   1      45.984  31.720  26.975  1.00  0.00    -0.237 OA
ATOM     98  O   UNL A   1      44.396  29.917  26.431  1.00  0.00    -0.744 OA
ENDBRANCH  94  95
ENDBRANCH  62  87
BRANCH  74  99
ATOM     99  C   UNL A   1      44.964  31.659  37.445  1.00  0.00     0.058 A 
ATOM    100  C   UNL A   1      45.910  32.651  37.747  1.00  0.00     0.135 A 
ATOM    101  C   UNL A   1      45.274  30.335  37.802  1.00  0.00     0.135 A 
ATOM    102  F   UNL A   1      45.672  33.933  37.428  1.00  0.00    -0.206 F 
ATOM    103  C   UNL A   1      47.121  32.341  38.364  1.00  0.00     0.059 A 
ATOM    104  C   UNL A   1      46.465  30.006  38.445  1.00  0.00     0.059 A 
ATOM    105  F   UNL A   1      44.403  29.345  37.549  1.00  0.00    -0.206 F 
ATOM    106  C   UNL A   1      47.387  31.016  38.714  1.00  0.00     0.060 A 
BRANCH 106 107
ATOM    107  S   UNL A   1      48.941  30.636  39.554  1.00  0.00     0.124 S 
ATOM    108  O   UNL A   1      48.780  31.352  40.814  1.00  0.00    -0.237 OA
ATOM    109  O   UNL A   1      48.900  29.180  39.642  1.00  0.00    -0.237 OA
ATOM    110  O   UNL A   1      49.957  31.175  38.652  1.00  0.00    -0.744 OA
ENDBRANCH 106 107
ENDBRANCH  74  99
ENDBRANCH  48  49
ENDBRANCH  41  43
ENDBRANCH  40  41
ENDBRANCH  39  40
ENDBRANCH  38  39
ENDBRANCH  37  38
ENDBRANCH   1  37
TORSDOF 21
ENDMDL
MODEL 3
REMARK VINA RESULT:     -10.8      6.680     11.210
REMARK SMILES CC1(C)O[C@@H]2C[C@@H]3[C@H]4CCC5=CC(=O)C=C[C@@]5(C)[C@]4(F)[C@H](O)C[C@]3(C)[C@]2(C(=O)OCCOCCOCCOC(=O)c2ccc(-c3c4nc(c(-c5c(F)cc(S(=O)(=O)[O-])cc5F)c5ccc([nH]5)c(-c5c(F)cc(S(=O)(=O)[O-])cc5F)c5nc(c(-c6c(F)cc(S(=O)(=O)[O-])cc6F)c6ccc3[nH]6)C=C5)C=C4)cc2)O1
REMARK SMILES IDX 34 1 33 2 32 3 31 4 30 5 29 6 27 7 28 8 26 9 1 10 2 11 4 12
REMARK SMILES IDX 107 13 3 14 5 15 6 16 24 17 7 18 23 19 25 20 8 21 21 22 9 23
REMARK SMILES IDX 19 24 10 25 17 26 20 27 11 28 16 29 18 30 12 31 15 32 13 33
REMARK SMILES IDX 14 34 22 35 35 37 36 38 37 39 38 40 39 41 40 42 41 43 42 44
REMARK SMILES IDX 106 45 43 46 105 47 44 48 45 49 46 50 99 51 47 52 104 53
REMARK SMILES IDX 98 54 100 55 48 56 103 57 97 58 96 59 49 61 83 62 62 63
REMARK SMILES IDX 82 64 63 65 66 66 81 67 101 68 64 69 65 70 80 72 102 73
REMARK SMILES IDX 67 74 50 75 51 76 60 77 52 78 53 79 59 80 61 81 54 82 55 83
REMARK SMILES IDX 56 84 57 85 58 86 84 87 85 88 94 89 86 90 87 91 93 92 95 93
REMARK SMILES IDX 88 94 89 95 90 96 91 97 92 98 68 99 69 100 78 101 70 102
REMARK SMILES IDX 71 103 77 104 79 105 72 106 73 107 74 108 75 109 76 110
REMARK H PARENT 22 36 100 60 66 71
REMARK Flexibility Score: inf
ROOT
ATOM      1  C   UNL A   1      34.643  32.359  27.963  1.00  0.00     0.188 C 
ENDROOT
BRANCH   1   2
ATOM      2  C   UNL A   1      33.315  31.709  27.602  1.00  0.00     0.188 C 
BRANCH   2   3
ATOM      3  O   UNL A   1      33.536  30.387  27.133  1.00  0.00    -0.376 OA
BRANCH   3   4
ATOM      4  C   UNL A   1      32.801  30.017  25.969  1.00  0.00     0.202 C 
BRANCH   4   5
ATOM      5  C   UNL A   1      33.143  28.744  25.145  1.00  0.00     0.261 C 
BRANCH   5   6
ATOM      6  O   UNL A   1      32.819  28.709  23.733  1.00  0.00    -0.461 OA
BRANCH   6   7
ATOM      7  C   UNL A   1      31.638  28.156  23.370  1.00  0.00     0.341 C 
ATOM      8  O   UNL A   1      30.818  28.778  22.706  1.00  0.00    -0.249 OA
BRANCH   7   9
ATOM      9  C   UNL A   1      31.495  26.653  23.791  1.00  0.00     0.200 C 
ATOM     10  C   UNL A   1      30.357  26.834  27.118  1.00  0.00     0.075 C 
ATOM     11  C   UNL A   1      30.648  25.940  25.912  1.00  0.00     0.165 C 
ATOM     12  O   UNL A   1      29.539  25.962  25.014  1.00  0.00    -0.344 OA
ATOM     13  O   UNL A   1      31.829  26.404  25.199  1.00  0.00    -0.329 OA
ATOM     14  C   UNL A   1      30.813  24.523  26.531  1.00  0.00     0.075 C 
ATOM     15  C   UNL A   1      30.087  25.986  23.686  1.00  0.00     0.166 C 
ATOM     16  C   UNL A   1      30.331  24.481  23.199  1.00  0.00     0.040 C 
ATOM     17  C   UNL A   1      32.349  25.726  22.776  1.00  0.00     0.016 C 
ATOM     18  C   UNL A   1      31.866  24.365  23.316  1.00  0.00     0.008 C 
ATOM     19  C   UNL A   1      33.882  25.866  22.692  1.00  0.00     0.046 C 
ATOM     20  C   UNL A   1      31.848  25.962  21.304  1.00  0.00     0.015 C 
ATOM     21  C   UNL A   1      32.823  23.286  23.870  1.00  0.00     0.035 C 
ATOM     22  C   UNL A   1      34.712  24.972  23.598  1.00  0.00     0.154 C 
ATOM     23  C   UNL A   1      32.337  21.847  23.795  1.00  0.00     0.012 C 
ATOM     24  C   UNL A   1      34.300  23.464  23.498  1.00  0.00     0.152 C 
ATOM     25  C   UNL A   1      33.101  21.033  24.845  1.00  0.00     0.032 C 
ATOM     26  C   UNL A   1      35.206  22.493  24.376  1.00  0.00     0.044 C 
ATOM     27  F   UNL A   1      34.405  23.093  22.180  1.00  0.00    -0.239 F 
ATOM     28  C   UNL A   1      34.588  21.122  24.672  1.00  0.00    -0.053 C 
ATOM     29  C   UNL A   1      36.555  22.264  23.722  1.00  0.00    -0.009 C 
ATOM     30  C   UNL A   1      35.520  23.120  25.773  1.00  0.00     0.024 C 
ATOM     31  C   UNL A   1      35.375  20.055  24.916  1.00  0.00     0.052 C 
ATOM     32  C   UNL A   1      37.419  21.381  24.243  1.00  0.00     0.048 C 
ATOM     33  C   UNL A   1      36.858  20.188  24.917  1.00  0.00     0.178 C 
ATOM     34  O   UNL A   1      37.566  19.306  25.379  1.00  0.00    -0.290 OA
BRANCH  22  35
ATOM     35  O   UNL A   1      34.591  25.535  24.904  1.00  0.00    -0.390 OA
ATOM     36  H   UNL A   1      34.455  24.825  25.551  1.00  0.00     0.211 HD
ENDBRANCH  22  35
ENDBRANCH   7   9
ENDBRANCH   6   7
ENDBRANCH   5   6
ENDBRANCH   4   5
ENDBRANCH   3   4
ENDBRANCH   2   3
ENDBRANCH   1   2
BRANCH   1  37
ATOM     37  O   UNL A   1      34.660  32.874  29.281  1.00  0.00    -0.376 OA
BRANCH  37  38
ATOM     38  C   UNL A   1      35.328  32.117  30.266  1.00  0.00     0.202 C 
BRANCH  38  39
ATOM     39  C   UNL A   1      36.794  31.685  30.076  1.00  0.00     0.261 C 
BRANCH  39  40
ATOM     40  O   UNL A   1      37.114  30.284  30.160  1.00  0.00    -0.460 OA
BRANCH  40  41
ATOM     41  C   UNL A   1      37.080  29.545  29.032  1.00  0.00     0.338 C 
ATOM     42  O   UNL A   1      36.088  29.317  28.341  1.00  0.00    -0.246 OA
BRANCH  41  43
ATOM     43  C   UNL A   1      38.477  29.245  28.634  1.00  0.00     0.060 A 
ATOM     44  C   UNL A   1      39.404  28.873  29.615  1.00  0.00     0.016 A 
ATOM     45  C   UNL A   1      38.878  29.317  27.296  1.00  0.00     0.016 A 
ATOM     46  C   UNL A   1      40.731  28.604  29.262  1.00  0.00     0.010 A 
ATOM     47  C   UNL A   1      40.213  29.055  26.948  1.00  0.00     0.010 A 
ATOM     48  C   UNL A   1      41.157  28.711  27.931  1.00  0.00    -0.014 A 
BRANCH  48  49
ATOM     49  C   UNL A   1      42.610  28.659  27.604  1.00  0.00     0.031 A 
ATOM     50  C   UNL A   1      43.189  27.346  27.144  1.00  0.00     0.074 A 
ATOM     51  C   UNL A   1      43.411  29.740  27.680  1.00  0.00     0.049 A 
ATOM     52  N   UNL A   1      44.430  27.030  26.882  1.00  0.00    -0.248 NA
ATOM     53  C   UNL A   1      42.231  26.245  26.953  1.00  0.00     0.031 C 
ATOM     54  C   UNL A   1      42.983  31.090  28.037  1.00  0.00     0.029 A 
ATOM     55  N   UNL A   1      44.764  29.868  27.460  1.00  0.00    -0.354 N 
ATOM     56  C   UNL A   1      44.406  25.693  26.498  1.00  0.00     0.074 A 
ATOM     57  C   UNL A   1      43.028  25.256  26.579  1.00  0.00     0.031 C 
ATOM     58  C   UNL A   1      44.051  31.909  28.018  1.00  0.00     0.029 A 
ATOM     59  C   UNL A   1      45.252  31.133  27.698  1.00  0.00     0.049 A 
ATOM     60  H   UNL A   1      45.332  29.122  27.160  1.00  0.00     0.167 HD
ATOM     61  C   UNL A   1      45.433  24.898  26.116  1.00  0.00     0.037 A 
ATOM     62  C   UNL A   1      46.519  31.604  27.692  1.00  0.00     0.037 A 
ATOM     63  C   UNL A   1      46.810  25.317  26.057  1.00  0.00     0.049 A 
ATOM     64  C   UNL A   1      47.664  30.667  27.377  1.00  0.00     0.074 A 
ATOM     65  C   UNL A   1      47.921  24.567  25.714  1.00  0.00     0.029 A 
ATOM     66  N   UNL A   1      47.267  26.591  26.356  1.00  0.00    -0.354 N 
ATOM     67  N   UNL A   1      47.630  29.400  27.038  1.00  0.00    -0.248 NA
ATOM     68  C   UNL A   1      49.026  31.224  27.455  1.00  0.00     0.031 C 
ATOM     69  C   UNL A   1      49.056  25.370  25.863  1.00  0.00     0.029 A 
ATOM     70  C   UNL A   1      48.646  26.641  26.233  1.00  0.00     0.049 A 
ATOM     71  H   UNL A   1      46.696  27.349  26.617  1.00  0.00     0.167 HD
ATOM     72  C   UNL A   1      48.955  29.023  26.826  1.00  0.00     0.074 A 
ATOM     73  C   UNL A   1      49.767  30.193  27.071  1.00  0.00     0.031 C 
ATOM     74  C   UNL A   1      49.452  27.814  26.461  1.00  0.00     0.037 A 
BRANCH  61  75
ATOM     75  C   UNL A   1      45.111  23.468  25.783  1.00  0.00     0.058 A 
ATOM     76  C   UNL A   1      44.656  22.563  26.756  1.00  0.00     0.135 A 
ATOM     77  C   UNL A   1      45.243  23.002  24.465  1.00  0.00     0.135 A 
ATOM     78  F   UNL A   1      44.536  22.951  28.036  1.00  0.00    -0.206 F 
ATOM     79  C   UNL A   1      44.369  21.240  26.438  1.00  0.00     0.059 A 
ATOM     80  C   UNL A   1      44.933  21.691  24.119  1.00  0.00     0.059 A 
ATOM     81  F   UNL A   1      45.680  23.823  23.497  1.00  0.00    -0.206 F 
ATOM     82  C   UNL A   1      44.512  20.813  25.117  1.00  0.00     0.060 A 
BRANCH  82  83
ATOM     83  S   UNL A   1      44.144  19.091  24.723  1.00  0.00     0.124 S 
ATOM     84  O   UNL A   1      45.021  18.386  25.652  1.00  0.00    -0.237 OA
ATOM     85  O   UNL A   1      42.716  19.004  25.010  1.00  0.00    -0.237 OA
ATOM     86  O   UNL A   1      44.504  18.979  23.313  1.00  0.00    -0.744 OA
ENDBRANCH  82  83
ENDBRANCH  61  75
BRANCH  62  87
ATOM     87  C   UNL A   1      46.800  33.028  28.034  1.00  0.00     0.058 A 
ATOM     88  C   UNL A   1      46.854  34.020  27.042  1.00  0.00     0.135 A 
ATOM     89  C   UNL A   1      47.074  33.420  29.355  1.00  0.00     0.135 A 
ATOM     90  F   UNL A   1      46.618  33.697  25.760  1.00  0.00    -0.206 F 
ATOM     91  C   UNL A   1      47.188  35.338  27.340  1.00  0.00     0.059 A 
ATOM     92  C   UNL A   1      47.378  34.736  29.684  1.00  0.00     0.059 A 
ATOM     93  F   UNL A   1      47.036  32.515  30.345  1.00  0.00    -0.206 F 
ATOM     94  C   UNL A   1      47.447  35.687  28.667  1.00  0.00     0.060 A 
BRANCH  94  95
ATOM     95  S   UNL A   1      47.840  37.408  29.052  1.00  0.00     0.124 S 
ATOM     96  O   UNL A   1      49.221  37.505  28.594  1.00  0.00    -0.237 OA
ATOM     97  O   UNL A   1      46.851  38.132  28.260  1.00  0.00    -0.237 OA
ATOM     98  O   UNL A   1      47.649  37.480  30.497  1.00  0.00    -0.744 OA
ENDBRANCH  94  95
ENDBRANCH  62  87
BRANCH  74  99
ATOM     99  C   UNL A   1      50.941  27.690  26.247  1.00  0.00     0.058 A 
ATOM    100  C   UNL A   1      51.812  27.284  27.271  1.00  0.00     0.135 A 
ATOM    101  C   UNL A   1      51.494  27.911  24.973  1.00  0.00     0.135 A 
ATOM    102  F   UNL A   1      51.343  27.061  28.508  1.00  0.00    -0.206 F 
ATOM    103  C   UNL A   1      53.177  27.120  27.045  1.00  0.00     0.059 A 
ATOM    104  C   UNL A   1      52.850  27.725  24.717  1.00  0.00     0.059 A 
ATOM    105  F   UNL A   1      50.709  28.289  23.952  1.00  0.00    -0.206 F 
ATOM    106  C   UNL A   1      53.687  27.337  25.763  1.00  0.00     0.060 A 
BRANCH 106 107
ATOM    107  S   UNL A   1      55.451  27.075  25.475  1.00  0.00     0.124 S 
ATOM    108  O   UNL A   1      55.934  28.444  25.332  1.00  0.00    -0.237 OA
ATOM    109  O   UNL A   1      55.864  26.380  26.691  1.00  0.00    -0.237 OA
ATOM    110  O   UNL A   1      55.483  26.269  24.258  1.00  0.00    -0.744 OA
ENDBRANCH 106 107
ENDBRANCH  74  99
ENDBRANCH  48  49
ENDBRANCH  41  43
ENDBRANCH  40  41
ENDBRANCH  39  40
ENDBRANCH  38  39
ENDBRANCH  37  38
ENDBRANCH   1  37
TORSDOF 21
ENDMDL
