MODEL 1
REMARK VINA RESULT:     -11.7      0.000      0.000
REMARK SMILES Cc1ccc(C)c(-c2cc(C(=O)OCCOCCOCCOC(=O)c3ccc(-c4c5nc(c(-c6c(F)cc(S(=O)(=O)[O-])cc6F)c6ccc([nH]6)c(-c6c(F)cc(S(=O)(=O)[O-])cc6F)c6nc(c(-c7c(F)cc(S(=O)(=O)[O-])cc7F)c7ccc4[nH]7)C=C6)C=C5)cc3)c3cc(C)ccc3n2)c1
REMARK SMILES IDX 18 1 17 2 16 3 15 4 14 5 13 6 11 7 12 8 10 9 8 10 9 11 98 12
REMARK SMILES IDX 97 13 91 14 96 15 92 16 95 17 93 18 94 19 7 20 1 21 2 22
REMARK SMILES IDX 3 23 99 24 4 25 5 26 6 27 19 28 20 29 21 30 22 31 23 32
REMARK SMILES IDX 24 33 25 34 26 35 90 36 27 37 89 38 28 39 29 40 30 41 83 42
REMARK SMILES IDX 31 43 88 44 82 45 84 46 32 47 87 48 81 49 80 50 33 52 67 53
REMARK SMILES IDX 46 54 66 55 47 56 50 57 65 58 85 59 48 60 49 61 64 63 86 64
REMARK SMILES IDX 51 65 34 66 35 67 44 68 36 69 37 70 43 71 45 72 38 73 39 74
REMARK SMILES IDX 40 75 41 76 42 77 68 78 69 79 78 80 70 81 71 82 77 83 79 84
REMARK SMILES IDX 72 85 73 86 74 87 75 88 76 89 52 90 53 91 62 92 54 93 55 94
REMARK SMILES IDX 61 95 63 96 56 97 57 98 58 99 59 100 60 101
REMARK H PARENT 84 51 50 62
REMARK Flexibility Score: inf
ROOT
ATOM      1  C   UNL A   1      30.724  28.802  24.131  1.00  0.00     0.188 C 
ENDROOT
BRANCH   1   2
ATOM      2  C   UNL A   1      30.158  27.374  24.020  1.00  0.00     0.188 C 
BRANCH   2   3
ATOM      3  O   UNL A   1      30.922  26.489  23.198  1.00  0.00    -0.376 OA
BRANCH   3   4
ATOM      4  C   UNL A   1      32.052  27.063  22.527  1.00  0.00     0.202 C 
BRANCH   4   5
ATOM      5  C   UNL A   1      32.872  26.108  21.627  1.00  0.00     0.261 C 
BRANCH   5   6
ATOM      6  O   UNL A   1      34.004  25.489  22.299  1.00  0.00    -0.460 OA
BRANCH   6   7
ATOM      7  C   UNL A   1      33.860  24.157  22.584  1.00  0.00     0.338 C 
ATOM      8  O   UNL A   1      33.703  23.259  21.778  1.00  0.00    -0.246 OA
BRANCH   7   9
ATOM      9  C   UNL A   1      34.128  23.884  24.022  1.00  0.00     0.071 A 
ATOM     10  C   UNL A   1      35.881  23.368  25.528  1.00  0.00     0.072 A 
ATOM     11  C   UNL A   1      35.493  23.789  24.278  1.00  0.00     0.045 A 
ATOM     12  N   UNL A   1      35.019  23.032  26.502  1.00  0.00    -0.248 NA
ATOM     13  C   UNL A   1      33.721  23.149  26.280  1.00  0.00     0.072 A 
ATOM     14  C   UNL A   1      33.164  23.602  25.068  1.00  0.00     0.015 A 
ATOM     15  C   UNL A   1      32.942  22.804  27.367  1.00  0.00     0.029 A 
ATOM     16  C   UNL A   1      31.741  23.763  25.095  1.00  0.00     0.014 A 
ATOM     17  C   UNL A   1      31.581  23.030  27.387  1.00  0.00     0.005 A 
ATOM     18  C   UNL A   1      30.973  23.589  26.275  1.00  0.00    -0.050 A 
ATOM     19  C   UNL A   1      29.563  24.085  26.442  1.00  0.00     0.044 C 
BRANCH  10  20
ATOM     20  C   UNL A   1      37.272  23.217  25.909  1.00  0.00     0.003 A 
ATOM     21  C   UNL A   1      39.851  25.304  27.773  1.00  0.00     0.044 C 
ATOM     22  C   UNL A   1      39.211  24.169  27.036  1.00  0.00    -0.050 A 
ATOM     23  C   UNL A   1      39.921  23.000  26.756  1.00  0.00     0.004 A 
ATOM     24  C   UNL A   1      37.889  24.269  26.607  1.00  0.00     0.014 A 
ATOM     25  C   UNL A   1      39.313  21.939  26.078  1.00  0.00     0.004 A 
ATOM     26  C   UNL A   1      37.982  22.028  25.653  1.00  0.00    -0.042 A 
ATOM     27  C   UNL A   1      37.361  20.842  24.957  1.00  0.00     0.045 C 
ENDBRANCH  10  20
ENDBRANCH   7   9
ENDBRANCH   6   7
ENDBRANCH   5   6
ENDBRANCH   4   5
ENDBRANCH   3   4
ENDBRANCH   2   3
ENDBRANCH   1   2
BRANCH   1  28
ATOM     28  O   UNL A   1      31.459  28.935  25.334  1.00  0.00    -0.376 OA
BRANCH  28  29
ATOM     29  C   UNL A   1      31.785  30.247  25.743  1.00  0.00     0.202 C 
BRANCH  29  30
ATOM     30  C   UNL A   1      32.711  30.374  26.957  1.00  0.00     0.261 C 
BRANCH  30  31
ATOM     31  O   UNL A   1      34.139  30.608  26.819  1.00  0.00    -0.460 OA
BRANCH  31  32
ATOM     32  C   UNL A   1      35.014  31.356  27.541  1.00  0.00     0.338 C 
ATOM     33  O   UNL A   1      34.915  32.552  27.631  1.00  0.00    -0.246 OA
BRANCH  32  34
ATOM     34  C   UNL A   1      36.163  30.647  28.123  1.00  0.00     0.060 A 
ATOM     35  C   UNL A   1      37.123  31.460  28.695  1.00  0.00     0.016 A 
ATOM     36  C   UNL A   1      36.382  29.272  27.962  1.00  0.00     0.016 A 
ATOM     37  C   UNL A   1      38.378  30.918  28.876  1.00  0.00     0.010 A 
ATOM     38  C   UNL A   1      37.663  28.742  28.191  1.00  0.00     0.010 A 
ATOM     39  C   UNL A   1      38.689  29.598  28.578  1.00  0.00    -0.014 A 
BRANCH  39  40
ATOM     40  C   UNL A   1      40.100  29.264  28.826  1.00  0.00     0.031 A 
ATOM     41  C   UNL A   1      40.553  29.435  30.234  1.00  0.00     0.074 A 
ATOM     42  C   UNL A   1      40.982  28.925  27.867  1.00  0.00     0.049 A 
ATOM     43  N   UNL A   1      41.516  30.168  30.709  1.00  0.00    -0.248 NA
ATOM     44  C   UNL A   1      39.711  28.796  31.252  1.00  0.00     0.031 C 
ATOM     45  C   UNL A   1      40.698  28.626  26.468  1.00  0.00     0.029 A 
ATOM     46  N   UNL A   1      42.324  28.671  27.978  1.00  0.00    -0.354 N 
ATOM     47  C   UNL A   1      41.499  29.940  32.080  1.00  0.00     0.074 A 
ATOM     48  C   UNL A   1      40.275  29.241  32.370  1.00  0.00     0.031 C 
ATOM     49  C   UNL A   1      41.766  27.996  25.935  1.00  0.00     0.029 A 
ATOM     50  C   UNL A   1      42.806  27.879  26.944  1.00  0.00     0.049 A 
ATOM     51  H   UNL A   1      42.886  29.014  28.712  1.00  0.00     0.167 HD
ATOM     52  C   UNL A   1      42.576  30.043  32.903  1.00  0.00     0.037 A 
ATOM     53  C   UNL A   1      43.877  27.043  26.983  1.00  0.00     0.037 A 
ATOM     54  C   UNL A   1      43.603  30.915  32.441  1.00  0.00     0.049 A 
ATOM     55  C   UNL A   1      44.778  27.497  28.076  1.00  0.00     0.074 A 
ATOM     56  C   UNL A   1      43.672  32.256  32.118  1.00  0.00     0.029 A 
ATOM     57  N   UNL A   1      44.766  30.366  31.965  1.00  0.00    -0.354 N 
ATOM     58  N   UNL A   1      45.480  28.598  28.042  1.00  0.00    -0.248 NA
ATOM     59  C   UNL A   1      44.566  26.935  29.403  1.00  0.00     0.031 C 
ATOM     60  C   UNL A   1      44.609  32.333  31.048  1.00  0.00     0.029 A 
ATOM     61  C   UNL A   1      45.060  31.037  30.806  1.00  0.00     0.049 A 
ATOM     62  H   UNL A   1      45.286  29.636  32.373  1.00  0.00     0.167 HD
ATOM     63  C   UNL A   1      45.446  29.082  29.342  1.00  0.00     0.074 A 
ATOM     64  C   UNL A   1      44.926  27.982  30.148  1.00  0.00     0.031 C 
ATOM     65  C   UNL A   1      45.598  30.409  29.622  1.00  0.00     0.037 A 
BRANCH  52  66
ATOM     66  C   UNL A   1      42.755  29.000  33.969  1.00  0.00     0.058 A 
ATOM     67  C   UNL A   1      42.911  27.640  33.680  1.00  0.00     0.135 A 
ATOM     68  C   UNL A   1      42.610  29.335  35.338  1.00  0.00     0.135 A 
ATOM     69  F   UNL A   1      42.952  27.213  32.409  1.00  0.00    -0.206 F 
ATOM     70  C   UNL A   1      42.979  26.684  34.698  1.00  0.00     0.059 A 
ATOM     71  C   UNL A   1      42.774  28.427  36.362  1.00  0.00     0.059 A 
ATOM     72  F   UNL A   1      42.238  30.566  35.725  1.00  0.00    -0.206 F 
ATOM     73  C   UNL A   1      42.927  27.093  36.034  1.00  0.00     0.060 A 
BRANCH  73  74
ATOM     74  S   UNL A   1      42.984  25.886  37.366  1.00  0.00     0.124 S 
ATOM     75  O   UNL A   1      43.888  24.888  36.804  1.00  0.00    -0.237 OA
ATOM     76  O   UNL A   1      43.506  26.673  38.477  1.00  0.00    -0.237 OA
ATOM     77  O   UNL A   1      41.589  25.476  37.499  1.00  0.00    -0.744 OA
ENDBRANCH  73  74
ENDBRANCH  52  66
BRANCH  53  78
ATOM     78  C   UNL A   1      43.936  25.675  26.383  1.00  0.00     0.058 A 
ATOM     79  C   UNL A   1      44.759  25.370  25.283  1.00  0.00     0.135 A 
ATOM     80  C   UNL A   1      43.343  24.562  27.020  1.00  0.00     0.135 A 
ATOM     81  F   UNL A   1      45.419  26.348  24.642  1.00  0.00    -0.206 F 
ATOM     82  C   UNL A   1      44.977  24.051  24.850  1.00  0.00     0.059 A 
ATOM     83  C   UNL A   1      43.514  23.252  26.589  1.00  0.00     0.059 A 
ATOM     84  F   UNL A   1      42.643  24.689  28.156  1.00  0.00    -0.206 F 
ATOM     85  C   UNL A   1      44.350  22.998  25.515  1.00  0.00     0.060 A 
BRANCH  85  86
ATOM     86  S   UNL A   1      44.715  21.284  25.069  1.00  0.00     0.124 S 
ATOM     87  O   UNL A   1      43.733  20.551  25.858  1.00  0.00    -0.237 OA
ATOM     88  O   UNL A   1      44.504  21.291  23.625  1.00  0.00    -0.237 OA
ATOM     89  O   UNL A   1      46.104  21.113  25.490  1.00  0.00    -0.744 OA
ENDBRANCH  85  86
ENDBRANCH  53  78
BRANCH  65  90
ATOM     90  C   UNL A   1      46.103  31.335  28.552  1.00  0.00     0.058 A 
ATOM     91  C   UNL A   1      45.283  31.945  27.589  1.00  0.00     0.135 A 
ATOM     92  C   UNL A   1      47.435  31.774  28.640  1.00  0.00     0.135 A 
ATOM     93  F   UNL A   1      43.976  31.651  27.506  1.00  0.00    -0.206 F 
ATOM     94  C   UNL A   1      45.775  32.936  26.735  1.00  0.00     0.059 A 
ATOM     95  C   UNL A   1      47.937  32.780  27.820  1.00  0.00     0.059 A 
ATOM     96  F   UNL A   1      48.251  31.265  29.579  1.00  0.00    -0.206 F 
ATOM     97  C   UNL A   1      47.101  33.353  26.865  1.00  0.00     0.060 A 
BRANCH  97  98
ATOM     98  S   UNL A   1      47.701  34.711  25.837  1.00  0.00     0.124 S 
ATOM     99  O   UNL A   1      46.601  34.892  24.896  1.00  0.00    -0.237 OA
ATOM    100  O   UNL A   1      47.889  35.786  26.807  1.00  0.00    -0.237 OA
ATOM    101  O   UNL A   1      48.936  34.184  25.258  1.00  0.00    -0.744 OA
ENDBRANCH  97  98
ENDBRANCH  65  90
ENDBRANCH  39  40
ENDBRANCH  32  34
ENDBRANCH  31  32
ENDBRANCH  30  31
ENDBRANCH  29  30
ENDBRANCH  28  29
ENDBRANCH   1  28
TORSDOF 21
ENDMDL
MODEL 2
REMARK VINA RESULT:     -11.1      2.485      9.381
REMARK SMILES Cc1ccc(C)c(-c2cc(C(=O)OCCOCCOCCOC(=O)c3ccc(-c4c5nc(c(-c6c(F)cc(S(=O)(=O)[O-])cc6F)c6ccc([nH]6)c(-c6c(F)cc(S(=O)(=O)[O-])cc6F)c6nc(c(-c7c(F)cc(S(=O)(=O)[O-])cc7F)c7ccc4[nH]7)C=C6)C=C5)cc3)c3cc(C)ccc3n2)c1
REMARK SMILES IDX 18 1 17 2 16 3 15 4 14 5 13 6 11 7 12 8 10 9 8 10 9 11 98 12
REMARK SMILES IDX 97 13 91 14 96 15 92 16 95 17 93 18 94 19 7 20 1 21 2 22
REMARK SMILES IDX 3 23 99 24 4 25 5 26 6 27 19 28 20 29 21 30 22 31 23 32
REMARK SMILES IDX 24 33 25 34 26 35 90 36 27 37 89 38 28 39 29 40 30 41 83 42
REMARK SMILES IDX 31 43 88 44 82 45 84 46 32 47 87 48 81 49 80 50 33 52 67 53
REMARK SMILES IDX 46 54 66 55 47 56 50 57 65 58 85 59 48 60 49 61 64 63 86 64
REMARK SMILES IDX 51 65 34 66 35 67 44 68 36 69 37 70 43 71 45 72 38 73 39 74
REMARK SMILES IDX 40 75 41 76 42 77 68 78 69 79 78 80 70 81 71 82 77 83 79 84
REMARK SMILES IDX 72 85 73 86 74 87 75 88 76 89 52 90 53 91 62 92 54 93 55 94
REMARK SMILES IDX 61 95 63 96 56 97 57 98 58 99 59 100 60 101
REMARK H PARENT 84 51 50 62
REMARK Flexibility Score: inf
ROOT
ATOM      1  C   UNL A   1      41.474  20.729  26.857  1.00  0.00     0.188 C 
ENDROOT
BRANCH   1   2
ATOM      2  C   UNL A   1      40.186  20.270  26.150  1.00  0.00     0.188 C 
BRANCH   2   3
ATOM      3  O   UNL A   1      39.208  21.295  25.959  1.00  0.00    -0.376 OA
BRANCH   3   4
ATOM      4  C   UNL A   1      39.416  22.512  26.688  1.00  0.00     0.202 C 
BRANCH   4   5
ATOM      5  C   UNL A   1      38.674  23.763  26.157  1.00  0.00     0.261 C 
BRANCH   5   6
ATOM      6  O   UNL A   1      37.232  23.598  26.060  1.00  0.00    -0.460 OA
BRANCH   6   7
ATOM      7  C   UNL A   1      36.756  23.315  24.807  1.00  0.00     0.338 C 
ATOM      8  O   UNL A   1      37.414  22.949  23.851  1.00  0.00    -0.246 OA
BRANCH   7   9
ATOM      9  C   UNL A   1      35.269  23.305  24.787  1.00  0.00     0.071 A 
ATOM     10  C   UNL A   1      33.390  24.735  24.963  1.00  0.00     0.072 A 
ATOM     11  C   UNL A   1      34.749  24.596  24.803  1.00  0.00     0.045 A 
ATOM     12  N   UNL A   1      32.548  23.701  25.116  1.00  0.00    -0.248 NA
ATOM     13  C   UNL A   1      33.027  22.469  25.071  1.00  0.00     0.072 A 
ATOM     14  C   UNL A   1      34.387  22.158  24.876  1.00  0.00     0.015 A 
ATOM     15  C   UNL A   1      32.058  21.495  25.210  1.00  0.00     0.029 A 
ATOM     16  C   UNL A   1      34.658  20.757  24.740  1.00  0.00     0.014 A 
ATOM     17  C   UNL A   1      32.338  20.158  25.011  1.00  0.00     0.005 A 
ATOM     18  C   UNL A   1      33.631  19.779  24.694  1.00  0.00    -0.050 A 
ATOM     19  C   UNL A   1      33.832  18.373  24.202  1.00  0.00     0.044 C 
BRANCH  10  20
ATOM     20  C   UNL A   1      32.733  26.028  25.008  1.00  0.00     0.003 A 
ATOM     21  C   UNL A   1      31.471  28.373  27.727  1.00  0.00     0.044 C 
ATOM     22  C   UNL A   1      31.813  27.821  26.378  1.00  0.00    -0.050 A 
ATOM     23  C   UNL A   1      31.536  28.539  25.213  1.00  0.00     0.004 A 
ATOM     24  C   UNL A   1      32.409  26.565  26.265  1.00  0.00     0.014 A 
ATOM     25  C   UNL A   1      31.869  28.022  23.957  1.00  0.00     0.004 A 
ATOM     26  C   UNL A   1      32.478  26.767  23.838  1.00  0.00    -0.042 A 
ATOM     27  C   UNL A   1      32.850  26.269  22.463  1.00  0.00     0.045 C 
ENDBRANCH  10  20
ENDBRANCH   7   9
ENDBRANCH   6   7
ENDBRANCH   5   6
ENDBRANCH   4   5
ENDBRANCH   3   4
ENDBRANCH   2   3
ENDBRANCH   1   2
BRANCH   1  28
ATOM     28  O   UNL A   1      42.211  19.601  27.292  1.00  0.00    -0.376 OA
BRANCH  28  29
ATOM     29  C   UNL A   1      42.613  18.678  26.301  1.00  0.00     0.202 C 
BRANCH  29  30
ATOM     30  C   UNL A   1      44.072  18.759  25.843  1.00  0.00     0.261 C 
BRANCH  30  31
ATOM     31  O   UNL A   1      44.726  20.026  25.560  1.00  0.00    -0.460 OA
BRANCH  31  32
ATOM     32  C   UNL A   1      44.537  20.952  24.584  1.00  0.00     0.338 C 
ATOM     33  O   UNL A   1      44.487  20.655  23.419  1.00  0.00    -0.246 OA
BRANCH  32  34
ATOM     34  C   UNL A   1      44.506  22.360  25.007  1.00  0.00     0.060 A 
ATOM     35  C   UNL A   1      45.207  22.638  26.165  1.00  0.00     0.016 A 
ATOM     36  C   UNL A   1      43.686  23.326  24.408  1.00  0.00     0.016 A 
ATOM     37  C   UNL A   1      44.886  23.803  26.829  1.00  0.00     0.010 A 
ATOM     38  C   UNL A   1      43.408  24.521  25.092  1.00  0.00     0.010 A 
ATOM     39  C   UNL A   1      43.957  24.720  26.354  1.00  0.00    -0.014 A 
BRANCH  39  40
ATOM     40  C   UNL A   1      43.763  25.867  27.254  1.00  0.00     0.031 A 
ATOM     41  C   UNL A   1      44.889  26.840  27.292  1.00  0.00     0.074 A 
ATOM     42  C   UNL A   1      42.710  26.018  28.080  1.00  0.00     0.049 A 
ATOM     43  N   UNL A   1      45.601  27.241  28.303  1.00  0.00    -0.248 NA
ATOM     44  C   UNL A   1      45.360  27.315  25.986  1.00  0.00     0.031 C 
ATOM     45  C   UNL A   1      41.488  25.221  28.112  1.00  0.00     0.029 A 
ATOM     46  N   UNL A   1      42.471  27.000  29.005  1.00  0.00    -0.354 N 
ATOM     47  C   UNL A   1      46.502  28.155  27.769  1.00  0.00     0.074 A 
ATOM     48  C   UNL A   1      46.426  28.025  26.338  1.00  0.00     0.031 C 
ATOM     49  C   UNL A   1      40.552  25.894  28.814  1.00  0.00     0.029 A 
ATOM     50  C   UNL A   1      41.121  27.141  29.299  1.00  0.00     0.049 A 
ATOM     51  H   UNL A   1      43.180  27.547  29.417  1.00  0.00     0.167 HD
ATOM     52  C   UNL A   1      47.064  29.188  28.450  1.00  0.00     0.037 A 
ATOM     53  C   UNL A   1      40.489  28.264  29.731  1.00  0.00     0.037 A 
ATOM     54  C   UNL A   1      47.144  29.005  29.861  1.00  0.00     0.049 A 
ATOM     55  C   UNL A   1      41.501  29.148  30.368  1.00  0.00     0.074 A 
ATOM     56  C   UNL A   1      47.744  28.079  30.692  1.00  0.00     0.029 A 
ATOM     57  N   UNL A   1      46.291  29.717  30.665  1.00  0.00    -0.354 N 
ATOM     58  N   UNL A   1      42.091  28.892  31.504  1.00  0.00    -0.248 NA
ATOM     59  C   UNL A   1      42.180  30.118  29.519  1.00  0.00     0.031 C 
ATOM     60  C   UNL A   1      46.864  27.955  31.806  1.00  0.00     0.029 A 
ATOM     61  C   UNL A   1      45.800  28.828  31.585  1.00  0.00     0.049 A 
ATOM     62  H   UNL A   1      46.075  30.675  30.595  1.00  0.00     0.167 HD
ATOM     63  C   UNL A   1      43.394  29.340  31.339  1.00  0.00     0.074 A 
ATOM     64  C   UNL A   1      43.370  30.146  30.121  1.00  0.00     0.031 C 
ATOM     65  C   UNL A   1      44.433  28.819  32.052  1.00  0.00     0.037 A 
BRANCH  52  66
ATOM     66  C   UNL A   1      47.191  30.511  27.752  1.00  0.00     0.058 A 
ATOM     67  C   UNL A   1      48.417  31.164  27.581  1.00  0.00     0.135 A 
ATOM     68  C   UNL A   1      46.037  31.241  27.372  1.00  0.00     0.135 A 
ATOM     69  F   UNL A   1      49.556  30.597  28.005  1.00  0.00    -0.206 F 
ATOM     70  C   UNL A   1      48.488  32.439  27.011  1.00  0.00     0.059 A 
ATOM     71  C   UNL A   1      46.088  32.454  26.718  1.00  0.00     0.059 A 
ATOM     72  F   UNL A   1      44.803  30.817  27.687  1.00  0.00    -0.206 F 
ATOM     73  C   UNL A   1      47.319  33.064  26.569  1.00  0.00     0.060 A 
BRANCH  73  74
ATOM     74  S   UNL A   1      47.375  34.715  25.858  1.00  0.00     0.124 S 
ATOM     75  O   UNL A   1      46.325  34.623  24.849  1.00  0.00    -0.237 OA
ATOM     76  O   UNL A   1      47.086  35.561  27.011  1.00  0.00    -0.237 OA
ATOM     77  O   UNL A   1      48.740  34.809  25.347  1.00  0.00    -0.744 OA
ENDBRANCH  73  74
ENDBRANCH  52  66
BRANCH  53  78
ATOM     78  C   UNL A   1      39.154  28.746  29.262  1.00  0.00     0.058 A 
ATOM     79  C   UNL A   1      38.063  28.910  30.135  1.00  0.00     0.135 A 
ATOM     80  C   UNL A   1      38.973  29.277  27.964  1.00  0.00     0.135 A 
ATOM     81  F   UNL A   1      38.151  28.496  31.410  1.00  0.00    -0.206 F 
ATOM     82  C   UNL A   1      36.878  29.557  29.746  1.00  0.00     0.059 A 
ATOM     83  C   UNL A   1      37.798  29.888  27.544  1.00  0.00     0.059 A 
ATOM     84  F   UNL A   1      39.971  29.312  27.071  1.00  0.00    -0.206 F 
ATOM     85  C   UNL A   1      36.759  30.046  28.445  1.00  0.00     0.060 A 
BRANCH  85  86
ATOM     86  S   UNL A   1      35.303  30.999  27.953  1.00  0.00     0.124 S 
ATOM     87  O   UNL A   1      34.603  31.158  29.222  1.00  0.00    -0.237 OA
ATOM     88  O   UNL A   1      35.901  32.205  27.392  1.00  0.00    -0.237 OA
ATOM     89  O   UNL A   1      34.641  30.129  26.983  1.00  0.00    -0.744 OA
ENDBRANCH  85  86
ENDBRANCH  53  78
BRANCH  65  90
ATOM     90  C   UNL A   1      44.147  27.953  33.246  1.00  0.00     0.058 A 
ATOM     91  C   UNL A   1      44.016  28.439  34.557  1.00  0.00     0.135 A 
ATOM     92  C   UNL A   1      43.790  26.613  33.013  1.00  0.00     0.135 A 
ATOM     93  F   UNL A   1      44.244  29.730  34.843  1.00  0.00    -0.206 F 
ATOM     94  C   UNL A   1      43.570  27.619  35.597  1.00  0.00     0.059 A 
ATOM     95  C   UNL A   1      43.315  25.789  34.028  1.00  0.00     0.059 A 
ATOM     96  F   UNL A   1      43.841  26.110  31.768  1.00  0.00    -0.206 F 
ATOM     97  C   UNL A   1      43.213  26.298  35.321  1.00  0.00     0.060 A 
BRANCH  97  98
ATOM     98  S   UNL A   1      42.530  25.275  36.644  1.00  0.00     0.124 S 
ATOM     99  O   UNL A   1      42.150  24.063  35.927  1.00  0.00    -0.237 OA
ATOM    100  O   UNL A   1      43.659  25.144  37.559  1.00  0.00    -0.237 OA
ATOM    101  O   UNL A   1      41.416  26.073  37.154  1.00  0.00    -0.744 OA
ENDBRANCH  97  98
ENDBRANCH  65  90
ENDBRANCH  39  40
ENDBRANCH  32  34
ENDBRANCH  31  32
ENDBRANCH  30  31
ENDBRANCH  29  30
ENDBRANCH  28  29
ENDBRANCH   1  28
TORSDOF 21
ENDMDL
MODEL 3
REMARK VINA RESULT:     -10.9      2.728      9.354
REMARK SMILES Cc1ccc(C)c(-c2cc(C(=O)OCCOCCOCCOC(=O)c3ccc(-c4c5nc(c(-c6c(F)cc(S(=O)(=O)[O-])cc6F)c6ccc([nH]6)c(-c6c(F)cc(S(=O)(=O)[O-])cc6F)c6nc(c(-c7c(F)cc(S(=O)(=O)[O-])cc7F)c7ccc4[nH]7)C=C6)C=C5)cc3)c3cc(C)ccc3n2)c1
REMARK SMILES IDX 18 1 17 2 16 3 15 4 14 5 13 6 11 7 12 8 10 9 8 10 9 11 98 12
REMARK SMILES IDX 97 13 91 14 96 15 92 16 95 17 93 18 94 19 7 20 1 21 2 22
REMARK SMILES IDX 3 23 99 24 4 25 5 26 6 27 19 28 20 29 21 30 22 31 23 32
REMARK SMILES IDX 24 33 25 34 26 35 90 36 27 37 89 38 28 39 29 40 30 41 83 42
REMARK SMILES IDX 31 43 88 44 82 45 84 46 32 47 87 48 81 49 80 50 33 52 67 53
REMARK SMILES IDX 46 54 66 55 47 56 50 57 65 58 85 59 48 60 49 61 64 63 86 64
REMARK SMILES IDX 51 65 34 66 35 67 44 68 36 69 37 70 43 71 45 72 38 73 39 74
REMARK SMILES IDX 40 75 41 76 42 77 68 78 69 79 78 80 70 81 71 82 77 83 79 84
REMARK SMILES IDX 72 85 73 86 74 87 75 88 76 89 52 90 53 91 62 92 54 93 55 94
REMARK SMILES IDX 61 95 63 96 56 97 57 98 58 99 59 100 60 101
REMARK H PARENT 84 51 50 62
REMARK Flexibility Score: inf
ROOT
ATOM      1  C   UNL A   1      40.668  19.822  26.373  1.00  0.00     0.188 C 
ENDROOT
BRANCH   1   2
ATOM      2  C   UNL A   1      40.884  21.311  26.049  1.00  0.00     0.188 C 
BRANCH   2   3
ATOM      3  O   UNL A   1      39.685  22.063  25.852  1.00  0.00    -0.376 OA
BRANCH   3   4
ATOM      4  C   UNL A   1      39.437  23.117  26.793  1.00  0.00     0.202 C 
BRANCH   4   5
ATOM      5  C   UNL A   1      38.205  24.010  26.511  1.00  0.00     0.261 C 
BRANCH   5   6
ATOM      6  O   UNL A   1      36.982  23.265  26.253  1.00  0.00    -0.460 OA
BRANCH   6   7
ATOM      7  C   UNL A   1      36.412  23.481  25.026  1.00  0.00     0.338 C 
ATOM      8  O   UNL A   1      37.000  23.730  23.990  1.00  0.00    -0.246 OA
BRANCH   7   9
ATOM      9  C   UNL A   1      34.958  23.170  25.048  1.00  0.00     0.071 A 
ATOM     10  C   UNL A   1      33.407  21.463  24.510  1.00  0.00     0.072 A 
ATOM     11  C   UNL A   1      34.714  21.844  24.700  1.00  0.00     0.045 A 
ATOM     12  N   UNL A   1      32.362  22.298  24.627  1.00  0.00    -0.248 NA
ATOM     13  C   UNL A   1      32.579  23.552  24.988  1.00  0.00     0.072 A 
ATOM     14  C   UNL A   1      33.855  24.087  25.257  1.00  0.00     0.015 A 
ATOM     15  C   UNL A   1      31.425  24.300  25.104  1.00  0.00     0.029 A 
ATOM     16  C   UNL A   1      33.839  25.433  25.749  1.00  0.00     0.014 A 
ATOM     17  C   UNL A   1      31.434  25.572  25.640  1.00  0.00     0.005 A 
ATOM     18  C   UNL A   1      32.637  26.126  26.045  1.00  0.00    -0.050 A 
ATOM     19  C   UNL A   1      32.570  27.373  26.882  1.00  0.00     0.044 C 
BRANCH  10  20
ATOM     20  C   UNL A   1      33.029  20.114  24.133  1.00  0.00     0.003 A 
ATOM     21  C   UNL A   1      33.168  16.670  25.745  1.00  0.00     0.044 C 
ATOM     22  C   UNL A   1      32.895  17.763  24.760  1.00  0.00    -0.050 A 
ATOM     23  C   UNL A   1      32.272  17.495  23.539  1.00  0.00     0.004 A 
ATOM     24  C   UNL A   1      33.272  19.074  25.046  1.00  0.00     0.014 A 
ATOM     25  C   UNL A   1      32.010  18.524  22.628  1.00  0.00     0.004 A 
ATOM     26  C   UNL A   1      32.375  19.845  22.915  1.00  0.00    -0.042 A 
ATOM     27  C   UNL A   1      32.038  20.924  21.916  1.00  0.00     0.045 C 
ENDBRANCH  10  20
ENDBRANCH   7   9
ENDBRANCH   6   7
ENDBRANCH   5   6
ENDBRANCH   4   5
ENDBRANCH   3   4
ENDBRANCH   2   3
ENDBRANCH   1   2
BRANCH   1  28
ATOM     28  O   UNL A   1      41.598  19.033  25.653  1.00  0.00    -0.376 OA
BRANCH  28  29
ATOM     29  C   UNL A   1      42.681  18.495  26.382  1.00  0.00     0.202 C 
BRANCH  29  30
ATOM     30  C   UNL A   1      44.084  18.809  25.853  1.00  0.00     0.261 C 
BRANCH  30  31
ATOM     31  O   UNL A   1      44.566  20.171  25.699  1.00  0.00    -0.460 OA
BRANCH  31  32
ATOM     32  C   UNL A   1      44.432  21.079  24.697  1.00  0.00     0.338 C 
ATOM     33  O   UNL A   1      44.471  20.765  23.536  1.00  0.00    -0.246 OA
BRANCH  32  34
ATOM     34  C   UNL A   1      44.345  22.492  25.095  1.00  0.00     0.060 A 
ATOM     35  C   UNL A   1      45.154  22.852  26.156  1.00  0.00     0.016 A 
ATOM     36  C   UNL A   1      43.389  23.379  24.581  1.00  0.00     0.016 A 
ATOM     37  C   UNL A   1      44.827  24.008  26.832  1.00  0.00     0.010 A 
ATOM     38  C   UNL A   1      43.105  24.569  25.271  1.00  0.00     0.010 A 
ATOM     39  C   UNL A   1      43.783  24.841  26.455  1.00  0.00    -0.014 A 
BRANCH  39  40
ATOM     40  C   UNL A   1      43.610  25.996  27.350  1.00  0.00     0.031 A 
ATOM     41  C   UNL A   1      44.746  26.957  27.370  1.00  0.00     0.074 A 
ATOM     42  C   UNL A   1      42.568  26.162  28.187  1.00  0.00     0.049 A 
ATOM     43  N   UNL A   1      45.473  27.357  28.371  1.00  0.00    -0.248 NA
ATOM     44  C   UNL A   1      45.207  27.420  26.056  1.00  0.00     0.031 C 
ATOM     45  C   UNL A   1      41.339  25.378  28.237  1.00  0.00     0.029 A 
ATOM     46  N   UNL A   1      42.349  27.152  29.109  1.00  0.00    -0.354 N 
ATOM     47  C   UNL A   1      46.378  28.259  27.822  1.00  0.00     0.074 A 
ATOM     48  C   UNL A   1      46.284  28.122  26.392  1.00  0.00     0.031 C 
ATOM     49  C   UNL A   1      40.417  26.064  28.945  1.00  0.00     0.029 A 
ATOM     50  C   UNL A   1      41.004  27.308  29.417  1.00  0.00     0.049 A 
ATOM     51  H   UNL A   1      43.068  27.693  29.509  1.00  0.00     0.167 HD
ATOM     52  C   UNL A   1      46.958  29.290  28.490  1.00  0.00     0.037 A 
ATOM     53  C   UNL A   1      40.388  28.439  29.850  1.00  0.00     0.037 A 
ATOM     54  C   UNL A   1      47.052  29.114  29.901  1.00  0.00     0.049 A 
ATOM     55  C   UNL A   1      41.416  29.317  30.470  1.00  0.00     0.074 A 
ATOM     56  C   UNL A   1      47.651  28.186  30.730  1.00  0.00     0.029 A 
ATOM     57  N   UNL A   1      46.215  29.839  30.710  1.00  0.00    -0.354 N 
ATOM     58  N   UNL A   1      42.017  29.061  31.601  1.00  0.00    -0.248 NA
ATOM     59  C   UNL A   1      42.095  30.275  29.608  1.00  0.00     0.031 C 
ATOM     60  C   UNL A   1      46.783  28.078  31.855  1.00  0.00     0.029 A 
ATOM     61  C   UNL A   1      45.725  28.960  31.641  1.00  0.00     0.049 A 
ATOM     62  H   UNL A   1      46.008  30.799  30.637  1.00  0.00     0.167 HD
ATOM     63  C   UNL A   1      43.322  29.495  31.419  1.00  0.00     0.074 A 
ATOM     64  C   UNL A   1      43.293  30.294  30.197  1.00  0.00     0.031 C 
ATOM     65  C   UNL A   1      44.364  28.968  32.123  1.00  0.00     0.037 A 
BRANCH  52  66
ATOM     66  C   UNL A   1      47.090  30.608  27.783  1.00  0.00     0.058 A 
ATOM     67  C   UNL A   1      48.303  31.299  27.688  1.00  0.00     0.135 A 
ATOM     68  C   UNL A   1      45.942  31.294  27.314  1.00  0.00     0.135 A 
ATOM     69  F   UNL A   1      49.428  30.776  28.198  1.00  0.00    -0.206 F 
ATOM     70  C   UNL A   1      48.373  32.568  27.105  1.00  0.00     0.059 A 
ATOM     71  C   UNL A   1      45.999  32.500  26.647  1.00  0.00     0.059 A 
ATOM     72  F   UNL A   1      44.703  30.833  27.549  1.00  0.00    -0.206 F 
ATOM     73  C   UNL A   1      47.218  33.148  26.574  1.00  0.00     0.060 A 
BRANCH  73  74
ATOM     74  S   UNL A   1      47.269  34.791  25.844  1.00  0.00     0.124 S 
ATOM     75  O   UNL A   1      48.352  34.638  24.879  1.00  0.00    -0.237 OA
ATOM     76  O   UNL A   1      45.927  34.927  25.289  1.00  0.00    -0.237 OA
ATOM     77  O   UNL A   1      47.555  35.652  26.989  1.00  0.00    -0.744 OA
ENDBRANCH  73  74
ENDBRANCH  52  66
BRANCH  53  78
ATOM     78  C   UNL A   1      39.053  28.933  29.393  1.00  0.00     0.058 A 
ATOM     79  C   UNL A   1      37.984  29.145  30.282  1.00  0.00     0.135 A 
ATOM     80  C   UNL A   1      38.854  29.425  28.083  1.00  0.00     0.135 A 
ATOM     81  F   UNL A   1      38.091  28.771  31.568  1.00  0.00    -0.206 F 
ATOM     82  C   UNL A   1      36.803  29.802  29.897  1.00  0.00     0.059 A 
ATOM     83  C   UNL A   1      37.683  30.046  27.668  1.00  0.00     0.059 A 
ATOM     84  F   UNL A   1      39.834  29.412  27.169  1.00  0.00    -0.206 F 
ATOM     85  C   UNL A   1      36.666  30.252  28.584  1.00  0.00     0.060 A 
BRANCH  85  86
ATOM     86  S   UNL A   1      35.219  31.217  28.091  1.00  0.00     0.124 S 
ATOM     87  O   UNL A   1      34.510  30.281  27.228  1.00  0.00    -0.237 OA
ATOM     88  O   UNL A   1      34.592  31.509  29.376  1.00  0.00    -0.237 OA
ATOM     89  O   UNL A   1      35.799  32.373  27.410  1.00  0.00    -0.744 OA
ENDBRANCH  85  86
ENDBRANCH  53  78
BRANCH  65  90
ATOM     90  C   UNL A   1      44.082  28.112  33.325  1.00  0.00     0.058 A 
ATOM     91  C   UNL A   1      43.828  28.618  34.611  1.00  0.00     0.135 A 
ATOM     92  C   UNL A   1      43.860  26.739  33.115  1.00  0.00     0.135 A 
ATOM     93  F   UNL A   1      43.923  29.932  34.868  1.00  0.00    -0.206 F 
ATOM     94  C   UNL A   1      43.394  27.789  35.648  1.00  0.00     0.059 A 
ATOM     95  C   UNL A   1      43.398  25.903  34.126  1.00  0.00     0.059 A 
ATOM     96  F   UNL A   1      44.032  26.209  31.892  1.00  0.00    -0.206 F 
ATOM     97  C   UNL A   1      43.172  26.435  35.393  1.00  0.00     0.060 A 
BRANCH  97  98
ATOM     98  S   UNL A   1      42.502  25.390  36.706  1.00  0.00     0.124 S 
ATOM     99  O   UNL A   1      43.704  24.752  37.231  1.00  0.00    -0.237 OA
ATOM    100  O   UNL A   1      41.861  26.360  37.589  1.00  0.00    -0.237 OA
ATOM    101  O   UNL A   1      41.582  24.500  36.000  1.00  0.00    -0.744 OA
ENDBRANCH  97  98
ENDBRANCH  65  90
ENDBRANCH  39  40
ENDBRANCH  32  34
ENDBRANCH  31  32
ENDBRANCH  30  31
ENDBRANCH  29  30
ENDBRANCH  28  29
ENDBRANCH   1  28
TORSDOF 21
ENDMDL
