MODEL 1
REMARK VINA RESULT:     -11.4      0.000      0.000
REMARK SMILES CCSc1ccc(-c2cc(Cl)cc3c2O[C@H](C(F)(F)F)C(C(=O)OCCOCCOCCOC(=O)c2ccc(-c4c5nc(c(-c6c(F)cc(S(=O)(=O)[O-])cc6F)c6ccc([nH]6)c(-c6c(F)cc(S(=O)(=O)[O-])cc6F)c6nc(c(-c7c(F)cc(S(=O)(=O)[O-])cc7F)c7ccc4[nH]7)C=C6)C=C5)cc2)=C3)cc1
REMARK SMILES IDX 28 1 27 2 26 3 25 4 24 5 22 6 23 7 21 8 8 9 9 10 14 11 10 12
REMARK SMILES IDX 13 13 15 14 11 15 12 16 102 17 16 18 7 19 4 20 5 21 104 22
REMARK SMILES IDX 6 23 103 24 3 25 2 26 1 27 17 28 18 29 19 30 20 31 29 32
REMARK SMILES IDX 30 33 31 34 32 35 33 36 34 37 35 38 36 39 37 40 101 41 38 42
REMARK SMILES IDX 100 43 39 44 40 45 41 46 94 47 42 48 99 49 93 50 95 51 43 52
REMARK SMILES IDX 98 53 92 54 91 55 44 57 78 58 57 59 77 60 58 61 61 62 76 63
REMARK SMILES IDX 96 64 59 65 60 66 75 68 97 69 62 70 45 71 46 72 55 73 47 74
REMARK SMILES IDX 48 75 54 76 56 77 49 78 50 79 51 80 52 81 53 82 79 83 80 84
REMARK SMILES IDX 89 85 81 86 82 87 88 88 90 89 83 90 84 91 85 92 86 93 87 94
REMARK SMILES IDX 63 95 64 96 73 97 65 98 66 99 72 100 74 101 67 102 68 103
REMARK SMILES IDX 69 104 70 105 71 106
REMARK H PARENT 95 56 61 67
REMARK Flexibility Score: inf
ROOT
ATOM      1  C   UNL A   1      34.972  30.165  27.352  1.00  0.00     0.188 C 
ENDROOT
BRANCH   1   2
ATOM      2  O   UNL A   1      33.939  29.202  27.229  1.00  0.00    -0.376 OA
BRANCH   2   3
ATOM      3  C   UNL A   1      32.612  29.721  27.231  1.00  0.00     0.202 C 
BRANCH   3   4
ATOM      4  C   UNL A   1      31.542  28.724  26.764  1.00  0.00     0.261 C 
BRANCH   4   5
ATOM      5  O   UNL A   1      31.627  28.472  25.336  1.00  0.00    -0.460 OA
BRANCH   5   6
ATOM      6  C   UNL A   1      31.184  27.255  24.950  1.00  0.00     0.338 C 
ATOM      7  O   UNL A   1      30.003  26.936  24.917  1.00  0.00    -0.246 OA
BRANCH   6   8
ATOM      8  C   UNL A   1      32.273  26.369  24.453  1.00  0.00     0.087 C 
ATOM      9  C   UNL A   1      32.097  22.237  24.463  1.00  0.00     0.026 A 
ATOM     10  C   UNL A   1      31.117  21.945  25.440  1.00  0.00     0.033 A 
ATOM     11  C   UNL A   1      32.474  23.582  24.393  1.00  0.00     0.135 A 
ATOM     12  C   UNL A   1      30.683  22.864  26.393  1.00  0.00     0.042 A 
ATOM     13  C   UNL A   1      32.239  24.415  25.509  1.00  0.00     0.019 A 
ATOM     14  O   UNL A   1      32.904  24.240  23.240  1.00  0.00    -0.475 OA
ATOM     15  Cl  UNL A   1      29.419  22.477  27.485  1.00  0.00    -0.084 Cl
ATOM     16  C   UNL A   1      31.312  24.084  26.487  1.00  0.00     0.032 A 
ATOM     17  C   UNL A   1      32.863  25.755  25.491  1.00  0.00     0.027 C 
ATOM     18  C   UNL A   1      32.242  25.598  23.133  1.00  0.00     0.316 C 
BRANCH   9  19
ATOM     19  C   UNL A   1      32.796  21.023  23.939  1.00  0.00    -0.015 A 
ATOM     20  C   UNL A   1      33.378  18.200  23.746  1.00  0.00     0.007 A 
ATOM     21  C   UNL A   1      32.464  18.802  22.890  1.00  0.00     0.015 A 
ATOM     22  C   UNL A   1      34.051  19.033  24.652  1.00  0.00     0.015 A 
ATOM     23  C   UNL A   1      32.195  20.186  22.981  1.00  0.00     0.010 A 
ATOM     24  C   UNL A   1      33.780  20.416  24.737  1.00  0.00     0.010 A 
BRANCH  20  25
ATOM     25  S   UNL A   1      33.600  16.435  23.927  1.00  0.00    -0.126 SA
BRANCH  25  26
ATOM     26  C   UNL A   1      33.311  16.043  25.687  1.00  0.00     0.071 C 
ATOM     27  C   UNL A   1      32.189  15.057  25.943  1.00  0.00     0.016 C 
ENDBRANCH  25  26
ENDBRANCH  20  25
ENDBRANCH   9  19
BRANCH  18  28
ATOM     28  C   UNL A   1      32.872  26.478  22.047  1.00  0.00     0.430 C 
ATOM     29  F   UNL A   1      32.074  27.508  21.693  1.00  0.00    -0.167 F 
ATOM     30  F   UNL A   1      34.064  26.986  22.431  1.00  0.00    -0.167 F 
ATOM     31  F   UNL A   1      33.106  25.754  20.920  1.00  0.00    -0.167 F 
ENDBRANCH  18  28
ENDBRANCH   6   8
ENDBRANCH   5   6
ENDBRANCH   4   5
ENDBRANCH   3   4
ENDBRANCH   2   3
ENDBRANCH   1   2
BRANCH   1  32
ATOM     32  C   UNL A   1      34.521  31.530  27.920  1.00  0.00     0.188 C 
BRANCH  32  33
ATOM     33  O   UNL A   1      35.221  32.722  27.601  1.00  0.00    -0.376 OA
BRANCH  33  34
ATOM     34  C   UNL A   1      35.430  33.705  28.603  1.00  0.00     0.202 C 
BRANCH  34  35
ATOM     35  C   UNL A   1      35.536  33.288  30.079  1.00  0.00     0.261 C 
BRANCH  35  36
ATOM     36  O   UNL A   1      36.800  32.744  30.498  1.00  0.00    -0.460 OA
BRANCH  36  37
ATOM     37  C   UNL A   1      36.789  31.429  30.825  1.00  0.00     0.338 C 
ATOM     38  O   UNL A   1      35.887  30.824  31.393  1.00  0.00    -0.246 OA
BRANCH  37  39
ATOM     39  C   UNL A   1      37.960  30.737  30.245  1.00  0.00     0.060 A 
ATOM     40  C   UNL A   1      38.862  30.132  31.122  1.00  0.00     0.016 A 
ATOM     41  C   UNL A   1      38.233  30.761  28.876  1.00  0.00     0.016 A 
ATOM     42  C   UNL A   1      40.043  29.571  30.629  1.00  0.00     0.010 A 
ATOM     43  C   UNL A   1      39.421  30.185  28.385  1.00  0.00     0.010 A 
ATOM     44  C   UNL A   1      40.342  29.586  29.257  1.00  0.00    -0.014 A 
BRANCH  44  45
ATOM     45  C   UNL A   1      41.689  29.132  28.791  1.00  0.00     0.031 A 
ATOM     46  C   UNL A   1      42.861  30.047  28.981  1.00  0.00     0.074 A 
ATOM     47  C   UNL A   1      41.897  27.922  28.232  1.00  0.00     0.049 A 
ATOM     48  N   UNL A   1      44.116  29.856  28.676  1.00  0.00    -0.248 NA
ATOM     49  C   UNL A   1      42.565  31.365  29.559  1.00  0.00     0.031 C 
ATOM     50  C   UNL A   1      40.844  26.964  27.953  1.00  0.00     0.029 A 
ATOM     51  N   UNL A   1      43.045  27.268  27.842  1.00  0.00    -0.354 N 
ATOM     52  C   UNL A   1      44.756  31.054  28.960  1.00  0.00     0.074 A 
ATOM     53  C   UNL A   1      43.751  31.951  29.494  1.00  0.00     0.031 C 
ATOM     54  C   UNL A   1      41.393  25.796  27.577  1.00  0.00     0.029 A 
ATOM     55  C   UNL A   1      42.841  25.949  27.479  1.00  0.00     0.049 A 
ATOM     56  H   UNL A   1      43.930  27.699  27.824  1.00  0.00     0.167 HD
ATOM     57  C   UNL A   1      46.053  31.387  28.757  1.00  0.00     0.037 A 
ATOM     58  C   UNL A   1      43.714  24.982  27.107  1.00  0.00     0.037 A 
ATOM     59  C   UNL A   1      47.040  30.496  28.204  1.00  0.00     0.049 A 
ATOM     60  C   UNL A   1      45.168  25.361  26.932  1.00  0.00     0.074 A 
ATOM     61  C   UNL A   1      48.391  30.727  28.014  1.00  0.00     0.029 A 
ATOM     62  N   UNL A   1      46.788  29.213  27.735  1.00  0.00    -0.354 N 
ATOM     63  N   UNL A   1      45.734  26.538  27.075  1.00  0.00    -0.248 NA
ATOM     64  C   UNL A   1      46.099  24.306  26.502  1.00  0.00     0.031 C 
ATOM     65  C   UNL A   1      48.947  29.598  27.401  1.00  0.00     0.029 A 
ATOM     66  C   UNL A   1      47.962  28.630  27.285  1.00  0.00     0.049 A 
ATOM     67  H   UNL A   1      45.902  28.781  27.724  1.00  0.00     0.167 HD
ATOM     68  C   UNL A   1      47.084  26.359  26.783  1.00  0.00     0.074 A 
ATOM     69  C   UNL A   1      47.251  24.962  26.442  1.00  0.00     0.031 C 
ATOM     70  C   UNL A   1      48.098  27.261  26.836  1.00  0.00     0.037 A 
BRANCH  57  71
ATOM     71  C   UNL A   1      46.441  32.808  29.063  1.00  0.00     0.058 A 
ATOM     72  C   UNL A   1      46.360  33.832  28.104  1.00  0.00     0.135 A 
ATOM     73  C   UNL A   1      46.956  33.137  30.328  1.00  0.00     0.135 A 
ATOM     74  F   UNL A   1      45.892  33.570  26.873  1.00  0.00    -0.206 F 
ATOM     75  C   UNL A   1      46.837  35.113  28.368  1.00  0.00     0.059 A 
ATOM     76  C   UNL A   1      47.404  34.420  30.625  1.00  0.00     0.059 A 
ATOM     77  F   UNL A   1      47.056  32.199  31.283  1.00  0.00    -0.206 F 
ATOM     78  C   UNL A   1      47.369  35.393  29.628  1.00  0.00     0.060 A 
BRANCH  78  79
ATOM     79  S   UNL A   1      48.046  37.036  29.935  1.00  0.00     0.124 S 
ATOM     80  O   UNL A   1      48.518  37.408  28.605  1.00  0.00    -0.237 OA
ATOM     81  O   UNL A   1      46.879  37.767  30.420  1.00  0.00    -0.237 OA
ATOM     82  O   UNL A   1      49.088  36.795  30.927  1.00  0.00    -0.744 OA
ENDBRANCH  78  79
ENDBRANCH  57  71
BRANCH  58  83
ATOM     83  C   UNL A   1      43.253  23.567  26.897  1.00  0.00     0.058 A 
ATOM     84  C   UNL A   1      43.168  23.009  25.609  1.00  0.00     0.135 A 
ATOM     85  C   UNL A   1      42.916  22.722  27.967  1.00  0.00     0.135 A 
ATOM     86  F   UNL A   1      43.397  23.766  24.529  1.00  0.00    -0.206 F 
ATOM     87  C   UNL A   1      42.807  21.681  25.389  1.00  0.00     0.059 A 
ATOM     88  C   UNL A   1      42.581  21.380  27.777  1.00  0.00     0.059 A 
ATOM     89  F   UNL A   1      42.944  23.188  29.225  1.00  0.00    -0.206 F 
ATOM     90  C   UNL A   1      42.532  20.866  26.483  1.00  0.00     0.060 A 
BRANCH  90  91
ATOM     91  S   UNL A   1      42.154  19.124  26.191  1.00  0.00     0.124 S 
ATOM     92  O   UNL A   1      43.109  18.784  25.143  1.00  0.00    -0.237 OA
ATOM     93  O   UNL A   1      42.407  18.532  27.501  1.00  0.00    -0.237 OA
ATOM     94  O   UNL A   1      40.752  19.149  25.785  1.00  0.00    -0.744 OA
ENDBRANCH  90  91
ENDBRANCH  58  83
BRANCH  70  95
ATOM     95  C   UNL A   1      49.479  26.777  26.472  1.00  0.00     0.058 A 
ATOM     96  C   UNL A   1      50.308  26.135  27.405  1.00  0.00     0.135 A 
ATOM     97  C   UNL A   1      49.953  26.899  25.154  1.00  0.00     0.135 A 
ATOM     98  F   UNL A   1      49.914  26.000  28.680  1.00  0.00    -0.206 F 
ATOM     99  C   UNL A   1      51.561  25.641  27.047  1.00  0.00     0.059 A 
ATOM    100  C   UNL A   1      51.187  26.385  24.767  1.00  0.00     0.059 A 
ATOM    101  F   UNL A   1      49.202  27.502  24.218  1.00  0.00    -0.206 F 
ATOM    102  C   UNL A   1      51.988  25.763  25.725  1.00  0.00     0.060 A 
BRANCH 102 103
ATOM    103  S   UNL A   1      53.588  25.064  25.263  1.00  0.00     0.124 S 
ATOM    104  O   UNL A   1      54.428  25.485  26.379  1.00  0.00    -0.237 OA
ATOM    105  O   UNL A   1      53.295  23.636  25.193  1.00  0.00    -0.237 OA
ATOM    106  O   UNL A   1      53.882  25.701  23.982  1.00  0.00    -0.744 OA
ENDBRANCH 102 103
ENDBRANCH  70  95
ENDBRANCH  44  45
ENDBRANCH  37  39
ENDBRANCH  36  37
ENDBRANCH  35  36
ENDBRANCH  34  35
ENDBRANCH  33  34
ENDBRANCH  32  33
ENDBRANCH   1  32
TORSDOF 24
ENDMDL
MODEL 2
REMARK VINA RESULT:     -11.2      5.868      7.873
REMARK SMILES CCSc1ccc(-c2cc(Cl)cc3c2O[C@H](C(F)(F)F)C(C(=O)OCCOCCOCCOC(=O)c2ccc(-c4c5nc(c(-c6c(F)cc(S(=O)(=O)[O-])cc6F)c6ccc([nH]6)c(-c6c(F)cc(S(=O)(=O)[O-])cc6F)c6nc(c(-c7c(F)cc(S(=O)(=O)[O-])cc7F)c7ccc4[nH]7)C=C6)C=C5)cc2)=C3)cc1
REMARK SMILES IDX 28 1 27 2 26 3 25 4 24 5 22 6 23 7 21 8 8 9 9 10 14 11 10 12
REMARK SMILES IDX 13 13 15 14 11 15 12 16 102 17 16 18 7 19 4 20 5 21 104 22
REMARK SMILES IDX 6 23 103 24 3 25 2 26 1 27 17 28 18 29 19 30 20 31 29 32
REMARK SMILES IDX 30 33 31 34 32 35 33 36 34 37 35 38 36 39 37 40 101 41 38 42
REMARK SMILES IDX 100 43 39 44 40 45 41 46 94 47 42 48 99 49 93 50 95 51 43 52
REMARK SMILES IDX 98 53 92 54 91 55 44 57 78 58 57 59 77 60 58 61 61 62 76 63
REMARK SMILES IDX 96 64 59 65 60 66 75 68 97 69 62 70 45 71 46 72 55 73 47 74
REMARK SMILES IDX 48 75 54 76 56 77 49 78 50 79 51 80 52 81 53 82 79 83 80 84
REMARK SMILES IDX 89 85 81 86 82 87 88 88 90 89 83 90 84 91 85 92 86 93 87 94
REMARK SMILES IDX 63 95 64 96 73 97 65 98 66 99 72 100 74 101 67 102 68 103
REMARK SMILES IDX 69 104 70 105 71 106
REMARK H PARENT 95 56 61 67
REMARK Flexibility Score: inf
ROOT
ATOM      1  C   UNL A   1      34.888  30.968  27.794  1.00  0.00     0.188 C 
ENDROOT
BRANCH   1   2
ATOM      2  O   UNL A   1      33.983  29.894  27.603  1.00  0.00    -0.376 OA
BRANCH   2   3
ATOM      3  C   UNL A   1      32.732  30.241  27.017  1.00  0.00     0.202 C 
BRANCH   3   4
ATOM      4  C   UNL A   1      31.824  29.043  26.705  1.00  0.00     0.261 C 
BRANCH   4   5
ATOM      5  O   UNL A   1      31.874  28.680  25.299  1.00  0.00    -0.460 OA
BRANCH   5   6
ATOM      6  C   UNL A   1      31.419  27.439  25.020  1.00  0.00     0.338 C 
ATOM      7  O   UNL A   1      30.239  27.117  25.068  1.00  0.00    -0.246 OA
BRANCH   6   8
ATOM      8  C   UNL A   1      32.486  26.524  24.529  1.00  0.00     0.087 C 
ATOM      9  C   UNL A   1      32.170  22.400  24.480  1.00  0.00     0.026 A 
ATOM     10  C   UNL A   1      31.164  22.129  25.436  1.00  0.00     0.033 A 
ATOM     11  C   UNL A   1      32.593  23.732  24.435  1.00  0.00     0.135 A 
ATOM     12  C   UNL A   1      30.744  23.050  26.394  1.00  0.00     0.042 A 
ATOM     13  C   UNL A   1      32.367  24.558  25.558  1.00  0.00     0.019 A 
ATOM     14  O   UNL A   1      33.065  24.390  23.299  1.00  0.00    -0.475 OA
ATOM     15  Cl  UNL A   1      29.449  22.692  27.459  1.00  0.00    -0.084 Cl
ATOM     16  C   UNL A   1      31.413  24.247  26.515  1.00  0.00     0.032 A 
ATOM     17  C   UNL A   1      33.036  25.876  25.569  1.00  0.00     0.027 C 
ATOM     18  C   UNL A   1      32.452  25.771  23.199  1.00  0.00     0.316 C 
BRANCH   9  19
ATOM     19  C   UNL A   1      32.836  21.170  23.951  1.00  0.00    -0.015 A 
ATOM     20  C   UNL A   1      33.411  18.343  23.813  1.00  0.00     0.007 A 
ATOM     21  C   UNL A   1      32.443  18.917  22.998  1.00  0.00     0.015 A 
ATOM     22  C   UNL A   1      34.139  19.204  24.647  1.00  0.00     0.015 A 
ATOM     23  C   UNL A   1      32.178  20.303  23.061  1.00  0.00     0.010 A 
ATOM     24  C   UNL A   1      33.870  20.589  24.705  1.00  0.00     0.010 A 
BRANCH  20  25
ATOM     25  S   UNL A   1      33.648  16.585  24.035  1.00  0.00    -0.126 SA
BRANCH  25  26
ATOM     26  C   UNL A   1      32.893  16.148  25.640  1.00  0.00     0.071 C 
ATOM     27  C   UNL A   1      32.383  14.724  25.736  1.00  0.00     0.016 C 
ENDBRANCH  25  26
ENDBRANCH  20  25
ENDBRANCH   9  19
BRANCH  18  28
ATOM     28  C   UNL A   1      33.131  26.643  22.136  1.00  0.00     0.430 C 
ATOM     29  F   UNL A   1      32.941  26.170  20.885  1.00  0.00    -0.167 F 
ATOM     30  F   UNL A   1      32.694  27.921  22.170  1.00  0.00    -0.167 F 
ATOM     31  F   UNL A   1      34.475  26.689  22.340  1.00  0.00    -0.167 F 
ENDBRANCH  18  28
ENDBRANCH   6   8
ENDBRANCH   5   6
ENDBRANCH   4   5
ENDBRANCH   3   4
ENDBRANCH   2   3
ENDBRANCH   1   2
BRANCH   1  32
ATOM     32  C   UNL A   1      34.407  32.052  28.786  1.00  0.00     0.188 C 
BRANCH  32  33
ATOM     33  O   UNL A   1      34.928  33.371  28.738  1.00  0.00    -0.376 OA
BRANCH  33  34
ATOM     34  C   UNL A   1      34.201  34.389  28.070  1.00  0.00     0.202 C 
BRANCH  34  35
ATOM     35  C   UNL A   1      33.383  35.408  28.880  1.00  0.00     0.261 C 
BRANCH  35  36
ATOM     36  O   UNL A   1      32.648  34.887  30.001  1.00  0.00    -0.460 OA
BRANCH  36  37
ATOM     37  C   UNL A   1      32.932  35.455  31.199  1.00  0.00     0.338 C 
ATOM     38  O   UNL A   1      32.282  36.325  31.767  1.00  0.00    -0.246 OA
BRANCH  37  39
ATOM     39  C   UNL A   1      34.063  34.762  31.851  1.00  0.00     0.060 A 
ATOM     40  C   UNL A   1      35.263  35.462  31.997  1.00  0.00     0.016 A 
ATOM     41  C   UNL A   1      33.994  33.418  32.225  1.00  0.00     0.016 A 
ATOM     42  C   UNL A   1      36.393  34.810  32.497  1.00  0.00     0.010 A 
ATOM     43  C   UNL A   1      35.135  32.771  32.738  1.00  0.00     0.010 A 
ATOM     44  C   UNL A   1      36.350  33.459  32.877  1.00  0.00    -0.014 A 
BRANCH  44  45
ATOM     45  C   UNL A   1      37.617  32.755  33.243  1.00  0.00     0.031 A 
ATOM     46  C   UNL A   1      38.194  32.978  34.608  1.00  0.00     0.074 A 
ATOM     47  C   UNL A   1      38.248  31.907  32.405  1.00  0.00     0.049 A 
ATOM     48  N   UNL A   1      39.264  32.460  35.148  1.00  0.00    -0.248 NA
ATOM     49  C   UNL A   1      37.484  33.942  35.460  1.00  0.00     0.031 C 
ATOM     50  C   UNL A   1      37.820  31.639  31.045  1.00  0.00     0.029 A 
ATOM     51  N   UNL A   1      39.340  31.083  32.571  1.00  0.00    -0.354 N 
ATOM     52  C   UNL A   1      39.401  33.084  36.380  1.00  0.00     0.074 A 
ATOM     53  C   UNL A   1      38.281  33.994  36.517  1.00  0.00     0.031 C 
ATOM     54  C   UNL A   1      38.536  30.618  30.546  1.00  0.00     0.029 A 
ATOM     55  C   UNL A   1      39.558  30.223  31.510  1.00  0.00     0.049 A 
ATOM     56  H   UNL A   1      39.912  31.103  33.372  1.00  0.00     0.167 HD
ATOM     57  C   UNL A   1      40.390  32.940  37.293  1.00  0.00     0.037 A 
ATOM     58  C   UNL A   1      40.474  29.240  31.333  1.00  0.00     0.037 A 
ATOM     59  C   UNL A   1      41.512  32.050  37.138  1.00  0.00     0.049 A 
ATOM     60  C   UNL A   1      41.544  29.062  32.388  1.00  0.00     0.074 A 
ATOM     61  C   UNL A   1      42.534  31.797  38.036  1.00  0.00     0.029 A 
ATOM     62  N   UNL A   1      41.775  31.282  36.011  1.00  0.00    -0.354 N 
ATOM     63  N   UNL A   1      41.738  29.756  33.487  1.00  0.00    -0.248 NA
ATOM     64  C   UNL A   1      42.546  28.009  32.169  1.00  0.00     0.031 C 
ATOM     65  C   UNL A   1      43.430  30.902  37.439  1.00  0.00     0.029 A 
ATOM     66  C   UNL A   1      42.926  30.532  36.202  1.00  0.00     0.049 A 
ATOM     67  H   UNL A   1      41.225  31.274  35.193  1.00  0.00     0.167 HD
ATOM     68  C   UNL A   1      42.860  29.206  34.101  1.00  0.00     0.074 A 
ATOM     69  C   UNL A   1      43.313  28.129  33.246  1.00  0.00     0.031 C 
ATOM     70  C   UNL A   1      43.435  29.535  35.286  1.00  0.00     0.037 A 
BRANCH  57  71
ATOM     71  C   UNL A   1      40.331  33.836  38.500  1.00  0.00     0.058 A 
ATOM     72  C   UNL A   1      39.530  33.543  39.617  1.00  0.00     0.135 A 
ATOM     73  C   UNL A   1      41.053  35.042  38.514  1.00  0.00     0.135 A 
ATOM     74  F   UNL A   1      38.805  32.412  39.649  1.00  0.00    -0.206 F 
ATOM     75  C   UNL A   1      39.394  34.442  40.670  1.00  0.00     0.059 A 
ATOM     76  C   UNL A   1      40.961  35.937  39.573  1.00  0.00     0.059 A 
ATOM     77  F   UNL A   1      41.836  35.374  37.475  1.00  0.00    -0.206 F 
ATOM     78  C   UNL A   1      40.105  35.642  40.633  1.00  0.00     0.060 A 
BRANCH  78  79
ATOM     79  S   UNL A   1      39.870  36.829  41.971  1.00  0.00     0.124 S 
ATOM     80  O   UNL A   1      41.238  36.999  42.450  1.00  0.00    -0.237 OA
ATOM     81  O   UNL A   1      39.296  37.975  41.273  1.00  0.00    -0.237 OA
ATOM     82  O   UNL A   1      38.967  36.137  42.884  1.00  0.00    -0.744 OA
ENDBRANCH  78  79
ENDBRANCH  57  71
BRANCH  58  83
ATOM     83  C   UNL A   1      40.414  28.338  30.133  1.00  0.00     0.058 A 
ATOM     84  C   UNL A   1      41.266  28.530  29.031  1.00  0.00     0.135 A 
ATOM     85  C   UNL A   1      39.535  27.245  30.060  1.00  0.00     0.135 A 
ATOM     86  F   UNL A   1      42.081  29.590  28.983  1.00  0.00    -0.206 F 
ATOM     87  C   UNL A   1      41.278  27.670  27.933  1.00  0.00     0.059 A 
ATOM     88  C   UNL A   1      39.547  26.351  28.988  1.00  0.00     0.059 A 
ATOM     89  F   UNL A   1      38.670  27.012  31.059  1.00  0.00    -0.206 F 
ATOM     90  C   UNL A   1      40.425  26.570  27.929  1.00  0.00     0.060 A 
BRANCH  90  91
ATOM     91  S   UNL A   1      40.514  25.414  26.544  1.00  0.00     0.124 S 
ATOM     92  O   UNL A   1      40.937  26.285  25.455  1.00  0.00    -0.237 OA
ATOM     93  O   UNL A   1      41.506  24.450  27.012  1.00  0.00    -0.237 OA
ATOM     94  O   UNL A   1      39.151  24.899  26.449  1.00  0.00    -0.744 OA
ENDBRANCH  90  91
ENDBRANCH  58  83
BRANCH  70  95
ATOM     95  C   UNL A   1      44.652  28.751  35.711  1.00  0.00     0.058 A 
ATOM     96  C   UNL A   1      44.546  27.576  36.471  1.00  0.00     0.135 A 
ATOM     97  C   UNL A   1      45.936  29.146  35.295  1.00  0.00     0.135 A 
ATOM     98  F   UNL A   1      43.348  27.157  36.906  1.00  0.00    -0.206 F 
ATOM     99  C   UNL A   1      45.670  26.827  36.813  1.00  0.00     0.059 A 
ATOM    100  C   UNL A   1      47.068  28.396  35.599  1.00  0.00     0.059 A 
ATOM    101  F   UNL A   1      46.097  30.260  34.564  1.00  0.00    -0.206 F 
ATOM    102  C   UNL A   1      46.925  27.240  36.365  1.00  0.00     0.060 A 
BRANCH 102 103
ATOM    103  S   UNL A   1      48.365  26.225  36.765  1.00  0.00     0.124 S 
ATOM    104  O   UNL A   1      49.336  27.235  37.170  1.00  0.00    -0.237 OA
ATOM    105  O   UNL A   1      47.856  25.370  37.834  1.00  0.00    -0.237 OA
ATOM    106  O   UNL A   1      48.659  25.540  35.510  1.00  0.00    -0.744 OA
ENDBRANCH 102 103
ENDBRANCH  70  95
ENDBRANCH  44  45
ENDBRANCH  37  39
ENDBRANCH  36  37
ENDBRANCH  35  36
ENDBRANCH  34  35
ENDBRANCH  33  34
ENDBRANCH  32  33
ENDBRANCH   1  32
TORSDOF 24
ENDMDL
MODEL 3
REMARK VINA RESULT:     -11.1      6.074      8.267
REMARK SMILES CCSc1ccc(-c2cc(Cl)cc3c2O[C@H](C(F)(F)F)C(C(=O)OCCOCCOCCOC(=O)c2ccc(-c4c5nc(c(-c6c(F)cc(S(=O)(=O)[O-])cc6F)c6ccc([nH]6)c(-c6c(F)cc(S(=O)(=O)[O-])cc6F)c6nc(c(-c7c(F)cc(S(=O)(=O)[O-])cc7F)c7ccc4[nH]7)C=C6)C=C5)cc2)=C3)cc1
REMARK SMILES IDX 28 1 27 2 26 3 25 4 24 5 22 6 23 7 21 8 8 9 9 10 14 11 10 12
REMARK SMILES IDX 13 13 15 14 11 15 12 16 102 17 16 18 7 19 4 20 5 21 104 22
REMARK SMILES IDX 6 23 103 24 3 25 2 26 1 27 17 28 18 29 19 30 20 31 29 32
REMARK SMILES IDX 30 33 31 34 32 35 33 36 34 37 35 38 36 39 37 40 101 41 38 42
REMARK SMILES IDX 100 43 39 44 40 45 41 46 94 47 42 48 99 49 93 50 95 51 43 52
REMARK SMILES IDX 98 53 92 54 91 55 44 57 78 58 57 59 77 60 58 61 61 62 76 63
REMARK SMILES IDX 96 64 59 65 60 66 75 68 97 69 62 70 45 71 46 72 55 73 47 74
REMARK SMILES IDX 48 75 54 76 56 77 49 78 50 79 51 80 52 81 53 82 79 83 80 84
REMARK SMILES IDX 89 85 81 86 82 87 88 88 90 89 83 90 84 91 85 92 86 93 87 94
REMARK SMILES IDX 63 95 64 96 73 97 65 98 66 99 72 100 74 101 67 102 68 103
REMARK SMILES IDX 69 104 70 105 71 106
REMARK H PARENT 95 56 61 67
REMARK Flexibility Score: inf
ROOT
ATOM      1  C   UNL A   1      35.102  31.189  28.152  1.00  0.00     0.188 C 
ENDROOT
BRANCH   1   2
ATOM      2  O   UNL A   1      34.152  30.295  27.598  1.00  0.00    -0.376 OA
BRANCH   2   3
ATOM      3  C   UNL A   1      32.959  30.896  27.104  1.00  0.00     0.202 C 
BRANCH   3   4
ATOM      4  C   UNL A   1      31.795  29.916  26.895  1.00  0.00     0.261 C 
BRANCH   4   5
ATOM      5  O   UNL A   1      31.500  29.723  25.486  1.00  0.00    -0.460 OA
BRANCH   5   6
ATOM      6  C   UNL A   1      31.417  28.431  25.098  1.00  0.00     0.338 C 
ATOM      7  O   UNL A   1      30.363  27.846  24.888  1.00  0.00    -0.246 OA
BRANCH   6   8
ATOM      8  C   UNL A   1      32.748  27.816  24.835  1.00  0.00     0.087 C 
ATOM      9  C   UNL A   1      33.433  23.740  24.672  1.00  0.00     0.026 A 
ATOM     10  C   UNL A   1      32.347  23.188  25.389  1.00  0.00     0.033 A 
ATOM     11  C   UNL A   1      33.529  25.134  24.734  1.00  0.00     0.135 A 
ATOM     12  C   UNL A   1      31.535  23.928  26.246  1.00  0.00     0.042 A 
ATOM     13  C   UNL A   1      32.890  25.816  25.793  1.00  0.00     0.019 A 
ATOM     14  O   UNL A   1      34.054  25.951  23.732  1.00  0.00    -0.475 OA
ATOM     15  Cl  UNL A   1      30.171  23.219  27.007  1.00  0.00    -0.084 Cl
ATOM     16  C   UNL A   1      31.862  25.236  26.520  1.00  0.00     0.032 A 
ATOM     17  C   UNL A   1      33.212  27.249  25.960  1.00  0.00     0.027 C 
ATOM     18  C   UNL A   1      33.166  27.159  23.520  1.00  0.00     0.316 C 
BRANCH   9  19
ATOM     19  C   UNL A   1      34.465  22.730  24.283  1.00  0.00    -0.015 A 
ATOM     20  C   UNL A   1      36.829  21.110  24.647  1.00  0.00     0.007 A 
ATOM     21  C   UNL A   1      35.568  20.615  24.955  1.00  0.00     0.015 A 
ATOM     22  C   UNL A   1      36.893  22.395  24.090  1.00  0.00     0.015 A 
ATOM     23  C   UNL A   1      34.415  21.408  24.761  1.00  0.00     0.010 A 
ATOM     24  C   UNL A   1      35.738  23.183  23.896  1.00  0.00     0.010 A 
BRANCH  20  25
ATOM     25  S   UNL A   1      38.372  20.330  25.103  1.00  0.00    -0.126 SA
BRANCH  25  26
ATOM     26  C   UNL A   1      39.320  21.556  26.069  1.00  0.00     0.071 C 
ATOM     27  C   UNL A   1      40.621  21.041  26.649  1.00  0.00     0.016 C 
ENDBRANCH  25  26
ENDBRANCH  20  25
ENDBRANCH   9  19
BRANCH  18  28
ATOM     28  C   UNL A   1      33.821  28.226  22.636  1.00  0.00     0.430 C 
ATOM     29  F   UNL A   1      34.232  27.729  21.448  1.00  0.00    -0.167 F 
ATOM     30  F   UNL A   1      32.992  29.264  22.390  1.00  0.00    -0.167 F 
ATOM     31  F   UNL A   1      34.920  28.746  23.247  1.00  0.00    -0.167 F 
ENDBRANCH  18  28
ENDBRANCH   6   8
ENDBRANCH   5   6
ENDBRANCH   4   5
ENDBRANCH   3   4
ENDBRANCH   2   3
ENDBRANCH   1   2
BRANCH   1  32
ATOM     32  C   UNL A   1      34.512  32.256  29.101  1.00  0.00     0.188 C 
BRANCH  32  33
ATOM     33  O   UNL A   1      34.896  33.618  28.999  1.00  0.00    -0.376 OA
BRANCH  33  34
ATOM     34  C   UNL A   1      34.040  34.543  28.347  1.00  0.00     0.202 C 
BRANCH  34  35
ATOM     35  C   UNL A   1      33.172  35.503  29.175  1.00  0.00     0.261 C 
BRANCH  35  36
ATOM     36  O   UNL A   1      32.525  34.941  30.331  1.00  0.00    -0.460 OA
BRANCH  36  37
ATOM     37  C   UNL A   1      32.828  35.530  31.513  1.00  0.00     0.338 C 
ATOM     38  O   UNL A   1      32.180  36.399  32.084  1.00  0.00    -0.246 OA
BRANCH  37  39
ATOM     39  C   UNL A   1      33.983  34.860  32.149  1.00  0.00     0.060 A 
ATOM     40  C   UNL A   1      35.209  35.528  32.145  1.00  0.00     0.016 A 
ATOM     41  C   UNL A   1      33.902  33.560  32.653  1.00  0.00     0.016 A 
ATOM     42  C   UNL A   1      36.353  34.886  32.626  1.00  0.00     0.010 A 
ATOM     43  C   UNL A   1      35.058  32.923  33.145  1.00  0.00     0.010 A 
ATOM     44  C   UNL A   1      36.299  33.578  33.134  1.00  0.00    -0.014 A 
BRANCH  44  45
ATOM     45  C   UNL A   1      37.569  32.867  33.478  1.00  0.00     0.031 A 
ATOM     46  C   UNL A   1      38.175  33.093  34.830  1.00  0.00     0.074 A 
ATOM     47  C   UNL A   1      38.176  32.010  32.632  1.00  0.00     0.049 A 
ATOM     48  N   UNL A   1      39.253  32.570  35.350  1.00  0.00    -0.248 NA
ATOM     49  C   UNL A   1      37.491  34.067  35.691  1.00  0.00     0.031 C 
ATOM     50  C   UNL A   1      37.717  31.738  31.282  1.00  0.00     0.029 A 
ATOM     51  N   UNL A   1      39.265  31.179  32.779  1.00  0.00    -0.354 N 
ATOM     52  C   UNL A   1      39.420  33.200  36.575  1.00  0.00     0.074 A 
ATOM     53  C   UNL A   1      38.310  34.118  36.730  1.00  0.00     0.031 C 
ATOM     54  C   UNL A   1      38.415  30.709  30.774  1.00  0.00     0.029 A 
ATOM     55  C   UNL A   1      39.455  30.312  31.719  1.00  0.00     0.049 A 
ATOM     56  H   UNL A   1      39.854  31.199  33.568  1.00  0.00     0.167 HD
ATOM     57  C   UNL A   1      40.427  33.054  37.469  1.00  0.00     0.037 A 
ATOM     58  C   UNL A   1      40.360  29.322  31.528  1.00  0.00     0.037 A 
ATOM     59  C   UNL A   1      41.539  32.154  37.295  1.00  0.00     0.049 A 
ATOM     60  C   UNL A   1      41.450  29.141  32.561  1.00  0.00     0.074 A 
ATOM     61  C   UNL A   1      42.577  31.898  38.172  1.00  0.00     0.029 A 
ATOM     62  N   UNL A   1      41.773  31.379  36.166  1.00  0.00    -0.354 N 
ATOM     63  N   UNL A   1      41.672  29.839  33.652  1.00  0.00    -0.248 NA
ATOM     64  C   UNL A   1      42.440  28.080  32.327  1.00  0.00     0.031 C 
ATOM     65  C   UNL A   1      43.455  30.994  37.562  1.00  0.00     0.029 A 
ATOM     66  C   UNL A   1      42.922  30.621  36.338  1.00  0.00     0.049 A 
ATOM     67  H   UNL A   1      41.206  31.370  35.361  1.00  0.00     0.167 HD
ATOM     68  C   UNL A   1      42.803  29.284  34.246  1.00  0.00     0.074 A 
ATOM     69  C   UNL A   1      43.230  28.200  33.387  1.00  0.00     0.031 C 
ATOM     70  C   UNL A   1      43.405  29.616  35.417  1.00  0.00     0.037 A 
BRANCH  57  71
ATOM     71  C   UNL A   1      40.399  33.957  38.672  1.00  0.00     0.058 A 
ATOM     72  C   UNL A   1      39.656  33.651  39.824  1.00  0.00     0.135 A 
ATOM     73  C   UNL A   1      41.091  35.180  38.646  1.00  0.00     0.135 A 
ATOM     74  F   UNL A   1      38.962  32.503  39.896  1.00  0.00    -0.206 F 
ATOM     75  C   UNL A   1      39.545  34.554  40.877  1.00  0.00     0.059 A 
ATOM     76  C   UNL A   1      41.024  36.080  39.703  1.00  0.00     0.059 A 
ATOM     77  F   UNL A   1      41.818  35.523  37.571  1.00  0.00    -0.206 F 
ATOM     78  C   UNL A   1      40.224  35.771  40.801  1.00  0.00     0.060 A 
BRANCH  78  79
ATOM     79  S   UNL A   1      40.019  36.961  42.142  1.00  0.00     0.124 S 
ATOM     80  O   UNL A   1      41.408  37.261  42.477  1.00  0.00    -0.237 OA
ATOM     81  O   UNL A   1      39.278  38.038  41.492  1.00  0.00    -0.237 OA
ATOM     82  O   UNL A   1      39.277  36.213  43.150  1.00  0.00    -0.744 OA
ENDBRANCH  78  79
ENDBRANCH  57  71
BRANCH  58  83
ATOM     83  C   UNL A   1      40.268  28.414  30.335  1.00  0.00     0.058 A 
ATOM     84  C   UNL A   1      41.084  28.606  29.205  1.00  0.00     0.135 A 
ATOM     85  C   UNL A   1      39.395  27.315  30.293  1.00  0.00     0.135 A 
ATOM     86  F   UNL A   1      41.890  29.671  29.127  1.00  0.00    -0.206 F 
ATOM     87  C   UNL A   1      41.067  27.741  28.111  1.00  0.00     0.059 A 
ATOM     88  C   UNL A   1      39.379  26.416  29.225  1.00  0.00     0.059 A 
ATOM     89  F   UNL A   1      38.563  27.080  31.320  1.00  0.00    -0.206 F 
ATOM     90  C   UNL A   1      40.222  26.636  28.138  1.00  0.00     0.060 A 
BRANCH  90  91
ATOM     91  S   UNL A   1      40.275  25.474  26.757  1.00  0.00     0.124 S 
ATOM     92  O   UNL A   1      41.225  24.479  27.239  1.00  0.00    -0.237 OA
ATOM     93  O   UNL A   1      38.884  25.038  26.669  1.00  0.00    -0.237 OA
ATOM     94  O   UNL A   1      40.735  26.299  25.643  1.00  0.00    -0.744 OA
ENDBRANCH  90  91
ENDBRANCH  58  83
BRANCH  70  95
ATOM     95  C   UNL A   1      44.624  28.826  35.820  1.00  0.00     0.058 A 
ATOM     96  C   UNL A   1      45.922  29.249  35.494  1.00  0.00     0.135 A 
ATOM     97  C   UNL A   1      44.496  27.664  36.602  1.00  0.00     0.135 A 
ATOM     98  F   UNL A   1      46.107  30.345  34.741  1.00  0.00    -0.206 F 
ATOM     99  C   UNL A   1      47.047  28.545  35.917  1.00  0.00     0.059 A 
ATOM    100  C   UNL A   1      45.606  26.962  37.062  1.00  0.00     0.059 A 
ATOM    101  F   UNL A   1      43.279  27.212  36.946  1.00  0.00    -0.206 F 
ATOM    102  C   UNL A   1      46.879  27.407  36.708  1.00  0.00     0.060 A 
BRANCH 102 103
ATOM    103  S   UNL A   1      48.348  26.538  37.300  1.00  0.00     0.124 S 
ATOM    104  O   UNL A   1      47.775  25.623  38.281  1.00  0.00    -0.237 OA
ATOM    105  O   UNL A   1      48.857  25.922  36.078  1.00  0.00    -0.237 OA
ATOM    106  O   UNL A   1      49.178  27.607  37.848  1.00  0.00    -0.744 OA
ENDBRANCH 102 103
ENDBRANCH  70  95
ENDBRANCH  44  45
ENDBRANCH  37  39
ENDBRANCH  36  37
ENDBRANCH  35  36
ENDBRANCH  34  35
ENDBRANCH  33  34
ENDBRANCH  32  33
ENDBRANCH   1  32
TORSDOF 24
ENDMDL
