MODEL 1
REMARK VINA RESULT:      -9.6      0.000      0.000
REMARK SMILES Cc1cc(NC(=O)[C@@H]2[C@@H](C(=O)OCCOCCOCCOC(=O)c3ccc(-c4c5nc(c(-c6c(F)cc(S(=O)(=O)[O-])cc6F)c6ccc([nH]6)c(-c6c(F)cc(S(=O)(=O)[O-])cc6F)c6nc(c(-c7c(F)cc(S(=O)(=O)[O-])cc7F)c7ccc4[nH]7)C=C6)C=C5)cc3)C2(C)C)on1
REMARK SMILES IDX 17 1 16 2 15 3 14 4 13 5 12 6 10 7 11 8 9 9 8 10 90 11 91 12
REMARK SMILES IDX 92 13 6 14 5 15 7 17 4 18 1 19 2 20 3 21 94 22 93 23 18 24
REMARK SMILES IDX 19 25 20 26 21 27 22 28 23 29 24 30 25 31 89 32 26 33 88 34
REMARK SMILES IDX 27 35 28 36 29 37 82 38 30 39 87 40 81 41 83 42 31 43 86 44
REMARK SMILES IDX 80 45 79 46 32 48 66 49 45 50 65 51 46 52 49 53 64 54 84 55
REMARK SMILES IDX 47 56 48 57 63 59 85 60 50 61 33 62 34 63 43 64 35 65 36 66
REMARK SMILES IDX 42 67 44 68 37 69 38 70 39 71 40 72 41 73 67 74 68 75 77 76
REMARK SMILES IDX 69 77 70 78 76 79 78 80 71 81 72 82 73 83 74 84 75 85 51 86
REMARK SMILES IDX 52 87 61 88 53 89 54 90 60 91 62 92 55 93 56 94 57 95 58 96
REMARK SMILES IDX 59 97
REMARK H PARENT 5 16 83 47 49 58
REMARK Flexibility Score: inf
ROOT
ATOM      1  C   UNL A   1      42.241  18.925  26.227  1.00  0.00     0.188 C 
ENDROOT
BRANCH   1   2
ATOM      2  C   UNL A   1      43.418  17.936  26.300  1.00  0.00     0.188 C 
BRANCH   2   3
ATOM      3  O   UNL A   1      44.529  18.148  25.431  1.00  0.00    -0.376 OA
BRANCH   3   4
ATOM      4  C   UNL A   1      44.445  19.187  24.453  1.00  0.00     0.202 C 
BRANCH   4   5
ATOM      5  C   UNL A   1      44.934  20.578  24.867  1.00  0.00     0.261 C 
BRANCH   5   6
ATOM      6  O   UNL A   1      43.981  21.572  24.470  1.00  0.00    -0.463 OA
BRANCH   6   7
ATOM      7  C   UNL A   1      44.467  22.828  24.351  1.00  0.00     0.310 C 
ATOM      8  O   UNL A   1      45.277  23.205  23.518  1.00  0.00    -0.252 OA
BRANCH   7   9
ATOM      9  C   UNL A   1      43.802  23.781  25.280  1.00  0.00     0.118 C 
ATOM     10  C   UNL A   1      44.524  25.071  25.537  1.00  0.00     0.100 C 
ATOM     11  C   UNL A   1      44.263  24.141  26.707  1.00  0.00    -0.009 C 
ATOM     12  C   UNL A   1      45.478  23.457  27.304  1.00  0.00     0.013 C 
ATOM     13  C   UNL A   1      43.226  24.436  27.765  1.00  0.00     0.013 C 
BRANCH  10  14
ATOM     14  C   UNL A   1      44.009  26.405  25.133  1.00  0.00     0.231 C 
ATOM     15  N   UNL A   1      44.645  27.613  25.084  1.00  0.00    -0.294 N 
ATOM     16  H   UNL A   1      44.176  28.271  24.522  1.00  0.00     0.173 HD
ATOM     17  O   UNL A   1      42.867  26.409  24.662  1.00  0.00    -0.274 OA
BRANCH  15  18
ATOM     18  C   UNL A   1      45.785  28.105  25.641  1.00  0.00     0.231 A 
ATOM     19  C   UNL A   1      48.352  28.885  28.116  1.00  0.00     0.070 C 
ATOM     20  C   UNL A   1      47.463  28.665  26.953  1.00  0.00     0.083 A 
ATOM     21  C   UNL A   1      46.323  27.834  26.876  1.00  0.00     0.096 A 
ATOM     22  N   UNL A   1      47.657  29.324  25.804  1.00  0.00    -0.083 NA
ATOM     23  O   UNL A   1      46.614  28.939  24.975  1.00  0.00    -0.338 OA
ENDBRANCH  15  18
ENDBRANCH  10  14
ENDBRANCH   7   9
ENDBRANCH   6   7
ENDBRANCH   5   6
ENDBRANCH   4   5
ENDBRANCH   3   4
ENDBRANCH   2   3
ENDBRANCH   1   2
BRANCH   1  24
ATOM     24  O   UNL A   1      42.114  19.804  27.318  1.00  0.00    -0.376 OA
BRANCH  24  25
ATOM     25  C   UNL A   1      41.941  21.194  27.127  1.00  0.00     0.202 C 
BRANCH  25  26
ATOM     26  C   UNL A   1      40.899  21.858  26.209  1.00  0.00     0.261 C 
BRANCH  26  27
ATOM     27  O   UNL A   1      39.637  22.224  26.762  1.00  0.00    -0.460 OA
BRANCH  27  28
ATOM     28  C   UNL A   1      38.988  23.263  26.184  1.00  0.00     0.338 C 
ATOM     29  O   UNL A   1      38.172  23.217  25.284  1.00  0.00    -0.246 OA
BRANCH  28  30
ATOM     30  C   UNL A   1      39.323  24.461  26.981  1.00  0.00     0.060 A 
ATOM     31  C   UNL A   1      40.051  25.499  26.387  1.00  0.00     0.016 A 
ATOM     32  C   UNL A   1      38.863  24.574  28.295  1.00  0.00     0.016 A 
ATOM     33  C   UNL A   1      40.317  26.664  27.111  1.00  0.00     0.010 A 
ATOM     34  C   UNL A   1      39.151  25.728  29.024  1.00  0.00     0.010 A 
ATOM     35  C   UNL A   1      39.886  26.772  28.440  1.00  0.00    -0.014 A 
BRANCH  35  36
ATOM     36  C   UNL A   1      40.289  27.925  29.278  1.00  0.00     0.031 A 
ATOM     37  C   UNL A   1      41.573  27.843  30.050  1.00  0.00     0.074 A 
ATOM     38  C   UNL A   1      39.494  29.003  29.391  1.00  0.00     0.049 A 
ATOM     39  N   UNL A   1      42.063  28.671  30.934  1.00  0.00    -0.248 NA
ATOM     40  C   UNL A   1      42.416  26.664  29.792  1.00  0.00     0.031 C 
ATOM     41  C   UNL A   1      38.247  29.214  28.658  1.00  0.00     0.029 A 
ATOM     42  N   UNL A   1      39.611  30.115  30.186  1.00  0.00    -0.354 N 
ATOM     43  C   UNL A   1      43.264  28.111  31.349  1.00  0.00     0.074 A 
ATOM     44  C   UNL A   1      43.423  26.865  30.629  1.00  0.00     0.031 C 
ATOM     45  C   UNL A   1      37.703  30.379  29.051  1.00  0.00     0.029 A 
ATOM     46  C   UNL A   1      38.541  30.972  30.093  1.00  0.00     0.049 A 
ATOM     47  H   UNL A   1      40.387  30.281  30.769  1.00  0.00     0.167 HD
ATOM     48  C   UNL A   1      44.150  28.592  32.252  1.00  0.00     0.037 A 
ATOM     49  C   UNL A   1      38.257  32.088  30.792  1.00  0.00     0.037 A 
ATOM     50  C   UNL A   1      43.979  29.826  32.972  1.00  0.00     0.049 A 
ATOM     51  C   UNL A   1      39.205  32.547  31.870  1.00  0.00     0.074 A 
ATOM     52  C   UNL A   1      44.843  30.427  33.868  1.00  0.00     0.029 A 
ATOM     53  N   UNL A   1      42.853  30.633  32.898  1.00  0.00    -0.354 N 
ATOM     54  N   UNL A   1      40.361  32.035  32.225  1.00  0.00    -0.248 NA
ATOM     55  C   UNL A   1      38.803  33.722  32.655  1.00  0.00     0.031 C 
ATOM     56  C   UNL A   1      44.217  31.571  34.378  1.00  0.00     0.029 A 
ATOM     57  C   UNL A   1      42.980  31.705  33.766  1.00  0.00     0.049 A 
ATOM     58  H   UNL A   1      42.077  30.469  32.314  1.00  0.00     0.167 HD
ATOM     59  C   UNL A   1      40.829  32.834  33.263  1.00  0.00     0.074 A 
ATOM     60  C   UNL A   1      39.837  33.869  33.473  1.00  0.00     0.031 C 
ATOM     61  C   UNL A   1      41.978  32.721  33.974  1.00  0.00     0.037 A 
BRANCH  48  62
ATOM     62  C   UNL A   1      45.363  27.755  32.537  1.00  0.00     0.058 A 
ATOM     63  C   UNL A   1      45.355  26.749  33.516  1.00  0.00     0.135 A 
ATOM     64  C   UNL A   1      46.551  27.963  31.818  1.00  0.00     0.135 A 
ATOM     65  F   UNL A   1      44.251  26.522  34.244  1.00  0.00    -0.206 F 
ATOM     66  C   UNL A   1      46.495  26.002  33.797  1.00  0.00     0.059 A 
ATOM     67  C   UNL A   1      47.695  27.211  32.066  1.00  0.00     0.059 A 
ATOM     68  F   UNL A   1      46.612  28.916  30.874  1.00  0.00    -0.206 F 
ATOM     69  C   UNL A   1      47.662  26.246  33.071  1.00  0.00     0.060 A 
BRANCH  69  70
ATOM     70  S   UNL A   1      49.139  25.285  33.462  1.00  0.00     0.124 S 
ATOM     71  O   UNL A   1      49.654  24.990  32.128  1.00  0.00    -0.237 OA
ATOM     72  O   UNL A   1      49.927  26.227  34.250  1.00  0.00    -0.237 OA
ATOM     73  O   UNL A   1      48.614  24.141  34.200  1.00  0.00    -0.744 OA
ENDBRANCH  69  70
ENDBRANCH  48  62
BRANCH  49  74
ATOM     74  C   UNL A   1      37.007  32.841  30.510  1.00  0.00     0.058 A 
ATOM     75  C   UNL A   1      35.898  32.735  31.362  1.00  0.00     0.135 A 
ATOM     76  C   UNL A   1      36.900  33.690  29.398  1.00  0.00     0.135 A 
ATOM     77  F   UNL A   1      35.948  31.922  32.428  1.00  0.00    -0.206 F 
ATOM     78  C   UNL A   1      34.727  33.445  31.123  1.00  0.00     0.059 A 
ATOM     79  C   UNL A   1      35.746  34.427  29.149  1.00  0.00     0.059 A 
ATOM     80  F   UNL A   1      37.934  33.826  28.554  1.00  0.00    -0.206 F 
ATOM     81  C   UNL A   1      34.662  34.293  30.016  1.00  0.00     0.060 A 
BRANCH  81  82
ATOM     82  S   UNL A   1      33.158  35.258  29.753  1.00  0.00     0.124 S 
ATOM     83  O   UNL A   1      32.524  34.524  28.664  1.00  0.00    -0.237 OA
ATOM     84  O   UNL A   1      32.502  35.165  31.053  1.00  0.00    -0.237 OA
ATOM     85  O   UNL A   1      33.666  36.583  29.408  1.00  0.00    -0.744 OA
ENDBRANCH  81  82
ENDBRANCH  49  74
BRANCH  61  86
ATOM     86  C   UNL A   1      42.236  33.743  35.047  1.00  0.00     0.058 A 
ATOM     87  C   UNL A   1      42.900  34.947  34.766  1.00  0.00     0.135 A 
ATOM     88  C   UNL A   1      41.751  33.550  36.350  1.00  0.00     0.135 A 
ATOM     89  F   UNL A   1      43.391  35.177  33.539  1.00  0.00    -0.206 F 
ATOM     90  C   UNL A   1      43.080  35.922  35.742  1.00  0.00     0.059 A 
ATOM     91  C   UNL A   1      41.899  34.520  37.336  1.00  0.00     0.059 A 
ATOM     92  F   UNL A   1      41.102  32.418  36.669  1.00  0.00    -0.206 F 
ATOM     93  C   UNL A   1      42.570  35.702  37.024  1.00  0.00     0.060 A 
BRANCH  93  94
ATOM     94  S   UNL A   1      42.759  36.998  38.266  1.00  0.00     0.124 S 
ATOM     95  O   UNL A   1      41.389  37.480  38.402  1.00  0.00    -0.237 OA
ATOM     96  O   UNL A   1      43.290  36.262  39.409  1.00  0.00    -0.237 OA
ATOM     97  O   UNL A   1      43.693  37.932  37.643  1.00  0.00    -0.744 OA
ENDBRANCH  93  94
ENDBRANCH  61  86
ENDBRANCH  35  36
ENDBRANCH  28  30
ENDBRANCH  27  28
ENDBRANCH  26  27
ENDBRANCH  25  26
ENDBRANCH  24  25
ENDBRANCH   1  24
TORSDOF 22
ENDMDL
MODEL 2
REMARK VINA RESULT:      -9.4      3.831      6.523
REMARK SMILES Cc1cc(NC(=O)[C@@H]2[C@@H](C(=O)OCCOCCOCCOC(=O)c3ccc(-c4c5nc(c(-c6c(F)cc(S(=O)(=O)[O-])cc6F)c6ccc([nH]6)c(-c6c(F)cc(S(=O)(=O)[O-])cc6F)c6nc(c(-c7c(F)cc(S(=O)(=O)[O-])cc7F)c7ccc4[nH]7)C=C6)C=C5)cc3)C2(C)C)on1
REMARK SMILES IDX 17 1 16 2 15 3 14 4 13 5 12 6 10 7 11 8 9 9 8 10 90 11 91 12
REMARK SMILES IDX 92 13 6 14 5 15 7 17 4 18 1 19 2 20 3 21 94 22 93 23 18 24
REMARK SMILES IDX 19 25 20 26 21 27 22 28 23 29 24 30 25 31 89 32 26 33 88 34
REMARK SMILES IDX 27 35 28 36 29 37 82 38 30 39 87 40 81 41 83 42 31 43 86 44
REMARK SMILES IDX 80 45 79 46 32 48 66 49 45 50 65 51 46 52 49 53 64 54 84 55
REMARK SMILES IDX 47 56 48 57 63 59 85 60 50 61 33 62 34 63 43 64 35 65 36 66
REMARK SMILES IDX 42 67 44 68 37 69 38 70 39 71 40 72 41 73 67 74 68 75 77 76
REMARK SMILES IDX 69 77 70 78 76 79 78 80 71 81 72 82 73 83 74 84 75 85 51 86
REMARK SMILES IDX 52 87 61 88 53 89 54 90 60 91 62 92 55 93 56 94 57 95 58 96
REMARK SMILES IDX 59 97
REMARK H PARENT 5 16 83 47 49 58
REMARK Flexibility Score: inf
ROOT
ATOM      1  C   UNL A   1      42.256  19.648  26.381  1.00  0.00     0.188 C 
ENDROOT
BRANCH   1   2
ATOM      2  C   UNL A   1      41.048  20.303  27.076  1.00  0.00     0.188 C 
BRANCH   2   3
ATOM      3  O   UNL A   1      39.802  20.320  26.383  1.00  0.00    -0.376 OA
BRANCH   3   4
ATOM      4  C   UNL A   1      39.319  21.562  25.869  1.00  0.00     0.202 C 
BRANCH   4   5
ATOM      5  C   UNL A   1      37.809  21.690  25.652  1.00  0.00     0.261 C 
BRANCH   5   6
ATOM      6  O   UNL A   1      37.487  21.440  24.277  1.00  0.00    -0.463 OA
BRANCH   6   7
ATOM      7  C   UNL A   1      36.558  22.261  23.739  1.00  0.00     0.310 C 
ATOM      8  O   UNL A   1      36.723  22.996  22.778  1.00  0.00    -0.252 OA
BRANCH   7   9
ATOM      9  C   UNL A   1      35.220  22.087  24.366  1.00  0.00     0.118 C 
ATOM     10  C   UNL A   1      34.119  22.956  23.835  1.00  0.00     0.100 C 
ATOM     11  C   UNL A   1      34.507  23.089  25.296  1.00  0.00    -0.009 C 
ATOM     12  C   UNL A   1      35.200  24.379  25.691  1.00  0.00     0.013 C 
ATOM     13  C   UNL A   1      33.641  22.568  26.418  1.00  0.00     0.013 C 
BRANCH  10  14
ATOM     14  C   UNL A   1      32.925  22.439  23.119  1.00  0.00     0.231 C 
ATOM     15  N   UNL A   1      32.210  21.292  23.320  1.00  0.00    -0.294 N 
ATOM     16  H   UNL A   1      31.315  21.321  22.911  1.00  0.00     0.173 HD
ATOM     17  O   UNL A   1      32.430  23.211  22.290  1.00  0.00    -0.274 OA
BRANCH  15  18
ATOM     18  C   UNL A   1      32.465  20.119  23.962  1.00  0.00     0.231 A 
ATOM     19  C   UNL A   1      33.414  16.641  24.537  1.00  0.00     0.070 C 
ATOM     20  C   UNL A   1      33.018  18.068  24.543  1.00  0.00     0.083 A 
ATOM     21  C   UNL A   1      33.086  18.994  23.478  1.00  0.00     0.096 A 
ATOM     22  N   UNL A   1      32.477  18.627  25.632  1.00  0.00    -0.083 NA
ATOM     23  O   UNL A   1      32.162  19.927  25.265  1.00  0.00    -0.338 OA
ENDBRANCH  15  18
ENDBRANCH  10  14
ENDBRANCH   7   9
ENDBRANCH   6   7
ENDBRANCH   5   6
ENDBRANCH   4   5
ENDBRANCH   3   4
ENDBRANCH   2   3
ENDBRANCH   1   2
BRANCH   1  24
ATOM     24  O   UNL A   1      42.984  20.481  25.512  1.00  0.00    -0.376 OA
BRANCH  24  25
ATOM     25  C   UNL A   1      43.298  21.814  25.863  1.00  0.00     0.202 C 
BRANCH  25  26
ATOM     26  C   UNL A   1      42.550  23.074  25.391  1.00  0.00     0.261 C 
BRANCH  26  27
ATOM     27  O   UNL A   1      42.324  24.125  26.328  1.00  0.00    -0.460 OA
BRANCH  27  28
ATOM     28  C   UNL A   1      42.440  25.394  25.871  1.00  0.00     0.338 C 
ATOM     29  O   UNL A   1      42.546  25.758  24.716  1.00  0.00    -0.246 OA
BRANCH  28  30
ATOM     30  C   UNL A   1      42.228  26.279  27.035  1.00  0.00     0.060 A 
ATOM     31  C   UNL A   1      41.333  25.889  28.039  1.00  0.00     0.016 A 
ATOM     32  C   UNL A   1      42.962  27.461  27.153  1.00  0.00     0.016 A 
ATOM     33  C   UNL A   1      41.173  26.686  29.175  1.00  0.00     0.010 A 
ATOM     34  C   UNL A   1      42.782  28.268  28.277  1.00  0.00     0.010 A 
ATOM     35  C   UNL A   1      41.882  27.890  29.286  1.00  0.00    -0.014 A 
BRANCH  35  36
ATOM     36  C   UNL A   1      41.616  28.828  30.400  1.00  0.00     0.031 A 
ATOM     37  C   UNL A   1      42.443  28.722  31.648  1.00  0.00     0.074 A 
ATOM     38  C   UNL A   1      40.616  29.723  30.321  1.00  0.00     0.049 A 
ATOM     39  N   UNL A   1      42.311  29.350  32.786  1.00  0.00    -0.248 NA
ATOM     40  C   UNL A   1      43.569  27.775  31.606  1.00  0.00     0.031 C 
ATOM     41  C   UNL A   1      39.775  29.948  29.147  1.00  0.00     0.029 A 
ATOM     42  N   UNL A   1      40.126  30.596  31.260  1.00  0.00    -0.354 N 
ATOM     43  C   UNL A   1      43.326  28.867  33.602  1.00  0.00     0.074 A 
ATOM     44  C   UNL A   1      44.059  27.884  32.832  1.00  0.00     0.031 C 
ATOM     45  C   UNL A   1      38.858  30.888  29.442  1.00  0.00     0.029 A 
ATOM     46  C   UNL A   1      39.023  31.296  30.837  1.00  0.00     0.049 A 
ATOM     47  H   UNL A   1      40.527  30.708  32.153  1.00  0.00     0.167 HD
ATOM     48  C   UNL A   1      43.616  29.211  34.878  1.00  0.00     0.037 A 
ATOM     49  C   UNL A   1      38.219  32.144  31.509  1.00  0.00     0.037 A 
ATOM     50  C   UNL A   1      42.875  30.181  35.641  1.00  0.00     0.049 A 
ATOM     51  C   UNL A   1      38.496  32.429  32.962  1.00  0.00     0.074 A 
ATOM     52  C   UNL A   1      43.121  30.639  36.922  1.00  0.00     0.029 A 
ATOM     53  N   UNL A   1      41.727  30.821  35.200  1.00  0.00    -0.354 N 
ATOM     54  N   UNL A   1      39.485  32.002  33.713  1.00  0.00    -0.248 NA
ATOM     55  C   UNL A   1      37.539  33.295  33.665  1.00  0.00     0.031 C 
ATOM     56  C   UNL A   1      42.089  31.516  37.277  1.00  0.00     0.029 A 
ATOM     57  C   UNL A   1      41.225  31.637  36.199  1.00  0.00     0.049 A 
ATOM     58  H   UNL A   1      41.326  30.712  34.306  1.00  0.00     0.167 HD
ATOM     59  C   UNL A   1      39.277  32.559  34.970  1.00  0.00     0.074 A 
ATOM     60  C   UNL A   1      38.075  33.362  34.878  1.00  0.00     0.031 C 
ATOM     61  C   UNL A   1      40.018  32.421  36.098  1.00  0.00     0.037 A 
BRANCH  48  62
ATOM     62  C   UNL A   1      44.761  28.500  35.538  1.00  0.00     0.058 A 
ATOM     63  C   UNL A   1      46.070  29.006  35.496  1.00  0.00     0.135 A 
ATOM     64  C   UNL A   1      44.545  27.293  36.223  1.00  0.00     0.135 A 
ATOM     65  F   UNL A   1      46.334  30.146  34.839  1.00  0.00    -0.206 F 
ATOM     66  C   UNL A   1      47.131  28.322  36.081  1.00  0.00     0.059 A 
ATOM     67  C   UNL A   1      45.588  26.605  36.835  1.00  0.00     0.059 A 
ATOM     68  F   UNL A   1      43.313  26.765  36.288  1.00  0.00    -0.206 F 
ATOM     69  C   UNL A   1      46.880  27.118  36.742  1.00  0.00     0.060 A 
BRANCH  69  70
ATOM     70  S   UNL A   1      48.270  26.230  37.476  1.00  0.00     0.124 S 
ATOM     71  O   UNL A   1      48.710  27.175  38.497  1.00  0.00    -0.237 OA
ATOM     72  O   UNL A   1      47.638  25.012  37.972  1.00  0.00    -0.237 OA
ATOM     73  O   UNL A   1      49.185  26.045  36.354  1.00  0.00    -0.744 OA
ENDBRANCH  69  70
ENDBRANCH  48  62
BRANCH  49  74
ATOM     74  C   UNL A   1      37.060  32.769  30.820  1.00  0.00     0.058 A 
ATOM     75  C   UNL A   1      35.763  32.269  31.001  1.00  0.00     0.135 A 
ATOM     76  C   UNL A   1      37.222  33.885  29.984  1.00  0.00     0.135 A 
ATOM     77  F   UNL A   1      35.562  31.193  31.777  1.00  0.00    -0.206 F 
ATOM     78  C   UNL A   1      34.665  32.852  30.377  1.00  0.00     0.059 A 
ATOM     79  C   UNL A   1      36.136  34.498  29.366  1.00  0.00     0.059 A 
ATOM     80  F   UNL A   1      38.443  34.402  29.780  1.00  0.00    -0.206 F 
ATOM     81  C   UNL A   1      34.861  33.970  29.566  1.00  0.00     0.060 A 
BRANCH  81  82
ATOM     82  S   UNL A   1      33.419  34.757  28.814  1.00  0.00     0.124 S 
ATOM     83  O   UNL A   1      32.561  34.968  29.974  1.00  0.00    -0.237 OA
ATOM     84  O   UNL A   1      33.999  35.958  28.221  1.00  0.00    -0.237 OA
ATOM     85  O   UNL A   1      32.953  33.757  27.857  1.00  0.00    -0.744 OA
ENDBRANCH  81  82
ENDBRANCH  49  74
BRANCH  61  86
ATOM     86  C   UNL A   1      39.559  33.154  37.328  1.00  0.00     0.058 A 
ATOM     87  C   UNL A   1      38.615  32.594  38.203  1.00  0.00     0.135 A 
ATOM     88  C   UNL A   1      40.120  34.394  37.673  1.00  0.00     0.135 A 
ATOM     89  F   UNL A   1      38.041  31.416  37.914  1.00  0.00    -0.206 F 
ATOM     90  C   UNL A   1      38.239  33.241  39.376  1.00  0.00     0.059 A 
ATOM     91  C   UNL A   1      39.776  35.048  38.852  1.00  0.00     0.059 A 
ATOM     92  F   UNL A   1      41.032  34.969  36.874  1.00  0.00    -0.206 F 
ATOM     93  C   UNL A   1      38.830  34.465  39.695  1.00  0.00     0.060 A 
BRANCH  93  94
ATOM     94  S   UNL A   1      38.376  35.268  41.248  1.00  0.00     0.124 S 
ATOM     95  O   UNL A   1      37.035  34.740  41.473  1.00  0.00    -0.237 OA
ATOM     96  O   UNL A   1      39.408  34.789  42.162  1.00  0.00    -0.237 OA
ATOM     97  O   UNL A   1      38.445  36.691  40.927  1.00  0.00    -0.744 OA
ENDBRANCH  93  94
ENDBRANCH  61  86
ENDBRANCH  35  36
ENDBRANCH  28  30
ENDBRANCH  27  28
ENDBRANCH  26  27
ENDBRANCH  25  26
ENDBRANCH  24  25
ENDBRANCH   1  24
TORSDOF 22
ENDMDL
MODEL 3
REMARK VINA RESULT:      -9.2      5.623     12.240
REMARK SMILES Cc1cc(NC(=O)[C@@H]2[C@@H](C(=O)OCCOCCOCCOC(=O)c3ccc(-c4c5nc(c(-c6c(F)cc(S(=O)(=O)[O-])cc6F)c6ccc([nH]6)c(-c6c(F)cc(S(=O)(=O)[O-])cc6F)c6nc(c(-c7c(F)cc(S(=O)(=O)[O-])cc7F)c7ccc4[nH]7)C=C6)C=C5)cc3)C2(C)C)on1
REMARK SMILES IDX 17 1 16 2 15 3 14 4 13 5 12 6 10 7 11 8 9 9 8 10 90 11 91 12
REMARK SMILES IDX 92 13 6 14 5 15 7 17 4 18 1 19 2 20 3 21 94 22 93 23 18 24
REMARK SMILES IDX 19 25 20 26 21 27 22 28 23 29 24 30 25 31 89 32 26 33 88 34
REMARK SMILES IDX 27 35 28 36 29 37 82 38 30 39 87 40 81 41 83 42 31 43 86 44
REMARK SMILES IDX 80 45 79 46 32 48 66 49 45 50 65 51 46 52 49 53 64 54 84 55
REMARK SMILES IDX 47 56 48 57 63 59 85 60 50 61 33 62 34 63 43 64 35 65 36 66
REMARK SMILES IDX 42 67 44 68 37 69 38 70 39 71 40 72 41 73 67 74 68 75 77 76
REMARK SMILES IDX 69 77 70 78 76 79 78 80 71 81 72 82 73 83 74 84 75 85 51 86
REMARK SMILES IDX 52 87 61 88 53 89 54 90 60 91 62 92 55 93 56 94 57 95 58 96
REMARK SMILES IDX 59 97
REMARK H PARENT 5 16 83 47 49 58
REMARK Flexibility Score: inf
ROOT
ATOM      1  C   UNL A   1      32.660  31.197  27.110  1.00  0.00     0.188 C 
ENDROOT
BRANCH   1   2
ATOM      2  C   UNL A   1      32.888  29.676  27.190  1.00  0.00     0.188 C 
BRANCH   2   3
ATOM      3  O   UNL A   1      31.843  28.815  26.743  1.00  0.00    -0.376 OA
BRANCH   3   4
ATOM      4  C   UNL A   1      32.154  27.797  25.790  1.00  0.00     0.202 C 
BRANCH   4   5
ATOM      5  C   UNL A   1      31.270  26.547  25.790  1.00  0.00     0.261 C 
BRANCH   5   6
ATOM      6  O   UNL A   1      31.519  25.768  26.968  1.00  0.00    -0.463 OA
BRANCH   6   7
ATOM      7  C   UNL A   1      31.536  24.428  26.786  1.00  0.00     0.310 C 
ATOM      8  O   UNL A   1      30.683  23.643  27.171  1.00  0.00    -0.252 OA
BRANCH   7   9
ATOM      9  C   UNL A   1      32.667  23.990  25.925  1.00  0.00     0.118 C 
ATOM     10  C   UNL A   1      32.670  22.546  25.515  1.00  0.00     0.100 C 
ATOM     11  C   UNL A   1      33.831  23.068  26.342  1.00  0.00    -0.009 C 
ATOM     12  C   UNL A   1      33.921  22.561  27.768  1.00  0.00     0.013 C 
ATOM     13  C   UNL A   1      35.204  23.304  25.757  1.00  0.00     0.013 C 
BRANCH  10  14
ATOM     14  C   UNL A   1      32.517  22.082  24.113  1.00  0.00     0.231 C 
ATOM     15  N   UNL A   1      32.327  20.821  23.622  1.00  0.00    -0.294 N 
ATOM     16  H   UNL A   1      31.977  20.816  22.702  1.00  0.00     0.173 HD
ATOM     17  O   UNL A   1      32.435  22.978  23.266  1.00  0.00    -0.274 OA
BRANCH  15  18
ATOM     18  C   UNL A   1      32.515  19.571  24.127  1.00  0.00     0.231 A 
ATOM     19  C   UNL A   1      33.465  16.054  24.356  1.00  0.00     0.070 C 
ATOM     20  C   UNL A   1      33.033  17.463  24.498  1.00  0.00     0.083 A 
ATOM     21  C   UNL A   1      33.233  18.530  23.594  1.00  0.00     0.096 A 
ATOM     22  N   UNL A   1      32.318  17.860  25.559  1.00  0.00    -0.083 NA
ATOM     23  O   UNL A   1      32.026  19.196  25.330  1.00  0.00    -0.338 OA
ENDBRANCH  15  18
ENDBRANCH  10  14
ENDBRANCH   7   9
ENDBRANCH   6   7
ENDBRANCH   5   6
ENDBRANCH   4   5
ENDBRANCH   3   4
ENDBRANCH   2   3
ENDBRANCH   1   2
BRANCH   1  24
ATOM     24  O   UNL A   1      33.714  31.997  27.586  1.00  0.00    -0.376 OA
BRANCH  24  25
ATOM     25  C   UNL A   1      34.764  31.447  28.357  1.00  0.00     0.202 C 
BRANCH  25  26
ATOM     26  C   UNL A   1      35.136  31.848  29.796  1.00  0.00     0.261 C 
BRANCH  26  27
ATOM     27  O   UNL A   1      36.502  31.770  30.195  1.00  0.00    -0.460 OA
BRANCH  27  28
ATOM     28  C   UNL A   1      36.892  30.648  30.845  1.00  0.00     0.338 C 
ATOM     29  O   UNL A   1      36.246  29.989  31.637  1.00  0.00    -0.246 OA
BRANCH  28  30
ATOM     30  C   UNL A   1      38.196  30.262  30.268  1.00  0.00     0.060 A 
ATOM     31  C   UNL A   1      39.276  30.008  31.122  1.00  0.00     0.016 A 
ATOM     32  C   UNL A   1      38.325  30.096  28.887  1.00  0.00     0.016 A 
ATOM     33  C   UNL A   1      40.496  29.580  30.592  1.00  0.00     0.010 A 
ATOM     34  C   UNL A   1      39.551  29.692  28.358  1.00  0.00     0.010 A 
ATOM     35  C   UNL A   1      40.643  29.442  29.205  1.00  0.00    -0.014 A 
BRANCH  35  36
ATOM     36  C   UNL A   1      41.964  29.143  28.607  1.00  0.00     0.031 A 
ATOM     37  C   UNL A   1      42.259  27.737  28.174  1.00  0.00     0.074 A 
ATOM     38  C   UNL A   1      42.903  30.099  28.503  1.00  0.00     0.049 A 
ATOM     39  N   UNL A   1      43.378  27.221  27.740  1.00  0.00    -0.248 NA
ATOM     40  C   UNL A   1      41.139  26.784  28.244  1.00  0.00     0.031 C 
ATOM     41  C   UNL A   1      42.718  31.507  28.849  1.00  0.00     0.029 A 
ATOM     42  N   UNL A   1      44.211  30.020  28.095  1.00  0.00    -0.354 N 
ATOM     43  C   UNL A   1      43.106  25.881  27.498  1.00  0.00     0.074 A 
ATOM     44  C   UNL A   1      41.717  25.661  27.844  1.00  0.00     0.031 C 
ATOM     45  C   UNL A   1      43.878  32.159  28.655  1.00  0.00     0.029 A 
ATOM     46  C   UNL A   1      44.895  31.206  28.213  1.00  0.00     0.049 A 
ATOM     47  H   UNL A   1      44.619  29.193  27.751  1.00  0.00     0.167 HD
ATOM     48  C   UNL A   1      43.940  24.923  27.031  1.00  0.00     0.037 A 
ATOM     49  C   UNL A   1      46.200  31.480  28.018  1.00  0.00     0.037 A 
ATOM     50  C   UNL A   1      45.322  25.148  26.700  1.00  0.00     0.049 A 
ATOM     51  C   UNL A   1      47.135  30.373  27.604  1.00  0.00     0.074 A 
ATOM     52  C   UNL A   1      46.237  24.257  26.170  1.00  0.00     0.029 A 
ATOM     53  N   UNL A   1      45.995  26.345  26.894  1.00  0.00    -0.354 N 
ATOM     54  N   UNL A   1      46.859  29.119  27.334  1.00  0.00    -0.248 NA
ATOM     55  C   UNL A   1      48.560  30.713  27.488  1.00  0.00     0.031 C 
ATOM     56  C   UNL A   1      47.478  24.899  26.095  1.00  0.00     0.029 A 
ATOM     57  C   UNL A   1      47.325  26.205  26.537  1.00  0.00     0.049 A 
ATOM     58  H   UNL A   1      45.587  27.174  27.235  1.00  0.00     0.167 HD
ATOM     59  C   UNL A   1      48.072  28.524  27.001  1.00  0.00     0.074 A 
ATOM     60  C   UNL A   1      49.082  29.558  27.094  1.00  0.00     0.031 C 
ATOM     61  C   UNL A   1      48.324  27.240  26.647  1.00  0.00     0.037 A 
BRANCH  48  62
ATOM     62  C   UNL A   1      43.384  23.535  26.894  1.00  0.00     0.058 A 
ATOM     63  C   UNL A   1      43.308  22.656  27.986  1.00  0.00     0.135 A 
ATOM     64  C   UNL A   1      42.919  23.080  25.650  1.00  0.00     0.135 A 
ATOM     65  F   UNL A   1      43.755  23.037  29.193  1.00  0.00    -0.206 F 
ATOM     66  C   UNL A   1      42.823  21.361  27.841  1.00  0.00     0.059 A 
ATOM     67  C   UNL A   1      42.408  21.795  25.488  1.00  0.00     0.059 A 
ATOM     68  F   UNL A   1      42.973  23.880  24.573  1.00  0.00    -0.206 F 
ATOM     69  C   UNL A   1      42.382  20.937  26.586  1.00  0.00     0.060 A 
BRANCH  69  70
ATOM     70  S   UNL A   1      41.777  19.246  26.408  1.00  0.00     0.124 S 
ATOM     71  O   UNL A   1      40.439  19.472  25.871  1.00  0.00    -0.237 OA
ATOM     72  O   UNL A   1      42.741  18.663  25.480  1.00  0.00    -0.237 OA
ATOM     73  O   UNL A   1      41.827  18.723  27.769  1.00  0.00    -0.744 OA
ENDBRANCH  69  70
ENDBRANCH  48  62
BRANCH  49  74
ATOM     74  C   UNL A   1      46.707  32.860  28.233  1.00  0.00     0.058 A 
ATOM     75  C   UNL A   1      46.643  33.816  27.208  1.00  0.00     0.135 A 
ATOM     76  C   UNL A   1      47.247  33.258  29.466  1.00  0.00     0.135 A 
ATOM     77  F   UNL A   1      46.151  33.477  26.007  1.00  0.00    -0.206 F 
ATOM     78  C   UNL A   1      47.097  35.117  27.397  1.00  0.00     0.059 A 
ATOM     79  C   UNL A   1      47.688  34.559  29.685  1.00  0.00     0.059 A 
ATOM     80  F   UNL A   1      47.328  32.381  30.478  1.00  0.00    -0.206 F 
ATOM     81  C   UNL A   1      47.613  35.481  28.642  1.00  0.00     0.060 A 
BRANCH  81  82
ATOM     82  S   UNL A   1      48.139  37.190  28.893  1.00  0.00     0.124 S 
ATOM     83  O   UNL A   1      48.813  37.479  27.633  1.00  0.00    -0.237 OA
ATOM     84  O   UNL A   1      46.868  37.874  29.110  1.00  0.00    -0.237 OA
ATOM     85  O   UNL A   1      49.005  37.105  30.067  1.00  0.00    -0.744 OA
ENDBRANCH  81  82
ENDBRANCH  49  74
BRANCH  61  86
ATOM     86  C   UNL A   1      49.746  26.872  26.328  1.00  0.00     0.058 A 
ATOM     87  C   UNL A   1      50.612  26.376  27.314  1.00  0.00     0.135 A 
ATOM     88  C   UNL A   1      50.226  26.946  25.010  1.00  0.00     0.135 A 
ATOM     89  F   UNL A   1      50.206  26.293  28.591  1.00  0.00    -0.206 F 
ATOM     90  C   UNL A   1      51.908  25.972  27.007  1.00  0.00     0.059 A 
ATOM     91  C   UNL A   1      51.510  26.526  24.676  1.00  0.00     0.059 A 
ATOM     92  F   UNL A   1      49.435  27.406  24.028  1.00  0.00    -0.206 F 
ATOM     93  C   UNL A   1      52.346  26.045  25.682  1.00  0.00     0.060 A 
BRANCH  93  94
ATOM     94  S   UNL A   1      54.009  25.464  25.286  1.00  0.00     0.124 S 
ATOM     95  O   UNL A   1      54.793  26.053  26.366  1.00  0.00    -0.237 OA
ATOM     96  O   UNL A   1      53.854  24.014  25.332  1.00  0.00    -0.237 OA
ATOM     97  O   UNL A   1      54.255  26.019  23.958  1.00  0.00    -0.744 OA
ENDBRANCH  93  94
ENDBRANCH  61  86
ENDBRANCH  35  36
ENDBRANCH  28  30
ENDBRANCH  27  28
ENDBRANCH  26  27
ENDBRANCH  25  26
ENDBRANCH  24  25
ENDBRANCH   1  24
TORSDOF 22
ENDMDL
