MODEL 1
REMARK VINA RESULT:     -10.2      0.000      0.000
REMARK SMILES NC(=O)C[C@H](NC(=O)c1cccc2[nH]ccc12)C(=O)OCCOCCOCCOC(=O)c1ccc(-c2c3nc(c(-c4c(F)cc(S(=O)(=O)[O-])cc4F)c4ccc([nH]4)c(-c4c(F)cc(S(=O)(=O)[O-])cc4F)c4nc(c(-c5c(F)cc(S(=O)(=O)[O-])cc5F)c5ccc2[nH]5)C=C4)C=C3)cc1
REMARK SMILES IDX 25 1 24 2 23 3 22 4 21 5 20 6 18 7 19 8 5 9 4 10 2 11 1 12
REMARK SMILES IDX 3 15 6 16 7 17 8 19 9 20 10 21 17 22 11 23 13 24 16 25 12 26
REMARK SMILES IDX 14 27 15 28 26 30 27 31 28 32 29 33 30 34 31 35 32 36 33 37
REMARK SMILES IDX 97 38 34 39 96 40 35 41 36 42 37 43 90 44 38 45 95 46 89 47
REMARK SMILES IDX 91 48 39 49 94 50 88 51 87 52 40 54 74 55 53 56 73 57 54 58
REMARK SMILES IDX 57 59 72 60 92 61 55 62 56 63 71 65 93 66 58 67 41 68 42 69
REMARK SMILES IDX 51 70 43 71 44 72 50 73 52 74 45 75 46 76 47 77 48 78 49 79
REMARK SMILES IDX 75 80 76 81 85 82 77 83 78 84 84 85 86 86 79 87 80 88 81 89
REMARK SMILES IDX 82 90 83 91 59 92 60 93 69 94 61 95 62 96 68 97 70 98 63 99
REMARK SMILES IDX 64 100 65 101 66 102 67 103
REMARK H PARENT 1 13 1 14 6 18 14 29 91 53 57 64
REMARK Flexibility Score: inf
ROOT
ATOM      1  C   UNL A   1      38.584  21.801  25.800  1.00  0.00     0.188 C 
ENDROOT
BRANCH   1   2
ATOM      2  C   UNL A   1      37.591  21.386  24.702  1.00  0.00     0.188 C 
BRANCH   2   3
ATOM      3  O   UNL A   1      36.434  20.769  25.211  1.00  0.00    -0.376 OA
BRANCH   3   4
ATOM      4  C   UNL A   1      35.185  21.420  25.118  1.00  0.00     0.202 C 
BRANCH   4   5
ATOM      5  C   UNL A   1      34.738  22.305  23.942  1.00  0.00     0.261 C 
BRANCH   5   6
ATOM      6  O   UNL A   1      33.344  22.556  23.728  1.00  0.00    -0.462 OA
BRANCH   6   7
ATOM      7  C   UNL A   1      33.077  23.494  22.770  1.00  0.00     0.329 C 
ATOM      8  O   UNL A   1      33.331  23.336  21.582  1.00  0.00    -0.250 OA
BRANCH   7   9
ATOM      9  C   UNL A   1      32.606  24.836  23.360  1.00  0.00     0.201 C 
BRANCH   9  10
ATOM     10  C   UNL A   1      33.715  25.875  23.183  1.00  0.00     0.136 C 
BRANCH  10  11
ATOM     11  C   UNL A   1      33.437  26.773  22.007  1.00  0.00     0.220 C 
ATOM     12  N   UNL A   1      32.500  26.312  21.130  1.00  0.00    -0.370 N 
ATOM     13  H   UNL A   1      32.264  26.843  20.337  1.00  0.00     0.159 HD
ATOM     14  H   UNL A   1      32.059  25.446  21.293  1.00  0.00     0.159 HD
ATOM     15  O   UNL A   1      33.982  27.858  21.848  1.00  0.00    -0.275 OA
ENDBRANCH  10  11
ENDBRANCH   9  10
BRANCH   9  16
ATOM     16  N   UNL A   1      32.205  24.749  24.777  1.00  0.00    -0.338 N 
ATOM     17  C   UNL A   1      31.302  25.519  25.475  1.00  0.00     0.252 C 
ATOM     18  H   UNL A   1      32.643  24.037  25.297  1.00  0.00     0.164 HD
ATOM     19  O   UNL A   1      31.067  25.277  26.655  1.00  0.00    -0.269 OA
BRANCH  17  20
ATOM     20  C   UNL A   1      30.695  26.699  24.827  1.00  0.00     0.049 A 
ATOM     21  C   UNL A   1      29.602  26.584  23.956  1.00  0.00     0.014 A 
ATOM     22  C   UNL A   1      31.275  27.968  25.054  1.00  0.00     0.012 A 
ATOM     23  C   UNL A   1      29.165  27.686  23.224  1.00  0.00     0.003 A 
ATOM     24  C   UNL A   1      30.813  29.051  24.303  1.00  0.00     0.046 A 
ATOM     25  C   UNL A   1      32.307  28.466  25.902  1.00  0.00     0.029 A 
ATOM     26  C   UNL A   1      29.779  28.934  23.365  1.00  0.00     0.027 A 
ATOM     27  N   UNL A   1      31.559  30.148  24.669  1.00  0.00    -0.361 N 
ATOM     28  C   UNL A   1      32.454  29.809  25.649  1.00  0.00     0.083 A 
ATOM     29  H   UNL A   1      31.464  31.048  24.280  1.00  0.00     0.166 HD
ENDBRANCH  17  20
ENDBRANCH   9  16
ENDBRANCH   7   9
ENDBRANCH   6   7
ENDBRANCH   5   6
ENDBRANCH   4   5
ENDBRANCH   3   4
ENDBRANCH   2   3
ENDBRANCH   1   2
BRANCH   1  30
ATOM     30  O   UNL A   1      39.757  21.030  26.035  1.00  0.00    -0.376 OA
BRANCH  30  31
ATOM     31  C   UNL A   1      40.713  21.501  26.981  1.00  0.00     0.202 C 
BRANCH  31  32
ATOM     32  C   UNL A   1      41.846  22.456  26.559  1.00  0.00     0.261 C 
BRANCH  32  33
ATOM     33  O   UNL A   1      41.469  23.827  26.382  1.00  0.00    -0.460 OA
BRANCH  33  34
ATOM     34  C   UNL A   1      42.474  24.724  26.554  1.00  0.00     0.338 C 
ATOM     35  O   UNL A   1      43.488  24.832  25.887  1.00  0.00    -0.246 OA
BRANCH  34  36
ATOM     36  C   UNL A   1      42.057  25.723  27.562  1.00  0.00     0.060 A 
ATOM     37  C   UNL A   1      42.844  26.875  27.706  1.00  0.00     0.016 A 
ATOM     38  C   UNL A   1      40.917  25.540  28.347  1.00  0.00     0.016 A 
ATOM     39  C   UNL A   1      42.508  27.841  28.651  1.00  0.00     0.010 A 
ATOM     40  C   UNL A   1      40.602  26.492  29.323  1.00  0.00     0.010 A 
ATOM     41  C   UNL A   1      41.413  27.628  29.497  1.00  0.00    -0.014 A 
BRANCH  41  42
ATOM     42  C   UNL A   1      41.270  28.462  30.714  1.00  0.00     0.031 A 
ATOM     43  C   UNL A   1      40.189  29.509  30.720  1.00  0.00     0.074 A 
ATOM     44  C   UNL A   1      42.053  28.284  31.793  1.00  0.00     0.049 A 
ATOM     45  N   UNL A   1      39.890  30.389  31.638  1.00  0.00    -0.248 NA
ATOM     46  C   UNL A   1      39.330  29.568  29.525  1.00  0.00     0.031 C 
ATOM     47  C   UNL A   1      43.099  27.272  31.926  1.00  0.00     0.029 A 
ATOM     48  N   UNL A   1      42.088  28.965  32.985  1.00  0.00    -0.354 N 
ATOM     49  C   UNL A   1      38.811  31.104  31.135  1.00  0.00     0.074 A 
ATOM     50  C   UNL A   1      38.521  30.574  29.820  1.00  0.00     0.031 C 
ATOM     51  C   UNL A   1      43.686  27.411  33.130  1.00  0.00     0.029 A 
ATOM     52  C   UNL A   1      43.076  28.535  33.837  1.00  0.00     0.049 A 
ATOM     53  H   UNL A   1      41.463  29.693  33.206  1.00  0.00     0.167 HD
ATOM     54  C   UNL A   1      38.117  32.110  31.716  1.00  0.00     0.037 A 
ATOM     55  C   UNL A   1      43.453  29.013  35.041  1.00  0.00     0.037 A 
ATOM     56  C   UNL A   1      38.413  32.646  33.016  1.00  0.00     0.049 A 
ATOM     57  C   UNL A   1      42.713  30.187  35.637  1.00  0.00     0.074 A 
ATOM     58  C   UNL A   1      37.773  33.672  33.689  1.00  0.00     0.029 A 
ATOM     59  N   UNL A   1      39.438  32.204  33.837  1.00  0.00    -0.354 N 
ATOM     60  N   UNL A   1      41.689  30.850  35.154  1.00  0.00    -0.248 NA
ATOM     61  C   UNL A   1      43.182  30.677  36.942  1.00  0.00     0.031 C 
ATOM     62  C   UNL A   1      38.438  33.874  34.904  1.00  0.00     0.029 A 
ATOM     63  C   UNL A   1      39.461  32.946  35.005  1.00  0.00     0.049 A 
ATOM     64  H   UNL A   1      40.057  31.470  33.621  1.00  0.00     0.167 HD
ATOM     65  C   UNL A   1      41.374  31.813  36.108  1.00  0.00     0.074 A 
ATOM     66  C   UNL A   1      42.311  31.643  37.198  1.00  0.00     0.031 C 
ATOM     67  C   UNL A   1      40.394  32.752  36.086  1.00  0.00     0.037 A 
BRANCH  54  68
ATOM     68  C   UNL A   1      36.988  32.711  30.929  1.00  0.00     0.058 A 
ATOM     69  C   UNL A   1      37.202  33.764  30.024  1.00  0.00     0.135 A 
ATOM     70  C   UNL A   1      35.681  32.221  31.072  1.00  0.00     0.135 A 
ATOM     71  F   UNL A   1      38.429  34.285  29.871  1.00  0.00    -0.206 F 
ATOM     72  C   UNL A   1      36.153  34.324  29.303  1.00  0.00     0.059 A 
ATOM     73  C   UNL A   1      34.621  32.751  30.344  1.00  0.00     0.059 A 
ATOM     74  F   UNL A   1      35.424  31.223  31.931  1.00  0.00    -0.206 F 
ATOM     75  C   UNL A   1      34.865  33.811  29.471  1.00  0.00     0.060 A 
BRANCH  75  76
ATOM     76  S   UNL A   1      33.513  34.542  28.524  1.00  0.00     0.124 S 
ATOM     77  O   UNL A   1      32.621  34.991  29.589  1.00  0.00    -0.237 OA
ATOM     78  O   UNL A   1      34.188  35.597  27.776  1.00  0.00    -0.237 OA
ATOM     79  O   UNL A   1      33.020  33.426  27.721  1.00  0.00    -0.744 OA
ENDBRANCH  75  76
ENDBRANCH  54  68
BRANCH  55  80
ATOM     80  C   UNL A   1      44.599  28.401  35.766  1.00  0.00     0.058 A 
ATOM     81  C   UNL A   1      44.410  27.327  36.648  1.00  0.00     0.135 A 
ATOM     82  C   UNL A   1      45.903  28.896  35.609  1.00  0.00     0.135 A 
ATOM     83  F   UNL A   1      43.179  26.828  36.843  1.00  0.00    -0.206 F 
ATOM     84  C   UNL A   1      45.469  26.780  37.367  1.00  0.00     0.059 A 
ATOM     85  C   UNL A   1      46.981  28.349  36.299  1.00  0.00     0.059 A 
ATOM     86  F   UNL A   1      46.138  29.918  34.772  1.00  0.00    -0.206 F 
ATOM     87  C   UNL A   1      46.751  27.300  37.186  1.00  0.00     0.060 A 
BRANCH  87  88
ATOM     88  S   UNL A   1      48.125  26.562  38.098  1.00  0.00     0.124 S 
ATOM     89  O   UNL A   1      49.262  27.301  37.561  1.00  0.00    -0.237 OA
ATOM     90  O   UNL A   1      47.771  26.855  39.483  1.00  0.00    -0.237 OA
ATOM     91  O   UNL A   1      48.054  25.152  37.726  1.00  0.00    -0.744 OA
ENDBRANCH  87  88
ENDBRANCH  55  80
BRANCH  67  92
ATOM     92  C   UNL A   1      40.255  33.641  37.290  1.00  0.00     0.058 A 
ATOM     93  C   UNL A   1      40.980  34.836  37.414  1.00  0.00     0.135 A 
ATOM     94  C   UNL A   1      39.338  33.321  38.305  1.00  0.00     0.135 A 
ATOM     95  F   UNL A   1      41.871  35.186  36.473  1.00  0.00    -0.206 F 
ATOM     96  C   UNL A   1      40.816  35.673  38.513  1.00  0.00     0.059 A 
ATOM     97  C   UNL A   1      39.141  34.155  39.401  1.00  0.00     0.059 A 
ATOM     98  F   UNL A   1      38.610  32.196  38.228  1.00  0.00    -0.206 F 
ATOM     99  C   UNL A   1      39.893  35.324  39.502  1.00  0.00     0.060 A 
BRANCH  99 100
ATOM    100  S   UNL A   1      39.664  36.434  40.909  1.00  0.00     0.124 S 
ATOM    101  O   UNL A   1      38.337  36.046  41.375  1.00  0.00    -0.237 OA
ATOM    102  O   UNL A   1      40.775  36.068  41.782  1.00  0.00    -0.237 OA
ATOM    103  O   UNL A   1      39.758  37.763  40.311  1.00  0.00    -0.744 OA
ENDBRANCH  99 100
ENDBRANCH  67  92
ENDBRANCH  41  42
ENDBRANCH  34  36
ENDBRANCH  33  34
ENDBRANCH  32  33
ENDBRANCH  31  32
ENDBRANCH  30  31
ENDBRANCH   1  30
TORSDOF 24
ENDMDL
MODEL 2
REMARK VINA RESULT:     -10.1      1.110      8.212
REMARK SMILES NC(=O)C[C@H](NC(=O)c1cccc2[nH]ccc12)C(=O)OCCOCCOCCOC(=O)c1ccc(-c2c3nc(c(-c4c(F)cc(S(=O)(=O)[O-])cc4F)c4ccc([nH]4)c(-c4c(F)cc(S(=O)(=O)[O-])cc4F)c4nc(c(-c5c(F)cc(S(=O)(=O)[O-])cc5F)c5ccc2[nH]5)C=C4)C=C3)cc1
REMARK SMILES IDX 25 1 24 2 23 3 22 4 21 5 20 6 18 7 19 8 5 9 4 10 2 11 1 12
REMARK SMILES IDX 3 15 6 16 7 17 8 19 9 20 10 21 17 22 11 23 13 24 16 25 12 26
REMARK SMILES IDX 14 27 15 28 26 30 27 31 28 32 29 33 30 34 31 35 32 36 33 37
REMARK SMILES IDX 97 38 34 39 96 40 35 41 36 42 37 43 90 44 38 45 95 46 89 47
REMARK SMILES IDX 91 48 39 49 94 50 88 51 87 52 40 54 74 55 53 56 73 57 54 58
REMARK SMILES IDX 57 59 72 60 92 61 55 62 56 63 71 65 93 66 58 67 41 68 42 69
REMARK SMILES IDX 51 70 43 71 44 72 50 73 52 74 45 75 46 76 47 77 48 78 49 79
REMARK SMILES IDX 75 80 76 81 85 82 77 83 78 84 84 85 86 86 79 87 80 88 81 89
REMARK SMILES IDX 82 90 83 91 59 92 60 93 69 94 61 95 62 96 68 97 70 98 63 99
REMARK SMILES IDX 64 100 65 101 66 102 67 103
REMARK H PARENT 1 13 1 14 6 18 14 29 91 53 57 64
REMARK Flexibility Score: inf
ROOT
ATOM      1  C   UNL A   1      38.430  21.324  25.722  1.00  0.00     0.188 C 
ENDROOT
BRANCH   1   2
ATOM      2  C   UNL A   1      37.346  22.356  25.369  1.00  0.00     0.188 C 
BRANCH   2   3
ATOM      3  O   UNL A   1      36.207  21.778  24.777  1.00  0.00    -0.376 OA
BRANCH   3   4
ATOM      4  C   UNL A   1      35.007  21.670  25.510  1.00  0.00     0.202 C 
BRANCH   4   5
ATOM      5  C   UNL A   1      34.210  22.857  26.079  1.00  0.00     0.261 C 
BRANCH   5   6
ATOM      6  O   UNL A   1      32.779  22.818  26.085  1.00  0.00    -0.462 OA
BRANCH   6   7
ATOM      7  C   UNL A   1      32.202  23.060  24.870  1.00  0.00     0.329 C 
ATOM      8  O   UNL A   1      31.919  22.177  24.068  1.00  0.00    -0.250 OA
BRANCH   7   9
ATOM      9  C   UNL A   1      32.121  24.561  24.532  1.00  0.00     0.201 C 
BRANCH   9  10
ATOM     10  C   UNL A   1      30.660  25.007  24.589  1.00  0.00     0.136 C 
BRANCH  10  11
ATOM     11  C   UNL A   1      30.289  25.486  25.967  1.00  0.00     0.220 C 
ATOM     12  N   UNL A   1      29.276  24.800  26.569  1.00  0.00    -0.370 N 
ATOM     13  H   UNL A   1      28.977  25.054  27.471  1.00  0.00     0.159 HD
ATOM     14  H   UNL A   1      28.845  24.048  26.101  1.00  0.00     0.159 HD
ATOM     15  O   UNL A   1      30.866  26.405  26.535  1.00  0.00    -0.275 OA
ENDBRANCH  10  11
ENDBRANCH   9  10
BRANCH   9  16
ATOM     16  N   UNL A   1      32.714  24.903  23.225  1.00  0.00    -0.338 N 
ATOM     17  C   UNL A   1      33.209  26.109  22.782  1.00  0.00     0.252 C 
ATOM     18  H   UNL A   1      32.764  24.163  22.577  1.00  0.00     0.164 HD
ATOM     19  O   UNL A   1      33.700  26.200  21.662  1.00  0.00    -0.269 OA
BRANCH  17  20
ATOM     20  C   UNL A   1      33.054  27.313  23.623  1.00  0.00     0.049 A 
ATOM     21  C   UNL A   1      33.942  27.605  24.668  1.00  0.00     0.014 A 
ATOM     22  C   UNL A   1      31.944  28.159  23.394  1.00  0.00     0.012 A 
ATOM     23  C   UNL A   1      33.670  28.647  25.553  1.00  0.00     0.003 A 
ATOM     24  C   UNL A   1      31.702  29.193  24.300  1.00  0.00     0.046 A 
ATOM     25  C   UNL A   1      30.912  28.222  22.412  1.00  0.00     0.029 A 
ATOM     26  C   UNL A   1      32.532  29.444  25.400  1.00  0.00     0.027 A 
ATOM     27  N   UNL A   1      30.554  29.832  23.891  1.00  0.00    -0.361 N 
ATOM     28  C   UNL A   1      30.078  29.265  22.739  1.00  0.00     0.083 A 
ATOM     29  H   UNL A   1      30.134  30.589  24.361  1.00  0.00     0.166 HD
ENDBRANCH  17  20
ENDBRANCH   9  16
ENDBRANCH   7   9
ENDBRANCH   6   7
ENDBRANCH   5   6
ENDBRANCH   4   5
ENDBRANCH   3   4
ENDBRANCH   2   3
ENDBRANCH   1   2
BRANCH   1  30
ATOM     30  O   UNL A   1      39.460  21.654  26.646  1.00  0.00    -0.376 OA
BRANCH  30  31
ATOM     31  C   UNL A   1      40.767  21.126  26.437  1.00  0.00     0.202 C 
BRANCH  31  32
ATOM     32  C   UNL A   1      41.950  22.047  26.079  1.00  0.00     0.261 C 
BRANCH  32  33
ATOM     33  O   UNL A   1      41.618  23.421  25.846  1.00  0.00    -0.460 OA
BRANCH  33  34
ATOM     34  C   UNL A   1      42.622  24.302  26.092  1.00  0.00     0.338 C 
ATOM     35  O   UNL A   1      43.704  24.361  25.534  1.00  0.00    -0.246 OA
BRANCH  34  36
ATOM     36  C   UNL A   1      42.126  25.350  27.009  1.00  0.00     0.060 A 
ATOM     37  C   UNL A   1      42.855  26.546  27.093  1.00  0.00     0.016 A 
ATOM     38  C   UNL A   1      40.967  25.171  27.768  1.00  0.00     0.016 A 
ATOM     39  C   UNL A   1      42.442  27.560  27.953  1.00  0.00     0.010 A 
ATOM     40  C   UNL A   1      40.576  26.175  28.661  1.00  0.00     0.010 A 
ATOM     41  C   UNL A   1      41.329  27.357  28.778  1.00  0.00    -0.014 A 
BRANCH  41  42
ATOM     42  C   UNL A   1      41.106  28.270  29.925  1.00  0.00     0.031 A 
ATOM     43  C   UNL A   1      41.994  28.107  31.129  1.00  0.00     0.074 A 
ATOM     44  C   UNL A   1      40.166  29.230  29.895  1.00  0.00     0.049 A 
ATOM     45  N   UNL A   1      41.973  28.746  32.268  1.00  0.00    -0.248 NA
ATOM     46  C   UNL A   1      43.049  27.083  31.030  1.00  0.00     0.031 C 
ATOM     47  C   UNL A   1      39.280  29.519  28.769  1.00  0.00     0.029 A 
ATOM     48  N   UNL A   1      39.799  30.141  30.854  1.00  0.00    -0.354 N 
ATOM     49  C   UNL A   1      43.008  28.205  33.020  1.00  0.00     0.074 A 
ATOM     50  C   UNL A   1      43.622  27.168  32.220  1.00  0.00     0.031 C 
ATOM     51  C   UNL A   1      38.457  30.528  29.110  1.00  0.00     0.029 A 
ATOM     52  C   UNL A   1      38.742  30.937  30.485  1.00  0.00     0.049 A 
ATOM     53  H   UNL A   1      40.251  30.216  31.726  1.00  0.00     0.167 HD
ATOM     54  C   UNL A   1      43.415  28.542  34.266  1.00  0.00     0.037 A 
ATOM     55  C   UNL A   1      38.072  31.873  31.188  1.00  0.00     0.037 A 
ATOM     56  C   UNL A   1      42.797  29.562  35.066  1.00  0.00     0.049 A 
ATOM     57  C   UNL A   1      38.495  32.180  32.604  1.00  0.00     0.074 A 
ATOM     58  C   UNL A   1      43.130  29.974  36.345  1.00  0.00     0.029 A 
ATOM     59  N   UNL A   1      41.711  30.327  34.668  1.00  0.00    -0.354 N 
ATOM     60  N   UNL A   1      39.481  31.666  33.302  1.00  0.00    -0.248 NA
ATOM     61  C   UNL A   1      37.715  33.194  33.328  1.00  0.00     0.031 C 
ATOM     62  C   UNL A   1      42.221  30.964  36.734  1.00  0.00     0.029 A 
ATOM     63  C   UNL A   1      41.351  31.199  35.682  1.00  0.00     0.049 A 
ATOM     64  H   UNL A   1      41.264  30.262  33.794  1.00  0.00     0.167 HD
ATOM     65  C   UNL A   1      39.456  32.315  34.533  1.00  0.00     0.074 A 
ATOM     66  C   UNL A   1      38.363  33.263  34.483  1.00  0.00     0.031 C 
ATOM     67  C   UNL A   1      40.267  32.146  35.607  1.00  0.00     0.037 A 
BRANCH  54  68
ATOM     68  C   UNL A   1      44.570  27.776  34.843  1.00  0.00     0.058 A 
ATOM     69  C   UNL A   1      45.873  28.300  34.845  1.00  0.00     0.135 A 
ATOM     70  C   UNL A   1      44.371  26.508  35.409  1.00  0.00     0.135 A 
ATOM     71  F   UNL A   1      46.120  29.498  34.292  1.00  0.00    -0.206 F 
ATOM     72  C   UNL A   1      46.941  27.584  35.373  1.00  0.00     0.059 A 
ATOM     73  C   UNL A   1      45.421  25.783  35.963  1.00  0.00     0.059 A 
ATOM     74  F   UNL A   1      43.146  25.959  35.422  1.00  0.00    -0.206 F 
ATOM     75  C   UNL A   1      46.706  26.325  35.929  1.00  0.00     0.060 A 
BRANCH  75  76
ATOM     76  S   UNL A   1      48.100  25.408  36.617  1.00  0.00     0.124 S 
ATOM     77  O   UNL A   1      49.184  25.817  35.728  1.00  0.00    -0.237 OA
ATOM     78  O   UNL A   1      48.172  25.923  37.980  1.00  0.00    -0.237 OA
ATOM     79  O   UNL A   1      47.682  24.015  36.497  1.00  0.00    -0.744 OA
ENDBRANCH  75  76
ENDBRANCH  54  68
BRANCH  55  80
ATOM     80  C   UNL A   1      36.914  32.582  30.580  1.00  0.00     0.058 A 
ATOM     81  C   UNL A   1      35.602  32.119  30.762  1.00  0.00     0.135 A 
ATOM     82  C   UNL A   1      37.100  33.722  29.783  1.00  0.00     0.135 A 
ATOM     83  F   UNL A   1      35.375  31.024  31.503  1.00  0.00    -0.206 F 
ATOM     84  C   UNL A   1      34.517  32.748  30.157  1.00  0.00     0.059 A 
ATOM     85  C   UNL A   1      36.028  34.381  29.188  1.00  0.00     0.059 A 
ATOM     86  F   UNL A   1      38.334  34.209  29.582  1.00  0.00    -0.206 F 
ATOM     87  C   UNL A   1      34.741  33.878  29.370  1.00  0.00     0.060 A 
BRANCH  87  88
ATOM     88  S   UNL A   1      33.325  34.707  28.615  1.00  0.00     0.124 S 
ATOM     89  O   UNL A   1      32.547  35.085  29.790  1.00  0.00    -0.237 OA
ATOM     90  O   UNL A   1      33.958  35.803  27.890  1.00  0.00    -0.237 OA
ATOM     91  O   UNL A   1      32.737  33.666  27.776  1.00  0.00    -0.744 OA
ENDBRANCH  87  88
ENDBRANCH  55  80
BRANCH  67  92
ATOM     92  C   UNL A   1      40.034  33.029  36.801  1.00  0.00     0.058 A 
ATOM     93  C   UNL A   1      39.086  32.708  37.785  1.00  0.00     0.135 A 
ATOM     94  C   UNL A   1      40.815  34.180  36.994  1.00  0.00     0.135 A 
ATOM     95  F   UNL A   1      38.313  31.619  37.647  1.00  0.00    -0.206 F 
ATOM     96  C   UNL A   1      38.905  33.510  38.907  1.00  0.00     0.059 A 
ATOM     97  C   UNL A   1      40.667  34.984  38.120  1.00  0.00     0.059 A 
ATOM     98  F   UNL A   1      41.746  34.525  36.090  1.00  0.00    -0.206 F 
ATOM     99  C   UNL A   1      39.701  34.646  39.066  1.00  0.00     0.060 A 
BRANCH  99 100
ATOM    100  S   UNL A   1      39.480  35.663  40.543  1.00  0.00     0.124 S 
ATOM    101  O   UNL A   1      39.316  36.991  39.962  1.00  0.00    -0.237 OA
ATOM    102  O   UNL A   1      38.284  35.083  41.148  1.00  0.00    -0.237 OA
ATOM    103  O   UNL A   1      40.717  35.450  41.289  1.00  0.00    -0.744 OA
ENDBRANCH  99 100
ENDBRANCH  67  92
ENDBRANCH  41  42
ENDBRANCH  34  36
ENDBRANCH  33  34
ENDBRANCH  32  33
ENDBRANCH  31  32
ENDBRANCH  30  31
ENDBRANCH   1  30
TORSDOF 24
ENDMDL
MODEL 3
REMARK VINA RESULT:     -10.0      1.253      2.174
REMARK SMILES NC(=O)C[C@H](NC(=O)c1cccc2[nH]ccc12)C(=O)OCCOCCOCCOC(=O)c1ccc(-c2c3nc(c(-c4c(F)cc(S(=O)(=O)[O-])cc4F)c4ccc([nH]4)c(-c4c(F)cc(S(=O)(=O)[O-])cc4F)c4nc(c(-c5c(F)cc(S(=O)(=O)[O-])cc5F)c5ccc2[nH]5)C=C4)C=C3)cc1
REMARK SMILES IDX 25 1 24 2 23 3 22 4 21 5 20 6 18 7 19 8 5 9 4 10 2 11 1 12
REMARK SMILES IDX 3 15 6 16 7 17 8 19 9 20 10 21 17 22 11 23 13 24 16 25 12 26
REMARK SMILES IDX 14 27 15 28 26 30 27 31 28 32 29 33 30 34 31 35 32 36 33 37
REMARK SMILES IDX 97 38 34 39 96 40 35 41 36 42 37 43 90 44 38 45 95 46 89 47
REMARK SMILES IDX 91 48 39 49 94 50 88 51 87 52 40 54 74 55 53 56 73 57 54 58
REMARK SMILES IDX 57 59 72 60 92 61 55 62 56 63 71 65 93 66 58 67 41 68 42 69
REMARK SMILES IDX 51 70 43 71 44 72 50 73 52 74 45 75 46 76 47 77 48 78 49 79
REMARK SMILES IDX 75 80 76 81 85 82 77 83 78 84 84 85 86 86 79 87 80 88 81 89
REMARK SMILES IDX 82 90 83 91 59 92 60 93 69 94 61 95 62 96 68 97 70 98 63 99
REMARK SMILES IDX 64 100 65 101 66 102 67 103
REMARK H PARENT 1 13 1 14 6 18 14 29 91 53 57 64
REMARK Flexibility Score: inf
ROOT
ATOM      1  C   UNL A   1      37.824  22.119  25.719  1.00  0.00     0.188 C 
ENDROOT
BRANCH   1   2
ATOM      2  C   UNL A   1      36.905  21.568  24.617  1.00  0.00     0.188 C 
BRANCH   2   3
ATOM      3  O   UNL A   1      35.872  20.754  25.116  1.00  0.00    -0.376 OA
BRANCH   3   4
ATOM      4  C   UNL A   1      34.547  21.237  25.157  1.00  0.00     0.202 C 
BRANCH   4   5
ATOM      5  C   UNL A   1      34.038  22.483  24.411  1.00  0.00     0.261 C 
BRANCH   5   6
ATOM      6  O   UNL A   1      33.335  23.504  25.126  1.00  0.00    -0.462 OA
BRANCH   6   7
ATOM      7  C   UNL A   1      34.068  24.631  25.371  1.00  0.00     0.329 C 
ATOM      8  O   UNL A   1      35.190  24.614  25.865  1.00  0.00    -0.250 OA
BRANCH   7   9
ATOM      9  C   UNL A   1      33.268  25.928  25.144  1.00  0.00     0.201 C 
BRANCH   9  10
ATOM     10  C   UNL A   1      31.795  25.574  24.935  1.00  0.00     0.136 C 
BRANCH  10  11
ATOM     11  C   UNL A   1      30.980  25.883  26.163  1.00  0.00     0.220 C 
ATOM     12  N   UNL A   1      31.573  26.723  27.059  1.00  0.00    -0.370 N 
ATOM     13  H   UNL A   1      31.103  26.973  27.886  1.00  0.00     0.159 HD
ATOM     14  H   UNL A   1      32.472  27.082  26.876  1.00  0.00     0.159 HD
ATOM     15  O   UNL A   1      29.852  25.445  26.347  1.00  0.00    -0.275 OA
ENDBRANCH  10  11
ENDBRANCH   9  10
BRANCH   9  16
ATOM     16  N   UNL A   1      33.768  26.740  24.019  1.00  0.00    -0.338 N 
ATOM     17  C   UNL A   1      33.756  28.107  23.858  1.00  0.00     0.252 C 
ATOM     18  H   UNL A   1      34.169  26.231  23.277  1.00  0.00     0.164 HD
ATOM     19  O   UNL A   1      34.252  28.615  22.858  1.00  0.00    -0.269 OA
BRANCH  17  20
ATOM     20  C   UNL A   1      33.052  28.951  24.845  1.00  0.00     0.049 A 
ATOM     21  C   UNL A   1      31.781  29.486  24.589  1.00  0.00     0.014 A 
ATOM     22  C   UNL A   1      33.711  29.266  26.056  1.00  0.00     0.012 A 
ATOM     23  C   UNL A   1      31.221  30.419  25.460  1.00  0.00     0.003 A 
ATOM     24  C   UNL A   1      33.121  30.205  26.904  1.00  0.00     0.046 A 
ATOM     25  C   UNL A   1      34.929  28.860  26.674  1.00  0.00     0.029 A 
ATOM     26  C   UNL A   1      31.892  30.814  26.621  1.00  0.00     0.027 A 
ATOM     27  N   UNL A   1      33.968  30.373  27.976  1.00  0.00    -0.361 N 
ATOM     28  C   UNL A   1      35.056  29.551  27.856  1.00  0.00     0.083 A 
ATOM     29  H   UNL A   1      33.813  30.997  28.723  1.00  0.00     0.166 HD
ENDBRANCH  17  20
ENDBRANCH   9  16
ENDBRANCH   7   9
ENDBRANCH   6   7
ENDBRANCH   5   6
ENDBRANCH   4   5
ENDBRANCH   3   4
ENDBRANCH   2   3
ENDBRANCH   1   2
BRANCH   1  30
ATOM     30  O   UNL A   1      39.051  21.465  26.023  1.00  0.00    -0.376 OA
BRANCH  30  31
ATOM     31  C   UNL A   1      39.958  22.089  26.927  1.00  0.00     0.202 C 
BRANCH  31  32
ATOM     32  C   UNL A   1      40.808  23.300  26.494  1.00  0.00     0.261 C 
BRANCH  32  33
ATOM     33  O   UNL A   1      40.115  24.553  26.431  1.00  0.00    -0.460 OA
BRANCH  33  34
ATOM     34  C   UNL A   1      40.912  25.638  26.253  1.00  0.00     0.338 C 
ATOM     35  O   UNL A   1      41.298  26.105  25.195  1.00  0.00    -0.246 OA
BRANCH  34  36
ATOM     36  C   UNL A   1      41.080  26.328  27.550  1.00  0.00     0.060 A 
ATOM     37  C   UNL A   1      40.108  26.110  28.538  1.00  0.00     0.016 A 
ATOM     38  C   UNL A   1      42.168  27.167  27.799  1.00  0.00     0.016 A 
ATOM     39  C   UNL A   1      40.207  26.747  29.772  1.00  0.00     0.010 A 
ATOM     40  C   UNL A   1      42.245  27.837  29.025  1.00  0.00     0.010 A 
ATOM     41  C   UNL A   1      41.250  27.652  30.001  1.00  0.00    -0.014 A 
BRANCH  41  42
ATOM     42  C   UNL A   1      41.157  28.581  31.153  1.00  0.00     0.031 A 
ATOM     43  C   UNL A   1      40.108  29.658  31.099  1.00  0.00     0.074 A 
ATOM     44  C   UNL A   1      41.958  28.462  32.227  1.00  0.00     0.049 A 
ATOM     45  N   UNL A   1      39.854  30.614  31.953  1.00  0.00    -0.248 NA
ATOM     46  C   UNL A   1      39.225  29.651  29.920  1.00  0.00     0.031 C 
ATOM     47  C   UNL A   1      42.977  27.431  32.418  1.00  0.00     0.029 A 
ATOM     48  N   UNL A   1      42.039  29.230  33.362  1.00  0.00    -0.354 N 
ATOM     49  C   UNL A   1      38.786  31.321  31.416  1.00  0.00     0.074 A 
ATOM     50  C   UNL A   1      38.453  30.702  30.153  1.00  0.00     0.031 C 
ATOM     51  C   UNL A   1      43.594  27.643  33.595  1.00  0.00     0.029 A 
ATOM     52  C   UNL A   1      43.032  28.837  34.226  1.00  0.00     0.049 A 
ATOM     53  H   UNL A   1      41.441  29.992  33.539  1.00  0.00     0.167 HD
ATOM     54  C   UNL A   1      38.134  32.390  31.931  1.00  0.00     0.037 A 
ATOM     55  C   UNL A   1      43.449  29.393  35.381  1.00  0.00     0.037 A 
ATOM     56  C   UNL A   1      38.474  33.014  33.180  1.00  0.00     0.049 A 
ATOM     57  C   UNL A   1      42.757  30.631  35.899  1.00  0.00     0.074 A 
ATOM     58  C   UNL A   1      37.879  34.108  33.785  1.00  0.00     0.029 A 
ATOM     59  N   UNL A   1      39.503  32.604  34.013  1.00  0.00    -0.354 N 
ATOM     60  N   UNL A   1      41.742  31.287  35.386  1.00  0.00    -0.248 NA
ATOM     61  C   UNL A   1      43.268  31.205  37.153  1.00  0.00     0.031 C 
ATOM     62  C   UNL A   1      38.575  34.381  34.968  1.00  0.00     0.029 A 
ATOM     63  C   UNL A   1      39.573  33.433  35.120  1.00  0.00     0.049 A 
ATOM     64  H   UNL A   1      40.096  31.837  33.843  1.00  0.00     0.167 HD
ATOM     65  C   UNL A   1      41.476  32.329  36.269  1.00  0.00     0.074 A 
ATOM     66  C   UNL A   1      42.431  32.215  37.351  1.00  0.00     0.031 C 
ATOM     67  C   UNL A   1      40.524  33.293  36.194  1.00  0.00     0.037 A 
BRANCH  54  68
ATOM     68  C   UNL A   1      37.007  32.963  31.122  1.00  0.00     0.058 A 
ATOM     69  C   UNL A   1      37.243  33.694  29.947  1.00  0.00     0.135 A 
ATOM     70  C   UNL A   1      35.675  32.770  31.521  1.00  0.00     0.135 A 
ATOM     71  F   UNL A   1      38.500  33.927  29.537  1.00  0.00    -0.206 F 
ATOM     72  C   UNL A   1      36.197  34.230  29.204  1.00  0.00     0.059 A 
ATOM     73  C   UNL A   1      34.612  33.279  30.782  1.00  0.00     0.059 A 
ATOM     74  F   UNL A   1      35.398  32.088  32.643  1.00  0.00    -0.206 F 
ATOM     75  C   UNL A   1      34.884  34.018  29.631  1.00  0.00     0.060 A 
BRANCH  75  76
ATOM     76  S   UNL A   1      33.535  34.714  28.654  1.00  0.00     0.124 S 
ATOM     77  O   UNL A   1      33.255  33.624  27.725  1.00  0.00    -0.237 OA
ATOM     78  O   UNL A   1      32.512  34.963  29.665  1.00  0.00    -0.237 OA
ATOM     79  O   UNL A   1      34.128  35.909  28.060  1.00  0.00    -0.744 OA
ENDBRANCH  75  76
ENDBRANCH  54  68
BRANCH  55  80
ATOM     80  C   UNL A   1      44.592  28.804  36.128  1.00  0.00     0.058 A 
ATOM     81  C   UNL A   1      44.405  27.732  37.015  1.00  0.00     0.135 A 
ATOM     82  C   UNL A   1      45.890  29.318  35.990  1.00  0.00     0.135 A 
ATOM     83  F   UNL A   1      43.179  27.216  37.193  1.00  0.00    -0.206 F 
ATOM     84  C   UNL A   1      45.460  27.206  37.754  1.00  0.00     0.059 A 
ATOM     85  C   UNL A   1      46.965  28.792  36.701  1.00  0.00     0.059 A 
ATOM     86  F   UNL A   1      46.124  30.338  35.151  1.00  0.00    -0.206 F 
ATOM     87  C   UNL A   1      46.737  27.744  37.591  1.00  0.00     0.060 A 
BRANCH  87  88
ATOM     88  S   UNL A   1      48.107  27.034  38.531  1.00  0.00     0.124 S 
ATOM     89  O   UNL A   1      47.493  26.835  39.838  1.00  0.00    -0.237 OA
ATOM     90  O   UNL A   1      48.405  25.822  37.775  1.00  0.00    -0.237 OA
ATOM     91  O   UNL A   1      49.130  28.073  38.465  1.00  0.00    -0.744 OA
ENDBRANCH  87  88
ENDBRANCH  55  80
BRANCH  67  92
ATOM     92  C   UNL A   1      40.437  34.275  37.328  1.00  0.00     0.058 A 
ATOM     93  C   UNL A   1      41.230  35.433  37.367  1.00  0.00     0.135 A 
ATOM     94  C   UNL A   1      39.503  34.086  38.360  1.00  0.00     0.135 A 
ATOM     95  F   UNL A   1      42.140  35.659  36.407  1.00  0.00    -0.206 F 
ATOM     96  C   UNL A   1      41.115  36.357  38.401  1.00  0.00     0.059 A 
ATOM     97  C   UNL A   1      39.354  35.009  39.391  1.00  0.00     0.059 A 
ATOM     98  F   UNL A   1      38.710  33.003  38.363  1.00  0.00    -0.206 F 
ATOM     99  C   UNL A   1      40.174  36.136  39.408  1.00  0.00     0.060 A 
BRANCH  99 100
ATOM    100  S   UNL A   1      40.010  37.359  40.728  1.00  0.00     0.124 S 
ATOM    101  O   UNL A   1      40.967  38.376  40.306  1.00  0.00    -0.237 OA
ATOM    102  O   UNL A   1      38.602  37.735  40.635  1.00  0.00    -0.237 OA
ATOM    103  O   UNL A   1      40.373  36.612  41.928  1.00  0.00    -0.744 OA
ENDBRANCH  99 100
ENDBRANCH  67  92
ENDBRANCH  41  42
ENDBRANCH  34  36
ENDBRANCH  33  34
ENDBRANCH  32  33
ENDBRANCH  31  32
ENDBRANCH  30  31
ENDBRANCH   1  30
TORSDOF 24
ENDMDL
