MODEL 1
REMARK VINA RESULT:      -8.3      0.000      0.000
REMARK SMILES CCCc1n[nH]c(C(=O)Nc2ccc(Br)cc2C(=O)OCCOCCOCCOC(=O)c2ccc(-c3c4nc(c(-c5c(F)cc(S(=O)(=O)[O-])cc5F)c5ccc([nH]5)c(-c5c(F)cc(S(=O)(=O)[O-])cc5F)c5nc(c(-c6c(F)cc(S(=O)(=O)[O-])cc6F)c6ccc3[nH]6)C=C5)C=C4)cc2)n1
REMARK SMILES IDX 24 1 23 2 22 3 21 4 20 5 18 6 19 7 17 8 11 9 12 10 13 11
REMARK SMILES IDX 16 12 14 13 15 14 10 15 8 16 9 17 7 19 4 20 5 21 98 22 6 23
REMARK SMILES IDX 3 25 2 26 1 27 25 28 26 29 27 30 28 31 29 32 30 33 31 34
REMARK SMILES IDX 32 35 33 36 97 37 34 38 96 39 35 40 36 41 37 42 90 43 38 44
REMARK SMILES IDX 95 45 89 46 91 47 39 48 94 49 88 50 87 51 40 53 74 54 53 55
REMARK SMILES IDX 73 56 54 57 57 58 72 59 92 60 55 61 56 62 71 64 93 65 58 66
REMARK SMILES IDX 41 67 42 68 51 69 43 70 44 71 50 72 52 73 45 74 46 75 47 76
REMARK SMILES IDX 48 77 49 78 75 79 76 80 85 81 77 82 78 83 84 84 86 85 79 86
REMARK SMILES IDX 80 87 81 88 82 89 83 90 59 91 60 92 69 93 61 94 62 95 68 96
REMARK SMILES IDX 70 97 63 98 64 99 65 100 66 101 67 102
REMARK H PARENT 10 18 6 24 91 52 57 63
REMARK Flexibility Score: inf
ROOT
ATOM      1  C   UNL A   1      41.939  19.821  26.185  1.00  0.00     0.188 C 
ENDROOT
BRANCH   1   2
ATOM      2  O   UNL A   1      42.932  20.702  25.672  1.00  0.00    -0.376 OA
BRANCH   2   3
ATOM      3  C   UNL A   1      43.384  21.798  26.451  1.00  0.00     0.202 C 
BRANCH   3   4
ATOM      4  C   UNL A   1      44.367  22.788  25.818  1.00  0.00     0.261 C 
BRANCH   4   5
ATOM      5  O   UNL A   1      44.608  23.963  26.612  1.00  0.00    -0.460 OA
BRANCH   5   6
ATOM      6  C   UNL A   1      45.816  24.003  27.226  1.00  0.00     0.340 C 
ATOM      7  O   UNL A   1      46.854  23.516  26.801  1.00  0.00    -0.246 OA
BRANCH   6   8
ATOM      8  C   UNL A   1      45.787  24.823  28.462  1.00  0.00     0.084 A 
ATOM      9  C   UNL A   1      46.224  26.160  28.562  1.00  0.00     0.056 A 
ATOM     10  C   UNL A   1      45.921  26.848  29.743  1.00  0.00     0.028 A 
ATOM     11  C   UNL A   1      45.395  26.191  30.860  1.00  0.00     0.018 A 
ATOM     12  C   UNL A   1      45.268  24.158  29.591  1.00  0.00     0.033 A 
ATOM     13  C   UNL A   1      45.116  24.835  30.793  1.00  0.00     0.018 A 
ATOM     14  Br  UNL A   1      44.526  23.915  32.331  1.00  0.00    -0.051 Br
BRANCH   9  15
ATOM     15  N   UNL A   1      46.905  26.781  27.492  1.00  0.00    -0.318 N 
ATOM     16  C   UNL A   1      46.488  27.628  26.479  1.00  0.00     0.293 C 
ATOM     17  O   UNL A   1      47.276  27.808  25.543  1.00  0.00    -0.265 OA
ATOM     18  H   UNL A   1      47.867  26.571  27.461  1.00  0.00     0.170 HD
BRANCH  16  19
ATOM     19  C   UNL A   1      45.223  28.333  26.508  1.00  0.00     0.214 A 
ATOM     20  C   UNL A   1      43.261  29.088  26.206  1.00  0.00     0.151 A 
ATOM     21  N   UNL A   1      43.759  29.919  27.130  1.00  0.00    -0.158 NA
ATOM     22  N   UNL A   1      44.113  28.077  25.842  1.00  0.00    -0.207 NA
ATOM     23  N   UNL A   1      44.979  29.393  27.336  1.00  0.00    -0.255 N 
ATOM     24  H   UNL A   1      45.620  29.730  28.001  1.00  0.00     0.192 HD
BRANCH  20  25
ATOM     25  C   UNL A   1      41.908  29.279  25.605  1.00  0.00     0.079 C 
BRANCH  25  26
ATOM     26  C   UNL A   1      40.806  28.407  26.216  1.00  0.00     0.005 C 
ATOM     27  C   UNL A   1      39.597  29.204  26.690  1.00  0.00     0.004 C 
ENDBRANCH  25  26
ENDBRANCH  20  25
ENDBRANCH  16  19
ENDBRANCH   9  15
ENDBRANCH   6   8
ENDBRANCH   5   6
ENDBRANCH   4   5
ENDBRANCH   3   4
ENDBRANCH   2   3
ENDBRANCH   1   2
BRANCH   1  28
ATOM     28  C   UNL A   1      40.449  20.022  25.835  1.00  0.00     0.188 C 
BRANCH  28  29
ATOM     29  O   UNL A   1      39.748  20.912  26.690  1.00  0.00    -0.376 OA
BRANCH  29  30
ATOM     30  C   UNL A   1      38.782  21.740  26.054  1.00  0.00     0.202 C 
BRANCH  30  31
ATOM     31  C   UNL A   1      38.803  23.212  26.492  1.00  0.00     0.261 C 
BRANCH  31  32
ATOM     32  O   UNL A   1      39.694  23.515  27.579  1.00  0.00    -0.460 OA
BRANCH  32  33
ATOM     33  C   UNL A   1      40.746  24.316  27.297  1.00  0.00     0.338 C 
ATOM     34  O   UNL A   1      41.537  24.186  26.381  1.00  0.00    -0.246 OA
BRANCH  33  35
ATOM     35  C   UNL A   1      40.684  25.492  28.191  1.00  0.00     0.060 A 
ATOM     36  C   UNL A   1      41.861  26.203  28.451  1.00  0.00     0.016 A 
ATOM     37  C   UNL A   1      39.478  25.883  28.781  1.00  0.00     0.016 A 
ATOM     38  C   UNL A   1      41.840  27.283  29.336  1.00  0.00     0.010 A 
ATOM     39  C   UNL A   1      39.462  26.959  29.676  1.00  0.00     0.010 A 
ATOM     40  C   UNL A   1      40.650  27.644  29.984  1.00  0.00    -0.014 A 
BRANCH  40  41
ATOM     41  C   UNL A   1      40.692  28.634  31.092  1.00  0.00     0.031 A 
ATOM     42  C   UNL A   1      39.707  29.773  31.090  1.00  0.00     0.074 A 
ATOM     43  C   UNL A   1      41.562  28.502  32.110  1.00  0.00     0.049 A 
ATOM     44  N   UNL A   1      39.512  30.705  31.987  1.00  0.00    -0.248 NA
ATOM     45  C   UNL A   1      38.822  29.873  29.917  1.00  0.00     0.031 C 
ATOM     46  C   UNL A   1      42.566  27.448  32.235  1.00  0.00     0.029 A 
ATOM     47  N   UNL A   1      41.734  29.264  33.239  1.00  0.00    -0.354 N 
ATOM     48  C   UNL A   1      38.479  31.494  31.496  1.00  0.00     0.074 A 
ATOM     49  C   UNL A   1      38.116  30.958  30.202  1.00  0.00     0.031 C 
ATOM     50  C   UNL A   1      43.252  27.630  33.377  1.00  0.00     0.029 A 
ATOM     51  C   UNL A   1      42.742  28.818  34.061  1.00  0.00     0.049 A 
ATOM     52  H   UNL A   1      41.187  30.058  33.441  1.00  0.00     0.167 HD
ATOM     53  C   UNL A   1      37.876  32.561  32.074  1.00  0.00     0.037 A 
ATOM     54  C   UNL A   1      43.198  29.310  35.231  1.00  0.00     0.037 A 
ATOM     55  C   UNL A   1      38.240  33.102  33.357  1.00  0.00     0.049 A 
ATOM     56  C   UNL A   1      42.529  30.513  35.844  1.00  0.00     0.074 A 
ATOM     57  C   UNL A   1      37.672  34.168  34.036  1.00  0.00     0.029 A 
ATOM     58  N   UNL A   1      39.271  32.627  34.154  1.00  0.00    -0.354 N 
ATOM     59  N   UNL A   1      41.519  31.219  35.391  1.00  0.00    -0.248 NA
ATOM     60  C   UNL A   1      43.051  30.978  37.137  1.00  0.00     0.031 C 
ATOM     61  C   UNL A   1      38.386  34.362  35.224  1.00  0.00     0.029 A 
ATOM     62  C   UNL A   1      39.367  33.387  35.309  1.00  0.00     0.049 A 
ATOM     63  H   UNL A   1      39.849  31.862  33.932  1.00  0.00     0.167 HD
ATOM     64  C   UNL A   1      41.265  32.187  36.358  1.00  0.00     0.074 A 
ATOM     65  C   UNL A   1      42.222  31.973  37.424  1.00  0.00     0.031 C 
ATOM     66  C   UNL A   1      40.321  33.161  36.366  1.00  0.00     0.037 A 
BRANCH  53  67
ATOM     67  C   UNL A   1      36.758  33.220  31.312  1.00  0.00     0.058 A 
ATOM     68  C   UNL A   1      37.006  34.006  30.176  1.00  0.00     0.135 A 
ATOM     69  C   UNL A   1      35.424  33.045  31.710  1.00  0.00     0.135 A 
ATOM     70  F   UNL A   1      38.266  34.220  29.763  1.00  0.00    -0.206 F 
ATOM     71  C   UNL A   1      35.972  34.617  29.474  1.00  0.00     0.059 A 
ATOM     72  C   UNL A   1      34.371  33.626  31.009  1.00  0.00     0.059 A 
ATOM     73  F   UNL A   1      35.131  32.305  32.792  1.00  0.00    -0.206 F 
ATOM     74  C   UNL A   1      34.657  34.423  29.900  1.00  0.00     0.060 A 
BRANCH  74  75
ATOM     75  S   UNL A   1      33.323  35.222  28.982  1.00  0.00     0.124 S 
ATOM     76  O   UNL A   1      32.475  35.706  30.066  1.00  0.00    -0.237 OA
ATOM     77  O   UNL A   1      34.035  36.250  28.229  1.00  0.00    -0.237 OA
ATOM     78  O   UNL A   1      32.764  34.137  28.183  1.00  0.00    -0.744 OA
ENDBRANCH  74  75
ENDBRANCH  53  67
BRANCH  54  79
ATOM     79  C   UNL A   1      44.342  28.651  35.916  1.00  0.00     0.058 A 
ATOM     80  C   UNL A   1      44.138  27.614  36.839  1.00  0.00     0.135 A 
ATOM     81  C   UNL A   1      45.663  29.051  35.665  1.00  0.00     0.135 A 
ATOM     82  F   UNL A   1      42.891  27.205  37.123  1.00  0.00    -0.206 F 
ATOM     83  C   UNL A   1      45.201  27.006  37.500  1.00  0.00     0.059 A 
ATOM     84  C   UNL A   1      46.744  28.443  36.295  1.00  0.00     0.059 A 
ATOM     85  F   UNL A   1      45.911  30.034  34.785  1.00  0.00    -0.206 F 
ATOM     86  C   UNL A   1      46.502  27.427  37.220  1.00  0.00     0.060 A 
BRANCH  86  87
ATOM     87  S   UNL A   1      47.880  26.600  38.044  1.00  0.00     0.124 S 
ATOM     88  O   UNL A   1      48.719  27.732  38.422  1.00  0.00    -0.237 OA
ATOM     89  O   UNL A   1      47.211  25.906  39.141  1.00  0.00    -0.237 OA
ATOM     90  O   UNL A   1      48.422  25.732  37.003  1.00  0.00    -0.744 OA
ENDBRANCH  86  87
ENDBRANCH  54  79
BRANCH  66  91
ATOM     91  C   UNL A   1      40.248  34.045  37.583  1.00  0.00     0.058 A 
ATOM     92  C   UNL A   1      41.048  35.191  37.717  1.00  0.00     0.135 A 
ATOM     93  C   UNL A   1      39.343  33.754  38.617  1.00  0.00     0.135 A 
ATOM     94  F   UNL A   1      41.930  35.515  36.758  1.00  0.00    -0.206 F 
ATOM     95  C   UNL A   1      40.981  35.995  38.852  1.00  0.00     0.059 A 
ATOM     96  C   UNL A   1      39.241  34.559  39.747  1.00  0.00     0.059 A 
ATOM     97  F   UNL A   1      38.542  32.680  38.533  1.00  0.00    -0.206 F 
ATOM     98  C   UNL A   1      40.079  35.667  39.865  1.00  0.00     0.060 A 
BRANCH  98  99
ATOM     99  S   UNL A   1      39.998  36.717  41.332  1.00  0.00     0.124 S 
ATOM    100  O   UNL A   1      38.633  37.226  41.251  1.00  0.00    -0.237 OA
ATOM    101  O   UNL A   1      40.258  35.771  42.413  1.00  0.00    -0.237 OA
ATOM    102  O   UNL A   1      41.051  37.701  41.103  1.00  0.00    -0.744 OA
ENDBRANCH  98  99
ENDBRANCH  66  91
ENDBRANCH  40  41
ENDBRANCH  33  35
ENDBRANCH  32  33
ENDBRANCH  31  32
ENDBRANCH  30  31
ENDBRANCH  29  30
ENDBRANCH  28  29
ENDBRANCH   1  28
TORSDOF 24
ENDMDL
MODEL 2
REMARK VINA RESULT:      -7.9      1.679      3.097
REMARK SMILES CCCc1n[nH]c(C(=O)Nc2ccc(Br)cc2C(=O)OCCOCCOCCOC(=O)c2ccc(-c3c4nc(c(-c5c(F)cc(S(=O)(=O)[O-])cc5F)c5ccc([nH]5)c(-c5c(F)cc(S(=O)(=O)[O-])cc5F)c5nc(c(-c6c(F)cc(S(=O)(=O)[O-])cc6F)c6ccc3[nH]6)C=C5)C=C4)cc2)n1
REMARK SMILES IDX 24 1 23 2 22 3 21 4 20 5 18 6 19 7 17 8 11 9 12 10 13 11
REMARK SMILES IDX 16 12 14 13 15 14 10 15 8 16 9 17 7 19 4 20 5 21 98 22 6 23
REMARK SMILES IDX 3 25 2 26 1 27 25 28 26 29 27 30 28 31 29 32 30 33 31 34
REMARK SMILES IDX 32 35 33 36 97 37 34 38 96 39 35 40 36 41 37 42 90 43 38 44
REMARK SMILES IDX 95 45 89 46 91 47 39 48 94 49 88 50 87 51 40 53 74 54 53 55
REMARK SMILES IDX 73 56 54 57 57 58 72 59 92 60 55 61 56 62 71 64 93 65 58 66
REMARK SMILES IDX 41 67 42 68 51 69 43 70 44 71 50 72 52 73 45 74 46 75 47 76
REMARK SMILES IDX 48 77 49 78 75 79 76 80 85 81 77 82 78 83 84 84 86 85 79 86
REMARK SMILES IDX 80 87 81 88 82 89 83 90 59 91 60 92 69 93 61 94 62 95 68 96
REMARK SMILES IDX 70 97 63 98 64 99 65 100 66 101 67 102
REMARK H PARENT 10 18 6 24 91 52 57 63
REMARK Flexibility Score: inf
ROOT
ATOM      1  C   UNL A   1      41.531  19.939  26.247  1.00  0.00     0.188 C 
ENDROOT
BRANCH   1   2
ATOM      2  O   UNL A   1      42.567  20.496  25.445  1.00  0.00    -0.376 OA
BRANCH   2   3
ATOM      3  C   UNL A   1      43.449  21.464  25.990  1.00  0.00     0.202 C 
BRANCH   3   4
ATOM      4  C   UNL A   1      44.724  21.808  25.215  1.00  0.00     0.261 C 
BRANCH   4   5
ATOM      5  O   UNL A   1      45.704  22.525  25.989  1.00  0.00    -0.460 OA
BRANCH   5   6
ATOM      6  C   UNL A   1      46.261  23.591  25.362  1.00  0.00     0.340 C 
ATOM      7  O   UNL A   1      46.338  23.754  24.154  1.00  0.00    -0.246 OA
BRANCH   6   8
ATOM      8  C   UNL A   1      46.690  24.639  26.321  1.00  0.00     0.084 A 
ATOM      9  C   UNL A   1      45.989  25.012  27.486  1.00  0.00     0.056 A 
ATOM     10  C   UNL A   1      46.645  25.859  28.388  1.00  0.00     0.028 A 
ATOM     11  C   UNL A   1      47.855  26.480  28.061  1.00  0.00     0.018 A 
ATOM     12  C   UNL A   1      47.903  25.273  25.987  1.00  0.00     0.033 A 
ATOM     13  C   UNL A   1      48.455  26.220  26.839  1.00  0.00     0.018 A 
ATOM     14  Br  UNL A   1      50.019  27.149  26.338  1.00  0.00    -0.051 Br
BRANCH   9  15
ATOM     15  N   UNL A   1      44.693  24.513  27.743  1.00  0.00    -0.318 N 
ATOM     16  C   UNL A   1      44.056  24.103  28.903  1.00  0.00     0.293 C 
ATOM     17  O   UNL A   1      42.996  23.482  28.767  1.00  0.00    -0.265 OA
ATOM     18  H   UNL A   1      44.130  24.443  26.937  1.00  0.00     0.170 HD
BRANCH  16  19
ATOM     19  C   UNL A   1      44.547  24.419  30.228  1.00  0.00     0.214 A 
ATOM     20  C   UNL A   1      45.526  25.186  31.950  1.00  0.00     0.151 A 
ATOM     21  N   UNL A   1      44.808  24.169  32.445  1.00  0.00    -0.158 NA
ATOM     22  N   UNL A   1      45.349  25.396  30.607  1.00  0.00    -0.207 NA
ATOM     23  N   UNL A   1      44.166  23.733  31.347  1.00  0.00    -0.255 N 
ATOM     24  H   UNL A   1      43.502  23.007  31.349  1.00  0.00     0.192 HD
BRANCH  20  25
ATOM     25  C   UNL A   1      46.461  25.987  32.792  1.00  0.00     0.079 C 
BRANCH  25  26
ATOM     26  C   UNL A   1      47.287  27.025  32.023  1.00  0.00     0.005 C 
ATOM     27  C   UNL A   1      46.750  28.444  32.157  1.00  0.00     0.004 C 
ENDBRANCH  25  26
ENDBRANCH  20  25
ENDBRANCH  16  19
ENDBRANCH   9  15
ENDBRANCH   6   8
ENDBRANCH   5   6
ENDBRANCH   4   5
ENDBRANCH   3   4
ENDBRANCH   2   3
ENDBRANCH   1   2
BRANCH   1  28
ATOM     28  C   UNL A   1      40.079  20.448  26.123  1.00  0.00     0.188 C 
BRANCH  28  29
ATOM     29  O   UNL A   1      39.778  21.597  26.900  1.00  0.00    -0.376 OA
BRANCH  29  30
ATOM     30  C   UNL A   1      38.920  22.548  26.282  1.00  0.00     0.202 C 
BRANCH  30  31
ATOM     31  C   UNL A   1      39.500  23.966  26.172  1.00  0.00     0.261 C 
BRANCH  31  32
ATOM     32  O   UNL A   1      40.901  24.080  26.471  1.00  0.00    -0.460 OA
BRANCH  32  33
ATOM     33  C   UNL A   1      41.496  25.254  26.158  1.00  0.00     0.338 C 
ATOM     34  O   UNL A   1      42.065  25.529  25.117  1.00  0.00    -0.246 OA
BRANCH  33  35
ATOM     35  C   UNL A   1      41.194  26.226  27.230  1.00  0.00     0.060 A 
ATOM     36  C   UNL A   1      41.904  27.431  27.265  1.00  0.00     0.016 A 
ATOM     37  C   UNL A   1      40.229  25.944  28.203  1.00  0.00     0.016 A 
ATOM     38  C   UNL A   1      41.677  28.341  28.301  1.00  0.00     0.010 A 
ATOM     39  C   UNL A   1      40.013  26.853  29.245  1.00  0.00     0.010 A 
ATOM     40  C   UNL A   1      40.759  28.042  29.319  1.00  0.00    -0.014 A 
BRANCH  40  41
ATOM     41  C   UNL A   1      40.703  28.903  30.529  1.00  0.00     0.031 A 
ATOM     42  C   UNL A   1      39.672  29.998  30.596  1.00  0.00     0.074 A 
ATOM     43  C   UNL A   1      41.525  28.690  31.572  1.00  0.00     0.049 A 
ATOM     44  N   UNL A   1      39.393  30.817  31.578  1.00  0.00    -0.248 NA
ATOM     45  C   UNL A   1      38.844  30.195  29.395  1.00  0.00     0.031 C 
ATOM     46  C   UNL A   1      42.566  27.667  31.636  1.00  0.00     0.029 A 
ATOM     47  N   UNL A   1      41.608  29.328  32.786  1.00  0.00    -0.354 N 
ATOM     48  C   UNL A   1      38.353  31.617  31.120  1.00  0.00     0.074 A 
ATOM     49  C   UNL A   1      38.079  31.215  29.757  1.00  0.00     0.031 C 
ATOM     50  C   UNL A   1      43.185  27.746  32.827  1.00  0.00     0.029 A 
ATOM     51  C   UNL A   1      42.591  28.830  33.608  1.00  0.00     0.049 A 
ATOM     52  H   UNL A   1      41.018  30.074  33.042  1.00  0.00     0.167 HD
ATOM     53  C   UNL A   1      37.676  32.590  31.777  1.00  0.00     0.037 A 
ATOM     54  C   UNL A   1      42.966  29.205  34.848  1.00  0.00     0.037 A 
ATOM     55  C   UNL A   1      37.952  32.998  33.130  1.00  0.00     0.049 A 
ATOM     56  C   UNL A   1      42.216  30.308  35.550  1.00  0.00     0.074 A 
ATOM     57  C   UNL A   1      37.306  33.960  33.888  1.00  0.00     0.029 A 
ATOM     58  N   UNL A   1      38.961  32.476  33.925  1.00  0.00    -0.354 N 
ATOM     59  N   UNL A   1      41.201  31.022  35.123  1.00  0.00    -0.248 NA
ATOM     60  C   UNL A   1      42.652  30.645  36.914  1.00  0.00     0.031 C 
ATOM     61  C   UNL A   1      37.950  34.047  35.128  1.00  0.00     0.029 A 
ATOM     62  C   UNL A   1      38.966  33.105  35.160  1.00  0.00     0.049 A 
ATOM     63  H   UNL A   1      39.581  31.762  33.653  1.00  0.00     0.167 HD
ATOM     64  C   UNL A   1      40.857  31.867  36.174  1.00  0.00     0.074 A 
ATOM     65  C   UNL A   1      41.768  31.571  37.261  1.00  0.00     0.031 C 
ATOM     66  C   UNL A   1      39.874  32.799  36.237  1.00  0.00     0.037 A 
BRANCH  53  67
ATOM     67  C   UNL A   1      36.572  33.289  31.032  1.00  0.00     0.058 A 
ATOM     68  C   UNL A   1      36.843  34.194  29.993  1.00  0.00     0.135 A 
ATOM     69  C   UNL A   1      35.228  33.032  31.343  1.00  0.00     0.135 A 
ATOM     70  F   UNL A   1      38.112  34.488  29.667  1.00  0.00    -0.206 F 
ATOM     71  C   UNL A   1      35.821  34.841  29.307  1.00  0.00     0.059 A 
ATOM     72  C   UNL A   1      34.188  33.648  30.653  1.00  0.00     0.059 A 
ATOM     73  F   UNL A   1      34.913  32.176  32.329  1.00  0.00    -0.206 F 
ATOM     74  C   UNL A   1      34.495  34.563  29.646  1.00  0.00     0.060 A 
BRANCH  74  75
ATOM     75  S   UNL A   1      33.177  35.410  28.749  1.00  0.00     0.124 S 
ATOM     76  O   UNL A   1      32.394  35.971  29.845  1.00  0.00    -0.237 OA
ATOM     77  O   UNL A   1      33.918  36.375  27.942  1.00  0.00    -0.237 OA
ATOM     78  O   UNL A   1      32.532  34.336  28.001  1.00  0.00    -0.744 OA
ENDBRANCH  74  75
ENDBRANCH  53  67
BRANCH  54  79
ATOM     79  C   UNL A   1      44.100  28.517  35.519  1.00  0.00     0.058 A 
ATOM     80  C   UNL A   1      45.402  29.038  35.464  1.00  0.00     0.135 A 
ATOM     81  C   UNL A   1      43.905  27.321  36.225  1.00  0.00     0.135 A 
ATOM     82  F   UNL A   1      45.643  30.173  34.790  1.00  0.00    -0.206 F 
ATOM     83  C   UNL A   1      46.473  28.389  36.072  1.00  0.00     0.059 A 
ATOM     84  C   UNL A   1      44.954  26.666  36.861  1.00  0.00     0.059 A 
ATOM     85  F   UNL A   1      42.676  26.786  36.313  1.00  0.00    -0.206 F 
ATOM     86  C   UNL A   1      46.239  27.204  36.771  1.00  0.00     0.060 A 
BRANCH  86  87
ATOM     87  S   UNL A   1      47.625  26.394  37.599  1.00  0.00     0.124 S 
ATOM     88  O   UNL A   1      46.952  25.710  38.698  1.00  0.00    -0.237 OA
ATOM     89  O   UNL A   1      48.156  25.538  36.543  1.00  0.00    -0.237 OA
ATOM     90  O   UNL A   1      48.485  27.510  37.982  1.00  0.00    -0.744 OA
ENDBRANCH  86  87
ENDBRANCH  54  79
BRANCH  66  91
ATOM     91  C   UNL A   1      39.702  33.539  37.537  1.00  0.00     0.058 A 
ATOM     92  C   UNL A   1      38.750  33.149  38.492  1.00  0.00     0.135 A 
ATOM     93  C   UNL A   1      40.522  34.638  37.840  1.00  0.00     0.135 A 
ATOM     94  F   UNL A   1      37.940  32.106  38.253  1.00  0.00    -0.206 F 
ATOM     95  C   UNL A   1      38.591  33.848  39.686  1.00  0.00     0.059 A 
ATOM     96  C   UNL A   1      40.398  35.333  39.038  1.00  0.00     0.059 A 
ATOM     97  F   UNL A   1      41.460  35.043  36.969  1.00  0.00    -0.206 F 
ATOM     98  C   UNL A   1      39.416  34.944  39.947  1.00  0.00     0.060 A 
BRANCH  98  99
ATOM     99  S   UNL A   1      39.204  35.842  41.499  1.00  0.00     0.124 S 
ATOM    100  O   UNL A   1      40.108  35.115  42.384  1.00  0.00    -0.237 OA
ATOM    101  O   UNL A   1      39.620  37.195  41.141  1.00  0.00    -0.237 OA
ATOM    102  O   UNL A   1      37.781  35.688  41.788  1.00  0.00    -0.744 OA
ENDBRANCH  98  99
ENDBRANCH  66  91
ENDBRANCH  40  41
ENDBRANCH  33  35
ENDBRANCH  32  33
ENDBRANCH  31  32
ENDBRANCH  30  31
ENDBRANCH  29  30
ENDBRANCH  28  29
ENDBRANCH   1  28
TORSDOF 24
ENDMDL
MODEL 3
REMARK VINA RESULT:      -7.8      6.717     12.585
REMARK SMILES CCCc1n[nH]c(C(=O)Nc2ccc(Br)cc2C(=O)OCCOCCOCCOC(=O)c2ccc(-c3c4nc(c(-c5c(F)cc(S(=O)(=O)[O-])cc5F)c5ccc([nH]5)c(-c5c(F)cc(S(=O)(=O)[O-])cc5F)c5nc(c(-c6c(F)cc(S(=O)(=O)[O-])cc6F)c6ccc3[nH]6)C=C5)C=C4)cc2)n1
REMARK SMILES IDX 24 1 23 2 22 3 21 4 20 5 18 6 19 7 17 8 11 9 12 10 13 11
REMARK SMILES IDX 16 12 14 13 15 14 10 15 8 16 9 17 7 19 4 20 5 21 98 22 6 23
REMARK SMILES IDX 3 25 2 26 1 27 25 28 26 29 27 30 28 31 29 32 30 33 31 34
REMARK SMILES IDX 32 35 33 36 97 37 34 38 96 39 35 40 36 41 37 42 90 43 38 44
REMARK SMILES IDX 95 45 89 46 91 47 39 48 94 49 88 50 87 51 40 53 74 54 53 55
REMARK SMILES IDX 73 56 54 57 57 58 72 59 92 60 55 61 56 62 71 64 93 65 58 66
REMARK SMILES IDX 41 67 42 68 51 69 43 70 44 71 50 72 52 73 45 74 46 75 47 76
REMARK SMILES IDX 48 77 49 78 75 79 76 80 85 81 77 82 78 83 84 84 86 85 79 86
REMARK SMILES IDX 80 87 81 88 82 89 83 90 59 91 60 92 69 93 61 94 62 95 68 96
REMARK SMILES IDX 70 97 63 98 64 99 65 100 66 101 67 102
REMARK H PARENT 10 18 6 24 91 52 57 63
REMARK Flexibility Score: inf
ROOT
ATOM      1  C   UNL A   1      46.768  21.330  37.676  1.00  0.00     0.188 C 
ENDROOT
BRANCH   1   2
ATOM      2  O   UNL A   1      46.102  20.188  38.204  1.00  0.00    -0.376 OA
BRANCH   2   3
ATOM      3  C   UNL A   1      46.850  19.059  38.628  1.00  0.00     0.202 C 
BRANCH   3   4
ATOM      4  C   UNL A   1      46.234  18.128  39.677  1.00  0.00     0.261 C 
BRANCH   4   5
ATOM      5  O   UNL A   1      47.108  17.830  40.781  1.00  0.00    -0.460 OA
BRANCH   5   6
ATOM      6  C   UNL A   1      46.553  17.079  41.764  1.00  0.00     0.340 C 
ATOM      7  O   UNL A   1      46.704  15.877  41.922  1.00  0.00    -0.246 OA
BRANCH   6   8
ATOM      8  C   UNL A   1      45.800  17.906  42.740  1.00  0.00     0.084 A 
ATOM      9  C   UNL A   1      44.403  18.100  42.734  1.00  0.00     0.056 A 
ATOM     10  C   UNL A   1      43.836  18.726  43.851  1.00  0.00     0.028 A 
ATOM     11  C   UNL A   1      44.629  19.321  44.837  1.00  0.00     0.018 A 
ATOM     12  C   UNL A   1      46.598  18.515  43.727  1.00  0.00     0.033 A 
ATOM     13  C   UNL A   1      46.011  19.255  44.744  1.00  0.00     0.018 A 
ATOM     14  Br  UNL A   1      47.087  20.163  46.001  1.00  0.00    -0.051 Br
BRANCH   9  15
ATOM     15  N   UNL A   1      43.612  17.643  41.656  1.00  0.00    -0.318 N 
ATOM     16  C   UNL A   1      43.045  16.414  41.363  1.00  0.00     0.293 C 
ATOM     17  O   UNL A   1      42.611  16.260  40.215  1.00  0.00    -0.265 OA
ATOM     18  H   UNL A   1      43.428  18.335  40.980  1.00  0.00     0.170 HD
BRANCH  16  19
ATOM     19  C   UNL A   1      42.894  15.358  42.343  1.00  0.00     0.214 A 
ATOM     20  C   UNL A   1      43.112  13.726  43.684  1.00  0.00     0.151 A 
ATOM     21  N   UNL A   1      41.804  14.004  43.765  1.00  0.00    -0.158 NA
ATOM     22  N   UNL A   1      43.815  14.568  42.862  1.00  0.00    -0.207 NA
ATOM     23  N   UNL A   1      41.703  15.066  42.946  1.00  0.00    -0.255 N 
ATOM     24  H   UNL A   1      40.872  15.570  42.797  1.00  0.00     0.192 HD
BRANCH  20  25
ATOM     25  C   UNL A   1      43.729  12.573  44.402  1.00  0.00     0.079 C 
BRANCH  25  26
ATOM     26  C   UNL A   1      42.806  11.363  44.585  1.00  0.00     0.005 C 
ATOM     27  C   UNL A   1      42.834  10.398  43.406  1.00  0.00     0.004 C 
ENDBRANCH  25  26
ENDBRANCH  20  25
ENDBRANCH  16  19
ENDBRANCH   9  15
ENDBRANCH   6   8
ENDBRANCH   5   6
ENDBRANCH   4   5
ENDBRANCH   3   4
ENDBRANCH   2   3
ENDBRANCH   1   2
BRANCH   1  28
ATOM     28  C   UNL A   1      45.966  22.505  37.079  1.00  0.00     0.188 C 
BRANCH  28  29
ATOM     29  O   UNL A   1      46.580  23.778  37.210  1.00  0.00    -0.376 OA
BRANCH  29  30
ATOM     30  C   UNL A   1      47.998  23.765  37.326  1.00  0.00     0.202 C 
BRANCH  30  31
ATOM     31  C   UNL A   1      48.591  24.926  38.139  1.00  0.00     0.261 C 
BRANCH  31  32
ATOM     32  O   UNL A   1      47.786  26.117  38.182  1.00  0.00    -0.460 OA
BRANCH  32  33
ATOM     33  C   UNL A   1      48.177  27.143  37.393  1.00  0.00     0.338 C 
ATOM     34  O   UNL A   1      49.311  27.386  37.021  1.00  0.00    -0.246 OA
BRANCH  33  35
ATOM     35  C   UNL A   1      46.968  27.839  36.906  1.00  0.00     0.060 A 
ATOM     36  C   UNL A   1      45.713  27.291  37.194  1.00  0.00     0.016 A 
ATOM     37  C   UNL A   1      47.070  29.016  36.158  1.00  0.00     0.016 A 
ATOM     38  C   UNL A   1      44.558  27.899  36.697  1.00  0.00     0.010 A 
ATOM     39  C   UNL A   1      45.911  29.617  35.652  1.00  0.00     0.010 A 
ATOM     40  C   UNL A   1      44.650  29.043  35.891  1.00  0.00    -0.014 A 
BRANCH  40  41
ATOM     41  C   UNL A   1      43.443  29.536  35.180  1.00  0.00     0.031 A 
ATOM     42  C   UNL A   1      42.612  30.619  35.818  1.00  0.00     0.074 A 
ATOM     43  C   UNL A   1      43.108  29.063  33.966  1.00  0.00     0.049 A 
ATOM     44  N   UNL A   1      41.567  31.250  35.349  1.00  0.00    -0.248 NA
ATOM     45  C   UNL A   1      43.018  31.048  37.167  1.00  0.00     0.031 C 
ATOM     46  C   UNL A   1      43.824  28.017  33.238  1.00  0.00     0.029 A 
ATOM     47  N   UNL A   1      42.076  29.408  33.128  1.00  0.00    -0.354 N 
ATOM     48  C   UNL A   1      41.195  32.155  36.336  1.00  0.00     0.074 A 
ATOM     49  C   UNL A   1      42.102  31.963  37.447  1.00  0.00     0.031 C 
ATOM     50  C   UNL A   1      43.209  27.805  32.061  1.00  0.00     0.029 A 
ATOM     51  C   UNL A   1      42.051  28.692  31.954  1.00  0.00     0.049 A 
ATOM     52  H   UNL A   1      41.414  30.104  33.348  1.00  0.00     0.167 HD
ATOM     53  C   UNL A   1      40.200  33.074  36.315  1.00  0.00     0.037 A 
ATOM     54  C   UNL A   1      41.195  28.748  30.914  1.00  0.00     0.037 A 
ATOM     55  C   UNL A   1      39.292  33.262  35.214  1.00  0.00     0.049 A 
ATOM     56  C   UNL A   1      40.078  29.761  30.924  1.00  0.00     0.074 A 
ATOM     57  C   UNL A   1      38.265  34.183  35.091  1.00  0.00     0.029 A 
ATOM     58  N   UNL A   1      39.294  32.511  34.047  1.00  0.00    -0.354 N 
ATOM     59  N   UNL A   1      39.771  30.646  31.843  1.00  0.00    -0.248 NA
ATOM     60  C   UNL A   1      39.201  29.795  29.744  1.00  0.00     0.031 C 
ATOM     61  C   UNL A   1      37.620  33.962  33.868  1.00  0.00     0.029 A 
ATOM     62  C   UNL A   1      38.277  32.936  33.207  1.00  0.00     0.049 A 
ATOM     63  H   UNL A   1      39.926  31.784  33.846  1.00  0.00     0.167 HD
ATOM     64  C   UNL A   1      38.689  31.361  31.338  1.00  0.00     0.074 A 
ATOM     65  C   UNL A   1      38.399  30.811  30.031  1.00  0.00     0.031 C 
ATOM     66  C   UNL A   1      38.001  32.385  31.904  1.00  0.00     0.037 A 
BRANCH  53  67
ATOM     67  C   UNL A   1      40.037  33.944  37.531  1.00  0.00     0.058 A 
ATOM     68  C   UNL A   1      39.113  33.632  38.541  1.00  0.00     0.135 A 
ATOM     69  C   UNL A   1      40.830  35.090  37.699  1.00  0.00     0.135 A 
ATOM     70  F   UNL A   1      38.317  32.557  38.420  1.00  0.00    -0.206 F 
ATOM     71  C   UNL A   1      38.962  34.440  39.663  1.00  0.00     0.059 A 
ATOM     72  C   UNL A   1      40.714  35.899  38.826  1.00  0.00     0.059 A 
ATOM     73  F   UNL A   1      41.728  35.436  36.762  1.00  0.00    -0.206 F 
ATOM     74  C   UNL A   1      39.766  35.574  39.796  1.00  0.00     0.060 A 
BRANCH  74  75
ATOM     75  S   UNL A   1      39.560  36.614  41.256  1.00  0.00     0.124 S 
ATOM     76  O   UNL A   1      38.521  37.537  40.810  1.00  0.00    -0.237 OA
ATOM     77  O   UNL A   1      39.154  35.649  42.274  1.00  0.00    -0.237 OA
ATOM     78  O   UNL A   1      40.882  37.201  41.445  1.00  0.00    -0.744 OA
ENDBRANCH  74  75
ENDBRANCH  53  67
BRANCH  54  79
ATOM     79  C   UNL A   1      41.369  27.827  29.760  1.00  0.00     0.058 A 
ATOM     80  C   UNL A   1      42.444  27.972  28.870  1.00  0.00     0.135 A 
ATOM     81  C   UNL A   1      40.460  26.786  29.522  1.00  0.00     0.135 A 
ATOM     82  F   UNL A   1      43.333  28.962  29.047  1.00  0.00    -0.206 F 
ATOM     83  C   UNL A   1      42.603  27.127  27.775  1.00  0.00     0.059 A 
ATOM     84  C   UNL A   1      40.610  25.913  28.449  1.00  0.00     0.059 A 
ATOM     85  F   UNL A   1      39.419  26.600  30.350  1.00  0.00    -0.206 F 
ATOM     86  C   UNL A   1      41.681  26.098  27.574  1.00  0.00     0.060 A 
BRANCH  86  87
ATOM     87  S   UNL A   1      41.922  24.975  26.180  1.00  0.00     0.124 S 
ATOM     88  O   UNL A   1      41.731  25.871  25.045  1.00  0.00    -0.237 OA
ATOM     89  O   UNL A   1      43.285  24.502  26.398  1.00  0.00    -0.237 OA
ATOM     90  O   UNL A   1      40.880  23.971  26.375  1.00  0.00    -0.744 OA
ENDBRANCH  86  87
ENDBRANCH  54  79
BRANCH  66  91
ATOM     91  C   UNL A   1      36.894  33.006  31.096  1.00  0.00     0.058 A 
ATOM     92  C   UNL A   1      35.544  32.693  31.321  1.00  0.00     0.135 A 
ATOM     93  C   UNL A   1      37.188  33.950  30.098  1.00  0.00     0.135 A 
ATOM     94  F   UNL A   1      35.207  31.797  32.263  1.00  0.00    -0.206 F 
ATOM     95  C   UNL A   1      34.529  33.264  30.560  1.00  0.00     0.059 A 
ATOM     96  C   UNL A   1      36.187  34.553  29.343  1.00  0.00     0.059 A 
ATOM     97  F   UNL A   1      38.461  34.298  29.851  1.00  0.00    -0.206 F 
ATOM     98  C   UNL A   1      34.860  34.188  29.567  1.00  0.00     0.060 A 
BRANCH  98  99
ATOM     99  S   UNL A   1      33.536  34.926  28.586  1.00  0.00     0.124 S 
ATOM    100  O   UNL A   1      33.070  33.777  27.816  1.00  0.00    -0.237 OA
ATOM    101  O   UNL A   1      32.619  35.417  29.609  1.00  0.00    -0.237 OA
ATOM    102  O   UNL A   1      34.221  35.962  27.818  1.00  0.00    -0.744 OA
ENDBRANCH  98  99
ENDBRANCH  66  91
ENDBRANCH  40  41
ENDBRANCH  33  35
ENDBRANCH  32  33
ENDBRANCH  31  32
ENDBRANCH  30  31
ENDBRANCH  29  30
ENDBRANCH  28  29
ENDBRANCH   1  28
TORSDOF 24
ENDMDL
