MODEL 1
REMARK VINA RESULT:     -10.0      0.000      0.000
REMARK SMILES C[NH2+][C@]1(C(=O)OCCOCCOCCOC(=O)c2ccc(-c3c4nc(c(-c5c(F)cc(S(=O)(=O)[O-])cc5F)c5ccc([nH]5)c(-c5c(F)cc(S(=O)(=O)[O-])cc5F)c5nc(c(-c6c(F)cc(S(=O)(=O)[O-])cc6F)c6ccc3[nH]6)C=C5)C=C4)cc2)CCC[C@@H]([N@H+]2CC[C@@H](C)C2)C1
REMARK SMILES IDX 11 1 10 2 9 3 8 4 7 5 6 6 4 7 5 8 3 9 84 10 94 11 85 12
REMARK SMILES IDX 87 13 86 14 2 15 1 16 88 19 89 20 93 21 90 23 91 24 92 25
REMARK SMILES IDX 12 26 13 27 14 28 15 29 16 30 17 31 18 32 19 33 83 34 20 35
REMARK SMILES IDX 82 36 21 37 22 38 23 39 76 40 24 41 81 42 75 43 77 44 25 45
REMARK SMILES IDX 80 46 74 47 73 48 26 50 60 51 39 52 59 53 40 54 43 55 58 56
REMARK SMILES IDX 78 57 41 58 42 59 57 61 79 62 44 63 27 64 28 65 37 66 29 67
REMARK SMILES IDX 30 68 36 69 38 70 31 71 32 72 33 73 34 74 35 75 61 76 62 77
REMARK SMILES IDX 71 78 63 79 64 80 70 81 72 82 65 83 66 84 67 85 68 86 69 87
REMARK SMILES IDX 45 88 46 89 55 90 47 91 48 92 54 93 56 94 49 95 50 96 51 97
REMARK SMILES IDX 52 98 53 99
REMARK H PARENT 2 17 2 18 88 22 77 49 43 60
REMARK Flexibility Score: inf
ROOT
ATOM      1  C   UNL A   1      41.070  22.444  26.570  1.00  0.00     0.188 C 
ENDROOT
BRANCH   1   2
ATOM      2  C   UNL A   1      39.949  21.488  26.121  1.00  0.00     0.188 C 
BRANCH   2   3
ATOM      3  O   UNL A   1      38.593  21.904  26.121  1.00  0.00    -0.376 OA
BRANCH   3   4
ATOM      4  C   UNL A   1      38.245  23.270  25.987  1.00  0.00     0.202 C 
BRANCH   4   5
ATOM      5  C   UNL A   1      36.838  23.623  25.509  1.00  0.00     0.261 C 
BRANCH   5   6
ATOM      6  O   UNL A   1      36.185  22.564  24.786  1.00  0.00    -0.459 OA
BRANCH   6   7
ATOM      7  C   UNL A   1      35.295  22.976  23.845  1.00  0.00     0.368 C 
ATOM      8  O   UNL A   1      35.537  23.842  23.006  1.00  0.00    -0.245 OA
BRANCH   7   9
ATOM      9  C   UNL A   1      33.872  22.350  23.991  1.00  0.00     0.199 C 
ATOM     10  C   UNL A   1      33.084  22.064  22.697  1.00  0.00     0.081 C 
ATOM     11  C   UNL A   1      34.265  21.002  24.587  1.00  0.00     0.146 C 
ATOM     12  C   UNL A   1      31.879  21.139  22.920  1.00  0.00     0.013 C 
ATOM     13  C   UNL A   1      33.125  20.035  24.878  1.00  0.00     0.190 C 
ATOM     14  C   UNL A   1      32.247  19.831  23.625  1.00  0.00     0.065 C 
BRANCH   9  15
ATOM     15  N   UNL A   1      33.160  23.100  25.061  1.00  0.00    -0.334 N 
ATOM     16  C   UNL A   1      32.555  24.373  24.737  1.00  0.00     0.331 C 
ATOM     17  H   UNL A   1      32.415  22.493  25.407  1.00  0.00     0.347 HD
ATOM     18  H   UNL A   1      33.895  23.339  25.727  1.00  0.00     0.347 HD
ENDBRANCH   9  15
BRANCH  13  19
ATOM     19  N   UNL A   1      33.643  18.762  25.436  1.00  0.00    -0.332 N 
ATOM     20  C   UNL A   1      32.657  17.685  25.583  1.00  0.00     0.262 C 
ATOM     21  C   UNL A   1      34.794  18.213  24.690  1.00  0.00     0.265 C 
ATOM     22  H   UNL A   1      33.933  19.057  26.368  1.00  0.00     0.348 HD
ATOM     23  C   UNL A   1      33.274  16.414  25.011  1.00  0.00     0.070 C 
ATOM     24  C   UNL A   1      34.360  16.888  24.056  1.00  0.00     0.047 C 
ATOM     25  C   UNL A   1      33.857  16.963  22.612  1.00  0.00     0.014 C 
ENDBRANCH  13  19
ENDBRANCH   7   9
ENDBRANCH   6   7
ENDBRANCH   5   6
ENDBRANCH   4   5
ENDBRANCH   3   4
ENDBRANCH   2   3
ENDBRANCH   1   2
BRANCH   1  26
ATOM     26  O   UNL A   1      42.406  21.996  26.692  1.00  0.00    -0.376 OA
BRANCH  26  27
ATOM     27  C   UNL A   1      43.430  22.806  26.140  1.00  0.00     0.202 C 
BRANCH  27  28
ATOM     28  C   UNL A   1      43.020  23.948  25.204  1.00  0.00     0.261 C 
BRANCH  28  29
ATOM     29  O   UNL A   1      43.209  25.261  25.765  1.00  0.00    -0.460 OA
BRANCH  29  30
ATOM     30  C   UNL A   1      42.078  25.976  25.971  1.00  0.00     0.338 C 
ATOM     31  O   UNL A   1      41.096  26.029  25.231  1.00  0.00    -0.246 OA
BRANCH  30  32
ATOM     32  C   UNL A   1      42.073  26.552  27.326  1.00  0.00     0.060 A 
ATOM     33  C   UNL A   1      41.102  26.105  28.234  1.00  0.00     0.016 A 
ATOM     34  C   UNL A   1      42.943  27.583  27.679  1.00  0.00     0.016 A 
ATOM     35  C   UNL A   1      40.984  26.695  29.491  1.00  0.00     0.010 A 
ATOM     36  C   UNL A   1      42.801  28.199  28.930  1.00  0.00     0.010 A 
ATOM     37  C   UNL A   1      41.803  27.777  29.829  1.00  0.00    -0.014 A 
BRANCH  37  38
ATOM     38  C   UNL A   1      41.479  28.593  31.025  1.00  0.00     0.031 A 
ATOM     39  C   UNL A   1      40.328  29.560  30.939  1.00  0.00     0.074 A 
ATOM     40  C   UNL A   1      42.159  28.458  32.178  1.00  0.00     0.049 A 
ATOM     41  N   UNL A   1      39.937  30.467  31.793  1.00  0.00    -0.248 NA
ATOM     42  C   UNL A   1      39.508  29.488  29.717  1.00  0.00     0.031 C 
ATOM     43  C   UNL A   1      43.231  27.496  32.421  1.00  0.00     0.029 A 
ATOM     44  N   UNL A   1      42.048  29.148  33.361  1.00  0.00    -0.354 N 
ATOM     45  C   UNL A   1      38.843  31.092  31.207  1.00  0.00     0.074 A 
ATOM     46  C   UNL A   1      38.637  30.466  29.918  1.00  0.00     0.031 C 
ATOM     47  C   UNL A   1      43.696  27.670  33.671  1.00  0.00     0.029 A 
ATOM     48  C   UNL A   1      42.987  28.786  34.297  1.00  0.00     0.049 A 
ATOM     49  H   UNL A   1      41.362  29.834  33.524  1.00  0.00     0.167 HD
ATOM     50  C   UNL A   1      38.078  32.097  31.697  1.00  0.00     0.037 A 
ATOM     51  C   UNL A   1      43.269  29.322  35.503  1.00  0.00     0.037 A 
ATOM     52  C   UNL A   1      38.283  32.710  32.982  1.00  0.00     0.049 A 
ATOM     53  C   UNL A   1      42.461  30.498  35.996  1.00  0.00     0.074 A 
ATOM     54  C   UNL A   1      37.577  33.747  33.564  1.00  0.00     0.029 A 
ATOM     55  N   UNL A   1      39.268  32.341  33.887  1.00  0.00    -0.354 N 
ATOM     56  N   UNL A   1      41.454  31.109  35.416  1.00  0.00    -0.248 NA
ATOM     57  C   UNL A   1      42.833  31.063  37.301  1.00  0.00     0.031 C 
ATOM     58  C   UNL A   1      38.160  34.033  34.803  1.00  0.00     0.029 A 
ATOM     59  C   UNL A   1      39.199  33.140  35.015  1.00  0.00     0.049 A 
ATOM     60  H   UNL A   1      39.920  31.616  33.748  1.00  0.00     0.167 HD
ATOM     61  C   UNL A   1      41.059  32.112  36.297  1.00  0.00     0.074 A 
ATOM     62  C   UNL A   1      41.928  32.020  37.452  1.00  0.00     0.031 C 
ATOM     63  C   UNL A   1      40.066  33.028  36.162  1.00  0.00     0.037 A 
BRANCH  50  64
ATOM     64  C   UNL A   1      36.982  32.624  30.815  1.00  0.00     0.058 A 
ATOM     65  C   UNL A   1      37.202  33.660  29.894  1.00  0.00     0.135 A 
ATOM     66  C   UNL A   1      35.691  32.075  30.888  1.00  0.00     0.135 A 
ATOM     67  F   UNL A   1      38.412  34.236  29.800  1.00  0.00    -0.206 F 
ATOM     68  C   UNL A   1      36.173  34.154  29.097  1.00  0.00     0.059 A 
ATOM     69  C   UNL A   1      34.655  32.535  30.081  1.00  0.00     0.059 A 
ATOM     70  F   UNL A   1      35.425  31.085  31.755  1.00  0.00    -0.206 F 
ATOM     71  C   UNL A   1      34.903  33.587  29.201  1.00  0.00     0.060 A 
BRANCH  71  72
ATOM     72  S   UNL A   1      33.576  34.243  28.167  1.00  0.00     0.124 S 
ATOM     73  O   UNL A   1      32.880  35.117  29.107  1.00  0.00    -0.237 OA
ATOM     74  O   UNL A   1      34.313  34.918  27.103  1.00  0.00    -0.237 OA
ATOM     75  O   UNL A   1      32.841  33.050  27.758  1.00  0.00    -0.744 OA
ENDBRANCH  71  72
ENDBRANCH  50  64
BRANCH  51  76
ATOM     76  C   UNL A   1      44.395  28.784  36.315  1.00  0.00     0.058 A 
ATOM     77  C   UNL A   1      44.229  27.662  37.140  1.00  0.00     0.135 A 
ATOM     78  C   UNL A   1      45.661  29.390  36.286  1.00  0.00     0.135 A 
ATOM     79  F   UNL A   1      43.033  27.058  37.216  1.00  0.00    -0.206 F 
ATOM     80  C   UNL A   1      45.272  27.167  37.916  1.00  0.00     0.059 A 
ATOM     81  C   UNL A   1      46.728  28.897  37.032  1.00  0.00     0.059 A 
ATOM     82  F   UNL A   1      45.876  30.464  35.510  1.00  0.00    -0.206 F 
ATOM     83  C   UNL A   1      46.520  27.789  37.853  1.00  0.00     0.060 A 
BRANCH  83  84
ATOM     84  S   UNL A   1      47.881  27.111  38.826  1.00  0.00     0.124 S 
ATOM     85  O   UNL A   1      47.262  25.928  39.414  1.00  0.00    -0.237 OA
ATOM     86  O   UNL A   1      48.894  26.861  37.806  1.00  0.00    -0.237 OA
ATOM     87  O   UNL A   1      48.197  28.188  39.761  1.00  0.00    -0.744 OA
ENDBRANCH  83  84
ENDBRANCH  51  76
BRANCH  63  88
ATOM     88  C   UNL A   1      39.836  33.980  37.303  1.00  0.00     0.058 A 
ATOM     89  C   UNL A   1      39.082  33.616  38.430  1.00  0.00     0.135 A 
ATOM     90  C   UNL A   1      40.431  35.252  37.297  1.00  0.00     0.135 A 
ATOM     91  F   UNL A   1      38.487  32.414  38.485  1.00  0.00    -0.206 F 
ATOM     92  C   UNL A   1      38.910  34.488  39.501  1.00  0.00     0.059 A 
ATOM     93  C   UNL A   1      40.295  36.129  38.369  1.00  0.00     0.059 A 
ATOM     94  F   UNL A   1      41.173  35.646  36.250  1.00  0.00    -0.206 F 
ATOM     95  C   UNL A   1      39.522  35.742  39.462  1.00  0.00     0.060 A 
BRANCH  95  96
ATOM     96  S   UNL A   1      39.324  36.848  40.876  1.00  0.00     0.124 S 
ATOM     97  O   UNL A   1      40.712  37.103  41.247  1.00  0.00    -0.237 OA
ATOM     98  O   UNL A   1      38.607  37.977  40.291  1.00  0.00    -0.237 OA
ATOM     99  O   UNL A   1      38.555  36.051  41.826  1.00  0.00    -0.744 OA
ENDBRANCH  95  96
ENDBRANCH  63  88
ENDBRANCH  37  38
ENDBRANCH  30  32
ENDBRANCH  29  30
ENDBRANCH  28  29
ENDBRANCH  27  28
ENDBRANCH  26  27
ENDBRANCH   1  26
TORSDOF 22
ENDMDL
MODEL 2
REMARK VINA RESULT:      -9.9      6.454     11.821
REMARK SMILES C[NH2+][C@]1(C(=O)OCCOCCOCCOC(=O)c2ccc(-c3c4nc(c(-c5c(F)cc(S(=O)(=O)[O-])cc5F)c5ccc([nH]5)c(-c5c(F)cc(S(=O)(=O)[O-])cc5F)c5nc(c(-c6c(F)cc(S(=O)(=O)[O-])cc6F)c6ccc3[nH]6)C=C5)C=C4)cc2)CCC[C@@H]([N@H+]2CC[C@@H](C)C2)C1
REMARK SMILES IDX 11 1 10 2 9 3 8 4 7 5 6 6 4 7 5 8 3 9 84 10 94 11 85 12
REMARK SMILES IDX 87 13 86 14 2 15 1 16 88 19 89 20 93 21 90 23 91 24 92 25
REMARK SMILES IDX 12 26 13 27 14 28 15 29 16 30 17 31 18 32 19 33 83 34 20 35
REMARK SMILES IDX 82 36 21 37 22 38 23 39 76 40 24 41 81 42 75 43 77 44 25 45
REMARK SMILES IDX 80 46 74 47 73 48 26 50 60 51 39 52 59 53 40 54 43 55 58 56
REMARK SMILES IDX 78 57 41 58 42 59 57 61 79 62 44 63 27 64 28 65 37 66 29 67
REMARK SMILES IDX 30 68 36 69 38 70 31 71 32 72 33 73 34 74 35 75 61 76 62 77
REMARK SMILES IDX 71 78 63 79 64 80 70 81 72 82 65 83 66 84 67 85 68 86 69 87
REMARK SMILES IDX 45 88 46 89 55 90 47 91 48 92 54 93 56 94 49 95 50 96 51 97
REMARK SMILES IDX 52 98 53 99
REMARK H PARENT 2 17 2 18 88 22 77 49 43 60
REMARK Flexibility Score: inf
ROOT
ATOM      1  C   UNL A   1      33.747  30.423  27.229  1.00  0.00     0.188 C 
ENDROOT
BRANCH   1   2
ATOM      2  C   UNL A   1      32.274  30.128  26.892  1.00  0.00     0.188 C 
BRANCH   2   3
ATOM      3  O   UNL A   1      31.642  28.947  27.356  1.00  0.00    -0.376 OA
BRANCH   3   4
ATOM      4  C   UNL A   1      31.882  27.695  26.740  1.00  0.00     0.202 C 
BRANCH   4   5
ATOM      5  C   UNL A   1      32.104  27.653  25.230  1.00  0.00     0.261 C 
BRANCH   5   6
ATOM      6  O   UNL A   1      32.440  26.349  24.726  1.00  0.00    -0.459 OA
BRANCH   6   7
ATOM      7  C   UNL A   1      31.400  25.651  24.199  1.00  0.00     0.368 C 
ATOM      8  O   UNL A   1      30.377  26.174  23.759  1.00  0.00    -0.245 OA
BRANCH   7   9
ATOM      9  C   UNL A   1      31.543  24.101  24.316  1.00  0.00     0.199 C 
ATOM     10  C   UNL A   1      31.675  23.297  23.006  1.00  0.00     0.081 C 
ATOM     11  C   UNL A   1      32.896  24.040  25.019  1.00  0.00     0.146 C 
ATOM     12  C   UNL A   1      32.164  21.859  23.230  1.00  0.00     0.013 C 
ATOM     13  C   UNL A   1      33.439  22.649  25.317  1.00  0.00     0.190 C 
ATOM     14  C   UNL A   1      33.462  21.785  24.039  1.00  0.00     0.065 C 
BRANCH   9  15
ATOM     15  N   UNL A   1      30.529  23.628  25.296  1.00  0.00    -0.334 N 
ATOM     16  C   UNL A   1      30.614  24.087  26.665  1.00  0.00     0.331 C 
ATOM     17  H   UNL A   1      29.615  23.910  24.942  1.00  0.00     0.347 HD
ATOM     18  H   UNL A   1      30.699  22.624  25.363  1.00  0.00     0.347 HD
ENDBRANCH   9  15
BRANCH  13  19
ATOM     19  N   UNL A   1      34.761  22.731  25.984  1.00  0.00    -0.332 N 
ATOM     20  C   UNL A   1      35.565  21.503  25.955  1.00  0.00     0.262 C 
ATOM     21  C   UNL A   1      35.610  23.832  25.483  1.00  0.00     0.265 C 
ATOM     22  H   UNL A   1      34.486  22.907  26.950  1.00  0.00     0.348 HD
ATOM     23  C   UNL A   1      36.978  21.888  25.532  1.00  0.00     0.070 C 
ATOM     24  C   UNL A   1      36.832  23.213  24.798  1.00  0.00     0.047 C 
ATOM     25  C   UNL A   1      36.731  23.018  23.282  1.00  0.00     0.014 C 
ENDBRANCH  13  19
ENDBRANCH   7   9
ENDBRANCH   6   7
ENDBRANCH   5   6
ENDBRANCH   4   5
ENDBRANCH   3   4
ENDBRANCH   2   3
ENDBRANCH   1   2
BRANCH   1  26
ATOM     26  O   UNL A   1      34.220  31.751  27.337  1.00  0.00    -0.376 OA
BRANCH  26  27
ATOM     27  C   UNL A   1      34.087  32.402  28.589  1.00  0.00     0.202 C 
BRANCH  27  28
ATOM     28  C   UNL A   1      35.146  32.128  29.662  1.00  0.00     0.261 C 
BRANCH  28  29
ATOM     29  O   UNL A   1      35.800  30.853  29.528  1.00  0.00    -0.460 OA
BRANCH  29  30
ATOM     30  C   UNL A   1      36.547  30.465  30.588  1.00  0.00     0.338 C 
ATOM     31  O   UNL A   1      36.131  30.083  31.681  1.00  0.00    -0.246 OA
BRANCH  30  32
ATOM     32  C   UNL A   1      37.966  30.362  30.208  1.00  0.00     0.060 A 
ATOM     33  C   UNL A   1      38.279  30.189  28.851  1.00  0.00     0.016 A 
ATOM     34  C   UNL A   1      38.976  30.340  31.170  1.00  0.00     0.016 A 
ATOM     35  C   UNL A   1      39.597  29.976  28.452  1.00  0.00     0.010 A 
ATOM     36  C   UNL A   1      40.295  30.092  30.771  1.00  0.00     0.010 A 
ATOM     37  C   UNL A   1      40.608  29.881  29.413  1.00  0.00    -0.014 A 
BRANCH  37  38
ATOM     38  C   UNL A   1      41.940  29.357  29.025  1.00  0.00     0.031 A 
ATOM     39  C   UNL A   1      43.105  30.310  29.011  1.00  0.00     0.074 A 
ATOM     40  C   UNL A   1      42.130  28.058  28.729  1.00  0.00     0.049 A 
ATOM     41  N   UNL A   1      44.326  30.126  28.586  1.00  0.00    -0.248 NA
ATOM     42  C   UNL A   1      42.852  31.656  29.553  1.00  0.00     0.031 C 
ATOM     43  C   UNL A   1      41.107  27.017  28.794  1.00  0.00     0.029 A 
ATOM     44  N   UNL A   1      43.258  27.400  28.303  1.00  0.00    -0.354 N 
ATOM     45  C   UNL A   1      44.982  31.335  28.784  1.00  0.00     0.074 A 
ATOM     46  C   UNL A   1      44.020  32.250  29.360  1.00  0.00     0.031 C 
ATOM     47  C   UNL A   1      41.650  25.851  28.400  1.00  0.00     0.029 A 
ATOM     48  C   UNL A   1      43.041  26.074  28.010  1.00  0.00     0.049 A 
ATOM     49  H   UNL A   1      44.136  27.834  28.215  1.00  0.00     0.167 HD
ATOM     50  C   UNL A   1      46.270  31.654  28.511  1.00  0.00     0.037 A 
ATOM     51  C   UNL A   1      43.861  25.158  27.452  1.00  0.00     0.037 A 
ATOM     52  C   UNL A   1      47.223  30.739  27.945  1.00  0.00     0.049 A 
ATOM     53  C   UNL A   1      45.266  25.558  27.075  1.00  0.00     0.074 A 
ATOM     54  C   UNL A   1      48.546  30.969  27.613  1.00  0.00     0.029 A 
ATOM     55  N   UNL A   1      46.956  29.414  27.628  1.00  0.00    -0.354 N 
ATOM     56  N   UNL A   1      45.865  26.716  27.229  1.00  0.00    -0.248 NA
ATOM     57  C   UNL A   1      46.104  24.530  26.440  1.00  0.00     0.031 C 
ATOM     58  C   UNL A   1      49.068  29.796  27.056  1.00  0.00     0.029 A 
ATOM     59  C   UNL A   1      48.084  28.820  27.089  1.00  0.00     0.049 A 
ATOM     60  H   UNL A   1      46.093  28.963  27.768  1.00  0.00     0.167 HD
ATOM     61  C   UNL A   1      47.155  26.546  26.733  1.00  0.00     0.074 A 
ATOM     62  C   UNL A   1      47.253  25.173  26.283  1.00  0.00     0.031 C 
ATOM     63  C   UNL A   1      48.168  27.447  26.656  1.00  0.00     0.037 A 
BRANCH  50  64
ATOM     64  C   UNL A   1      46.702  33.069  28.778  1.00  0.00     0.058 A 
ATOM     65  C   UNL A   1      47.267  33.454  30.005  1.00  0.00     0.135 A 
ATOM     66  C   UNL A   1      46.556  34.052  27.786  1.00  0.00     0.135 A 
ATOM     67  F   UNL A   1      47.408  32.558  30.995  1.00  0.00    -0.206 F 
ATOM     68  C   UNL A   1      47.644  34.772  30.248  1.00  0.00     0.059 A 
ATOM     69  C   UNL A   1      46.952  35.369  27.999  1.00  0.00     0.059 A 
ATOM     70  F   UNL A   1      46.017  33.738  26.598  1.00  0.00    -0.206 F 
ATOM     71  C   UNL A   1      47.479  35.722  29.240  1.00  0.00     0.060 A 
BRANCH  71  72
ATOM     72  S   UNL A   1      47.965  37.428  29.573  1.00  0.00     0.124 S 
ATOM     73  O   UNL A   1      49.135  37.571  28.712  1.00  0.00    -0.237 OA
ATOM     74  O   UNL A   1      46.782  38.177  29.161  1.00  0.00    -0.237 OA
ATOM     75  O   UNL A   1      48.237  37.431  31.007  1.00  0.00    -0.744 OA
ENDBRANCH  71  72
ENDBRANCH  50  64
BRANCH  51  76
ATOM     76  C   UNL A   1      43.363  23.783  27.173  1.00  0.00     0.058 A 
ATOM     77  C   UNL A   1      43.407  22.779  28.150  1.00  0.00     0.135 A 
ATOM     78  C   UNL A   1      42.840  23.446  25.914  1.00  0.00     0.135 A 
ATOM     79  F   UNL A   1      43.915  23.047  29.363  1.00  0.00    -0.206 F 
ATOM     80  C   UNL A   1      42.963  21.486  27.888  1.00  0.00     0.059 A 
ATOM     81  C   UNL A   1      42.364  22.167  25.636  1.00  0.00     0.059 A 
ATOM     82  F   UNL A   1      42.771  24.370  24.943  1.00  0.00    -0.206 F 
ATOM     83  C   UNL A   1      42.439  21.191  26.629  1.00  0.00     0.060 A 
BRANCH  83  84
ATOM     84  S   UNL A   1      41.819  19.524  26.313  1.00  0.00     0.124 S 
ATOM     85  O   UNL A   1      40.394  19.771  26.124  1.00  0.00    -0.237 OA
ATOM     86  O   UNL A   1      42.564  19.141  25.118  1.00  0.00    -0.237 OA
ATOM     87  O   UNL A   1      42.178  18.796  27.526  1.00  0.00    -0.744 OA
ENDBRANCH  83  84
ENDBRANCH  51  76
BRANCH  63  88
ATOM     88  C   UNL A   1      49.483  26.971  26.102  1.00  0.00     0.058 A 
ATOM     89  C   UNL A   1      49.794  27.080  24.738  1.00  0.00     0.135 A 
ATOM     90  C   UNL A   1      50.470  26.458  26.960  1.00  0.00     0.135 A 
ATOM     91  F   UNL A   1      48.885  27.559  23.874  1.00  0.00    -0.206 F 
ATOM     92  C   UNL A   1      51.030  26.679  24.240  1.00  0.00     0.059 A 
ATOM     93  C   UNL A   1      51.722  26.076  26.488  1.00  0.00     0.059 A 
ATOM     94  F   UNL A   1      50.229  26.344  28.275  1.00  0.00    -0.206 F 
ATOM     95  C   UNL A   1      51.989  26.179  25.124  1.00  0.00     0.060 A 
BRANCH  95  96
ATOM     96  S   UNL A   1      53.603  25.698  24.472  1.00  0.00     0.124 S 
ATOM     97  O   UNL A   1      53.606  24.261  24.726  1.00  0.00    -0.237 OA
ATOM     98  O   UNL A   1      53.505  26.094  23.070  1.00  0.00    -0.237 OA
ATOM     99  O   UNL A   1      54.540  26.480  25.273  1.00  0.00    -0.744 OA
ENDBRANCH  95  96
ENDBRANCH  63  88
ENDBRANCH  37  38
ENDBRANCH  30  32
ENDBRANCH  29  30
ENDBRANCH  28  29
ENDBRANCH  27  28
ENDBRANCH  26  27
ENDBRANCH   1  26
TORSDOF 22
ENDMDL
MODEL 3
REMARK VINA RESULT:      -9.8      1.702      8.650
REMARK SMILES C[NH2+][C@]1(C(=O)OCCOCCOCCOC(=O)c2ccc(-c3c4nc(c(-c5c(F)cc(S(=O)(=O)[O-])cc5F)c5ccc([nH]5)c(-c5c(F)cc(S(=O)(=O)[O-])cc5F)c5nc(c(-c6c(F)cc(S(=O)(=O)[O-])cc6F)c6ccc3[nH]6)C=C5)C=C4)cc2)CCC[C@@H]([N@H+]2CC[C@@H](C)C2)C1
REMARK SMILES IDX 11 1 10 2 9 3 8 4 7 5 6 6 4 7 5 8 3 9 84 10 94 11 85 12
REMARK SMILES IDX 87 13 86 14 2 15 1 16 88 19 89 20 93 21 90 23 91 24 92 25
REMARK SMILES IDX 12 26 13 27 14 28 15 29 16 30 17 31 18 32 19 33 83 34 20 35
REMARK SMILES IDX 82 36 21 37 22 38 23 39 76 40 24 41 81 42 75 43 77 44 25 45
REMARK SMILES IDX 80 46 74 47 73 48 26 50 60 51 39 52 59 53 40 54 43 55 58 56
REMARK SMILES IDX 78 57 41 58 42 59 57 61 79 62 44 63 27 64 28 65 37 66 29 67
REMARK SMILES IDX 30 68 36 69 38 70 31 71 32 72 33 73 34 74 35 75 61 76 62 77
REMARK SMILES IDX 71 78 63 79 64 80 70 81 72 82 65 83 66 84 67 85 68 86 69 87
REMARK SMILES IDX 45 88 46 89 55 90 47 91 48 92 54 93 56 94 49 95 50 96 51 97
REMARK SMILES IDX 52 98 53 99
REMARK H PARENT 2 17 2 18 88 22 77 49 43 60
REMARK Flexibility Score: inf
ROOT
ATOM      1  C   UNL A   1      37.981  22.193  25.223  1.00  0.00     0.188 C 
ENDROOT
BRANCH   1   2
ATOM      2  C   UNL A   1      36.601  21.726  25.722  1.00  0.00     0.188 C 
BRANCH   2   3
ATOM      3  O   UNL A   1      35.976  20.579  25.171  1.00  0.00    -0.376 OA
BRANCH   3   4
ATOM      4  C   UNL A   1      34.570  20.418  25.214  1.00  0.00     0.202 C 
BRANCH   4   5
ATOM      5  C   UNL A   1      33.790  21.098  26.337  1.00  0.00     0.261 C 
BRANCH   5   6
ATOM      6  O   UNL A   1      33.133  22.314  25.937  1.00  0.00    -0.459 OA
BRANCH   6   7
ATOM      7  C   UNL A   1      32.305  22.853  26.870  1.00  0.00     0.368 C 
ATOM      8  O   UNL A   1      32.431  22.678  28.081  1.00  0.00    -0.245 OA
BRANCH   7   9
ATOM      9  C   UNL A   1      31.080  23.616  26.275  1.00  0.00     0.199 C 
ATOM     10  C   UNL A   1      30.809  25.042  26.796  1.00  0.00     0.081 C 
ATOM     11  C   UNL A   1      31.560  23.747  24.833  1.00  0.00     0.146 C 
ATOM     12  C   UNL A   1      29.829  25.828  25.913  1.00  0.00     0.013 C 
ATOM     13  C   UNL A   1      30.628  24.480  23.876  1.00  0.00     0.190 C 
ATOM     14  C   UNL A   1      30.243  25.864  24.439  1.00  0.00     0.065 C 
BRANCH   9  15
ATOM     15  N   UNL A   1      29.927  22.675  26.259  1.00  0.00    -0.334 N 
ATOM     16  C   UNL A   1      29.155  22.499  27.468  1.00  0.00     0.331 C 
ATOM     17  H   UNL A   1      29.284  23.001  25.537  1.00  0.00     0.347 HD
ATOM     18  H   UNL A   1      30.356  21.762  26.105  1.00  0.00     0.347 HD
ENDBRANCH   9  15
BRANCH  13  19
ATOM     19  N   UNL A   1      31.219  24.552  22.518  1.00  0.00    -0.332 N 
ATOM     20  C   UNL A   1      31.574  25.897  22.050  1.00  0.00     0.262 C 
ATOM     21  C   UNL A   1      32.406  23.690  22.341  1.00  0.00     0.265 C 
ATOM     22  H   UNL A   1      30.446  24.211  21.946  1.00  0.00     0.348 HD
ATOM     23  C   UNL A   1      32.981  25.825  21.466  1.00  0.00     0.070 C 
ATOM     24  C   UNL A   1      33.617  24.597  22.100  1.00  0.00     0.047 C 
ATOM     25  C   UNL A   1      34.448  24.957  23.335  1.00  0.00     0.014 C 
ENDBRANCH  13  19
ENDBRANCH   7   9
ENDBRANCH   6   7
ENDBRANCH   5   6
ENDBRANCH   4   5
ENDBRANCH   3   4
ENDBRANCH   2   3
ENDBRANCH   1   2
BRANCH   1  26
ATOM     26  O   UNL A   1      38.984  22.608  26.130  1.00  0.00    -0.376 OA
BRANCH  26  27
ATOM     27  C   UNL A   1      40.035  21.702  26.415  1.00  0.00     0.202 C 
BRANCH  27  28
ATOM     28  C   UNL A   1      41.466  22.121  26.061  1.00  0.00     0.261 C 
BRANCH  28  29
ATOM     29  O   UNL A   1      41.993  23.170  26.895  1.00  0.00    -0.460 OA
BRANCH  29  30
ATOM     30  C   UNL A   1      42.183  24.362  26.283  1.00  0.00     0.338 C 
ATOM     31  O   UNL A   1      42.531  24.544  25.118  1.00  0.00    -0.246 OA
BRANCH  30  32
ATOM     32  C   UNL A   1      41.720  25.462  27.146  1.00  0.00     0.060 A 
ATOM     33  C   UNL A   1      42.426  26.673  27.115  1.00  0.00     0.016 A 
ATOM     34  C   UNL A   1      40.668  25.286  28.045  1.00  0.00     0.016 A 
ATOM     35  C   UNL A   1      42.098  27.707  27.990  1.00  0.00     0.010 A 
ATOM     36  C   UNL A   1      40.361  26.312  28.947  1.00  0.00     0.010 A 
ATOM     37  C   UNL A   1      41.093  27.516  28.943  1.00  0.00    -0.014 A 
BRANCH  37  38
ATOM     38  C   UNL A   1      40.950  28.483  30.060  1.00  0.00     0.031 A 
ATOM     39  C   UNL A   1      41.884  28.358  31.234  1.00  0.00     0.074 A 
ATOM     40  C   UNL A   1      40.043  29.475  30.023  1.00  0.00     0.049 A 
ATOM     41  N   UNL A   1      41.873  28.992  32.376  1.00  0.00    -0.248 NA
ATOM     42  C   UNL A   1      42.980  27.385  31.095  1.00  0.00     0.031 C 
ATOM     43  C   UNL A   1      39.144  29.760  28.907  1.00  0.00     0.029 A 
ATOM     44  N   UNL A   1      39.725  30.424  30.965  1.00  0.00    -0.354 N 
ATOM     45  C   UNL A   1      42.941  28.479  33.103  1.00  0.00     0.074 A 
ATOM     46  C   UNL A   1      43.574  27.474  32.275  1.00  0.00     0.031 C 
ATOM     47  C   UNL A   1      38.359  30.802  29.237  1.00  0.00     0.029 A 
ATOM     48  C   UNL A   1      38.667  31.224  30.602  1.00  0.00     0.049 A 
ATOM     49  H   UNL A   1      40.207  30.521  31.817  1.00  0.00     0.167 HD
ATOM     50  C   UNL A   1      43.357  28.815  34.348  1.00  0.00     0.037 A 
ATOM     51  C   UNL A   1      38.000  32.160  31.308  1.00  0.00     0.037 A 
ATOM     52  C   UNL A   1      42.728  29.819  35.163  1.00  0.00     0.049 A 
ATOM     53  C   UNL A   1      38.424  32.459  32.725  1.00  0.00     0.074 A 
ATOM     54  C   UNL A   1      43.060  30.220  36.444  1.00  0.00     0.029 A 
ATOM     55  N   UNL A   1      41.636  30.583  34.775  1.00  0.00    -0.354 N 
ATOM     56  N   UNL A   1      39.410  31.940  33.419  1.00  0.00    -0.248 NA
ATOM     57  C   UNL A   1      37.640  33.464  33.459  1.00  0.00     0.031 C 
ATOM     58  C   UNL A   1      42.144  31.198  36.848  1.00  0.00     0.029 A 
ATOM     59  C   UNL A   1      41.271  31.442  35.798  1.00  0.00     0.049 A 
ATOM     60  H   UNL A   1      41.188  30.524  33.901  1.00  0.00     0.167 HD
ATOM     61  C   UNL A   1      39.379  32.572  34.659  1.00  0.00     0.074 A 
ATOM     62  C   UNL A   1      38.283  33.519  34.617  1.00  0.00     0.031 C 
ATOM     63  C   UNL A   1      40.184  32.386  35.736  1.00  0.00     0.037 A 
BRANCH  50  64
ATOM     64  C   UNL A   1      44.519  28.051  34.917  1.00  0.00     0.058 A 
ATOM     65  C   UNL A   1      44.362  26.782  35.497  1.00  0.00     0.135 A 
ATOM     66  C   UNL A   1      45.813  28.595  34.871  1.00  0.00     0.135 A 
ATOM     67  F   UNL A   1      43.143  26.226  35.586  1.00  0.00    -0.206 F 
ATOM     68  C   UNL A   1      45.443  26.093  36.039  1.00  0.00     0.059 A 
ATOM     69  C   UNL A   1      46.912  27.911  35.383  1.00  0.00     0.059 A 
ATOM     70  F   UNL A   1      46.018  29.807  34.332  1.00  0.00    -0.206 F 
ATOM     71  C   UNL A   1      46.713  26.668  35.980  1.00  0.00     0.060 A 
BRANCH  71  72
ATOM     72  S   UNL A   1      48.104  25.766  36.695  1.00  0.00     0.124 S 
ATOM     73  O   UNL A   1      49.236  26.560  36.227  1.00  0.00    -0.237 OA
ATOM     74  O   UNL A   1      47.825  25.843  38.125  1.00  0.00    -0.237 OA
ATOM     75  O   UNL A   1      47.986  24.435  36.107  1.00  0.00    -0.744 OA
ENDBRANCH  71  72
ENDBRANCH  50  64
BRANCH  51  76
ATOM     76  C   UNL A   1      36.829  32.855  30.706  1.00  0.00     0.058 A 
ATOM     77  C   UNL A   1      35.516  32.505  31.050  1.00  0.00     0.135 A 
ATOM     78  C   UNL A   1      37.004  33.881  29.763  1.00  0.00     0.135 A 
ATOM     79  F   UNL A   1      35.295  31.518  31.932  1.00  0.00    -0.206 F 
ATOM     80  C   UNL A   1      34.417  33.137  30.475  1.00  0.00     0.059 A 
ATOM     81  C   UNL A   1      35.923  34.547  29.194  1.00  0.00     0.059 A 
ATOM     82  F   UNL A   1      38.241  34.259  29.400  1.00  0.00    -0.206 F 
ATOM     83  C   UNL A   1      34.631  34.160  29.549  1.00  0.00     0.060 A 
BRANCH  83  84
ATOM     84  S   UNL A   1      33.201  35.008  28.844  1.00  0.00     0.124 S 
ATOM     85  O   UNL A   1      32.367  35.209  30.023  1.00  0.00    -0.237 OA
ATOM     86  O   UNL A   1      33.806  36.209  28.277  1.00  0.00    -0.237 OA
ATOM     87  O   UNL A   1      32.691  34.051  27.866  1.00  0.00    -0.744 OA
ENDBRANCH  83  84
ENDBRANCH  51  76
BRANCH  63  88
ATOM     88  C   UNL A   1      39.940  33.247  36.946  1.00  0.00     0.058 A 
ATOM     89  C   UNL A   1      39.015  32.886  37.936  1.00  0.00     0.135 A 
ATOM     90  C   UNL A   1      40.691  34.417  37.146  1.00  0.00     0.135 A 
ATOM     91  F   UNL A   1      38.268  31.779  37.792  1.00  0.00    -0.206 F 
ATOM     92  C   UNL A   1      38.827  33.665  39.074  1.00  0.00     0.059 A 
ATOM     93  C   UNL A   1      40.539  35.197  38.289  1.00  0.00     0.059 A 
ATOM     94  F   UNL A   1      41.599  34.802  36.235  1.00  0.00    -0.206 F 
ATOM     95  C   UNL A   1      39.596  34.818  39.242  1.00  0.00     0.060 A 
BRANCH  95  96
ATOM     96  S   UNL A   1      39.372  35.800  40.741  1.00  0.00     0.124 S 
ATOM     97  O   UNL A   1      38.442  34.969  41.500  1.00  0.00    -0.237 OA
ATOM     98  O   UNL A   1      40.730  35.878  41.271  1.00  0.00    -0.237 OA
ATOM     99  O   UNL A   1      38.827  37.059  40.245  1.00  0.00    -0.744 OA
ENDBRANCH  95  96
ENDBRANCH  63  88
ENDBRANCH  37  38
ENDBRANCH  30  32
ENDBRANCH  29  30
ENDBRANCH  28  29
ENDBRANCH  27  28
ENDBRANCH  26  27
ENDBRANCH   1  26
TORSDOF 22
ENDMDL
