MODEL 1
REMARK VINA RESULT:      -8.9      0.000      0.000
REMARK SMILES COc1ccc(-c2[nH]nc3nc(-c4ccc(C(F)(F)F)cc4)cc(C(=O)OCCOCCOCCOC(=O)c4ccc(-c5c6nc(c(-c7c(F)cc(S(=O)(=O)[O-])cc7F)c7ccc([nH]7)c(-c7c(F)cc(S(=O)(=O)[O-])cc7F)c7nc(c(-c8c(F)cc(S(=O)(=O)[O-])cc8F)c8ccc5[nH]8)C=C7)C=C6)cc4)c23)cc1
REMARK SMILES IDX 32 1 31 2 30 3 29 4 28 5 27 6 25 7 26 8 24 9 7 10 8 11
REMARK SMILES IDX 105 12 9 13 10 15 11 16 23 17 12 18 6 19 3 20 4 21 107 22
REMARK SMILES IDX 5 23 106 24 2 25 1 26 13 27 14 28 22 29 15 30 21 31 16 32
REMARK SMILES IDX 17 33 18 34 19 35 20 36 33 37 34 38 35 39 36 40 37 41 38 42
REMARK SMILES IDX 39 43 40 44 104 45 41 46 103 47 42 48 43 49 44 50 97 51
REMARK SMILES IDX 45 52 102 53 96 54 98 55 46 56 101 57 95 58 94 59 47 61
REMARK SMILES IDX 81 62 60 63 80 64 61 65 64 66 79 67 99 68 62 69 63 70 78 72
REMARK SMILES IDX 100 73 65 74 48 75 49 76 58 77 50 78 51 79 57 80 59 81 52 82
REMARK SMILES IDX 53 83 54 84 55 85 56 86 82 87 83 88 92 89 84 90 85 91 91 92
REMARK SMILES IDX 93 93 86 94 87 95 88 96 89 97 90 98 66 99 67 100 76 101
REMARK SMILES IDX 68 102 69 103 75 104 77 105 70 106 71 107 72 108 73 109
REMARK SMILES IDX 74 110
REMARK H PARENT 8 14 98 60 64 71
REMARK Flexibility Score: inf
ROOT
ATOM      1  C   UNL A   1      37.567  30.404  28.955  1.00  0.00     0.188 C 
ENDROOT
BRANCH   1   2
ATOM      2  C   UNL A   1      38.250  29.468  27.987  1.00  0.00     0.188 C 
BRANCH   2   3
ATOM      3  O   UNL A   1      39.146  28.500  28.506  1.00  0.00    -0.376 OA
BRANCH   3   4
ATOM      4  C   UNL A   1      40.445  28.513  27.895  1.00  0.00     0.202 C 
BRANCH   4   5
ATOM      5  C   UNL A   1      41.589  27.654  28.507  1.00  0.00     0.261 C 
BRANCH   5   6
ATOM      6  O   UNL A   1      42.937  28.166  28.369  1.00  0.00    -0.460 OA
BRANCH   6   7
ATOM      7  C   UNL A   1      43.988  27.353  28.661  1.00  0.00     0.339 C 
ATOM      8  O   UNL A   1      44.334  27.044  29.771  1.00  0.00    -0.246 OA
BRANCH   7   9
ATOM      9  C   UNL A   1      44.561  26.852  27.373  1.00  0.00     0.075 A 
ATOM     10  C   UNL A   1      45.732  28.904  26.448  1.00  0.00     0.075 A 
ATOM     11  N   UNL A   1      46.238  29.131  25.187  1.00  0.00    -0.275 N 
ATOM     12  C   UNL A   1      45.212  27.619  26.391  1.00  0.00     0.061 A 
ATOM     13  N   UNL A   1      46.238  28.058  24.383  1.00  0.00    -0.154 NA
ATOM     14  H   UNL A   1      46.575  30.010  24.899  1.00  0.00     0.190 HD
ATOM     15  C   UNL A   1      45.689  27.106  25.134  1.00  0.00     0.182 A 
ATOM     16  N   UNL A   1      45.612  25.798  24.798  1.00  0.00    -0.226 NA
ATOM     17  C   UNL A   1      44.557  25.484  27.007  1.00  0.00     0.045 A 
ATOM     18  C   UNL A   1      45.074  25.009  25.766  1.00  0.00     0.074 A 
BRANCH  10  19
ATOM     19  C   UNL A   1      46.023  29.843  27.522  1.00  0.00     0.001 A 
ATOM     20  C   UNL A   1      46.645  31.771  29.475  1.00  0.00     0.118 A 
ATOM     21  C   UNL A   1      47.210  30.493  29.523  1.00  0.00     0.047 A 
ATOM     22  C   UNL A   1      45.712  32.062  28.484  1.00  0.00     0.047 A 
ATOM     23  C   UNL A   1      46.895  29.528  28.560  1.00  0.00     0.014 A 
ATOM     24  C   UNL A   1      45.399  31.101  27.517  1.00  0.00     0.014 A 
BRANCH  20  25
ATOM     25  O   UNL A   1      47.093  32.635  30.435  1.00  0.00    -0.497 OA
ATOM     26  C   UNL A   1      48.494  32.881  30.478  1.00  0.00     0.278 C 
ENDBRANCH  20  25
ENDBRANCH  10  19
BRANCH  18  27
ATOM     27  C   UNL A   1      45.007  23.571  25.400  1.00  0.00     0.000 A 
ATOM     28  C   UNL A   1      43.810  22.833  25.498  1.00  0.00     0.011 A 
ATOM     29  C   UNL A   1      46.157  22.873  24.997  1.00  0.00     0.011 A 
ATOM     30  C   UNL A   1      43.770  21.458  25.215  1.00  0.00     0.014 A 
ATOM     31  C   UNL A   1      46.123  21.502  24.718  1.00  0.00     0.014 A 
ATOM     32  C   UNL A   1      44.932  20.775  24.829  1.00  0.00     0.056 A 
BRANCH  32  33
ATOM     33  C   UNL A   1      44.903  19.290  24.563  1.00  0.00     0.416 C 
ATOM     34  F   UNL A   1      45.701  18.586  25.414  1.00  0.00    -0.166 F 
ATOM     35  F   UNL A   1      43.659  18.752  24.685  1.00  0.00    -0.166 F 
ATOM     36  F   UNL A   1      45.325  18.959  23.308  1.00  0.00    -0.166 F 
ENDBRANCH  32  33
ENDBRANCH  18  27
ENDBRANCH   7   9
ENDBRANCH   6   7
ENDBRANCH   5   6
ENDBRANCH   4   5
ENDBRANCH   3   4
ENDBRANCH   2   3
ENDBRANCH   1   2
BRANCH   1  37
ATOM     37  O   UNL A   1      37.950  31.771  28.815  1.00  0.00    -0.376 OA
BRANCH  37  38
ATOM     38  C   UNL A   1      36.913  32.725  28.593  1.00  0.00     0.202 C 
BRANCH  38  39
ATOM     39  C   UNL A   1      35.546  32.185  28.184  1.00  0.00     0.261 C 
BRANCH  39  40
ATOM     40  O   UNL A   1      34.739  31.784  29.278  1.00  0.00    -0.460 OA
BRANCH  40  41
ATOM     41  C   UNL A   1      34.297  32.827  30.019  1.00  0.00     0.338 C 
ATOM     42  O   UNL A   1      33.543  33.721  29.674  1.00  0.00    -0.246 OA
BRANCH  41  43
ATOM     43  C   UNL A   1      34.949  32.783  31.330  1.00  0.00     0.060 A 
ATOM     44  C   UNL A   1      35.224  34.026  31.904  1.00  0.00     0.016 A 
ATOM     45  C   UNL A   1      35.660  31.621  31.653  1.00  0.00     0.016 A 
ATOM     46  C   UNL A   1      36.436  34.173  32.527  1.00  0.00     0.010 A 
ATOM     47  C   UNL A   1      36.880  31.777  32.248  1.00  0.00     0.010 A 
ATOM     48  C   UNL A   1      37.292  33.070  32.559  1.00  0.00    -0.014 A 
BRANCH  48  49
ATOM     49  C   UNL A   1      38.654  33.280  32.981  1.00  0.00     0.031 A 
ATOM     50  C   UNL A   1      39.522  33.626  31.843  1.00  0.00     0.074 A 
ATOM     51  C   UNL A   1      39.017  33.259  34.277  1.00  0.00     0.049 A 
ATOM     52  N   UNL A   1      40.359  32.856  31.235  1.00  0.00    -0.248 NA
ATOM     53  C   UNL A   1      39.232  34.883  31.132  1.00  0.00     0.031 C 
ATOM     54  C   UNL A   1      38.170  33.197  35.472  1.00  0.00     0.029 A 
ATOM     55  N   UNL A   1      40.263  33.382  34.798  1.00  0.00    -0.354 N 
ATOM     56  C   UNL A   1      40.904  33.649  30.234  1.00  0.00     0.074 A 
ATOM     57  C   UNL A   1      39.993  34.744  30.048  1.00  0.00     0.031 C 
ATOM     58  C   UNL A   1      38.912  33.515  36.562  1.00  0.00     0.029 A 
ATOM     59  C   UNL A   1      40.301  33.666  36.161  1.00  0.00     0.049 A 
ATOM     60  H   UNL A   1      41.078  33.279  34.255  1.00  0.00     0.167 HD
ATOM     61  C   UNL A   1      42.212  33.521  29.884  1.00  0.00     0.037 A 
ATOM     62  C   UNL A   1      41.405  34.071  36.844  1.00  0.00     0.037 A 
ATOM     63  C   UNL A   1      42.746  32.256  30.333  1.00  0.00     0.049 A 
ATOM     64  C   UNL A   1      42.584  33.680  36.014  1.00  0.00     0.074 A 
ATOM     65  C   UNL A   1      42.404  30.934  30.120  1.00  0.00     0.029 A 
ATOM     66  N   UNL A   1      43.538  32.260  31.458  1.00  0.00    -0.354 N 
ATOM     67  N   UNL A   1      42.927  32.439  35.788  1.00  0.00    -0.248 NA
ATOM     68  C   UNL A   1      43.068  34.647  35.038  1.00  0.00     0.031 C 
ATOM     69  C   UNL A   1      42.600  30.291  31.378  1.00  0.00     0.029 A 
ATOM     70  C   UNL A   1      43.120  31.233  32.267  1.00  0.00     0.049 A 
ATOM     71  H   UNL A   1      44.274  32.887  31.648  1.00  0.00     0.167 HD
ATOM     72  C   UNL A   1      43.302  32.408  34.452  1.00  0.00     0.074 A 
ATOM     73  C   UNL A   1      43.424  33.811  34.057  1.00  0.00     0.031 C 
ATOM     74  C   UNL A   1      43.191  31.266  33.712  1.00  0.00     0.037 A 
BRANCH  61  75
ATOM     75  C   UNL A   1      43.088  34.694  29.514  1.00  0.00     0.058 A 
ATOM     76  C   UNL A   1      43.225  35.754  30.430  1.00  0.00     0.135 A 
ATOM     77  C   UNL A   1      43.577  34.952  28.210  1.00  0.00     0.135 A 
ATOM     78  F   UNL A   1      42.789  35.625  31.694  1.00  0.00    -0.206 F 
ATOM     79  C   UNL A   1      43.738  36.997  30.060  1.00  0.00     0.059 A 
ATOM     80  C   UNL A   1      44.147  36.162  27.838  1.00  0.00     0.059 A 
ATOM     81  F   UNL A   1      43.445  34.090  27.197  1.00  0.00    -0.206 F 
ATOM     82  C   UNL A   1      44.183  37.192  28.757  1.00  0.00     0.060 A 
BRANCH  82  83
ATOM     83  S   UNL A   1      44.759  38.818  28.248  1.00  0.00     0.124 S 
ATOM     84  O   UNL A   1      46.187  38.578  28.080  1.00  0.00    -0.237 OA
ATOM     85  O   UNL A   1      43.995  39.035  27.024  1.00  0.00    -0.237 OA
ATOM     86  O   UNL A   1      44.387  39.673  29.372  1.00  0.00    -0.744 OA
ENDBRANCH  82  83
ENDBRANCH  61  75
BRANCH  62  87
ATOM     87  C   UNL A   1      41.510  35.096  37.920  1.00  0.00     0.058 A 
ATOM     88  C   UNL A   1      41.066  36.416  37.706  1.00  0.00     0.135 A 
ATOM     89  C   UNL A   1      41.751  34.738  39.262  1.00  0.00     0.135 A 
ATOM     90  F   UNL A   1      40.802  36.843  36.461  1.00  0.00    -0.206 F 
ATOM     91  C   UNL A   1      40.804  37.301  38.758  1.00  0.00     0.059 A 
ATOM     92  C   UNL A   1      41.507  35.606  40.327  1.00  0.00     0.059 A 
ATOM     93  F   UNL A   1      42.140  33.497  39.589  1.00  0.00    -0.206 F 
ATOM     94  C   UNL A   1      41.001  36.875  40.072  1.00  0.00     0.060 A 
BRANCH  94  95
ATOM     95  S   UNL A   1      40.468  37.932  41.441  1.00  0.00     0.124 S 
ATOM     96  O   UNL A   1      39.300  37.215  41.940  1.00  0.00    -0.237 OA
ATOM     97  O   UNL A   1      41.639  37.927  42.310  1.00  0.00    -0.237 OA
ATOM     98  O   UNL A   1      40.184  39.209  40.790  1.00  0.00    -0.744 OA
ENDBRANCH  94  95
ENDBRANCH  62  87
BRANCH  74  99
ATOM     99  C   UNL A   1      42.916  29.970  34.432  1.00  0.00     0.058 A 
ATOM    100  C   UNL A   1      43.899  29.163  35.035  1.00  0.00     0.135 A 
ATOM    101  C   UNL A   1      41.576  29.614  34.650  1.00  0.00     0.135 A 
ATOM    102  F   UNL A   1      45.197  29.490  34.962  1.00  0.00    -0.206 F 
ATOM    103  C   UNL A   1      43.564  28.033  35.787  1.00  0.00     0.059 A 
ATOM    104  C   UNL A   1      41.219  28.512  35.421  1.00  0.00     0.059 A 
ATOM    105  F   UNL A   1      40.590  30.378  34.153  1.00  0.00    -0.206 F 
ATOM    106  C   UNL A   1      42.219  27.716  35.974  1.00  0.00     0.060 A 
BRANCH 106 107
ATOM    107  S   UNL A   1      41.776  26.296  37.000  1.00  0.00     0.124 S 
ATOM    108  O   UNL A   1      41.735  25.213  36.022  1.00  0.00    -0.237 OA
ATOM    109  O   UNL A   1      42.875  26.241  37.960  1.00  0.00    -0.237 OA
ATOM    110  O   UNL A   1      40.483  26.672  37.567  1.00  0.00    -0.744 OA
ENDBRANCH 106 107
ENDBRANCH  74  99
ENDBRANCH  48  49
ENDBRANCH  41  43
ENDBRANCH  40  41
ENDBRANCH  39  40
ENDBRANCH  38  39
ENDBRANCH  37  38
ENDBRANCH   1  37
TORSDOF 24
ENDMDL
MODEL 2
REMARK VINA RESULT:      -8.8      7.880     14.063
REMARK SMILES COc1ccc(-c2[nH]nc3nc(-c4ccc(C(F)(F)F)cc4)cc(C(=O)OCCOCCOCCOC(=O)c4ccc(-c5c6nc(c(-c7c(F)cc(S(=O)(=O)[O-])cc7F)c7ccc([nH]7)c(-c7c(F)cc(S(=O)(=O)[O-])cc7F)c7nc(c(-c8c(F)cc(S(=O)(=O)[O-])cc8F)c8ccc5[nH]8)C=C7)C=C6)cc4)c23)cc1
REMARK SMILES IDX 32 1 31 2 30 3 29 4 28 5 27 6 25 7 26 8 24 9 7 10 8 11
REMARK SMILES IDX 105 12 9 13 10 15 11 16 23 17 12 18 6 19 3 20 4 21 107 22
REMARK SMILES IDX 5 23 106 24 2 25 1 26 13 27 14 28 22 29 15 30 21 31 16 32
REMARK SMILES IDX 17 33 18 34 19 35 20 36 33 37 34 38 35 39 36 40 37 41 38 42
REMARK SMILES IDX 39 43 40 44 104 45 41 46 103 47 42 48 43 49 44 50 97 51
REMARK SMILES IDX 45 52 102 53 96 54 98 55 46 56 101 57 95 58 94 59 47 61
REMARK SMILES IDX 81 62 60 63 80 64 61 65 64 66 79 67 99 68 62 69 63 70 78 72
REMARK SMILES IDX 100 73 65 74 48 75 49 76 58 77 50 78 51 79 57 80 59 81 52 82
REMARK SMILES IDX 53 83 54 84 55 85 56 86 82 87 83 88 92 89 84 90 85 91 91 92
REMARK SMILES IDX 93 93 86 94 87 95 88 96 89 97 90 98 66 99 67 100 76 101
REMARK SMILES IDX 68 102 69 103 75 104 77 105 70 106 71 107 72 108 73 109
REMARK SMILES IDX 74 110
REMARK H PARENT 8 14 98 60 64 71
REMARK Flexibility Score: inf
ROOT
ATOM      1  C   UNL A   1      51.263  25.625  39.919  1.00  0.00     0.188 C 
ENDROOT
BRANCH   1   2
ATOM      2  C   UNL A   1      51.674  24.500  40.838  1.00  0.00     0.188 C 
BRANCH   2   3
ATOM      3  O   UNL A   1      50.699  23.537  41.200  1.00  0.00    -0.376 OA
BRANCH   3   4
ATOM      4  C   UNL A   1      51.219  22.212  41.383  1.00  0.00     0.202 C 
BRANCH   4   5
ATOM      5  C   UNL A   1      50.256  20.993  41.303  1.00  0.00     0.261 C 
BRANCH   5   6
ATOM      6  O   UNL A   1      49.626  20.739  40.024  1.00  0.00    -0.460 OA
BRANCH   6   7
ATOM      7  C   UNL A   1      49.624  19.474  39.524  1.00  0.00     0.339 C 
ATOM      8  O   UNL A   1      50.512  18.675  39.665  1.00  0.00    -0.246 OA
BRANCH   7   9
ATOM      9  C   UNL A   1      48.304  19.236  38.864  1.00  0.00     0.075 A 
ATOM     10  C   UNL A   1      48.612  20.323  36.592  1.00  0.00     0.075 A 
ATOM     11  N   UNL A   1      47.672  20.633  35.633  1.00  0.00    -0.275 N 
ATOM     12  C   UNL A   1      47.884  19.743  37.621  1.00  0.00     0.061 A 
ATOM     13  N   UNL A   1      46.443  20.159  35.881  1.00  0.00    -0.154 NA
ATOM     14  H   UNL A   1      47.886  21.160  34.829  1.00  0.00     0.190 HD
ATOM     15  C   UNL A   1      46.578  19.542  37.053  1.00  0.00     0.182 A 
ATOM     16  N   UNL A   1      45.630  18.779  37.643  1.00  0.00    -0.226 NA
ATOM     17  C   UNL A   1      47.305  18.396  39.415  1.00  0.00     0.045 A 
ATOM     18  C   UNL A   1      46.033  18.193  38.802  1.00  0.00     0.074 A 
BRANCH  10  19
ATOM     19  C   UNL A   1      50.029  20.429  36.274  1.00  0.00     0.001 A 
ATOM     20  C   UNL A   1      52.794  20.486  35.756  1.00  0.00     0.118 A 
ATOM     21  C   UNL A   1      52.155  21.573  36.362  1.00  0.00     0.047 A 
ATOM     22  C   UNL A   1      52.033  19.396  35.345  1.00  0.00     0.047 A 
ATOM     23  C   UNL A   1      50.779  21.552  36.611  1.00  0.00     0.014 A 
ATOM     24  C   UNL A   1      50.658  19.371  35.598  1.00  0.00     0.014 A 
BRANCH  20  25
ATOM     25  O   UNL A   1      54.150  20.610  35.635  1.00  0.00    -0.497 OA
ATOM     26  C   UNL A   1      54.658  21.917  35.388  1.00  0.00     0.278 C 
ENDBRANCH  20  25
ENDBRANCH  10  19
BRANCH  18  27
ATOM     27  C   UNL A   1      44.995  17.342  39.438  1.00  0.00     0.000 A 
ATOM     28  C   UNL A   1      44.978  17.103  40.827  1.00  0.00     0.011 A 
ATOM     29  C   UNL A   1      44.020  16.691  38.664  1.00  0.00     0.011 A 
ATOM     30  C   UNL A   1      44.034  16.242  41.412  1.00  0.00     0.014 A 
ATOM     31  C   UNL A   1      43.081  15.829  39.242  1.00  0.00     0.014 A 
ATOM     32  C   UNL A   1      43.079  15.589  40.621  1.00  0.00     0.056 A 
BRANCH  32  33
ATOM     33  C   UNL A   1      42.089  14.632  41.238  1.00  0.00     0.416 C 
ATOM     34  F   UNL A   1      41.266  15.234  42.142  1.00  0.00    -0.166 F 
ATOM     35  F   UNL A   1      41.273  14.046  40.320  1.00  0.00    -0.166 F 
ATOM     36  F   UNL A   1      42.681  13.603  41.912  1.00  0.00    -0.166 F 
ENDBRANCH  32  33
ENDBRANCH  18  27
ENDBRANCH   7   9
ENDBRANCH   6   7
ENDBRANCH   5   6
ENDBRANCH   4   5
ENDBRANCH   3   4
ENDBRANCH   2   3
ENDBRANCH   1   2
BRANCH   1  37
ATOM     37  O   UNL A   1      49.919  25.536  39.449  1.00  0.00    -0.376 OA
BRANCH  37  38
ATOM     38  C   UNL A   1      49.701  24.888  38.198  1.00  0.00     0.202 C 
BRANCH  38  39
ATOM     39  C   UNL A   1      48.453  24.019  38.071  1.00  0.00     0.261 C 
BRANCH  39  40
ATOM     40  O   UNL A   1      47.777  24.166  36.834  1.00  0.00    -0.460 OA
BRANCH  40  41
ATOM     41  C   UNL A   1      46.600  24.824  36.951  1.00  0.00     0.338 C 
ATOM     42  O   UNL A   1      46.227  25.528  37.874  1.00  0.00    -0.246 OA
BRANCH  41  43
ATOM     43  C   UNL A   1      45.757  24.488  35.802  1.00  0.00     0.060 A 
ATOM     44  C   UNL A   1      46.310  23.580  34.897  1.00  0.00     0.016 A 
ATOM     45  C   UNL A   1      44.764  25.409  35.445  1.00  0.00     0.016 A 
ATOM     46  C   UNL A   1      46.129  23.837  33.563  1.00  0.00     0.010 A 
ATOM     47  C   UNL A   1      44.608  25.680  34.115  1.00  0.00     0.010 A 
ATOM     48  C   UNL A   1      45.390  24.969  33.209  1.00  0.00    -0.014 A 
BRANCH  48  49
ATOM     49  C   UNL A   1      45.405  25.386  31.831  1.00  0.00     0.031 A 
ATOM     50  C   UNL A   1      46.427  26.421  31.594  1.00  0.00     0.074 A 
ATOM     51  C   UNL A   1      44.640  24.799  30.892  1.00  0.00     0.049 A 
ATOM     52  N   UNL A   1      46.239  27.689  31.452  1.00  0.00    -0.248 NA
ATOM     53  C   UNL A   1      47.834  26.040  31.807  1.00  0.00     0.031 C 
ATOM     54  C   UNL A   1      43.813  23.593  30.998  1.00  0.00     0.029 A 
ATOM     55  N   UNL A   1      44.519  25.133  29.583  1.00  0.00    -0.354 N 
ATOM     56  C   UNL A   1      47.510  28.216  31.273  1.00  0.00     0.074 A 
ATOM     57  C   UNL A   1      48.428  27.232  31.776  1.00  0.00     0.031 C 
ATOM     58  C   UNL A   1      43.469  23.177  29.754  1.00  0.00     0.029 A 
ATOM     59  C   UNL A   1      43.932  24.155  28.783  1.00  0.00     0.049 A 
ATOM     60  H   UNL A   1      44.822  25.998  29.226  1.00  0.00     0.167 HD
ATOM     61  C   UNL A   1      47.714  29.261  30.427  1.00  0.00     0.037 A 
ATOM     62  C   UNL A   1      43.928  24.158  27.423  1.00  0.00     0.037 A 
ATOM     63  C   UNL A   1      46.476  29.951  30.150  1.00  0.00     0.049 A 
ATOM     64  C   UNL A   1      44.200  25.565  27.002  1.00  0.00     0.074 A 
ATOM     65  C   UNL A   1      45.523  30.576  30.933  1.00  0.00     0.029 A 
ATOM     66  N   UNL A   1      45.865  29.706  28.942  1.00  0.00    -0.354 N 
ATOM     67  N   UNL A   1      43.371  26.553  27.211  1.00  0.00    -0.248 NA
ATOM     68  C   UNL A   1      45.591  25.951  26.808  1.00  0.00     0.031 C 
ATOM     69  C   UNL A   1      44.272  30.239  30.337  1.00  0.00     0.029 A 
ATOM     70  C   UNL A   1      44.530  29.494  29.185  1.00  0.00     0.049 A 
ATOM     71  H   UNL A   1      46.305  29.688  28.062  1.00  0.00     0.167 HD
ATOM     72  C   UNL A   1      44.173  27.622  27.587  1.00  0.00     0.074 A 
ATOM     73  C   UNL A   1      45.538  27.206  27.263  1.00  0.00     0.031 C 
ATOM     74  C   UNL A   1      43.697  28.616  28.392  1.00  0.00     0.037 A 
BRANCH  61  75
ATOM     75  C   UNL A   1      48.936  29.388  29.549  1.00  0.00     0.058 A 
ATOM     76  C   UNL A   1      49.640  30.606  29.539  1.00  0.00     0.135 A 
ATOM     77  C   UNL A   1      49.288  28.474  28.525  1.00  0.00     0.135 A 
ATOM     78  F   UNL A   1      49.384  31.551  30.458  1.00  0.00    -0.206 F 
ATOM     79  C   UNL A   1      50.568  30.923  28.546  1.00  0.00     0.059 A 
ATOM     80  C   UNL A   1      50.252  28.747  27.564  1.00  0.00     0.059 A 
ATOM     81  F   UNL A   1      48.656  27.312  28.335  1.00  0.00    -0.206 F 
ATOM     82  C   UNL A   1      50.855  29.989  27.557  1.00  0.00     0.060 A 
BRANCH  82  83
ATOM     83  S   UNL A   1      51.978  30.424  26.221  1.00  0.00     0.124 S 
ATOM     84  O   UNL A   1      51.221  29.986  25.054  1.00  0.00    -0.237 OA
ATOM     85  O   UNL A   1      52.109  31.866  26.399  1.00  0.00    -0.237 OA
ATOM     86  O   UNL A   1      53.177  29.649  26.526  1.00  0.00    -0.744 OA
ENDBRANCH  82  83
ENDBRANCH  61  75
BRANCH  62  87
ATOM     87  C   UNL A   1      44.110  23.012  26.489  1.00  0.00     0.058 A 
ATOM     88  C   UNL A   1      45.395  22.513  26.199  1.00  0.00     0.135 A 
ATOM     89  C   UNL A   1      43.030  22.189  26.109  1.00  0.00     0.135 A 
ATOM     90  F   UNL A   1      46.484  23.224  26.533  1.00  0.00    -0.206 F 
ATOM     91  C   UNL A   1      45.602  21.247  25.639  1.00  0.00     0.059 A 
ATOM     92  C   UNL A   1      43.211  20.927  25.541  1.00  0.00     0.059 A 
ATOM     93  F   UNL A   1      41.764  22.543  26.369  1.00  0.00    -0.206 F 
ATOM     94  C   UNL A   1      44.499  20.447  25.339  1.00  0.00     0.060 A 
BRANCH  94  95
ATOM     95  S   UNL A   1      44.758  18.734  24.814  1.00  0.00     0.124 S 
ATOM     96  O   UNL A   1      45.005  18.889  23.385  1.00  0.00    -0.237 OA
ATOM     97  O   UNL A   1      45.907  18.334  25.619  1.00  0.00    -0.237 OA
ATOM     98  O   UNL A   1      43.499  18.081  25.162  1.00  0.00    -0.744 OA
ENDBRANCH  94  95
ENDBRANCH  62  87
BRANCH  74  99
ATOM     99  C   UNL A   1      42.211  28.683  28.644  1.00  0.00     0.058 A 
ATOM    100  C   UNL A   1      41.585  28.322  29.852  1.00  0.00     0.135 A 
ATOM    101  C   UNL A   1      41.409  29.287  27.665  1.00  0.00     0.135 A 
ATOM    102  F   UNL A   1      42.298  27.834  30.877  1.00  0.00    -0.206 F 
ATOM    103  C   UNL A   1      40.216  28.518  30.058  1.00  0.00     0.059 A 
ATOM    104  C   UNL A   1      40.050  29.520  27.861  1.00  0.00     0.059 A 
ATOM    105  F   UNL A   1      41.957  29.711  26.514  1.00  0.00    -0.206 F 
ATOM    106  C   UNL A   1      39.457  29.119  29.055  1.00  0.00     0.060 A 
BRANCH 106 107
ATOM    107  S   UNL A   1      37.701  29.436  29.341  1.00  0.00     0.124 S 
ATOM    108  O   UNL A   1      37.697  30.855  29.681  1.00  0.00    -0.237 OA
ATOM    109  O   UNL A   1      37.102  29.090  28.056  1.00  0.00    -0.237 OA
ATOM    110  O   UNL A   1      37.365  28.532  30.439  1.00  0.00    -0.744 OA
ENDBRANCH 106 107
ENDBRANCH  74  99
ENDBRANCH  48  49
ENDBRANCH  41  43
ENDBRANCH  40  41
ENDBRANCH  39  40
ENDBRANCH  38  39
ENDBRANCH  37  38
ENDBRANCH   1  37
TORSDOF 24
ENDMDL
MODEL 3
REMARK VINA RESULT:      -8.6      3.941      8.254
REMARK SMILES COc1ccc(-c2[nH]nc3nc(-c4ccc(C(F)(F)F)cc4)cc(C(=O)OCCOCCOCCOC(=O)c4ccc(-c5c6nc(c(-c7c(F)cc(S(=O)(=O)[O-])cc7F)c7ccc([nH]7)c(-c7c(F)cc(S(=O)(=O)[O-])cc7F)c7nc(c(-c8c(F)cc(S(=O)(=O)[O-])cc8F)c8ccc5[nH]8)C=C7)C=C6)cc4)c23)cc1
REMARK SMILES IDX 32 1 31 2 30 3 29 4 28 5 27 6 25 7 26 8 24 9 7 10 8 11
REMARK SMILES IDX 105 12 9 13 10 15 11 16 23 17 12 18 6 19 3 20 4 21 107 22
REMARK SMILES IDX 5 23 106 24 2 25 1 26 13 27 14 28 22 29 15 30 21 31 16 32
REMARK SMILES IDX 17 33 18 34 19 35 20 36 33 37 34 38 35 39 36 40 37 41 38 42
REMARK SMILES IDX 39 43 40 44 104 45 41 46 103 47 42 48 43 49 44 50 97 51
REMARK SMILES IDX 45 52 102 53 96 54 98 55 46 56 101 57 95 58 94 59 47 61
REMARK SMILES IDX 81 62 60 63 80 64 61 65 64 66 79 67 99 68 62 69 63 70 78 72
REMARK SMILES IDX 100 73 65 74 48 75 49 76 58 77 50 78 51 79 57 80 59 81 52 82
REMARK SMILES IDX 53 83 54 84 55 85 56 86 82 87 83 88 92 89 84 90 85 91 91 92
REMARK SMILES IDX 93 93 86 94 87 95 88 96 89 97 90 98 66 99 67 100 76 101
REMARK SMILES IDX 68 102 69 103 75 104 77 105 70 106 71 107 72 108 73 109
REMARK SMILES IDX 74 110
REMARK H PARENT 8 14 98 60 64 71
REMARK Flexibility Score: inf
ROOT
ATOM      1  C   UNL A   1      45.148  24.660  32.940  1.00  0.00     0.188 C 
ENDROOT
BRANCH   1   2
ATOM      2  C   UNL A   1      45.250  26.149  32.709  1.00  0.00     0.188 C 
BRANCH   2   3
ATOM      3  O   UNL A   1      45.782  26.604  31.477  1.00  0.00    -0.376 OA
BRANCH   3   4
ATOM      4  C   UNL A   1      45.861  25.593  30.460  1.00  0.00     0.202 C 
BRANCH   4   5
ATOM      5  C   UNL A   1      44.818  25.582  29.307  1.00  0.00     0.261 C 
BRANCH   5   6
ATOM      6  O   UNL A   1      43.519  25.014  29.605  1.00  0.00    -0.460 OA
BRANCH   6   7
ATOM      7  C   UNL A   1      42.763  24.519  28.589  1.00  0.00     0.339 C 
ATOM      8  O   UNL A   1      42.532  23.352  28.405  1.00  0.00    -0.246 OA
BRANCH   7   9
ATOM      9  C   UNL A   1      42.207  25.673  27.816  1.00  0.00     0.075 A 
ATOM     10  C   UNL A   1      43.499  25.558  25.635  1.00  0.00     0.075 A 
ATOM     11  N   UNL A   1      43.598  26.488  24.624  1.00  0.00    -0.275 N 
ATOM     12  C   UNL A   1      42.663  26.146  26.573  1.00  0.00     0.061 A 
ATOM     13  N   UNL A   1      42.777  27.540  24.751  1.00  0.00    -0.154 NA
ATOM     14  H   UNL A   1      44.220  26.388  23.868  1.00  0.00     0.190 HD
ATOM     15  C   UNL A   1      42.140  27.303  25.895  1.00  0.00     0.182 A 
ATOM     16  N   UNL A   1      41.099  28.024  26.370  1.00  0.00    -0.226 NA
ATOM     17  C   UNL A   1      41.081  26.417  28.243  1.00  0.00     0.045 A 
ATOM     18  C   UNL A   1      40.569  27.538  27.524  1.00  0.00     0.074 A 
BRANCH  10  19
ATOM     19  C   UNL A   1      44.026  24.215  25.434  1.00  0.00     0.001 A 
ATOM     20  C   UNL A   1      44.931  21.564  25.168  1.00  0.00     0.118 A 
ATOM     21  C   UNL A   1      45.816  22.595  25.500  1.00  0.00     0.047 A 
ATOM     22  C   UNL A   1      43.601  21.874  24.901  1.00  0.00     0.047 A 
ATOM     23  C   UNL A   1      45.372  23.915  25.623  1.00  0.00     0.014 A 
ATOM     24  C   UNL A   1      43.154  23.193  25.027  1.00  0.00     0.014 A 
BRANCH  20  25
ATOM     25  O   UNL A   1      45.483  20.313  25.151  1.00  0.00    -0.497 OA
ATOM     26  C   UNL A   1      44.585  19.213  25.057  1.00  0.00     0.278 C 
ENDBRANCH  20  25
ENDBRANCH  10  19
BRANCH  18  27
ATOM     27  C   UNL A   1      39.414  28.321  28.032  1.00  0.00     0.000 A 
ATOM     28  C   UNL A   1      38.801  29.328  27.259  1.00  0.00     0.011 A 
ATOM     29  C   UNL A   1      38.924  28.126  29.334  1.00  0.00     0.011 A 
ATOM     30  C   UNL A   1      37.753  30.110  27.772  1.00  0.00     0.014 A 
ATOM     31  C   UNL A   1      37.883  28.906  29.850  1.00  0.00     0.014 A 
ATOM     32  C   UNL A   1      37.289  29.912  29.079  1.00  0.00     0.056 A 
BRANCH  32  33
ATOM     33  C   UNL A   1      36.190  30.776  29.649  1.00  0.00     0.416 C 
ATOM     34  F   UNL A   1      35.052  30.743  28.902  1.00  0.00    -0.166 F 
ATOM     35  F   UNL A   1      35.824  30.409  30.908  1.00  0.00    -0.166 F 
ATOM     36  F   UNL A   1      36.533  32.094  29.737  1.00  0.00    -0.166 F 
ENDBRANCH  32  33
ENDBRANCH  18  27
ENDBRANCH   7   9
ENDBRANCH   6   7
ENDBRANCH   5   6
ENDBRANCH   4   5
ENDBRANCH   3   4
ENDBRANCH   2   3
ENDBRANCH   1   2
BRANCH   1  37
ATOM     37  O   UNL A   1      45.749  24.213  34.154  1.00  0.00    -0.376 OA
BRANCH  37  38
ATOM     38  C   UNL A   1      44.895  24.031  35.282  1.00  0.00     0.202 C 
BRANCH  38  39
ATOM     39  C   UNL A   1      43.391  24.031  35.024  1.00  0.00     0.261 C 
BRANCH  39  40
ATOM     40  O   UNL A   1      42.621  24.454  36.136  1.00  0.00    -0.460 OA
BRANCH  40  41
ATOM     41  C   UNL A   1      41.673  25.363  35.807  1.00  0.00     0.338 C 
ATOM     42  O   UNL A   1      40.462  25.234  35.868  1.00  0.00    -0.246 OA
BRANCH  41  43
ATOM     43  C   UNL A   1      42.330  26.550  35.257  1.00  0.00     0.060 A 
ATOM     44  C   UNL A   1      42.933  27.391  36.196  1.00  0.00     0.016 A 
ATOM     45  C   UNL A   1      41.902  26.995  34.000  1.00  0.00     0.016 A 
ATOM     46  C   UNL A   1      42.777  28.741  36.017  1.00  0.00     0.010 A 
ATOM     47  C   UNL A   1      41.723  28.340  33.839  1.00  0.00     0.010 A 
ATOM     48  C   UNL A   1      42.051  29.174  34.904  1.00  0.00    -0.014 A 
BRANCH  48  49
ATOM     49  C   UNL A   1      41.669  30.561  34.840  1.00  0.00     0.031 A 
ATOM     50  C   UNL A   1      42.770  31.399  34.335  1.00  0.00     0.074 A 
ATOM     51  C   UNL A   1      40.419  30.976  35.113  1.00  0.00     0.049 A 
ATOM     52  N   UNL A   1      43.548  32.166  35.021  1.00  0.00    -0.248 NA
ATOM     53  C   UNL A   1      43.228  31.152  32.957  1.00  0.00     0.031 C 
ATOM     54  C   UNL A   1      39.212  30.178  35.351  1.00  0.00     0.029 A 
ATOM     55  N   UNL A   1      39.948  32.248  35.147  1.00  0.00    -0.354 N 
ATOM     56  C   UNL A   1      44.417  32.713  34.088  1.00  0.00     0.074 A 
ATOM     57  C   UNL A   1      44.358  31.858  32.934  1.00  0.00     0.031 C 
ATOM     58  C   UNL A   1      38.122  30.981  35.272  1.00  0.00     0.029 A 
ATOM     59  C   UNL A   1      38.560  32.358  35.118  1.00  0.00     0.049 A 
ATOM     60  H   UNL A   1      40.541  33.032  35.189  1.00  0.00     0.167 HD
ATOM     61  C   UNL A   1      44.851  33.996  34.213  1.00  0.00     0.037 A 
ATOM     62  C   UNL A   1      37.873  33.511  34.898  1.00  0.00     0.037 A 
ATOM     63  C   UNL A   1      44.664  34.475  35.562  1.00  0.00     0.049 A 
ATOM     64  C   UNL A   1      38.819  34.630  35.188  1.00  0.00     0.074 A 
ATOM     65  C   UNL A   1      45.093  34.050  36.806  1.00  0.00     0.029 A 
ATOM     66  N   UNL A   1      43.599  35.312  35.801  1.00  0.00    -0.354 N 
ATOM     67  N   UNL A   1      39.281  34.893  36.382  1.00  0.00    -0.248 NA
ATOM     68  C   UNL A   1      39.629  35.127  34.084  1.00  0.00     0.031 C 
ATOM     69  C   UNL A   1      43.982  34.261  37.675  1.00  0.00     0.029 A 
ATOM     70  C   UNL A   1      42.966  34.870  36.936  1.00  0.00     0.049 A 
ATOM     71  H   UNL A   1      43.337  36.089  35.256  1.00  0.00     0.167 HD
ATOM     72  C   UNL A   1      40.618  35.209  36.188  1.00  0.00     0.074 A 
ATOM     73  C   UNL A   1      40.761  35.394  34.744  1.00  0.00     0.031 C 
ATOM     74  C   UNL A   1      41.544  35.003  37.170  1.00  0.00     0.037 A 
BRANCH  61  75
ATOM     75  C   UNL A   1      45.049  34.920  33.036  1.00  0.00     0.058 A 
ATOM     76  C   UNL A   1      46.265  35.619  32.919  1.00  0.00     0.135 A 
ATOM     77  C   UNL A   1      44.013  35.357  32.173  1.00  0.00     0.135 A 
ATOM     78  F   UNL A   1      47.314  35.296  33.692  1.00  0.00    -0.206 F 
ATOM     79  C   UNL A   1      46.418  36.712  32.066  1.00  0.00     0.059 A 
ATOM     80  C   UNL A   1      44.164  36.403  31.274  1.00  0.00     0.059 A 
ATOM     81  F   UNL A   1      42.771  34.864  32.217  1.00  0.00    -0.206 F 
ATOM     82  C   UNL A   1      45.355  37.103  31.259  1.00  0.00     0.060 A 
BRANCH  82  83
ATOM     83  S   UNL A   1      45.513  38.567  30.227  1.00  0.00     0.124 S 
ATOM     84  O   UNL A   1      44.923  39.588  31.084  1.00  0.00    -0.237 OA
ATOM     85  O   UNL A   1      46.957  38.643  30.035  1.00  0.00    -0.237 OA
ATOM     86  O   UNL A   1      44.745  38.221  29.034  1.00  0.00    -0.744 OA
ENDBRANCH  82  83
ENDBRANCH  61  75
BRANCH  62  87
ATOM     87  C   UNL A   1      36.637  33.719  34.092  1.00  0.00     0.058 A 
ATOM     88  C   UNL A   1      35.474  34.256  34.679  1.00  0.00     0.135 A 
ATOM     89  C   UNL A   1      36.659  33.694  32.683  1.00  0.00     0.135 A 
ATOM     90  F   UNL A   1      35.368  34.328  36.016  1.00  0.00    -0.206 F 
ATOM     91  C   UNL A   1      34.433  34.803  33.921  1.00  0.00     0.059 A 
ATOM     92  C   UNL A   1      35.629  34.225  31.905  1.00  0.00     0.059 A 
ATOM     93  F   UNL A   1      37.730  33.241  32.015  1.00  0.00    -0.206 F 
ATOM     94  C   UNL A   1      34.534  34.808  32.530  1.00  0.00     0.060 A 
BRANCH  94  95
ATOM     95  S   UNL A   1      33.298  35.698  31.551  1.00  0.00     0.124 S 
ATOM     96  O   UNL A   1      33.538  35.174  30.211  1.00  0.00    -0.237 OA
ATOM     97  O   UNL A   1      32.049  35.286  32.182  1.00  0.00    -0.237 OA
ATOM     98  O   UNL A   1      33.658  37.100  31.746  1.00  0.00    -0.744 OA
ENDBRANCH  94  95
ENDBRANCH  62  87
BRANCH  74  99
ATOM     99  C   UNL A   1      41.055  34.685  38.561  1.00  0.00     0.058 A 
ATOM    100  C   UNL A   1      40.674  35.646  39.516  1.00  0.00     0.135 A 
ATOM    101  C   UNL A   1      40.817  33.340  38.878  1.00  0.00     0.135 A 
ATOM    102  F   UNL A   1      40.773  36.956  39.251  1.00  0.00    -0.206 F 
ATOM    103  C   UNL A   1      40.120  35.281  40.747  1.00  0.00     0.059 A 
ATOM    104  C   UNL A   1      40.237  32.955  40.084  1.00  0.00     0.059 A 
ATOM    105  F   UNL A   1      41.100  32.378  37.984  1.00  0.00    -0.206 F 
ATOM    106  C   UNL A   1      39.905  33.930  41.020  1.00  0.00     0.060 A 
BRANCH 106 107
ATOM    107  S   UNL A   1      39.127  33.454  42.581  1.00  0.00     0.124 S 
ATOM    108  O   UNL A   1      40.280  33.089  43.398  1.00  0.00    -0.237 OA
ATOM    109  O   UNL A   1      38.432  34.676  42.975  1.00  0.00    -0.237 OA
ATOM    110  O   UNL A   1      38.254  32.345  42.204  1.00  0.00    -0.744 OA
ENDBRANCH 106 107
ENDBRANCH  74  99
ENDBRANCH  48  49
ENDBRANCH  41  43
ENDBRANCH  40  41
ENDBRANCH  39  40
ENDBRANCH  38  39
ENDBRANCH  37  38
ENDBRANCH   1  37
TORSDOF 24
ENDMDL
