MODEL 1
REMARK VINA RESULT:     -10.3      0.000      0.000
REMARK SMILES CC(C)C[NH+]1CC[NH+]([C@@H]2CC[C@]([NH3+])(C(=O)OCCOCCOCCOC(=O)c3ccc(-c4c5nc(c(-c6c(F)cc(S(=O)(=O)[O-])cc6F)c6ccc([nH]6)c(-c6c(F)cc(S(=O)(=O)[O-])cc6F)c6nc(c(-c7c(F)cc(S(=O)(=O)[O-])cc7F)c7ccc4[nH]7)C=C6)C=C5)cc3)C2)CC1
REMARK SMILES IDX 20 1 19 2 18 3 17 4 16 5 14 6 15 7 12 8 9 9 10 10 94 11
REMARK SMILES IDX 11 12 8 13 5 14 6 15 96 16 7 18 95 19 4 21 2 22 1 23 3 24
REMARK SMILES IDX 13 25 21 29 22 30 23 31 24 32 25 33 26 34 27 35 28 36 29 37
REMARK SMILES IDX 93 38 30 39 92 40 31 41 32 42 33 43 86 44 34 45 91 46 85 47
REMARK SMILES IDX 87 48 35 49 90 50 84 51 83 52 36 54 70 55 49 56 69 57 50 58
REMARK SMILES IDX 53 59 68 60 88 61 51 62 52 63 67 65 89 66 54 67 37 68 38 69
REMARK SMILES IDX 47 70 39 71 40 72 46 73 48 74 41 75 42 76 43 77 44 78 45 79
REMARK SMILES IDX 71 80 72 81 81 82 73 83 74 84 80 85 82 86 75 87 76 88 77 89
REMARK SMILES IDX 78 90 79 91 55 92 56 93 65 94 57 95 58 96 64 97 66 98 59 99
REMARK SMILES IDX 60 100 61 101 62 102 63 103
REMARK H PARENT 5 17 8 20 13 26 13 27 13 28 87 53 53 64
REMARK Flexibility Score: inf
ROOT
ATOM      1  C   UNL A   1      33.459  33.792  28.157  1.00  0.00     0.188 C 
ENDROOT
BRANCH   1   2
ATOM      2  O   UNL A   1      34.341  33.030  27.337  1.00  0.00    -0.376 OA
BRANCH   2   3
ATOM      3  C   UNL A   1      34.791  31.784  27.865  1.00  0.00     0.202 C 
BRANCH   3   4
ATOM      4  C   UNL A   1      33.825  30.595  27.738  1.00  0.00     0.261 C 
BRANCH   4   5
ATOM      5  O   UNL A   1      33.665  30.133  26.383  1.00  0.00    -0.459 OA
BRANCH   5   6
ATOM      6  C   UNL A   1      32.404  30.240  25.866  1.00  0.00     0.368 C 
ATOM      7  O   UNL A   1      31.594  31.100  26.199  1.00  0.00    -0.245 OA
BRANCH   6   8
ATOM      8  C   UNL A   1      32.085  29.140  24.819  1.00  0.00     0.198 C 
ATOM      9  C   UNL A   1      32.173  26.653  24.878  1.00  0.00     0.191 C 
ATOM     10  C   UNL A   1      33.199  27.214  23.875  1.00  0.00     0.072 C 
ATOM     11  C   UNL A   1      31.488  27.894  25.502  1.00  0.00     0.145 C 
ATOM     12  C   UNL A   1      33.409  28.674  24.224  1.00  0.00     0.087 C 
BRANCH   9  13
ATOM     13  N   UNL A   1      32.558  25.587  25.818  1.00  0.00    -0.323 N 
ATOM     14  N   UNL A   1      32.580  22.701  24.847  1.00  0.00    -0.325 N 
ATOM     15  C   UNL A   1      31.334  23.348  25.342  1.00  0.00     0.324 C 
ATOM     16  C   UNL A   1      33.527  23.753  24.446  1.00  0.00     0.324 C 
ATOM     17  H   UNL A   1      32.403  22.131  24.021  1.00  0.00     0.348 HD
ATOM     18  C   UNL A   1      31.480  24.650  26.198  1.00  0.00     0.324 C 
ATOM     19  C   UNL A   1      33.769  24.813  25.528  1.00  0.00     0.324 C 
ATOM     20  H   UNL A   1      32.782  26.187  26.611  1.00  0.00     0.348 HD
BRANCH  14  21
ATOM     21  C   UNL A   1      33.105  21.770  25.860  1.00  0.00     0.265 C 
BRANCH  21  22
ATOM     22  C   UNL A   1      33.617  20.387  25.374  1.00  0.00     0.038 C 
ATOM     23  C   UNL A   1      32.818  19.756  24.229  1.00  0.00     0.013 C 
ATOM     24  C   UNL A   1      35.070  20.552  24.906  1.00  0.00     0.013 C 
ENDBRANCH  21  22
ENDBRANCH  14  21
ENDBRANCH   9  13
BRANCH   8  25
ATOM     25  N   UNL A   1      31.153  29.572  23.754  1.00  0.00    -0.343 N 
ATOM     26  H   UNL A   1      31.407  30.510  23.440  1.00  0.00     0.345 HD
ATOM     27  H   UNL A   1      30.201  29.582  24.118  1.00  0.00     0.345 HD
ATOM     28  H   UNL A   1      31.210  28.924  22.969  1.00  0.00     0.345 HD
ENDBRANCH   8  25
ENDBRANCH   6   8
ENDBRANCH   5   6
ENDBRANCH   4   5
ENDBRANCH   3   4
ENDBRANCH   2   3
ENDBRANCH   1   2
BRANCH   1  29
ATOM     29  C   UNL A   1      34.104  34.558  29.313  1.00  0.00     0.188 C 
BRANCH  29  30
ATOM     30  O   UNL A   1      33.666  34.215  30.625  1.00  0.00    -0.376 OA
BRANCH  30  31
ATOM     31  C   UNL A   1      34.705  33.886  31.554  1.00  0.00     0.202 C 
BRANCH  31  32
ATOM     32  C   UNL A   1      35.048  32.387  31.692  1.00  0.00     0.261 C 
BRANCH  32  33
ATOM     33  O   UNL A   1      36.251  31.958  31.015  1.00  0.00    -0.460 OA
BRANCH  33  34
ATOM     34  C   UNL A   1      36.599  30.655  31.133  1.00  0.00     0.338 C 
ATOM     35  O   UNL A   1      35.840  29.734  31.395  1.00  0.00    -0.246 OA
BRANCH  34  36
ATOM     36  C   UNL A   1      37.998  30.472  30.648  1.00  0.00     0.060 A 
ATOM     37  C   UNL A   1      38.207  30.405  29.262  1.00  0.00     0.016 A 
ATOM     38  C   UNL A   1      39.097  30.415  31.512  1.00  0.00     0.016 A 
ATOM     39  C   UNL A   1      39.491  30.207  28.745  1.00  0.00     0.010 A 
ATOM     40  C   UNL A   1      40.385  30.209  30.992  1.00  0.00     0.010 A 
ATOM     41  C   UNL A   1      40.585  30.053  29.608  1.00  0.00    -0.014 A 
BRANCH  41  42
ATOM     42  C   UNL A   1      41.865  29.505  29.073  1.00  0.00     0.031 A 
ATOM     43  C   UNL A   1      43.059  30.427  29.005  1.00  0.00     0.074 A 
ATOM     44  C   UNL A   1      42.004  28.216  28.709  1.00  0.00     0.049 A 
ATOM     45  N   UNL A   1      44.283  30.180  28.612  1.00  0.00    -0.248 NA
ATOM     46  C   UNL A   1      42.840  31.815  29.443  1.00  0.00     0.031 C 
ATOM     47  C   UNL A   1      40.954  27.200  28.751  1.00  0.00     0.029 A 
ATOM     48  N   UNL A   1      43.103  27.539  28.229  1.00  0.00    -0.354 N 
ATOM     49  C   UNL A   1      44.974  31.379  28.747  1.00  0.00     0.074 A 
ATOM     50  C   UNL A   1      44.029  32.360  29.230  1.00  0.00     0.031 C 
ATOM     51  C   UNL A   1      41.459  26.031  28.314  1.00  0.00     0.029 A 
ATOM     52  C   UNL A   1      42.861  26.216  27.941  1.00  0.00     0.049 A 
ATOM     53  H   UNL A   1      43.982  27.964  28.104  1.00  0.00     0.167 HD
ATOM     54  C   UNL A   1      46.280  31.643  28.504  1.00  0.00     0.037 A 
ATOM     55  C   UNL A   1      43.674  25.267  27.428  1.00  0.00     0.037 A 
ATOM     56  C   UNL A   1      47.234  30.672  28.036  1.00  0.00     0.049 A 
ATOM     57  C   UNL A   1      45.114  25.601  27.114  1.00  0.00     0.074 A 
ATOM     58  C   UNL A   1      48.588  30.845  27.799  1.00  0.00     0.029 A 
ATOM     59  N   UNL A   1      46.940  29.354  27.725  1.00  0.00    -0.354 N 
ATOM     60  N   UNL A   1      45.763  26.728  27.291  1.00  0.00    -0.248 NA
ATOM     61  C   UNL A   1      45.936  24.526  26.537  1.00  0.00     0.031 C 
ATOM     62  C   UNL A   1      49.101  29.646  27.293  1.00  0.00     0.029 A 
ATOM     63  C   UNL A   1      48.080  28.710  27.272  1.00  0.00     0.049 A 
ATOM     64  H   UNL A   1      46.053  28.938  27.814  1.00  0.00     0.167 HD
ATOM     65  C   UNL A   1      47.072  26.484  26.884  1.00  0.00     0.074 A 
ATOM     66  C   UNL A   1      47.129  25.101  26.463  1.00  0.00     0.031 C 
ATOM     67  C   UNL A   1      48.135  27.328  26.865  1.00  0.00     0.037 A 
BRANCH  54  68
ATOM     68  C   UNL A   1      46.757  33.054  28.714  1.00  0.00     0.058 A 
ATOM     69  C   UNL A   1      47.351  33.466  29.917  1.00  0.00     0.135 A 
ATOM     70  C   UNL A   1      46.661  33.993  27.675  1.00  0.00     0.135 A 
ATOM     71  F   UNL A   1      47.448  32.613  30.950  1.00  0.00    -0.206 F 
ATOM     72  C   UNL A   1      47.816  34.765  30.089  1.00  0.00     0.059 A 
ATOM     73  C   UNL A   1      47.143  35.290  27.815  1.00  0.00     0.059 A 
ATOM     74  F   UNL A   1      46.096  33.653  26.505  1.00  0.00    -0.206 F 
ATOM     75  C   UNL A   1      47.710  35.669  29.030  1.00  0.00     0.060 A 
BRANCH  75  76
ATOM     76  S   UNL A   1      48.339  37.346  29.262  1.00  0.00     0.124 S 
ATOM     77  O   UNL A   1      49.714  37.208  28.795  1.00  0.00    -0.237 OA
ATOM     78  O   UNL A   1      47.455  38.131  28.408  1.00  0.00    -0.237 OA
ATOM     79  O   UNL A   1      48.185  37.571  30.697  1.00  0.00    -0.744 OA
ENDBRANCH  75  76
ENDBRANCH  54  68
BRANCH  55  80
ATOM     80  C   UNL A   1      43.160  23.892  27.163  1.00  0.00     0.058 A 
ATOM     81  C   UNL A   1      42.973  22.970  28.205  1.00  0.00     0.135 A 
ATOM     82  C   UNL A   1      42.905  23.453  25.854  1.00  0.00     0.135 A 
ATOM     83  F   UNL A   1      43.223  23.333  29.472  1.00  0.00    -0.206 F 
ATOM     84  C   UNL A   1      42.580  21.657  27.959  1.00  0.00     0.059 A 
ATOM     85  C   UNL A   1      42.482  22.154  25.585  1.00  0.00     0.059 A 
ATOM     86  F   UNL A   1      43.067  24.293  24.819  1.00  0.00    -0.206 F 
ATOM     87  C   UNL A   1      42.338  21.258  26.643  1.00  0.00     0.060 A 
BRANCH  87  88
ATOM     88  S   UNL A   1      41.810  19.558  26.335  1.00  0.00     0.124 S 
ATOM     89  O   UNL A   1      42.525  19.246  25.103  1.00  0.00    -0.237 OA
ATOM     90  O   UNL A   1      42.274  18.869  27.535  1.00  0.00    -0.237 OA
ATOM     91  O   UNL A   1      40.360  19.676  26.210  1.00  0.00    -0.744 OA
ENDBRANCH  87  88
ENDBRANCH  55  80
BRANCH  67  92
ATOM     92  C   UNL A   1      49.464  26.771  26.423  1.00  0.00     0.058 A 
ATOM     93  C   UNL A   1      50.294  26.044  27.292  1.00  0.00     0.135 A 
ATOM     94  C   UNL A   1      49.904  26.949  25.100  1.00  0.00     0.135 A 
ATOM     95  F   UNL A   1      49.925  25.841  28.566  1.00  0.00    -0.206 F 
ATOM     96  C   UNL A   1      51.531  25.554  26.879  1.00  0.00     0.059 A 
ATOM     97  C   UNL A   1      51.122  26.441  24.657  1.00  0.00     0.059 A 
ATOM     98  F   UNL A   1      49.145  27.619  24.219  1.00  0.00    -0.206 F 
ATOM     99  C   UNL A   1      51.939  25.762  25.561  1.00  0.00     0.060 A 
BRANCH  99 100
ATOM    100  S   UNL A   1      53.546  25.129  25.036  1.00  0.00     0.124 S 
ATOM    101  O   UNL A   1      53.394  23.699  25.289  1.00  0.00    -0.237 OA
ATOM    102  O   UNL A   1      53.596  25.522  23.631  1.00  0.00    -0.237 OA
ATOM    103  O   UNL A   1      54.488  25.824  25.908  1.00  0.00    -0.744 OA
ENDBRANCH  99 100
ENDBRANCH  67  92
ENDBRANCH  41  42
ENDBRANCH  34  36
ENDBRANCH  33  34
ENDBRANCH  32  33
ENDBRANCH  31  32
ENDBRANCH  30  31
ENDBRANCH  29  30
ENDBRANCH   1  29
TORSDOF 24
ENDMDL
MODEL 2
REMARK VINA RESULT:     -10.0      6.221     12.254
REMARK SMILES CC(C)C[NH+]1CC[NH+]([C@@H]2CC[C@]([NH3+])(C(=O)OCCOCCOCCOC(=O)c3ccc(-c4c5nc(c(-c6c(F)cc(S(=O)(=O)[O-])cc6F)c6ccc([nH]6)c(-c6c(F)cc(S(=O)(=O)[O-])cc6F)c6nc(c(-c7c(F)cc(S(=O)(=O)[O-])cc7F)c7ccc4[nH]7)C=C6)C=C5)cc3)C2)CC1
REMARK SMILES IDX 20 1 19 2 18 3 17 4 16 5 14 6 15 7 12 8 9 9 10 10 94 11
REMARK SMILES IDX 11 12 8 13 5 14 6 15 96 16 7 18 95 19 4 21 2 22 1 23 3 24
REMARK SMILES IDX 13 25 21 29 22 30 23 31 24 32 25 33 26 34 27 35 28 36 29 37
REMARK SMILES IDX 93 38 30 39 92 40 31 41 32 42 33 43 86 44 34 45 91 46 85 47
REMARK SMILES IDX 87 48 35 49 90 50 84 51 83 52 36 54 70 55 49 56 69 57 50 58
REMARK SMILES IDX 53 59 68 60 88 61 51 62 52 63 67 65 89 66 54 67 37 68 38 69
REMARK SMILES IDX 47 70 39 71 40 72 46 73 48 74 41 75 42 76 43 77 44 78 45 79
REMARK SMILES IDX 71 80 72 81 81 82 73 83 74 84 80 85 82 86 75 87 76 88 77 89
REMARK SMILES IDX 78 90 79 91 55 92 56 93 65 94 57 95 58 96 64 97 66 98 59 99
REMARK SMILES IDX 60 100 61 101 62 102 63 103
REMARK H PARENT 5 17 8 20 13 26 13 27 13 28 87 53 53 64
REMARK Flexibility Score: inf
ROOT
ATOM      1  C   UNL A   1      36.758  19.599  24.879  1.00  0.00     0.188 C 
ENDROOT
BRANCH   1   2
ATOM      2  O   UNL A   1      35.360  19.322  24.886  1.00  0.00    -0.376 OA
BRANCH   2   3
ATOM      3  C   UNL A   1      34.485  20.442  24.756  1.00  0.00     0.202 C 
BRANCH   3   4
ATOM      4  C   UNL A   1      33.175  20.387  25.556  1.00  0.00     0.261 C 
BRANCH   4   5
ATOM      5  O   UNL A   1      32.015  20.741  24.777  1.00  0.00    -0.459 OA
BRANCH   5   6
ATOM      6  C   UNL A   1      31.583  22.031  24.911  1.00  0.00     0.368 C 
ATOM      7  O   UNL A   1      30.997  22.462  25.899  1.00  0.00    -0.245 OA
BRANCH   6   8
ATOM      8  C   UNL A   1      31.889  22.902  23.664  1.00  0.00     0.198 C 
ATOM      9  C   UNL A   1      32.779  25.209  23.371  1.00  0.00     0.191 C 
ATOM     10  C   UNL A   1      31.328  25.113  22.864  1.00  0.00     0.072 C 
ATOM     11  C   UNL A   1      33.119  23.798  23.912  1.00  0.00     0.145 C 
ATOM     12  C   UNL A   1      30.724  23.867  23.480  1.00  0.00     0.087 C 
BRANCH   9  13
ATOM     13  N   UNL A   1      33.200  26.341  24.214  1.00  0.00    -0.323 N 
ATOM     14  N   UNL A   1      31.282  27.396  26.331  1.00  0.00    -0.325 N 
ATOM     15  C   UNL A   1      31.211  27.854  24.916  1.00  0.00     0.324 C 
ATOM     16  C   UNL A   1      31.984  26.104  26.371  1.00  0.00     0.324 C 
ATOM     17  H   UNL A   1      30.353  27.241  26.721  1.00  0.00     0.348 HD
ATOM     18  C   UNL A   1      32.459  27.603  24.006  1.00  0.00     0.324 C 
ATOM     19  C   UNL A   1      33.341  26.115  25.656  1.00  0.00     0.324 C 
ATOM     20  H   UNL A   1      34.145  26.436  23.843  1.00  0.00     0.348 HD
BRANCH  14  21
ATOM     21  C   UNL A   1      31.890  28.440  27.172  1.00  0.00     0.265 C 
BRANCH  21  22
ATOM     22  C   UNL A   1      32.533  29.660  26.456  1.00  0.00     0.038 C 
ATOM     23  C   UNL A   1      31.847  31.007  26.713  1.00  0.00     0.013 C 
ATOM     24  C   UNL A   1      33.992  29.773  26.920  1.00  0.00     0.013 C 
ENDBRANCH  21  22
ENDBRANCH  14  21
ENDBRANCH   9  13
BRANCH   8  25
ATOM     25  N   UNL A   1      32.129  22.125  22.428  1.00  0.00    -0.343 N 
ATOM     26  H   UNL A   1      33.072  22.315  22.084  1.00  0.00     0.345 HD
ATOM     27  H   UNL A   1      31.448  22.394  21.719  1.00  0.00     0.345 HD
ATOM     28  H   UNL A   1      32.036  21.130  22.629  1.00  0.00     0.345 HD
ENDBRANCH   8  25
ENDBRANCH   6   8
ENDBRANCH   5   6
ENDBRANCH   4   5
ENDBRANCH   3   4
ENDBRANCH   2   3
ENDBRANCH   1   2
BRANCH   1  29
ATOM     29  C   UNL A   1      37.174  20.992  25.354  1.00  0.00     0.188 C 
BRANCH  29  30
ATOM     30  O   UNL A   1      38.567  21.290  25.304  1.00  0.00    -0.376 OA
BRANCH  30  31
ATOM     31  C   UNL A   1      39.012  22.302  26.214  1.00  0.00     0.202 C 
BRANCH  31  32
ATOM     32  C   UNL A   1      40.534  22.372  26.467  1.00  0.00     0.261 C 
BRANCH  32  33
ATOM     33  O   UNL A   1      41.141  23.666  26.256  1.00  0.00    -0.460 OA
BRANCH  33  34
ATOM     34  C   UNL A   1      42.128  24.035  27.108  1.00  0.00     0.338 C 
ATOM     35  O   UNL A   1      43.276  23.621  27.092  1.00  0.00    -0.246 OA
BRANCH  34  36
ATOM     36  C   UNL A   1      41.674  25.210  27.908  1.00  0.00     0.060 A 
ATOM     37  C   UNL A   1      42.613  26.214  28.188  1.00  0.00     0.016 A 
ATOM     38  C   UNL A   1      40.352  25.365  28.342  1.00  0.00     0.016 A 
ATOM     39  C   UNL A   1      42.257  27.326  28.958  1.00  0.00     0.010 A 
ATOM     40  C   UNL A   1      39.998  26.479  29.120  1.00  0.00     0.010 A 
ATOM     41  C   UNL A   1      40.960  27.442  29.476  1.00  0.00    -0.014 A 
BRANCH  41  42
ATOM     42  C   UNL A   1      40.693  28.430  30.561  1.00  0.00     0.031 A 
ATOM     43  C   UNL A   1      41.544  28.365  31.806  1.00  0.00     0.074 A 
ATOM     44  C   UNL A   1      39.768  29.402  30.443  1.00  0.00     0.049 A 
ATOM     45  N   UNL A   1      41.529  29.129  32.869  1.00  0.00    -0.248 NA
ATOM     46  C   UNL A   1      42.552  27.293  31.856  1.00  0.00     0.031 C 
ATOM     47  C   UNL A   1      38.895  29.613  29.290  1.00  0.00     0.029 A 
ATOM     48  N   UNL A   1      39.412  30.404  31.318  1.00  0.00    -0.354 N 
ATOM     49  C   UNL A   1      42.513  28.626  33.713  1.00  0.00     0.074 A 
ATOM     50  C   UNL A   1      43.088  27.475  33.053  1.00  0.00     0.031 C 
ATOM     51  C   UNL A   1      38.104  30.676  29.529  1.00  0.00     0.029 A 
ATOM     52  C   UNL A   1      38.397  31.211  30.859  1.00  0.00     0.049 A 
ATOM     53  H   UNL A   1      39.846  30.531  32.192  1.00  0.00     0.167 HD
ATOM     54  C   UNL A   1      42.916  29.083  34.923  1.00  0.00     0.037 A 
ATOM     55  C   UNL A   1      37.772  32.254  31.446  1.00  0.00     0.037 A 
ATOM     56  C   UNL A   1      42.362  30.236  35.583  1.00  0.00     0.049 A 
ATOM     57  C   UNL A   1      38.203  32.712  32.820  1.00  0.00     0.074 A 
ATOM     58  C   UNL A   1      42.736  30.792  36.795  1.00  0.00     0.029 A 
ATOM     59  N   UNL A   1      41.314  31.002  35.099  1.00  0.00    -0.354 N 
ATOM     60  N   UNL A   1      39.166  32.252  33.584  1.00  0.00    -0.248 NA
ATOM     61  C   UNL A   1      37.463  33.839  33.409  1.00  0.00     0.031 C 
ATOM     62  C   UNL A   1      41.879  31.863  37.069  1.00  0.00     0.029 A 
ATOM     63  C   UNL A   1      41.010  32.009  36.001  1.00  0.00     0.049 A 
ATOM     64  H   UNL A   1      40.855  30.854  34.242  1.00  0.00     0.167 HD
ATOM     65  C   UNL A   1      39.171  33.058  34.720  1.00  0.00     0.074 A 
ATOM     66  C   UNL A   1      38.124  34.040  34.541  1.00  0.00     0.031 C 
ATOM     67  C   UNL A   1      39.974  32.994  35.813  1.00  0.00     0.037 A 
BRANCH  54  68
ATOM     68  C   UNL A   1      43.998  28.317  35.632  1.00  0.00     0.058 A 
ATOM     69  C   UNL A   1      45.330  28.761  35.654  1.00  0.00     0.135 A 
ATOM     70  C   UNL A   1      43.686  27.147  36.342  1.00  0.00     0.135 A 
ATOM     71  F   UNL A   1      45.687  29.863  34.975  1.00  0.00    -0.206 F 
ATOM     72  C   UNL A   1      46.317  28.061  36.340  1.00  0.00     0.059 A 
ATOM     73  C   UNL A   1      44.651  26.445  37.057  1.00  0.00     0.059 A 
ATOM     74  F   UNL A   1      42.428  26.676  36.349  1.00  0.00    -0.206 F 
ATOM     75  C   UNL A   1      45.966  26.905  37.041  1.00  0.00     0.060 A 
BRANCH  75  76
ATOM     76  S   UNL A   1      47.255  26.020  37.944  1.00  0.00     0.124 S 
ATOM     77  O   UNL A   1      47.849  25.211  36.885  1.00  0.00    -0.237 OA
ATOM     78  O   UNL A   1      48.084  27.109  38.450  1.00  0.00    -0.237 OA
ATOM     79  O   UNL A   1      46.511  25.278  38.958  1.00  0.00    -0.744 OA
ENDBRANCH  75  76
ENDBRANCH  54  68
BRANCH  55  80
ATOM     80  C   UNL A   1      36.653  32.955  30.752  1.00  0.00     0.058 A 
ATOM     81  C   UNL A   1      36.900  33.919  29.760  1.00  0.00     0.135 A 
ATOM     82  C   UNL A   1      35.316  32.720  31.109  1.00  0.00     0.135 A 
ATOM     83  F   UNL A   1      38.162  34.196  29.397  1.00  0.00    -0.206 F 
ATOM     84  C   UNL A   1      35.868  34.642  29.171  1.00  0.00     0.059 A 
ATOM     85  C   UNL A   1      34.265  33.410  30.513  1.00  0.00     0.059 A 
ATOM     86  F   UNL A   1      35.022  31.809  32.051  1.00  0.00    -0.206 F 
ATOM     87  C   UNL A   1      34.552  34.381  29.555  1.00  0.00     0.060 A 
BRANCH  87  88
ATOM     88  S   UNL A   1      33.217  35.312  28.770  1.00  0.00     0.124 S 
ATOM     89  O   UNL A   1      32.522  35.864  29.927  1.00  0.00    -0.237 OA
ATOM     90  O   UNL A   1      33.951  36.271  27.950  1.00  0.00    -0.237 OA
ATOM     91  O   UNL A   1      32.489  34.289  28.025  1.00  0.00    -0.744 OA
ENDBRANCH  87  88
ENDBRANCH  55  80
BRANCH  67  92
ATOM     92  C   UNL A   1      39.791  34.044  36.879  1.00  0.00     0.058 A 
ATOM     93  C   UNL A   1      40.371  35.318  36.779  1.00  0.00     0.135 A 
ATOM     94  C   UNL A   1      39.001  33.775  38.010  1.00  0.00     0.135 A 
ATOM     95  F   UNL A   1      41.134  35.631  35.720  1.00  0.00    -0.206 F 
ATOM     96  C   UNL A   1      40.214  36.272  37.783  1.00  0.00     0.059 A 
ATOM     97  C   UNL A   1      38.803  34.724  39.010  1.00  0.00     0.059 A 
ATOM     98  F   UNL A   1      38.404  32.581  38.152  1.00  0.00    -0.206 F 
ATOM     99  C   UNL A   1      39.433  35.964  38.897  1.00  0.00     0.060 A 
BRANCH  99 100
ATOM    100  S   UNL A   1      39.239  37.204  40.195  1.00  0.00     0.124 S 
ATOM    101  O   UNL A   1      38.496  36.457  41.205  1.00  0.00    -0.237 OA
ATOM    102  O   UNL A   1      40.623  37.524  40.534  1.00  0.00    -0.237 OA
ATOM    103  O   UNL A   1      38.498  38.275  39.535  1.00  0.00    -0.744 OA
ENDBRANCH  99 100
ENDBRANCH  67  92
ENDBRANCH  41  42
ENDBRANCH  34  36
ENDBRANCH  33  34
ENDBRANCH  32  33
ENDBRANCH  31  32
ENDBRANCH  30  31
ENDBRANCH  29  30
ENDBRANCH   1  29
TORSDOF 24
ENDMDL
MODEL 3
REMARK VINA RESULT:      -9.9      1.082      2.409
REMARK SMILES CC(C)C[NH+]1CC[NH+]([C@@H]2CC[C@]([NH3+])(C(=O)OCCOCCOCCOC(=O)c3ccc(-c4c5nc(c(-c6c(F)cc(S(=O)(=O)[O-])cc6F)c6ccc([nH]6)c(-c6c(F)cc(S(=O)(=O)[O-])cc6F)c6nc(c(-c7c(F)cc(S(=O)(=O)[O-])cc7F)c7ccc4[nH]7)C=C6)C=C5)cc3)C2)CC1
REMARK SMILES IDX 20 1 19 2 18 3 17 4 16 5 14 6 15 7 12 8 9 9 10 10 94 11
REMARK SMILES IDX 11 12 8 13 5 14 6 15 96 16 7 18 95 19 4 21 2 22 1 23 3 24
REMARK SMILES IDX 13 25 21 29 22 30 23 31 24 32 25 33 26 34 27 35 28 36 29 37
REMARK SMILES IDX 93 38 30 39 92 40 31 41 32 42 33 43 86 44 34 45 91 46 85 47
REMARK SMILES IDX 87 48 35 49 90 50 84 51 83 52 36 54 70 55 49 56 69 57 50 58
REMARK SMILES IDX 53 59 68 60 88 61 51 62 52 63 67 65 89 66 54 67 37 68 38 69
REMARK SMILES IDX 47 70 39 71 40 72 46 73 48 74 41 75 42 76 43 77 44 78 45 79
REMARK SMILES IDX 71 80 72 81 81 82 73 83 74 84 80 85 82 86 75 87 76 88 77 89
REMARK SMILES IDX 78 90 79 91 55 92 56 93 65 94 57 95 58 96 64 97 66 98 59 99
REMARK SMILES IDX 60 100 61 101 62 102 63 103
REMARK H PARENT 5 17 8 20 13 26 13 27 13 28 87 53 53 64
REMARK Flexibility Score: inf
ROOT
ATOM      1  C   UNL A   1      33.871  30.391  27.027  1.00  0.00     0.188 C 
ENDROOT
BRANCH   1   2
ATOM      2  O   UNL A   1      32.694  29.849  26.434  1.00  0.00    -0.376 OA
BRANCH   2   3
ATOM      3  C   UNL A   1      32.728  29.635  25.023  1.00  0.00     0.202 C 
BRANCH   3   4
ATOM      4  C   UNL A   1      31.513  28.924  24.407  1.00  0.00     0.261 C 
BRANCH   4   5
ATOM      5  O   UNL A   1      31.018  27.838  25.214  1.00  0.00    -0.459 OA
BRANCH   5   6
ATOM      6  C   UNL A   1      31.672  26.647  25.069  1.00  0.00     0.368 C 
ATOM      7  O   UNL A   1      32.894  26.531  25.042  1.00  0.00    -0.245 OA
BRANCH   6   8
ATOM      8  C   UNL A   1      30.706  25.442  24.918  1.00  0.00     0.198 C 
ATOM      9  C   UNL A   1      30.907  23.017  25.446  1.00  0.00     0.191 C 
ATOM     10  C   UNL A   1      30.762  23.237  23.928  1.00  0.00     0.072 C 
ATOM     11  C   UNL A   1      30.904  24.435  26.068  1.00  0.00     0.145 C 
ATOM     12  C   UNL A   1      31.106  24.688  23.655  1.00  0.00     0.087 C 
BRANCH   9  13
ATOM     13  N   UNL A   1      31.920  22.085  25.969  1.00  0.00    -0.323 N 
ATOM     14  N   UNL A   1      34.595  21.855  24.531  1.00  0.00    -0.325 N 
ATOM     15  C   UNL A   1      33.405  21.072  24.096  1.00  0.00     0.324 C 
ATOM     16  C   UNL A   1      34.134  23.011  25.315  1.00  0.00     0.324 C 
ATOM     17  H   UNL A   1      35.112  22.223  23.733  1.00  0.00     0.348 HD
ATOM     18  C   UNL A   1      32.222  20.921  25.111  1.00  0.00     0.324 C 
ATOM     19  C   UNL A   1      33.184  22.642  26.461  1.00  0.00     0.324 C 
ATOM     20  H   UNL A   1      31.402  21.777  26.791  1.00  0.00     0.348 HD
BRANCH  14  21
ATOM     21  C   UNL A   1      35.543  20.981  25.242  1.00  0.00     0.265 C 
BRANCH  21  22
ATOM     22  C   UNL A   1      37.030  21.015  24.797  1.00  0.00     0.038 C 
ATOM     23  C   UNL A   1      37.949  21.903  25.643  1.00  0.00     0.013 C 
ATOM     24  C   UNL A   1      37.577  19.581  24.846  1.00  0.00     0.013 C 
ENDBRANCH  21  22
ENDBRANCH  14  21
ENDBRANCH   9  13
BRANCH   8  25
ATOM     25  N   UNL A   1      29.275  25.817  24.876  1.00  0.00    -0.343 N 
ATOM     26  H   UNL A   1      29.166  26.777  25.205  1.00  0.00     0.345 HD
ATOM     27  H   UNL A   1      28.741  25.189  25.476  1.00  0.00     0.345 HD
ATOM     28  H   UNL A   1      28.933  25.745  23.918  1.00  0.00     0.345 HD
ENDBRANCH   8  25
ENDBRANCH   6   8
ENDBRANCH   5   6
ENDBRANCH   4   5
ENDBRANCH   3   4
ENDBRANCH   2   3
ENDBRANCH   1   2
BRANCH   1  29
ATOM     29  C   UNL A   1      33.702  31.710  27.782  1.00  0.00     0.188 C 
BRANCH  29  30
ATOM     30  O   UNL A   1      34.795  32.622  27.718  1.00  0.00    -0.376 OA
BRANCH  30  31
ATOM     31  C   UNL A   1      35.304  33.061  28.982  1.00  0.00     0.202 C 
BRANCH  31  32
ATOM     32  C   UNL A   1      35.275  32.024  30.127  1.00  0.00     0.261 C 
BRANCH  32  33
ATOM     33  O   UNL A   1      36.043  30.822  29.898  1.00  0.00    -0.460 OA
BRANCH  33  34
ATOM     34  C   UNL A   1      36.786  30.355  30.930  1.00  0.00     0.338 C 
ATOM     35  O   UNL A   1      36.350  29.930  31.989  1.00  0.00    -0.246 OA
BRANCH  34  36
ATOM     36  C   UNL A   1      38.202  30.200  30.487  1.00  0.00     0.060 A 
ATOM     37  C   UNL A   1      38.470  30.269  29.112  1.00  0.00     0.016 A 
ATOM     38  C   UNL A   1      39.263  30.038  31.385  1.00  0.00     0.016 A 
ATOM     39  C   UNL A   1      39.772  30.103  28.631  1.00  0.00     0.010 A 
ATOM     40  C   UNL A   1      40.569  29.865  30.901  1.00  0.00     0.010 A 
ATOM     41  C   UNL A   1      40.826  29.846  29.517  1.00  0.00    -0.014 A 
BRANCH  41  42
ATOM     42  C   UNL A   1      42.121  29.334  28.984  1.00  0.00     0.031 A 
ATOM     43  C   UNL A   1      43.283  30.295  28.894  1.00  0.00     0.074 A 
ATOM     44  C   UNL A   1      42.303  28.045  28.637  1.00  0.00     0.049 A 
ATOM     45  N   UNL A   1      44.512  30.084  28.498  1.00  0.00    -0.248 NA
ATOM     46  C   UNL A   1      43.019  31.682  29.313  1.00  0.00     0.031 C 
ATOM     47  C   UNL A   1      41.288  26.994  28.701  1.00  0.00     0.029 A 
ATOM     48  N   UNL A   1      43.421  27.399  28.161  1.00  0.00    -0.354 N 
ATOM     49  C   UNL A   1      45.163  31.307  28.611  1.00  0.00     0.074 A 
ATOM     50  C   UNL A   1      44.187  32.263  29.086  1.00  0.00     0.031 C 
ATOM     51  C   UNL A   1      41.830  25.837  28.278  1.00  0.00     0.029 A 
ATOM     52  C   UNL A   1      43.223  26.064  27.894  1.00  0.00     0.049 A 
ATOM     53  H   UNL A   1      44.284  27.852  28.025  1.00  0.00     0.167 HD
ATOM     54  C   UNL A   1      46.458  31.612  28.356  1.00  0.00     0.037 A 
ATOM     55  C   UNL A   1      44.065  25.136  27.390  1.00  0.00     0.037 A 
ATOM     56  C   UNL A   1      47.442  30.667  27.897  1.00  0.00     0.049 A 
ATOM     57  C   UNL A   1      45.492  25.514  27.063  1.00  0.00     0.074 A 
ATOM     58  C   UNL A   1      48.788  30.883  27.650  1.00  0.00     0.029 A 
ATOM     59  N   UNL A   1      47.191  29.336  27.608  1.00  0.00    -0.354 N 
ATOM     60  N   UNL A   1      46.102  26.665  27.219  1.00  0.00    -0.248 NA
ATOM     61  C   UNL A   1      46.347  24.459  26.497  1.00  0.00     0.031 C 
ATOM     62  C   UNL A   1      49.339  29.694  27.159  1.00  0.00     0.029 A 
ATOM     63  C   UNL A   1      48.350  28.725  27.157  1.00  0.00     0.049 A 
ATOM     64  H   UNL A   1      46.320  28.891  27.708  1.00  0.00     0.167 HD
ATOM     65  C   UNL A   1      47.417  26.460  26.808  1.00  0.00     0.074 A 
ATOM     66  C   UNL A   1      47.518  25.074  26.407  1.00  0.00     0.031 C 
ATOM     67  C   UNL A   1      48.450  27.339  26.770  1.00  0.00     0.037 A 
BRANCH  54  68
ATOM     68  C   UNL A   1      46.887  33.042  28.543  1.00  0.00     0.058 A 
ATOM     69  C   UNL A   1      47.343  33.525  29.779  1.00  0.00     0.135 A 
ATOM     70  C   UNL A   1      46.887  33.927  27.453  1.00  0.00     0.135 A 
ATOM     71  F   UNL A   1      47.345  32.727  30.859  1.00  0.00    -0.206 F 
ATOM     72  C   UNL A   1      47.767  34.840  29.933  1.00  0.00     0.059 A 
ATOM     73  C   UNL A   1      47.331  35.239  27.576  1.00  0.00     0.059 A 
ATOM     74  F   UNL A   1      46.455  33.517  26.249  1.00  0.00    -0.206 F 
ATOM     75  C   UNL A   1      47.760  35.689  28.823  1.00  0.00     0.060 A 
BRANCH  75  76
ATOM     76  S   UNL A   1      48.334  37.388  29.034  1.00  0.00     0.124 S 
ATOM     77  O   UNL A   1      48.936  37.655  27.732  1.00  0.00    -0.237 OA
ATOM     78  O   UNL A   1      47.095  38.103  29.318  1.00  0.00    -0.237 OA
ATOM     79  O   UNL A   1      49.271  37.294  30.150  1.00  0.00    -0.744 OA
ENDBRANCH  75  76
ENDBRANCH  54  68
BRANCH  55  80
ATOM     80  C   UNL A   1      43.597  23.741  27.148  1.00  0.00     0.058 A 
ATOM     81  C   UNL A   1      43.284  23.290  25.855  1.00  0.00     0.135 A 
ATOM     82  C   UNL A   1      43.395  22.848  28.213  1.00  0.00     0.135 A 
ATOM     83  F   UNL A   1      43.439  24.111  24.805  1.00  0.00    -0.206 F 
ATOM     84  C   UNL A   1      42.762  22.020  25.629  1.00  0.00     0.059 A 
ATOM     85  C   UNL A   1      42.902  21.562  28.009  1.00  0.00     0.059 A 
ATOM     86  F   UNL A   1      43.678  23.226  29.470  1.00  0.00    -0.206 F 
ATOM     87  C   UNL A   1      42.573  21.163  26.714  1.00  0.00     0.060 A 
BRANCH  87  88
ATOM     88  S   UNL A   1      41.913  19.509  26.409  1.00  0.00     0.124 S 
ATOM     89  O   UNL A   1      40.476  19.749  26.467  1.00  0.00    -0.237 OA
ATOM     90  O   UNL A   1      42.456  19.199  25.090  1.00  0.00    -0.237 OA
ATOM     91  O   UNL A   1      42.466  18.720  27.506  1.00  0.00    -0.744 OA
ENDBRANCH  87  88
ENDBRANCH  55  80
BRANCH  67  92
ATOM     92  C   UNL A   1      49.795  26.821  26.329  1.00  0.00     0.058 A 
ATOM     93  C   UNL A   1      50.219  26.890  24.993  1.00  0.00     0.135 A 
ATOM     94  C   UNL A   1      50.684  26.267  27.267  1.00  0.00     0.135 A 
ATOM     95  F   UNL A   1      49.413  27.411  24.055  1.00  0.00    -0.206 F 
ATOM     96  C   UNL A   1      51.455  26.387  24.593  1.00  0.00     0.059 A 
ATOM     97  C   UNL A   1      51.937  25.787  26.895  1.00  0.00     0.059 A 
ATOM     98  F   UNL A   1      50.342  26.192  28.562  1.00  0.00    -0.206 F 
ATOM     99  C   UNL A   1      52.305  25.832  25.551  1.00  0.00     0.060 A 
BRANCH  99 100
ATOM    100  S   UNL A   1      53.903  25.177  25.023  1.00  0.00     0.124 S 
ATOM    101  O   UNL A   1      54.142  25.938  23.800  1.00  0.00    -0.237 OA
ATOM    102  O   UNL A   1      54.767  25.506  26.153  1.00  0.00    -0.237 OA
ATOM    103  O   UNL A   1      53.642  23.752  24.835  1.00  0.00    -0.744 OA
ENDBRANCH  99 100
ENDBRANCH  67  92
ENDBRANCH  41  42
ENDBRANCH  34  36
ENDBRANCH  33  34
ENDBRANCH  32  33
ENDBRANCH  31  32
ENDBRANCH  30  31
ENDBRANCH  29  30
ENDBRANCH   1  29
TORSDOF 24
ENDMDL
