MODEL 1
REMARK VINA RESULT:     -12.1      0.000      0.000
REMARK SMILES Cc1ccccc1N[C@H](C(=O)OCCOCCOCCOC(=O)c1ccc(-c2c3nc(c(-c4c(F)cc(S(=O)(=O)[O-])cc4F)c4ccc([nH]4)c(-c4c(F)cc(S(=O)(=O)[O-])cc4F)c4nc(c(-c5c(F)cc(S(=O)(=O)[O-])cc5F)c5ccc2[nH]5)C=C4)C=C3)cc1)c1ccccc1
REMARK SMILES IDX 17 1 16 2 15 3 14 4 13 5 12 6 10 7 11 8 9 9 8 10 7 12 1 13
REMARK SMILES IDX 2 14 3 15 4 16 6 17 5 18 90 19 91 20 95 21 92 22 94 23 93 24
REMARK SMILES IDX 18 25 19 26 20 27 21 28 22 29 23 30 24 31 25 32 89 33 26 34
REMARK SMILES IDX 88 35 27 36 28 37 29 38 82 39 30 40 87 41 81 42 83 43 31 44
REMARK SMILES IDX 86 45 80 46 79 47 32 49 66 50 45 51 65 52 46 53 49 54 64 55
REMARK SMILES IDX 84 56 47 57 48 58 63 60 85 61 50 62 33 63 34 64 43 65 35 66
REMARK SMILES IDX 36 67 42 68 44 69 37 70 38 71 39 72 40 73 41 74 67 75 68 76
REMARK SMILES IDX 77 77 69 78 70 79 76 80 78 81 71 82 72 83 73 84 74 85 75 86
REMARK SMILES IDX 51 87 52 88 61 89 53 90 54 91 60 92 62 93 55 94 56 95 57 96
REMARK SMILES IDX 58 97 59 98
REMARK H PARENT 8 11 83 48 49 59
REMARK Flexibility Score: inf
ROOT
ATOM      1  C   UNL A   1      32.800  29.481  24.878  1.00  0.00     0.188 C 
ENDROOT
BRANCH   1   2
ATOM      2  C   UNL A   1      32.925  27.968  24.810  1.00  0.00     0.188 C 
BRANCH   2   3
ATOM      3  O   UNL A   1      31.778  27.140  25.050  1.00  0.00    -0.376 OA
BRANCH   3   4
ATOM      4  C   UNL A   1      31.653  26.357  26.240  1.00  0.00     0.202 C 
BRANCH   4   5
ATOM      5  C   UNL A   1      30.464  25.318  26.468  1.00  0.00     0.261 C 
BRANCH   5   6
ATOM      6  O   UNL A   1      30.718  23.880  26.813  1.00  0.00    -0.461 OA
BRANCH   6   7
ATOM      7  C   UNL A   1      30.429  22.598  26.220  1.00  0.00     0.333 C 
ATOM      8  O   UNL A   1      29.536  21.885  26.668  1.00  0.00    -0.249 OA
BRANCH   7   9
ATOM      9  C   UNL A   1      31.484  22.206  24.761  1.00  0.00     0.221 C 
BRANCH   9  10
ATOM     10  N   UNL A   1      32.273  23.396  24.485  1.00  0.00    -0.368 N 
ATOM     11  H   UNL A   1      31.773  24.205  24.229  1.00  0.00     0.161 HD
BRANCH  10  12
ATOM     12  C   UNL A   1      33.640  23.516  24.543  1.00  0.00     0.038 A 
ATOM     13  C   UNL A   1      33.741  23.367  22.013  1.00  0.00     0.046 C 
ATOM     14  C   UNL A   1      34.386  23.313  23.375  1.00  0.00    -0.028 A 
ATOM     15  C   UNL A   1      35.773  23.143  23.476  1.00  0.00     0.005 A 
ATOM     16  C   UNL A   1      36.406  23.181  24.719  1.00  0.00     0.000 A 
ATOM     17  C   UNL A   1      34.324  23.785  25.737  1.00  0.00     0.026 A 
ATOM     18  C   UNL A   1      35.685  23.531  25.850  1.00  0.00     0.002 A 
ENDBRANCH  10  12
ENDBRANCH   9  10
BRANCH   9  19
ATOM     19  C   UNL A   1      32.278  20.845  24.426  1.00  0.00    -0.015 A 
ATOM     20  C   UNL A   1      33.274  20.286  25.233  1.00  0.00     0.006 A 
ATOM     21  C   UNL A   1      32.122  20.129  23.216  1.00  0.00     0.006 A 
ATOM     22  C   UNL A   1      33.693  18.952  25.110  1.00  0.00     0.000 A 
ATOM     23  C   UNL A   1      32.495  18.782  23.080  1.00  0.00     0.000 A 
ATOM     24  C   UNL A   1      33.211  18.161  24.083  1.00  0.00     0.000 A 
ENDBRANCH   9  19
ENDBRANCH   7   9
ENDBRANCH   6   7
ENDBRANCH   5   6
ENDBRANCH   4   5
ENDBRANCH   3   4
ENDBRANCH   2   3
ENDBRANCH   1   2
BRANCH   1  25
ATOM     25  O   UNL A   1      33.731  29.937  25.849  1.00  0.00    -0.376 OA
BRANCH  25  26
ATOM     26  C   UNL A   1      33.199  30.215  27.127  1.00  0.00     0.202 C 
BRANCH  26  27
ATOM     27  C   UNL A   1      33.626  31.593  27.627  1.00  0.00     0.261 C 
BRANCH  27  28
ATOM     28  O   UNL A   1      35.065  31.685  27.758  1.00  0.00    -0.460 OA
BRANCH  28  29
ATOM     29  C   UNL A   1      35.590  31.415  29.001  1.00  0.00     0.338 C 
ATOM     30  O   UNL A   1      35.338  32.101  29.982  1.00  0.00    -0.246 OA
BRANCH  29  31
ATOM     31  C   UNL A   1      36.408  30.164  28.967  1.00  0.00     0.060 A 
ATOM     32  C   UNL A   1      36.809  29.364  30.031  1.00  0.00     0.016 A 
ATOM     33  C   UNL A   1      36.955  29.827  27.780  1.00  0.00     0.016 A 
ATOM     34  C   UNL A   1      37.966  28.468  29.951  1.00  0.00     0.010 A 
ATOM     35  C   UNL A   1      38.127  29.053  27.782  1.00  0.00     0.010 A 
ATOM     36  C   UNL A   1      38.844  28.402  28.843  1.00  0.00    -0.014 A 
BRANCH  36  37
ATOM     37  C   UNL A   1      40.500  27.788  28.897  1.00  0.00     0.031 A 
ATOM     38  C   UNL A   1      41.436  26.371  28.307  1.00  0.00     0.074 A 
ATOM     39  C   UNL A   1      41.392  28.686  29.388  1.00  0.00     0.049 A 
ATOM     40  N   UNL A   1      42.754  26.201  28.345  1.00  0.00    -0.248 NA
ATOM     41  C   UNL A   1      41.005  25.112  27.612  1.00  0.00     0.031 C 
ATOM     42  C   UNL A   1      42.837  28.733  29.182  1.00  0.00     0.029 A 
ATOM     43  N   UNL A   1      41.177  29.734  30.275  1.00  0.00    -0.354 N 
ATOM     44  C   UNL A   1      43.105  25.033  27.625  1.00  0.00     0.074 A 
ATOM     45  C   UNL A   1      41.992  24.725  26.826  1.00  0.00     0.031 C 
ATOM     46  C   UNL A   1      43.402  29.503  30.117  1.00  0.00     0.029 A 
ATOM     47  C   UNL A   1      42.358  29.952  30.999  1.00  0.00     0.049 A 
ATOM     48  H   UNL A   1      40.337  30.239  30.378  1.00  0.00     0.167 HD
ATOM     49  C   UNL A   1      44.159  24.184  27.829  1.00  0.00     0.037 A 
ATOM     50  C   UNL A   1      42.328  29.833  32.352  1.00  0.00     0.037 A 
ATOM     51  C   UNL A   1      45.044  24.764  28.797  1.00  0.00     0.049 A 
ATOM     52  C   UNL A   1      43.012  28.568  32.825  1.00  0.00     0.074 A 
ATOM     53  C   UNL A   1      45.799  25.921  28.748  1.00  0.00     0.029 A 
ATOM     54  N   UNL A   1      44.848  24.467  30.128  1.00  0.00    -0.354 N 
ATOM     55  N   UNL A   1      43.720  27.765  32.070  1.00  0.00    -0.248 NA
ATOM     56  C   UNL A   1      42.906  28.086  34.200  1.00  0.00     0.031 C 
ATOM     57  C   UNL A   1      45.817  26.453  30.066  1.00  0.00     0.029 A 
ATOM     58  C   UNL A   1      45.172  25.564  30.913  1.00  0.00     0.049 A 
ATOM     59  H   UNL A   1      44.524  23.603  30.471  1.00  0.00     0.167 HD
ATOM     60  C   UNL A   1      44.089  26.667  32.799  1.00  0.00     0.074 A 
ATOM     61  C   UNL A   1      43.562  26.918  34.129  1.00  0.00     0.031 C 
ATOM     62  C   UNL A   1      44.781  25.594  32.309  1.00  0.00     0.037 A 
BRANCH  49  63
ATOM     63  C   UNL A   1      44.358  22.849  27.076  1.00  0.00     0.058 A 
ATOM     64  C   UNL A   1      45.522  22.616  26.324  1.00  0.00     0.135 A 
ATOM     65  C   UNL A   1      43.416  21.784  27.000  1.00  0.00     0.135 A 
ATOM     66  F   UNL A   1      46.568  23.448  26.424  1.00  0.00    -0.206 F 
ATOM     67  C   UNL A   1      45.656  21.533  25.432  1.00  0.00     0.059 A 
ATOM     68  C   UNL A   1      43.478  20.750  26.051  1.00  0.00     0.059 A 
ATOM     69  F   UNL A   1      42.398  21.694  27.871  1.00  0.00    -0.206 F 
ATOM     70  C   UNL A   1      44.598  20.646  25.246  1.00  0.00     0.060 A 
BRANCH  70  71
ATOM     71  S   UNL A   1      44.699  19.390  23.944  1.00  0.00     0.124 S 
ATOM     72  O   UNL A   1      44.508  20.184  22.734  1.00  0.00    -0.237 OA
ATOM     73  O   UNL A   1      46.038  18.848  24.141  1.00  0.00    -0.237 OA
ATOM     74  O   UNL A   1      43.603  18.477  24.259  1.00  0.00    -0.744 OA
ENDBRANCH  70  71
ENDBRANCH  49  63
BRANCH  50  75
ATOM     75  C   UNL A   1      41.136  30.550  32.906  1.00  0.00     0.058 A 
ATOM     76  C   UNL A   1      40.041  29.723  33.259  1.00  0.00     0.135 A 
ATOM     77  C   UNL A   1      41.196  31.817  33.502  1.00  0.00     0.135 A 
ATOM     78  F   UNL A   1      39.933  28.491  32.734  1.00  0.00    -0.206 F 
ATOM     79  C   UNL A   1      39.160  30.057  34.279  1.00  0.00     0.059 A 
ATOM     80  C   UNL A   1      40.292  32.188  34.511  1.00  0.00     0.059 A 
ATOM     81  F   UNL A   1      42.213  32.645  33.226  1.00  0.00    -0.206 F 
ATOM     82  C   UNL A   1      39.318  31.275  34.929  1.00  0.00     0.060 A 
BRANCH  82  83
ATOM     83  S   UNL A   1      38.375  31.511  36.459  1.00  0.00     0.124 S 
ATOM     84  O   UNL A   1      39.361  32.127  37.336  1.00  0.00    -0.237 OA
ATOM     85  O   UNL A   1      37.305  32.394  36.000  1.00  0.00    -0.237 OA
ATOM     86  O   UNL A   1      37.964  30.155  36.806  1.00  0.00    -0.744 OA
ENDBRANCH  82  83
ENDBRANCH  50  75
BRANCH  62  87
ATOM     87  C   UNL A   1      45.178  24.494  33.235  1.00  0.00     0.058 A 
ATOM     88  C   UNL A   1      46.372  24.596  33.963  1.00  0.00     0.135 A 
ATOM     89  C   UNL A   1      44.438  23.307  33.375  1.00  0.00     0.135 A 
ATOM     90  F   UNL A   1      47.152  25.683  33.840  1.00  0.00    -0.206 F 
ATOM     91  C   UNL A   1      46.780  23.603  34.842  1.00  0.00     0.059 A 
ATOM     92  C   UNL A   1      44.846  22.280  34.220  1.00  0.00     0.059 A 
ATOM     93  F   UNL A   1      43.296  23.122  32.694  1.00  0.00    -0.206 F 
ATOM     94  C   UNL A   1      46.005  22.453  34.971  1.00  0.00     0.060 A 
BRANCH  94  95
ATOM     95  S   UNL A   1      46.538  21.169  36.115  1.00  0.00     0.124 S 
ATOM     96  O   UNL A   1      46.531  21.861  37.401  1.00  0.00    -0.237 OA
ATOM     97  O   UNL A   1      45.493  20.168  35.931  1.00  0.00    -0.237 OA
ATOM     98  O   UNL A   1      47.860  20.804  35.614  1.00  0.00    -0.744 OA
ENDBRANCH  94  95
ENDBRANCH  62  87
ENDBRANCH  36  37
ENDBRANCH  29  31
ENDBRANCH  28  29
ENDBRANCH  27  28
ENDBRANCH  26  27
ENDBRANCH  25  26
ENDBRANCH   1  25
TORSDOF 23
ENDMDL
MODEL 2
REMARK VINA RESULT:     -11.8      1.490      2.378
REMARK SMILES Cc1ccccc1N[C@H](C(=O)OCCOCCOCCOC(=O)c1ccc(-c2c3nc(c(-c4c(F)cc(S(=O)(=O)[O-])cc4F)c4ccc([nH]4)c(-c4c(F)cc(S(=O)(=O)[O-])cc4F)c4nc(c(-c5c(F)cc(S(=O)(=O)[O-])cc5F)c5ccc2[nH]5)C=C4)C=C3)cc1)c1ccccc1
REMARK SMILES IDX 17 1 16 2 15 3 14 4 13 5 12 6 10 7 11 8 9 9 8 10 7 12 1 13
REMARK SMILES IDX 2 14 3 15 4 16 6 17 5 18 90 19 91 20 95 21 92 22 94 23 93 24
REMARK SMILES IDX 18 25 19 26 20 27 21 28 22 29 23 30 24 31 25 32 89 33 26 34
REMARK SMILES IDX 88 35 27 36 28 37 29 38 82 39 30 40 87 41 81 42 83 43 31 44
REMARK SMILES IDX 86 45 80 46 79 47 32 49 66 50 45 51 65 52 46 53 49 54 64 55
REMARK SMILES IDX 84 56 47 57 48 58 63 60 85 61 50 62 33 63 34 64 43 65 35 66
REMARK SMILES IDX 36 67 42 68 44 69 37 70 38 71 39 72 40 73 41 74 67 75 68 76
REMARK SMILES IDX 77 77 69 78 70 79 76 80 78 81 71 82 72 83 73 84 74 85 75 86
REMARK SMILES IDX 51 87 52 88 61 89 53 90 54 91 60 92 62 93 55 94 56 95 57 96
REMARK SMILES IDX 58 97 59 98
REMARK H PARENT 8 11 83 48 49 59
REMARK Flexibility Score: inf
ROOT
ATOM      1  C   UNL A   1      33.280  27.594  25.453  1.00  0.00     0.188 C 
ENDROOT
BRANCH   1   2
ATOM      2  C   UNL A   1      33.052  26.190  24.917  1.00  0.00     0.188 C 
BRANCH   2   3
ATOM      3  O   UNL A   1      32.242  25.261  25.652  1.00  0.00    -0.376 OA
BRANCH   3   4
ATOM      4  C   UNL A   1      31.440  24.279  24.992  1.00  0.00     0.202 C 
BRANCH   4   5
ATOM      5  C   UNL A   1      31.048  22.889  25.671  1.00  0.00     0.261 C 
BRANCH   5   6
ATOM      6  O   UNL A   1      31.613  21.583  25.196  1.00  0.00    -0.461 OA
BRANCH   6   7
ATOM      7  C   UNL A   1      32.412  21.135  24.082  1.00  0.00     0.333 C 
ATOM      8  O   UNL A   1      32.220  21.576  22.953  1.00  0.00    -0.249 OA
BRANCH   7   9
ATOM      9  C   UNL A   1      33.712  19.915  24.550  1.00  0.00     0.221 C 
BRANCH   9  10
ATOM     10  N   UNL A   1      34.448  20.495  25.662  1.00  0.00    -0.368 N 
ATOM     11  H   UNL A   1      34.228  20.155  26.559  1.00  0.00     0.161 HD
BRANCH  10  12
ATOM     12  C   UNL A   1      35.416  21.468  25.597  1.00  0.00     0.038 A 
ATOM     13  C   UNL A   1      34.168  22.800  27.358  1.00  0.00     0.046 C 
ATOM     14  C   UNL A   1      35.202  22.679  26.268  1.00  0.00    -0.028 A 
ATOM     15  C   UNL A   1      36.029  23.771  25.976  1.00  0.00     0.005 A 
ATOM     16  C   UNL A   1      37.054  23.657  25.037  1.00  0.00     0.000 A 
ATOM     17  C   UNL A   1      36.589  21.316  24.845  1.00  0.00     0.026 A 
ATOM     18  C   UNL A   1      37.354  22.419  24.490  1.00  0.00     0.002 A 
ENDBRANCH  10  12
ENDBRANCH   9  10
BRANCH   9  19
ATOM     19  C   UNL A   1      33.602  18.311  24.649  1.00  0.00    -0.015 A 
ATOM     20  C   UNL A   1      34.540  17.415  24.126  1.00  0.00     0.006 A 
ATOM     21  C   UNL A   1      32.478  17.639  25.185  1.00  0.00     0.006 A 
ATOM     22  C   UNL A   1      34.608  16.070  24.520  1.00  0.00     0.000 A 
ATOM     23  C   UNL A   1      32.532  16.306  25.624  1.00  0.00     0.000 A 
ATOM     24  C   UNL A   1      33.652  15.541  25.369  1.00  0.00     0.000 A 
ENDBRANCH   9  19
ENDBRANCH   7   9
ENDBRANCH   6   7
ENDBRANCH   5   6
ENDBRANCH   4   5
ENDBRANCH   3   4
ENDBRANCH   2   3
ENDBRANCH   1   2
BRANCH   1  25
ATOM     25  O   UNL A   1      32.683  27.655  26.740  1.00  0.00    -0.376 OA
BRANCH  25  26
ATOM     26  C   UNL A   1      32.452  28.951  27.250  1.00  0.00     0.202 C 
BRANCH  26  27
ATOM     27  C   UNL A   1      33.521  29.937  26.786  1.00  0.00     0.261 C 
BRANCH  27  28
ATOM     28  O   UNL A   1      34.758  29.759  27.516  1.00  0.00    -0.460 OA
BRANCH  28  29
ATOM     29  C   UNL A   1      35.332  30.892  28.044  1.00  0.00     0.338 C 
ATOM     30  O   UNL A   1      34.838  32.002  27.904  1.00  0.00    -0.246 OA
BRANCH  29  31
ATOM     31  C   UNL A   1      36.548  30.545  28.842  1.00  0.00     0.060 A 
ATOM     32  C   UNL A   1      37.729  31.266  28.976  1.00  0.00     0.016 A 
ATOM     33  C   UNL A   1      36.580  29.315  29.396  1.00  0.00     0.016 A 
ATOM     34  C   UNL A   1      38.994  30.640  29.370  1.00  0.00     0.010 A 
ATOM     35  C   UNL A   1      37.832  28.731  29.648  1.00  0.00     0.010 A 
ATOM     36  C   UNL A   1      39.168  29.247  29.547  1.00  0.00    -0.014 A 
BRANCH  36  37
ATOM     37  C   UNL A   1      40.719  28.403  29.475  1.00  0.00     0.031 A 
ATOM     38  C   UNL A   1      41.433  26.951  28.689  1.00  0.00     0.074 A 
ATOM     39  C   UNL A   1      41.738  29.097  30.043  1.00  0.00     0.049 A 
ATOM     40  N   UNL A   1      42.714  26.593  28.665  1.00  0.00    -0.248 NA
ATOM     41  C   UNL A   1      40.816  25.862  27.861  1.00  0.00     0.031 C 
ATOM     42  C   UNL A   1      43.172  28.965  29.799  1.00  0.00     0.029 A 
ATOM     43  N   UNL A   1      41.688  30.048  31.056  1.00  0.00    -0.354 N 
ATOM     44  C   UNL A   1      42.883  25.486  27.799  1.00  0.00     0.074 A 
ATOM     45  C   UNL A   1      41.726  25.440  27.004  1.00  0.00     0.031 C 
ATOM     46  C   UNL A   1      43.855  29.526  30.802  1.00  0.00     0.029 A 
ATOM     47  C   UNL A   1      42.898  30.005  31.764  1.00  0.00     0.049 A 
ATOM     48  H   UNL A   1      40.932  30.649  31.246  1.00  0.00     0.167 HD
ATOM     49  C   UNL A   1      43.806  24.479  27.866  1.00  0.00     0.037 A 
ATOM     50  C   UNL A   1      42.869  29.725  33.093  1.00  0.00     0.037 A 
ATOM     51  C   UNL A   1      44.779  24.803  28.869  1.00  0.00     0.049 A 
ATOM     52  C   UNL A   1      43.371  28.327  33.388  1.00  0.00     0.074 A 
ATOM     53  C   UNL A   1      45.692  25.838  28.937  1.00  0.00     0.029 A 
ATOM     54  N   UNL A   1      44.560  24.374  30.160  1.00  0.00    -0.354 N 
ATOM     55  N   UNL A   1      43.946  27.532  32.520  1.00  0.00    -0.248 NA
ATOM     56  C   UNL A   1      43.214  27.698  34.697  1.00  0.00     0.031 C 
ATOM     57  C   UNL A   1      45.804  26.195  30.308  1.00  0.00     0.029 A 
ATOM     58  C   UNL A   1      45.050  25.308  31.061  1.00  0.00     0.049 A 
ATOM     59  H   UNL A   1      44.120  23.528  30.406  1.00  0.00     0.167 HD
ATOM     60  C   UNL A   1      44.162  26.311  33.099  1.00  0.00     0.074 A 
ATOM     61  C   UNL A   1      43.695  26.467  34.466  1.00  0.00     0.031 C 
ATOM     62  C   UNL A   1      44.685  25.220  32.462  1.00  0.00     0.037 A 
BRANCH  49  63
ATOM     63  C   UNL A   1      43.801  23.232  26.951  1.00  0.00     0.058 A 
ATOM     64  C   UNL A   1      42.863  22.204  27.145  1.00  0.00     0.135 A 
ATOM     65  C   UNL A   1      44.731  22.957  25.910  1.00  0.00     0.135 A 
ATOM     66  F   UNL A   1      41.825  22.385  27.974  1.00  0.00    -0.206 F 
ATOM     67  C   UNL A   1      42.956  20.950  26.509  1.00  0.00     0.059 A 
ATOM     68  C   UNL A   1      44.909  21.688  25.333  1.00  0.00     0.059 A 
ATOM     69  F   UNL A   1      45.499  23.928  25.388  1.00  0.00    -0.206 F 
ATOM     70  C   UNL A   1      44.026  20.674  25.661  1.00  0.00     0.060 A 
BRANCH  70  71
ATOM     71  S   UNL A   1      44.254  18.995  25.022  1.00  0.00     0.124 S 
ATOM     72  O   UNL A   1      44.304  19.218  23.580  1.00  0.00    -0.237 OA
ATOM     73  O   UNL A   1      45.511  18.594  25.644  1.00  0.00    -0.237 OA
ATOM     74  O   UNL A   1      43.069  18.281  25.492  1.00  0.00    -0.744 OA
ENDBRANCH  70  71
ENDBRANCH  49  63
BRANCH  50  75
ATOM     75  C   UNL A   1      41.801  30.529  33.766  1.00  0.00     0.058 A 
ATOM     76  C   UNL A   1      42.086  31.908  33.920  1.00  0.00     0.135 A 
ATOM     77  C   UNL A   1      40.453  30.147  33.815  1.00  0.00     0.135 A 
ATOM     78  F   UNL A   1      43.357  32.341  33.868  1.00  0.00    -0.206 F 
ATOM     79  C   UNL A   1      41.087  32.873  33.937  1.00  0.00     0.059 A 
ATOM     80  C   UNL A   1      39.428  31.106  33.868  1.00  0.00     0.059 A 
ATOM     81  F   UNL A   1      40.110  28.860  33.659  1.00  0.00    -0.206 F 
ATOM     82  C   UNL A   1      39.760  32.465  33.869  1.00  0.00     0.060 A 
BRANCH  82  83
ATOM     83  S   UNL A   1      38.527  33.754  33.551  1.00  0.00     0.124 S 
ATOM     84  O   UNL A   1      37.451  33.382  34.460  1.00  0.00    -0.237 OA
ATOM     85  O   UNL A   1      39.271  34.958  33.918  1.00  0.00    -0.237 OA
ATOM     86  O   UNL A   1      38.246  33.600  32.128  1.00  0.00    -0.744 OA
ENDBRANCH  82  83
ENDBRANCH  50  75
BRANCH  62  87
ATOM     87  C   UNL A   1      44.932  23.968  33.236  1.00  0.00     0.058 A 
ATOM     88  C   UNL A   1      46.175  23.768  33.854  1.00  0.00     0.135 A 
ATOM     89  C   UNL A   1      43.991  22.928  33.329  1.00  0.00     0.135 A 
ATOM     90  F   UNL A   1      47.136  24.702  33.765  1.00  0.00    -0.206 F 
ATOM     91  C   UNL A   1      46.450  22.626  34.591  1.00  0.00     0.059 A 
ATOM     92  C   UNL A   1      44.258  21.756  34.029  1.00  0.00     0.059 A 
ATOM     93  F   UNL A   1      42.788  23.033  32.744  1.00  0.00    -0.206 F 
ATOM     94  C   UNL A   1      45.481  21.628  34.681  1.00  0.00     0.060 A 
BRANCH  94  95
ATOM     95  S   UNL A   1      45.842  20.148  35.640  1.00  0.00     0.124 S 
ATOM     96  O   UNL A   1      47.223  19.854  35.269  1.00  0.00    -0.237 OA
ATOM     97  O   UNL A   1      45.643  20.632  37.001  1.00  0.00    -0.237 OA
ATOM     98  O   UNL A   1      44.852  19.189  35.157  1.00  0.00    -0.744 OA
ENDBRANCH  94  95
ENDBRANCH  62  87
ENDBRANCH  36  37
ENDBRANCH  29  31
ENDBRANCH  28  29
ENDBRANCH  27  28
ENDBRANCH  26  27
ENDBRANCH  25  26
ENDBRANCH   1  25
TORSDOF 23
ENDMDL
MODEL 3
REMARK VINA RESULT:     -11.4      2.377      3.905
REMARK SMILES Cc1ccccc1N[C@H](C(=O)OCCOCCOCCOC(=O)c1ccc(-c2c3nc(c(-c4c(F)cc(S(=O)(=O)[O-])cc4F)c4ccc([nH]4)c(-c4c(F)cc(S(=O)(=O)[O-])cc4F)c4nc(c(-c5c(F)cc(S(=O)(=O)[O-])cc5F)c5ccc2[nH]5)C=C4)C=C3)cc1)c1ccccc1
REMARK SMILES IDX 17 1 16 2 15 3 14 4 13 5 12 6 10 7 11 8 9 9 8 10 7 12 1 13
REMARK SMILES IDX 2 14 3 15 4 16 6 17 5 18 90 19 91 20 95 21 92 22 94 23 93 24
REMARK SMILES IDX 18 25 19 26 20 27 21 28 22 29 23 30 24 31 25 32 89 33 26 34
REMARK SMILES IDX 88 35 27 36 28 37 29 38 82 39 30 40 87 41 81 42 83 43 31 44
REMARK SMILES IDX 86 45 80 46 79 47 32 49 66 50 45 51 65 52 46 53 49 54 64 55
REMARK SMILES IDX 84 56 47 57 48 58 63 60 85 61 50 62 33 63 34 64 43 65 35 66
REMARK SMILES IDX 36 67 42 68 44 69 37 70 38 71 39 72 40 73 41 74 67 75 68 76
REMARK SMILES IDX 77 77 69 78 70 79 76 80 78 81 71 82 72 83 73 84 74 85 75 86
REMARK SMILES IDX 51 87 52 88 61 89 53 90 54 91 60 92 62 93 55 94 56 95 57 96
REMARK SMILES IDX 58 97 59 98
REMARK H PARENT 8 11 83 48 49 59
REMARK Flexibility Score: inf
ROOT
ATOM      1  C   UNL A   1      32.940  34.285  27.979  1.00  0.00     0.188 C 
ENDROOT
BRANCH   1   2
ATOM      2  C   UNL A   1      32.751  32.821  27.619  1.00  0.00     0.188 C 
BRANCH   2   3
ATOM      3  O   UNL A   1      33.841  31.898  27.760  1.00  0.00    -0.376 OA
BRANCH   3   4
ATOM      4  C   UNL A   1      33.708  30.519  27.405  1.00  0.00     0.202 C 
BRANCH   4   5
ATOM      5  C   UNL A   1      33.120  30.045  25.999  1.00  0.00     0.261 C 
BRANCH   5   6
ATOM      6  O   UNL A   1      33.696  28.880  25.247  1.00  0.00    -0.461 OA
BRANCH   6   7
ATOM      7  C   UNL A   1      33.366  28.145  24.052  1.00  0.00     0.333 C 
ATOM      8  O   UNL A   1      34.019  28.289  23.023  1.00  0.00    -0.249 OA
BRANCH   7   9
ATOM      9  C   UNL A   1      31.942  26.993  24.264  1.00  0.00     0.221 C 
BRANCH   9  10
ATOM     10  N   UNL A   1      31.079  27.180  23.108  1.00  0.00    -0.368 N 
ATOM     11  H   UNL A   1      31.204  26.551  22.361  1.00  0.00     0.161 HD
BRANCH  10  12
ATOM     12  C   UNL A   1      30.109  28.137  22.945  1.00  0.00     0.038 A 
ATOM     13  C   UNL A   1      28.416  26.577  24.009  1.00  0.00     0.046 C 
ATOM     14  C   UNL A   1      28.774  27.797  23.199  1.00  0.00    -0.028 A 
ATOM     15  C   UNL A   1      27.759  28.658  22.762  1.00  0.00     0.005 A 
ATOM     16  C   UNL A   1      28.069  29.841  22.090  1.00  0.00     0.000 A 
ATOM     17  C   UNL A   1      30.395  29.431  22.487  1.00  0.00     0.026 A 
ATOM     18  C   UNL A   1      29.390  30.244  21.977  1.00  0.00     0.002 A 
ENDBRANCH  10  12
ENDBRANCH   9  10
BRANCH   9  19
ATOM     19  C   UNL A   1      31.945  25.473  24.797  1.00  0.00    -0.015 A 
ATOM     20  C   UNL A   1      32.644  25.026  25.923  1.00  0.00     0.006 A 
ATOM     21  C   UNL A   1      31.323  24.405  24.109  1.00  0.00     0.006 A 
ATOM     22  C   UNL A   1      32.359  23.809  26.560  1.00  0.00     0.000 A 
ATOM     23  C   UNL A   1      30.990  23.193  24.735  1.00  0.00     0.000 A 
ATOM     24  C   UNL A   1      31.438  22.933  26.015  1.00  0.00     0.000 A 
ENDBRANCH   9  19
ENDBRANCH   7   9
ENDBRANCH   6   7
ENDBRANCH   5   6
ENDBRANCH   4   5
ENDBRANCH   3   4
ENDBRANCH   2   3
ENDBRANCH   1   2
BRANCH   1  25
ATOM     25  O   UNL A   1      32.744  34.402  29.381  1.00  0.00    -0.376 OA
BRANCH  25  26
ATOM     26  C   UNL A   1      33.482  35.422  30.021  1.00  0.00     0.202 C 
BRANCH  26  27
ATOM     27  C   UNL A   1      34.551  34.846  30.947  1.00  0.00     0.261 C 
BRANCH  27  28
ATOM     28  O   UNL A   1      35.043  33.574  30.461  1.00  0.00    -0.460 OA
BRANCH  28  29
ATOM     29  C   UNL A   1      34.966  32.511  31.331  1.00  0.00     0.338 C 
ATOM     30  O   UNL A   1      34.196  32.495  32.281  1.00  0.00    -0.246 OA
BRANCH  29  31
ATOM     31  C   UNL A   1      35.875  31.406  30.893  1.00  0.00     0.060 A 
ATOM     32  C   UNL A   1      36.187  30.228  31.562  1.00  0.00     0.016 A 
ATOM     33  C   UNL A   1      36.601  31.623  29.777  1.00  0.00     0.016 A 
ATOM     34  C   UNL A   1      37.409  29.467  31.288  1.00  0.00     0.010 A 
ATOM     35  C   UNL A   1      37.818  30.937  29.630  1.00  0.00     0.010 A 
ATOM     36  C   UNL A   1      38.432  29.898  30.409  1.00  0.00    -0.014 A 
BRANCH  36  37
ATOM     37  C   UNL A   1      40.107  29.337  30.452  1.00  0.00     0.031 A 
ATOM     38  C   UNL A   1      41.114  28.029  29.738  1.00  0.00     0.074 A 
ATOM     39  C   UNL A   1      40.949  30.202  31.073  1.00  0.00     0.049 A 
ATOM     40  N   UNL A   1      42.436  27.901  29.804  1.00  0.00    -0.248 NA
ATOM     41  C   UNL A   1      40.753  26.845  28.890  1.00  0.00     0.031 C 
ATOM     42  C   UNL A   1      42.397  30.321  30.926  1.00  0.00     0.029 A 
ATOM     43  N   UNL A   1      40.667  31.134  32.066  1.00  0.00    -0.354 N 
ATOM     44  C   UNL A   1      42.853  26.835  28.969  1.00  0.00     0.074 A 
ATOM     45  C   UNL A   1      41.778  26.584  28.101  1.00  0.00     0.031 C 
ATOM     46  C   UNL A   1      42.903  30.997  31.961  1.00  0.00     0.029 A 
ATOM     47  C   UNL A   1      41.815  31.307  32.851  1.00  0.00     0.049 A 
ATOM     48  H   UNL A   1      39.806  31.595  32.195  1.00  0.00     0.167 HD
ATOM     49  C   UNL A   1      43.931  26.005  29.113  1.00  0.00     0.037 A 
ATOM     50  C   UNL A   1      41.747  31.033  34.180  1.00  0.00     0.037 A 
ATOM     51  C   UNL A   1      44.763  26.499  30.171  1.00  0.00     0.049 A 
ATOM     52  C   UNL A   1      42.463  29.746  34.531  1.00  0.00     0.074 A 
ATOM     53  C   UNL A   1      45.475  27.679  30.281  1.00  0.00     0.029 A 
ATOM     54  N   UNL A   1      44.535  26.045  31.452  1.00  0.00    -0.354 N 
ATOM     55  N   UNL A   1      43.224  29.059  33.714  1.00  0.00    -0.248 NA
ATOM     56  C   UNL A   1      42.331  29.105  35.836  1.00  0.00     0.031 C 
ATOM     57  C   UNL A   1      45.431  28.056  31.651  1.00  0.00     0.029 A 
ATOM     58  C   UNL A   1      44.794  27.055  32.367  1.00  0.00     0.049 A 
ATOM     59  H   UNL A   1      44.234  25.137  31.683  1.00  0.00     0.167 HD
ATOM     60  C   UNL A   1      43.611  27.897  34.327  1.00  0.00     0.074 A 
ATOM     61  C   UNL A   1      43.032  27.976  35.658  1.00  0.00     0.031 C 
ATOM     62  C   UNL A   1      44.357  26.911  33.744  1.00  0.00     0.037 A 
BRANCH  49  63
ATOM     63  C   UNL A   1      44.204  24.772  28.220  1.00  0.00     0.058 A 
ATOM     64  C   UNL A   1      45.157  24.830  27.190  1.00  0.00     0.135 A 
ATOM     65  C   UNL A   1      43.517  23.527  28.285  1.00  0.00     0.135 A 
ATOM     66  F   UNL A   1      45.997  25.871  27.105  1.00  0.00    -0.206 F 
ATOM     67  C   UNL A   1      45.280  23.833  26.202  1.00  0.00     0.059 A 
ATOM     68  C   UNL A   1      43.548  22.563  27.263  1.00  0.00     0.059 A 
ATOM     69  F   UNL A   1      42.799  23.183  29.366  1.00  0.00    -0.206 F 
ATOM     70  C   UNL A   1      44.419  22.737  26.203  1.00  0.00     0.060 A 
BRANCH  70  71
ATOM     71  S   UNL A   1      44.442  21.577  24.812  1.00  0.00     0.124 S 
ATOM     72  O   UNL A   1      45.775  20.992  24.920  1.00  0.00    -0.237 OA
ATOM     73  O   UNL A   1      43.332  20.688  25.133  1.00  0.00    -0.237 OA
ATOM     74  O   UNL A   1      44.239  22.432  23.645  1.00  0.00    -0.744 OA
ENDBRANCH  70  71
ENDBRANCH  49  63
BRANCH  50  75
ATOM     75  C   UNL A   1      40.512  31.641  34.768  1.00  0.00     0.058 A 
ATOM     76  C   UNL A   1      39.414  30.758  34.919  1.00  0.00     0.135 A 
ATOM     77  C   UNL A   1      40.514  32.796  35.562  1.00  0.00     0.135 A 
ATOM     78  F   UNL A   1      39.360  29.625  34.198  1.00  0.00    -0.206 F 
ATOM     79  C   UNL A   1      38.469  30.916  35.925  1.00  0.00     0.059 A 
ATOM     80  C   UNL A   1      39.547  32.993  36.561  1.00  0.00     0.059 A 
ATOM     81  F   UNL A   1      41.530  33.667  35.483  1.00  0.00    -0.206 F 
ATOM     82  C   UNL A   1      38.567  32.015  36.769  1.00  0.00     0.060 A 
BRANCH  82  83
ATOM     83  S   UNL A   1      37.533  31.995  38.257  1.00  0.00     0.124 S 
ATOM     84  O   UNL A   1      38.479  32.384  39.295  1.00  0.00    -0.237 OA
ATOM     85  O   UNL A   1      36.526  32.998  37.918  1.00  0.00    -0.237 OA
ATOM     86  O   UNL A   1      37.055  30.617  38.309  1.00  0.00    -0.744 OA
ENDBRANCH  82  83
ENDBRANCH  50  75
BRANCH  62  87
ATOM     87  C   UNL A   1      44.766  25.726  34.552  1.00  0.00     0.058 A 
ATOM     88  C   UNL A   1      46.113  25.554  34.900  1.00  0.00     0.135 A 
ATOM     89  C   UNL A   1      43.867  24.718  34.939  1.00  0.00     0.135 A 
ATOM     90  F   UNL A   1      47.033  26.457  34.521  1.00  0.00    -0.206 F 
ATOM     91  C   UNL A   1      46.541  24.474  35.657  1.00  0.00     0.059 A 
ATOM     92  C   UNL A   1      44.278  23.605  35.665  1.00  0.00     0.059 A 
ATOM     93  F   UNL A   1      42.564  24.796  34.624  1.00  0.00    -0.206 F 
ATOM     94  C   UNL A   1      45.614  23.508  36.044  1.00  0.00     0.060 A 
BRANCH  94  95
ATOM     95  S   UNL A   1      46.174  22.109  37.028  1.00  0.00     0.124 S 
ATOM     96  O   UNL A   1      47.624  22.164  36.869  1.00  0.00    -0.237 OA
ATOM     97  O   UNL A   1      45.670  22.467  38.349  1.00  0.00    -0.237 OA
ATOM     98  O   UNL A   1      45.521  20.970  36.389  1.00  0.00    -0.744 OA
ENDBRANCH  94  95
ENDBRANCH  62  87
ENDBRANCH  36  37
ENDBRANCH  29  31
ENDBRANCH  28  29
ENDBRANCH  27  28
ENDBRANCH  26  27
ENDBRANCH  25  26
ENDBRANCH   1  25
TORSDOF 23
ENDMDL
