MODEL 1
REMARK VINA RESULT:     -10.4      0.000      0.000
REMARK SMILES O=C(OCCOCCOCCOC(=O)[C@H]1C[C@@H](O)CN1C(=O)c1cc(F)c(F)cc1Cl)c1ccc(-c2c3nc(c(-c4c(F)cc(S(=O)(=O)[O-])cc4F)c4ccc([nH]4)c(-c4c(F)cc(S(=O)(=O)[O-])cc4F)c4nc(c(-c5c(F)cc(S(=O)(=O)[O-])cc5F)c5ccc2[nH]5)C=C4)C=C3)cc1
REMARK SMILES IDX 7 1 6 2 5 3 4 4 3 5 2 6 1 7 32 8 33 9 97 10 34 11 96 12
REMARK SMILES IDX 35 13 36 14 37 15 90 16 38 17 95 18 89 19 91 20 39 21 94 22
REMARK SMILES IDX 88 23 87 24 40 26 74 27 53 28 73 29 54 30 57 31 72 32 92 33
REMARK SMILES IDX 55 34 56 35 71 37 93 38 58 39 41 40 42 41 51 42 43 43 44 44
REMARK SMILES IDX 50 45 52 46 45 47 46 48 47 49 48 50 49 51 75 52 76 53 85 54
REMARK SMILES IDX 77 55 78 56 84 57 86 58 79 59 80 60 81 61 82 62 83 63 59 64
REMARK SMILES IDX 60 65 69 66 61 67 62 68 68 69 70 70 63 71 64 72 65 73 66 74
REMARK SMILES IDX 67 75 8 76 9 77 10 78 11 79 12 80 13 81 14 82 15 83 16 84
REMARK SMILES IDX 20 85 17 86 19 87 21 88 22 89 23 90 24 91 30 92 25 93 29 94
REMARK SMILES IDX 31 95 26 96 27 97 28 98 18 99
REMARK H PARENT 91 25 57 36 18 100
REMARK Flexibility Score: inf
ROOT
ATOM      1  C   UNL A   1      41.265  21.646  26.270  1.00  0.00     0.188 C 
ENDROOT
BRANCH   1   2
ATOM      2  O   UNL A   1      41.471  20.354  26.866  1.00  0.00    -0.376 OA
BRANCH   2   3
ATOM      3  C   UNL A   1      41.713  19.312  25.928  1.00  0.00     0.202 C 
BRANCH   3   4
ATOM      4  C   UNL A   1      43.041  18.556  26.041  1.00  0.00     0.261 C 
BRANCH   4   5
ATOM      5  O   UNL A   1      43.888  18.573  24.883  1.00  0.00    -0.460 OA
BRANCH   5   6
ATOM      6  C   UNL A   1      44.881  19.406  24.494  1.00  0.00     0.338 C 
ATOM      7  O   UNL A   1      45.863  18.888  23.957  1.00  0.00    -0.246 OA
BRANCH   6   8
ATOM      8  C   UNL A   1      44.929  20.888  24.740  1.00  0.00     0.060 A 
ATOM      9  C   UNL A   1      45.445  21.298  25.991  1.00  0.00     0.016 A 
ATOM     10  C   UNL A   1      44.532  21.890  23.859  1.00  0.00     0.016 A 
ATOM     11  C   UNL A   1      45.548  22.653  26.359  1.00  0.00     0.010 A 
ATOM     12  C   UNL A   1      44.605  23.246  24.232  1.00  0.00     0.010 A 
ATOM     13  C   UNL A   1      45.111  23.650  25.488  1.00  0.00    -0.014 A 
BRANCH  13  14
ATOM     14  C   UNL A   1      45.447  25.088  25.698  1.00  0.00     0.031 A 
ATOM     15  C   UNL A   1      46.795  25.719  25.437  1.00  0.00     0.074 A 
ATOM     16  C   UNL A   1      44.449  25.826  26.213  1.00  0.00     0.049 A 
ATOM     17  N   UNL A   1      47.390  26.711  26.055  1.00  0.00    -0.248 NA
ATOM     18  C   UNL A   1      47.614  25.136  24.372  1.00  0.00     0.031 C 
ATOM     19  C   UNL A   1      43.062  25.370  26.364  1.00  0.00     0.029 A 
ATOM     20  N   UNL A   1      44.441  27.097  26.703  1.00  0.00    -0.354 N 
ATOM     21  C   UNL A   1      48.696  26.783  25.550  1.00  0.00     0.074 A 
ATOM     22  C   UNL A   1      48.797  25.708  24.586  1.00  0.00     0.031 C 
ATOM     23  C   UNL A   1      42.336  26.350  26.914  1.00  0.00     0.029 A 
ATOM     24  C   UNL A   1      43.214  27.477  27.187  1.00  0.00     0.049 A 
ATOM     25  H   UNL A   1      45.233  27.683  26.709  1.00  0.00     0.167 HD
ATOM     26  C   UNL A   1      49.675  27.681  25.872  1.00  0.00     0.037 A 
ATOM     27  C   UNL A   1      42.851  28.618  27.790  1.00  0.00     0.037 A 
ATOM     28  C   UNL A   1      49.362  28.891  26.622  1.00  0.00     0.049 A 
ATOM     29  C   UNL A   1      43.899  29.666  28.002  1.00  0.00     0.074 A 
ATOM     30  C   UNL A   1      50.188  29.958  26.942  1.00  0.00     0.029 A 
ATOM     31  N   UNL A   1      48.093  29.240  27.078  1.00  0.00    -0.354 N 
ATOM     32  N   UNL A   1      45.189  29.589  27.778  1.00  0.00    -0.248 NA
ATOM     33  C   UNL A   1      43.444  30.959  28.518  1.00  0.00     0.031 C 
ATOM     34  C   UNL A   1      49.443  30.914  27.634  1.00  0.00     0.029 A 
ATOM     35  C   UNL A   1      48.119  30.514  27.620  1.00  0.00     0.049 A 
ATOM     36  H   UNL A   1      47.296  28.666  27.023  1.00  0.00     0.167 HD
ATOM     37  C   UNL A   1      45.696  30.841  28.087  1.00  0.00     0.074 A 
ATOM     38  C   UNL A   1      44.570  31.655  28.503  1.00  0.00     0.031 C 
ATOM     39  C   UNL A   1      46.972  31.287  28.024  1.00  0.00     0.037 A 
BRANCH  26  40
ATOM     40  C   UNL A   1      51.143  27.471  25.456  1.00  0.00     0.058 A 
ATOM     41  C   UNL A   1      51.716  27.911  24.253  1.00  0.00     0.135 A 
ATOM     42  C   UNL A   1      52.052  26.866  26.360  1.00  0.00     0.135 A 
ATOM     43  F   UNL A   1      50.985  28.600  23.362  1.00  0.00    -0.206 F 
ATOM     44  C   UNL A   1      53.059  27.674  23.928  1.00  0.00     0.059 A 
ATOM     45  C   UNL A   1      53.404  26.662  26.084  1.00  0.00     0.059 A 
ATOM     46  F   UNL A   1      51.643  26.484  27.579  1.00  0.00    -0.206 F 
ATOM     47  C   UNL A   1      53.896  27.044  24.849  1.00  0.00     0.060 A 
BRANCH  47  48
ATOM     48  S   UNL A   1      55.622  26.742  24.415  1.00  0.00     0.124 S 
ATOM     49  O   UNL A   1      55.800  25.358  24.842  1.00  0.00    -0.237 OA
ATOM     50  O   UNL A   1      55.615  26.964  22.973  1.00  0.00    -0.237 OA
ATOM     51  O   UNL A   1      56.354  27.735  25.197  1.00  0.00    -0.744 OA
ENDBRANCH  47  48
ENDBRANCH  26  40
BRANCH  27  52
ATOM     52  C   UNL A   1      41.426  28.852  28.108  1.00  0.00     0.058 A 
ATOM     53  C   UNL A   1      41.007  28.846  29.446  1.00  0.00     0.135 A 
ATOM     54  C   UNL A   1      40.477  29.145  27.118  1.00  0.00     0.135 A 
ATOM     55  F   UNL A   1      41.891  28.597  30.423  1.00  0.00    -0.206 F 
ATOM     56  C   UNL A   1      39.685  29.078  29.793  1.00  0.00     0.059 A 
ATOM     57  C   UNL A   1      39.152  29.410  27.443  1.00  0.00     0.059 A 
ATOM     58  F   UNL A   1      40.846  29.214  25.830  1.00  0.00    -0.206 F 
ATOM     59  C   UNL A   1      38.763  29.355  28.781  1.00  0.00     0.060 A 
BRANCH  59  60
ATOM     60  S   UNL A   1      37.048  29.655  29.252  1.00  0.00     0.124 S 
ATOM     61  O   UNL A   1      36.333  29.072  28.123  1.00  0.00    -0.237 OA
ATOM     62  O   UNL A   1      36.948  28.932  30.515  1.00  0.00    -0.237 OA
ATOM     63  O   UNL A   1      36.981  31.109  29.360  1.00  0.00    -0.744 OA
ENDBRANCH  59  60
ENDBRANCH  27  52
BRANCH  39  64
ATOM     64  C   UNL A   1      47.200  32.737  28.339  1.00  0.00     0.058 A 
ATOM     65  C   UNL A   1      47.167  33.727  27.348  1.00  0.00     0.135 A 
ATOM     66  C   UNL A   1      47.414  33.136  29.669  1.00  0.00     0.135 A 
ATOM     67  F   UNL A   1      46.971  33.392  26.063  1.00  0.00    -0.206 F 
ATOM     68  C   UNL A   1      47.374  35.064  27.659  1.00  0.00     0.059 A 
ATOM     69  C   UNL A   1      47.591  34.471  30.007  1.00  0.00     0.059 A 
ATOM     70  F   UNL A   1      47.443  32.224  30.654  1.00  0.00    -0.206 F 
ATOM     71  C   UNL A   1      47.584  35.426  28.992  1.00  0.00     0.060 A 
BRANCH  71  72
ATOM     72  S   UNL A   1      47.833  37.170  29.381  1.00  0.00     0.124 S 
ATOM     73  O   UNL A   1      46.543  37.740  29.004  1.00  0.00    -0.237 OA
ATOM     74  O   UNL A   1      48.115  37.131  30.812  1.00  0.00    -0.237 OA
ATOM     75  O   UNL A   1      48.960  37.550  28.534  1.00  0.00    -0.744 OA
ENDBRANCH  71  72
ENDBRANCH  39  64
ENDBRANCH  13  14
ENDBRANCH   6   8
ENDBRANCH   5   6
ENDBRANCH   4   5
ENDBRANCH   3   4
ENDBRANCH   2   3
ENDBRANCH   1   2
BRANCH   1  76
ATOM     76  C   UNL A   1      40.301  22.497  27.105  1.00  0.00     0.188 C 
BRANCH  76  77
ATOM     77  O   UNL A   1      39.986  23.779  26.558  1.00  0.00    -0.376 OA
BRANCH  77  78
ATOM     78  C   UNL A   1      38.625  24.191  26.607  1.00  0.00     0.202 C 
BRANCH  78  79
ATOM     79  C   UNL A   1      37.565  23.276  25.989  1.00  0.00     0.261 C 
BRANCH  79  80
ATOM     80  O   UNL A   1      36.209  23.685  26.155  1.00  0.00    -0.462 OA
BRANCH  80  81
ATOM     81  C   UNL A   1      35.313  22.651  26.182  1.00  0.00     0.329 C 
ATOM     82  O   UNL A   1      34.633  22.341  27.161  1.00  0.00    -0.250 OA
BRANCH  81  83
ATOM     83  C   UNL A   1      35.159  21.996  24.813  1.00  0.00     0.198 C 
ATOM     84  C   UNL A   1      35.176  20.473  24.912  1.00  0.00     0.071 C 
ATOM     85  N   UNL A   1      33.884  22.315  24.174  1.00  0.00    -0.322 N 
ATOM     86  C   UNL A   1      33.706  20.105  24.995  1.00  0.00     0.136 C 
ATOM     87  C   UNL A   1      32.975  21.195  24.212  1.00  0.00     0.152 C 
BRANCH  85  88
ATOM     88  C   UNL A   1      33.721  23.548  23.581  1.00  0.00     0.256 C 
ATOM     89  O   UNL A   1      34.074  23.735  22.418  1.00  0.00    -0.269 OA
BRANCH  88  90
ATOM     90  C   UNL A   1      33.077  24.664  24.319  1.00  0.00     0.061 A 
ATOM     91  C   UNL A   1      33.829  25.597  25.043  1.00  0.00     0.057 A 
ATOM     92  C   UNL A   1      31.686  24.842  24.208  1.00  0.00     0.056 A 
ATOM     93  C   UNL A   1      33.192  26.662  25.675  1.00  0.00     0.159 A 
ATOM     94  C   UNL A   1      31.073  25.955  24.789  1.00  0.00     0.063 A 
ATOM     95  Cl  UNL A   1      30.655  23.707  23.409  1.00  0.00    -0.083 Cl
ATOM     96  F   UNL A   1      33.927  27.541  26.368  1.00  0.00    -0.204 F 
ATOM     97  C   UNL A   1      31.823  26.845  25.544  1.00  0.00     0.160 A 
ATOM     98  F   UNL A   1      31.221  27.896  26.114  1.00  0.00    -0.204 F 
ENDBRANCH  88  90
ENDBRANCH  85  88
BRANCH  86  99
ATOM     99  O   UNL A   1      33.312  20.053  26.354  1.00  0.00    -0.391 OA
ATOM    100  H   UNL A   1      32.531  19.485  26.442  1.00  0.00     0.211 HD
ENDBRANCH  86  99
ENDBRANCH  81  83
ENDBRANCH  80  81
ENDBRANCH  79  80
ENDBRANCH  78  79
ENDBRANCH  77  78
ENDBRANCH  76  77
ENDBRANCH   1  76
TORSDOF 23
ENDMDL
MODEL 2
REMARK VINA RESULT:     -10.3      2.731      9.165
REMARK SMILES O=C(OCCOCCOCCOC(=O)[C@H]1C[C@@H](O)CN1C(=O)c1cc(F)c(F)cc1Cl)c1ccc(-c2c3nc(c(-c4c(F)cc(S(=O)(=O)[O-])cc4F)c4ccc([nH]4)c(-c4c(F)cc(S(=O)(=O)[O-])cc4F)c4nc(c(-c5c(F)cc(S(=O)(=O)[O-])cc5F)c5ccc2[nH]5)C=C4)C=C3)cc1
REMARK SMILES IDX 7 1 6 2 5 3 4 4 3 5 2 6 1 7 32 8 33 9 97 10 34 11 96 12
REMARK SMILES IDX 35 13 36 14 37 15 90 16 38 17 95 18 89 19 91 20 39 21 94 22
REMARK SMILES IDX 88 23 87 24 40 26 74 27 53 28 73 29 54 30 57 31 72 32 92 33
REMARK SMILES IDX 55 34 56 35 71 37 93 38 58 39 41 40 42 41 51 42 43 43 44 44
REMARK SMILES IDX 50 45 52 46 45 47 46 48 47 49 48 50 49 51 75 52 76 53 85 54
REMARK SMILES IDX 77 55 78 56 84 57 86 58 79 59 80 60 81 61 82 62 83 63 59 64
REMARK SMILES IDX 60 65 69 66 61 67 62 68 68 69 70 70 63 71 64 72 65 73 66 74
REMARK SMILES IDX 67 75 8 76 9 77 10 78 11 79 12 80 13 81 14 82 15 83 16 84
REMARK SMILES IDX 20 85 17 86 19 87 21 88 22 89 23 90 24 91 30 92 25 93 29 94
REMARK SMILES IDX 31 95 26 96 27 97 28 98 18 99
REMARK H PARENT 91 25 57 36 18 100
REMARK Flexibility Score: inf
ROOT
ATOM      1  C   UNL A   1      32.256  29.594  24.773  1.00  0.00     0.188 C 
ENDROOT
BRANCH   1   2
ATOM      2  O   UNL A   1      31.481  29.831  25.961  1.00  0.00    -0.376 OA
BRANCH   2   3
ATOM      3  C   UNL A   1      32.260  30.105  27.119  1.00  0.00     0.202 C 
BRANCH   3   4
ATOM      4  C   UNL A   1      33.761  29.802  27.047  1.00  0.00     0.261 C 
BRANCH   4   5
ATOM      5  O   UNL A   1      34.470  29.776  28.295  1.00  0.00    -0.460 OA
BRANCH   5   6
ATOM      6  C   UNL A   1      35.574  30.428  28.727  1.00  0.00     0.338 C 
ATOM      7  O   UNL A   1      35.422  31.595  29.096  1.00  0.00    -0.246 OA
BRANCH   6   8
ATOM      8  C   UNL A   1      36.975  29.885  28.711  1.00  0.00     0.060 A 
ATOM      9  C   UNL A   1      37.611  29.831  27.449  1.00  0.00     0.016 A 
ATOM     10  C   UNL A   1      37.709  29.448  29.810  1.00  0.00     0.016 A 
ATOM     11  C   UNL A   1      38.921  29.343  27.283  1.00  0.00     0.010 A 
ATOM     12  C   UNL A   1      39.010  28.932  29.647  1.00  0.00     0.010 A 
ATOM     13  C   UNL A   1      39.636  28.869  28.382  1.00  0.00    -0.014 A 
BRANCH  13  14
ATOM     14  C   UNL A   1      41.104  28.608  28.319  1.00  0.00     0.031 A 
ATOM     15  C   UNL A   1      42.186  29.640  28.535  1.00  0.00     0.074 A 
ATOM     16  C   UNL A   1      41.434  27.349  27.987  1.00  0.00     0.049 A 
ATOM     17  N   UNL A   1      43.376  29.733  27.992  1.00  0.00    -0.248 NA
ATOM     18  C   UNL A   1      41.885  30.747  29.446  1.00  0.00     0.031 C 
ATOM     19  C   UNL A   1      40.488  26.229  27.904  1.00  0.00     0.029 A 
ATOM     20  N   UNL A   1      42.636  26.799  27.657  1.00  0.00    -0.354 N 
ATOM     21  C   UNL A   1      43.910  30.969  28.386  1.00  0.00     0.074 A 
ATOM     22  C   UNL A   1      42.887  31.590  29.200  1.00  0.00     0.031 C 
ATOM     23  C   UNL A   1      41.150  25.124  27.542  1.00  0.00     0.029 A 
ATOM     24  C   UNL A   1      42.547  25.469  27.332  1.00  0.00     0.049 A 
ATOM     25  H   UNL A   1      43.482  27.305  27.653  1.00  0.00     0.167 HD
ATOM     26  C   UNL A   1      45.140  31.487  28.091  1.00  0.00     0.037 A 
ATOM     27  C   UNL A   1      43.501  24.629  26.906  1.00  0.00     0.037 A 
ATOM     28  C   UNL A   1      46.188  30.648  27.523  1.00  0.00     0.049 A 
ATOM     29  C   UNL A   1      44.886  25.168  26.732  1.00  0.00     0.074 A 
ATOM     30  C   UNL A   1      47.514  30.963  27.263  1.00  0.00     0.029 A 
ATOM     31  N   UNL A   1      46.052  29.294  27.226  1.00  0.00    -0.354 N 
ATOM     32  N   UNL A   1      45.299  26.410  26.830  1.00  0.00    -0.248 NA
ATOM     33  C   UNL A   1      45.937  24.197  26.417  1.00  0.00     0.031 C 
ATOM     34  C   UNL A   1      48.156  29.831  26.760  1.00  0.00     0.029 A 
ATOM     35  C   UNL A   1      47.273  28.768  26.841  1.00  0.00     0.049 A 
ATOM     36  H   UNL A   1      45.210  28.786  27.280  1.00  0.00     0.167 HD
ATOM     37  C   UNL A   1      46.669  26.363  26.633  1.00  0.00     0.074 A 
ATOM     38  C   UNL A   1      47.012  24.970  26.418  1.00  0.00     0.031 C 
ATOM     39  C   UNL A   1      47.569  27.374  26.636  1.00  0.00     0.037 A 
BRANCH  26  40
ATOM     40  C   UNL A   1      45.485  32.966  28.348  1.00  0.00     0.058 A 
ATOM     41  C   UNL A   1      46.308  33.439  29.381  1.00  0.00     0.135 A 
ATOM     42  C   UNL A   1      45.029  33.963  27.448  1.00  0.00     0.135 A 
ATOM     43  F   UNL A   1      46.894  32.582  30.231  1.00  0.00    -0.206 F 
ATOM     44  C   UNL A   1      46.570  34.804  29.569  1.00  0.00     0.059 A 
ATOM     45  C   UNL A   1      45.315  35.321  27.581  1.00  0.00     0.059 A 
ATOM     46  F   UNL A   1      44.307  33.624  26.369  1.00  0.00    -0.206 F 
ATOM     47  C   UNL A   1      46.066  35.739  28.666  1.00  0.00     0.060 A 
BRANCH  47  48
ATOM     48  S   UNL A   1      46.409  37.493  28.923  1.00  0.00     0.124 S 
ATOM     49  O   UNL A   1      46.247  38.031  27.576  1.00  0.00    -0.237 OA
ATOM     50  O   UNL A   1      45.376  37.865  29.883  1.00  0.00    -0.237 OA
ATOM     51  O   UNL A   1      47.776  37.505  29.439  1.00  0.00    -0.744 OA
ENDBRANCH  47  48
ENDBRANCH  26  40
BRANCH  27  52
ATOM     52  C   UNL A   1      43.187  23.193  26.745  1.00  0.00     0.058 A 
ATOM     53  C   UNL A   1      43.190  22.624  25.463  1.00  0.00     0.135 A 
ATOM     54  C   UNL A   1      42.944  22.353  27.841  1.00  0.00     0.135 A 
ATOM     55  F   UNL A   1      43.445  23.391  24.392  1.00  0.00    -0.206 F 
ATOM     56  C   UNL A   1      42.920  21.279  25.266  1.00  0.00     0.059 A 
ATOM     57  C   UNL A   1      42.700  20.995  27.671  1.00  0.00     0.059 A 
ATOM     58  F   UNL A   1      42.985  22.844  29.089  1.00  0.00    -0.206 F 
ATOM     59  C   UNL A   1      42.671  20.474  26.378  1.00  0.00     0.060 A 
BRANCH  59  60
ATOM     60  S   UNL A   1      42.321  18.726  26.101  1.00  0.00     0.124 S 
ATOM     61  O   UNL A   1      42.655  18.156  27.400  1.00  0.00    -0.237 OA
ATOM     62  O   UNL A   1      40.904  18.749  25.757  1.00  0.00    -0.237 OA
ATOM     63  O   UNL A   1      43.222  18.374  25.007  1.00  0.00    -0.744 OA
ENDBRANCH  59  60
ENDBRANCH  27  52
BRANCH  39  64
ATOM     64  C   UNL A   1      49.014  26.996  26.481  1.00  0.00     0.058 A 
ATOM     65  C   UNL A   1      49.859  26.818  27.584  1.00  0.00     0.135 A 
ATOM     66  C   UNL A   1      49.542  26.770  25.198  1.00  0.00     0.135 A 
ATOM     67  F   UNL A   1      49.400  27.027  28.829  1.00  0.00    -0.206 F 
ATOM     68  C   UNL A   1      51.191  26.462  27.421  1.00  0.00     0.059 A 
ATOM     69  C   UNL A   1      50.862  26.382  25.014  1.00  0.00     0.059 A 
ATOM     70  F   UNL A   1      48.767  26.918  24.111  1.00  0.00    -0.206 F 
ATOM     71  C   UNL A   1      51.682  26.245  26.131  1.00  0.00     0.060 A 
BRANCH  71  72
ATOM     72  S   UNL A   1      53.411  25.765  25.939  1.00  0.00     0.124 S 
ATOM     73  O   UNL A   1      54.025  27.032  25.553  1.00  0.00    -0.237 OA
ATOM     74  O   UNL A   1      53.747  25.279  27.274  1.00  0.00    -0.237 OA
ATOM     75  O   UNL A   1      53.366  24.744  24.897  1.00  0.00    -0.744 OA
ENDBRANCH  71  72
ENDBRANCH  39  64
ENDBRANCH  13  14
ENDBRANCH   6   8
ENDBRANCH   5   6
ENDBRANCH   4   5
ENDBRANCH   3   4
ENDBRANCH   2   3
ENDBRANCH   1   2
BRANCH   1  76
ATOM     76  C   UNL A   1      31.762  28.351  24.025  1.00  0.00     0.188 C 
BRANCH  76  77
ATOM     77  O   UNL A   1      30.366  28.072  24.155  1.00  0.00    -0.376 OA
BRANCH  77  78
ATOM     78  C   UNL A   1      30.000  26.770  24.593  1.00  0.00     0.202 C 
BRANCH  78  79
ATOM     79  C   UNL A   1      30.817  26.121  25.713  1.00  0.00     0.261 C 
BRANCH  79  80
ATOM     80  O   UNL A   1      31.793  25.165  25.305  1.00  0.00    -0.462 OA
BRANCH  80  81
ATOM     81  C   UNL A   1      31.782  24.010  26.038  1.00  0.00     0.329 C 
ATOM     82  O   UNL A   1      31.602  23.957  27.256  1.00  0.00    -0.250 OA
BRANCH  81  83
ATOM     83  C   UNL A   1      31.898  22.773  25.154  1.00  0.00     0.198 C 
ATOM     84  C   UNL A   1      31.191  22.967  23.816  1.00  0.00     0.071 C 
ATOM     85  N   UNL A   1      33.282  22.457  24.803  1.00  0.00    -0.322 N 
ATOM     86  C   UNL A   1      32.298  23.445  22.893  1.00  0.00     0.136 C 
ATOM     87  C   UNL A   1      33.574  22.800  23.433  1.00  0.00     0.152 C 
BRANCH  85  88
ATOM     88  C   UNL A   1      34.087  21.842  25.738  1.00  0.00     0.256 C 
ATOM     89  O   UNL A   1      33.601  21.116  26.602  1.00  0.00    -0.269 OA
BRANCH  88  90
ATOM     90  C   UNL A   1      35.562  22.008  25.693  1.00  0.00     0.061 A 
ATOM     91  C   UNL A   1      36.181  23.190  26.116  1.00  0.00     0.057 A 
ATOM     92  C   UNL A   1      36.360  20.916  25.305  1.00  0.00     0.056 A 
ATOM     93  C   UNL A   1      37.571  23.285  26.111  1.00  0.00     0.159 A 
ATOM     94  C   UNL A   1      37.752  21.005  25.374  1.00  0.00     0.063 A 
ATOM     95  Cl  UNL A   1      35.698  19.441  24.689  1.00  0.00    -0.083 Cl
ATOM     96  F   UNL A   1      38.146  24.426  26.514  1.00  0.00    -0.204 F 
ATOM     97  C   UNL A   1      38.353  22.198  25.750  1.00  0.00     0.160 A 
ATOM     98  F   UNL A   1      39.688  22.279  25.792  1.00  0.00    -0.204 F 
ENDBRANCH  88  90
ENDBRANCH  85  88
BRANCH  86  99
ATOM     99  O   UNL A   1      32.351  24.859  22.917  1.00  0.00    -0.391 OA
ATOM    100  H   UNL A   1      31.507  25.208  23.244  1.00  0.00     0.211 HD
ENDBRANCH  86  99
ENDBRANCH  81  83
ENDBRANCH  80  81
ENDBRANCH  79  80
ENDBRANCH  78  79
ENDBRANCH  77  78
ENDBRANCH  76  77
ENDBRANCH   1  76
TORSDOF 23
ENDMDL
MODEL 3
REMARK VINA RESULT:     -10.3      1.291      2.113
REMARK SMILES O=C(OCCOCCOCCOC(=O)[C@H]1C[C@@H](O)CN1C(=O)c1cc(F)c(F)cc1Cl)c1ccc(-c2c3nc(c(-c4c(F)cc(S(=O)(=O)[O-])cc4F)c4ccc([nH]4)c(-c4c(F)cc(S(=O)(=O)[O-])cc4F)c4nc(c(-c5c(F)cc(S(=O)(=O)[O-])cc5F)c5ccc2[nH]5)C=C4)C=C3)cc1
REMARK SMILES IDX 7 1 6 2 5 3 4 4 3 5 2 6 1 7 32 8 33 9 97 10 34 11 96 12
REMARK SMILES IDX 35 13 36 14 37 15 90 16 38 17 95 18 89 19 91 20 39 21 94 22
REMARK SMILES IDX 88 23 87 24 40 26 74 27 53 28 73 29 54 30 57 31 72 32 92 33
REMARK SMILES IDX 55 34 56 35 71 37 93 38 58 39 41 40 42 41 51 42 43 43 44 44
REMARK SMILES IDX 50 45 52 46 45 47 46 48 47 49 48 50 49 51 75 52 76 53 85 54
REMARK SMILES IDX 77 55 78 56 84 57 86 58 79 59 80 60 81 61 82 62 83 63 59 64
REMARK SMILES IDX 60 65 69 66 61 67 62 68 68 69 70 70 63 71 64 72 65 73 66 74
REMARK SMILES IDX 67 75 8 76 9 77 10 78 11 79 12 80 13 81 14 82 15 83 16 84
REMARK SMILES IDX 20 85 17 86 19 87 21 88 22 89 23 90 24 91 30 92 25 93 29 94
REMARK SMILES IDX 31 95 26 96 27 97 28 98 18 99
REMARK H PARENT 91 25 57 36 18 100
REMARK Flexibility Score: inf
ROOT
ATOM      1  C   UNL A   1      41.526  21.880  26.152  1.00  0.00     0.188 C 
ENDROOT
BRANCH   1   2
ATOM      2  O   UNL A   1      42.029  20.705  26.811  1.00  0.00    -0.376 OA
BRANCH   2   3
ATOM      3  C   UNL A   1      41.839  19.501  26.078  1.00  0.00     0.202 C 
BRANCH   3   4
ATOM      4  C   UNL A   1      43.042  18.560  25.945  1.00  0.00     0.261 C 
BRANCH   4   5
ATOM      5  O   UNL A   1      43.851  18.718  24.771  1.00  0.00    -0.460 OA
BRANCH   5   6
ATOM      6  C   UNL A   1      44.903  19.523  24.493  1.00  0.00     0.338 C 
ATOM      7  O   UNL A   1      45.926  18.976  24.072  1.00  0.00    -0.246 OA
BRANCH   6   8
ATOM      8  C   UNL A   1      44.961  21.005  24.736  1.00  0.00     0.060 A 
ATOM      9  C   UNL A   1      45.461  21.413  25.995  1.00  0.00     0.016 A 
ATOM     10  C   UNL A   1      44.589  22.008  23.846  1.00  0.00     0.016 A 
ATOM     11  C   UNL A   1      45.571  22.768  26.361  1.00  0.00     0.010 A 
ATOM     12  C   UNL A   1      44.670  23.365  24.218  1.00  0.00     0.010 A 
ATOM     13  C   UNL A   1      45.158  23.767  25.481  1.00  0.00    -0.014 A 
BRANCH  13  14
ATOM     14  C   UNL A   1      45.505  25.202  25.693  1.00  0.00     0.031 A 
ATOM     15  C   UNL A   1      46.852  25.828  25.415  1.00  0.00     0.074 A 
ATOM     16  C   UNL A   1      44.519  25.943  26.228  1.00  0.00     0.049 A 
ATOM     17  N   UNL A   1      47.461  26.813  26.030  1.00  0.00    -0.248 NA
ATOM     18  C   UNL A   1      47.651  25.246  24.334  1.00  0.00     0.031 C 
ATOM     19  C   UNL A   1      43.132  25.492  26.398  1.00  0.00     0.029 A 
ATOM     20  N   UNL A   1      44.525  27.211  26.725  1.00  0.00    -0.354 N 
ATOM     21  C   UNL A   1      48.761  26.881  25.504  1.00  0.00     0.074 A 
ATOM     22  C   UNL A   1      48.841  25.811  24.533  1.00  0.00     0.031 C 
ATOM     23  C   UNL A   1      42.420  26.474  26.965  1.00  0.00     0.029 A 
ATOM     24  C   UNL A   1      43.308  27.594  27.230  1.00  0.00     0.049 A 
ATOM     25  H   UNL A   1      45.320  27.792  26.722  1.00  0.00     0.167 HD
ATOM     26  C   UNL A   1      49.749  27.773  25.815  1.00  0.00     0.037 A 
ATOM     27  C   UNL A   1      42.960  28.734  27.845  1.00  0.00     0.037 A 
ATOM     28  C   UNL A   1      49.454  28.980  26.577  1.00  0.00     0.049 A 
ATOM     29  C   UNL A   1      44.016  29.775  28.046  1.00  0.00     0.074 A 
ATOM     30  C   UNL A   1      50.290  30.041  26.890  1.00  0.00     0.029 A 
ATOM     31  N   UNL A   1      48.194  29.333  27.054  1.00  0.00    -0.354 N 
ATOM     32  N   UNL A   1      45.303  29.692  27.802  1.00  0.00    -0.248 NA
ATOM     33  C   UNL A   1      43.576  31.067  28.577  1.00  0.00     0.031 C 
ATOM     34  C   UNL A   1      49.561  30.996  27.599  1.00  0.00     0.029 A 
ATOM     35  C   UNL A   1      48.234  30.604  27.603  1.00  0.00     0.049 A 
ATOM     36  H   UNL A   1      47.393  28.763  27.009  1.00  0.00     0.167 HD
ATOM     37  C   UNL A   1      45.821  30.940  28.109  1.00  0.00     0.074 A 
ATOM     38  C   UNL A   1      44.706  31.757  28.548  1.00  0.00     0.031 C 
ATOM     39  C   UNL A   1      47.098  31.380  28.029  1.00  0.00     0.037 A 
BRANCH  26  40
ATOM     40  C   UNL A   1      51.209  27.558  25.376  1.00  0.00     0.058 A 
ATOM     41  C   UNL A   1      52.176  26.843  26.098  1.00  0.00     0.135 A 
ATOM     42  C   UNL A   1      51.640  28.025  24.108  1.00  0.00     0.135 A 
ATOM     43  F   UNL A   1      51.860  26.253  27.261  1.00  0.00    -0.206 F 
ATOM     44  C   UNL A   1      53.496  26.697  25.647  1.00  0.00     0.059 A 
ATOM     45  C   UNL A   1      52.931  27.851  23.612  1.00  0.00     0.059 A 
ATOM     46  F   UNL A   1      50.780  28.645  23.286  1.00  0.00    -0.206 F 
ATOM     47  C   UNL A   1      53.866  27.207  24.404  1.00  0.00     0.060 A 
BRANCH  47  48
ATOM     48  S   UNL A   1      55.570  27.014  23.839  1.00  0.00     0.124 S 
ATOM     49  O   UNL A   1      56.008  25.848  24.599  1.00  0.00    -0.237 OA
ATOM     50  O   UNL A   1      55.392  26.806  22.407  1.00  0.00    -0.237 OA
ATOM     51  O   UNL A   1      56.203  28.276  24.214  1.00  0.00    -0.744 OA
ENDBRANCH  47  48
ENDBRANCH  26  40
BRANCH  27  52
ATOM     52  C   UNL A   1      41.541  28.973  28.186  1.00  0.00     0.058 A 
ATOM     53  C   UNL A   1      40.614  29.207  27.161  1.00  0.00     0.135 A 
ATOM     54  C   UNL A   1      41.069  28.912  29.505  1.00  0.00     0.135 A 
ATOM     55  F   UNL A   1      41.023  29.245  25.884  1.00  0.00    -0.206 F 
ATOM     56  C   UNL A   1      39.271  29.418  27.432  1.00  0.00     0.059 A 
ATOM     57  C   UNL A   1      39.723  29.092  29.800  1.00  0.00     0.059 A 
ATOM     58  F   UNL A   1      41.913  28.638  30.511  1.00  0.00    -0.206 F 
ATOM     59  C   UNL A   1      38.836  29.363  28.757  1.00  0.00     0.060 A 
BRANCH  59  60
ATOM     60  S   UNL A   1      37.086  29.639  29.090  1.00  0.00     0.124 S 
ATOM     61  O   UNL A   1      36.910  28.908  30.339  1.00  0.00    -0.237 OA
ATOM     62  O   UNL A   1      37.019  31.093  29.185  1.00  0.00    -0.237 OA
ATOM     63  O   UNL A   1      36.427  29.062  27.922  1.00  0.00    -0.744 OA
ENDBRANCH  59  60
ENDBRANCH  27  52
BRANCH  39  64
ATOM     64  C   UNL A   1      47.339  32.827  28.348  1.00  0.00     0.058 A 
ATOM     65  C   UNL A   1      47.732  33.252  29.624  1.00  0.00     0.135 A 
ATOM     66  C   UNL A   1      47.209  33.795  27.338  1.00  0.00     0.135 A 
ATOM     67  F   UNL A   1      47.864  32.364  30.623  1.00  0.00    -0.206 F 
ATOM     68  C   UNL A   1      47.956  34.595  29.899  1.00  0.00     0.059 A 
ATOM     69  C   UNL A   1      47.460  35.138  27.581  1.00  0.00     0.059 A 
ATOM     70  F   UNL A   1      46.845  33.434  26.096  1.00  0.00    -0.206 F 
ATOM     71  C   UNL A   1      47.818  35.530  28.870  1.00  0.00     0.060 A 
BRANCH  71  72
ATOM     72  S   UNL A   1      48.132  37.268  29.240  1.00  0.00     0.124 S 
ATOM     73  O   UNL A   1      47.703  37.352  30.632  1.00  0.00    -0.237 OA
ATOM     74  O   UNL A   1      49.569  37.378  29.011  1.00  0.00    -0.237 OA
ATOM     75  O   UNL A   1      47.292  37.977  28.279  1.00  0.00    -0.744 OA
ENDBRANCH  71  72
ENDBRANCH  39  64
ENDBRANCH  13  14
ENDBRANCH   6   8
ENDBRANCH   5   6
ENDBRANCH   4   5
ENDBRANCH   3   4
ENDBRANCH   2   3
ENDBRANCH   1   2
BRANCH   1  76
ATOM     76  C   UNL A   1      40.120  22.238  26.648  1.00  0.00     0.188 C 
BRANCH  76  77
ATOM     77  O   UNL A   1      39.064  22.008  25.713  1.00  0.00    -0.376 OA
BRANCH  77  78
ATOM     78  C   UNL A   1      37.757  22.419  26.094  1.00  0.00     0.202 C 
BRANCH  78  79
ATOM     79  C   UNL A   1      36.959  23.298  25.127  1.00  0.00     0.261 C 
BRANCH  79  80
ATOM     80  O   UNL A   1      35.850  23.999  25.685  1.00  0.00    -0.462 OA
BRANCH  80  81
ATOM     81  C   UNL A   1      34.814  23.191  26.066  1.00  0.00     0.329 C 
ATOM     82  O   UNL A   1      34.521  22.932  27.235  1.00  0.00    -0.250 OA
BRANCH  81  83
ATOM     83  C   UNL A   1      33.977  22.738  24.874  1.00  0.00     0.198 C 
ATOM     84  C   UNL A   1      34.143  21.246  24.602  1.00  0.00     0.071 C 
ATOM     85  N   UNL A   1      32.542  22.922  25.089  1.00  0.00    -0.322 N 
ATOM     86  C   UNL A   1      32.987  20.615  25.356  1.00  0.00     0.136 C 
ATOM     87  C   UNL A   1      31.878  21.667  25.342  1.00  0.00     0.152 C 
BRANCH  85  88
ATOM     88  C   UNL A   1      32.002  24.184  24.966  1.00  0.00     0.256 C 
ATOM     89  O   UNL A   1      31.043  24.525  25.655  1.00  0.00    -0.269 OA
BRANCH  88  90
ATOM     90  C   UNL A   1      32.594  25.172  24.030  1.00  0.00     0.061 A 
ATOM     91  C   UNL A   1      32.468  25.037  22.642  1.00  0.00     0.057 A 
ATOM     92  C   UNL A   1      33.215  26.321  24.553  1.00  0.00     0.056 A 
ATOM     93  C   UNL A   1      32.989  26.016  21.799  1.00  0.00     0.159 A 
ATOM     94  C   UNL A   1      33.669  27.326  23.695  1.00  0.00     0.063 A 
ATOM     95  Cl  UNL A   1      33.497  26.548  26.245  1.00  0.00    -0.083 Cl
ATOM     96  F   UNL A   1      32.864  25.867  20.473  1.00  0.00    -0.204 F 
ATOM     97  C   UNL A   1      33.580  27.157  22.321  1.00  0.00     0.160 A 
ATOM     98  F   UNL A   1      34.038  28.117  21.508  1.00  0.00    -0.204 F 
ENDBRANCH  88  90
ENDBRANCH  85  88
BRANCH  86  99
ATOM     99  O   UNL A   1      33.407  20.284  26.667  1.00  0.00    -0.391 OA
ATOM    100  H   UNL A   1      33.887  19.442  26.649  1.00  0.00     0.211 HD
ENDBRANCH  86  99
ENDBRANCH  81  83
ENDBRANCH  80  81
ENDBRANCH  79  80
ENDBRANCH  78  79
ENDBRANCH  77  78
ENDBRANCH  76  77
ENDBRANCH   1  76
TORSDOF 23
ENDMDL
