MODEL 1
REMARK VINA RESULT:     -10.0      0.000      0.000
REMARK SMILES O=C(OCCOCCOCCOC(=O)c1nnn(-c2ccccc2C(F)(F)F)c1-c1cccc(Cl)c1)c1ccc(-c2c3nc(c(-c4c(F)cc(S(=O)(=O)[O-])cc4F)c4ccc([nH]4)c(-c4c(F)cc(S(=O)(=O)[O-])cc4F)c4nc(c(-c5c(F)cc(S(=O)(=O)[O-])cc5F)c5ccc2[nH]5)C=C4)C=C3)cc1
REMARK SMILES IDX 7 1 6 2 5 3 4 4 3 5 2 6 1 7 37 8 38 9 102 10 39 11 101 12
REMARK SMILES IDX 40 13 41 14 42 15 95 16 43 17 100 18 94 19 96 20 44 21 99 22
REMARK SMILES IDX 93 23 92 24 45 26 79 27 58 28 78 29 59 30 62 31 77 32 97 33
REMARK SMILES IDX 60 34 61 35 76 37 98 38 63 39 46 40 47 41 56 42 48 43 49 44
REMARK SMILES IDX 55 45 57 46 50 47 51 48 52 49 53 50 54 51 80 52 81 53 90 54
REMARK SMILES IDX 82 55 83 56 89 57 91 58 84 59 85 60 86 61 87 62 88 63 64 64
REMARK SMILES IDX 65 65 74 66 66 67 67 68 73 69 75 70 68 71 69 72 70 73 71 74
REMARK SMILES IDX 72 75 8 76 9 77 10 78 11 79 12 80 13 81 14 82 15 83 16 84
REMARK SMILES IDX 29 85 17 86 18 87 30 88 31 89 36 90 32 91 34 92 33 93 35 94
REMARK SMILES IDX 19 95 20 96 24 97 21 98 23 99 22 100 25 101 26 102 27 103
REMARK SMILES IDX 28 104
REMARK H PARENT 96 25 62 36
REMARK Flexibility Score: inf
ROOT
ATOM      1  C   UNL A   1      43.662  22.494  25.267  1.00  0.00     0.188 C 
ENDROOT
BRANCH   1   2
ATOM      2  O   UNL A   1      42.899  21.289  25.220  1.00  0.00    -0.376 OA
BRANCH   2   3
ATOM      3  C   UNL A   1      42.734  20.634  26.469  1.00  0.00     0.202 C 
BRANCH   3   4
ATOM      4  C   UNL A   1      41.293  20.195  26.733  1.00  0.00     0.261 C 
BRANCH   4   5
ATOM      5  O   UNL A   1      40.417  21.170  27.330  1.00  0.00    -0.460 OA
BRANCH   5   6
ATOM      6  C   UNL A   1      39.904  22.323  26.856  1.00  0.00     0.338 C 
ATOM      7  O   UNL A   1      38.958  22.289  26.074  1.00  0.00    -0.246 OA
BRANCH   6   8
ATOM      8  C   UNL A   1      40.561  23.626  27.099  1.00  0.00     0.060 A 
ATOM      9  C   UNL A   1      41.527  23.832  28.084  1.00  0.00     0.016 A 
ATOM     10  C   UNL A   1      40.080  24.718  26.351  1.00  0.00     0.016 A 
ATOM     11  C   UNL A   1      41.961  25.117  28.369  1.00  0.00     0.010 A 
ATOM     12  C   UNL A   1      40.491  26.010  26.652  1.00  0.00     0.010 A 
ATOM     13  C   UNL A   1      41.371  26.200  27.718  1.00  0.00    -0.014 A 
BRANCH  13  14
ATOM     14  C   UNL A   1      41.481  27.485  28.400  1.00  0.00     0.031 A 
ATOM     15  C   UNL A   1      42.713  28.295  28.221  1.00  0.00     0.074 A 
ATOM     16  C   UNL A   1      40.455  27.896  29.173  1.00  0.00     0.049 A 
ATOM     17  N   UNL A   1      43.531  28.733  29.128  1.00  0.00    -0.248 NA
ATOM     18  C   UNL A   1      43.104  28.634  26.846  1.00  0.00     0.031 C 
ATOM     19  C   UNL A   1      39.106  27.316  29.248  1.00  0.00     0.029 A 
ATOM     20  N   UNL A   1      40.364  28.993  29.975  1.00  0.00    -0.354 N 
ATOM     21  C   UNL A   1      44.423  29.572  28.464  1.00  0.00     0.074 A 
ATOM     22  C   UNL A   1      44.183  29.390  27.052  1.00  0.00     0.031 C 
ATOM     23  C   UNL A   1      38.280  28.194  29.851  1.00  0.00     0.029 A 
ATOM     24  C   UNL A   1      39.062  29.327  30.309  1.00  0.00     0.049 A 
ATOM     25  H   UNL A   1      41.148  29.500  30.287  1.00  0.00     0.167 HD
ATOM     26  C   UNL A   1      45.174  30.512  29.102  1.00  0.00     0.037 A 
ATOM     27  C   UNL A   1      38.634  30.505  30.817  1.00  0.00     0.037 A 
ATOM     28  C   UNL A   1      45.307  30.264  30.509  1.00  0.00     0.049 A 
ATOM     29  C   UNL A   1      39.795  31.167  31.458  1.00  0.00     0.074 A 
ATOM     30  C   UNL A   1      45.847  29.249  31.273  1.00  0.00     0.029 A 
ATOM     31  N   UNL A   1      44.582  31.035  31.382  1.00  0.00    -0.354 N 
ATOM     32  N   UNL A   1      40.405  30.716  32.521  1.00  0.00    -0.248 NA
ATOM     33  C   UNL A   1      40.544  32.148  30.686  1.00  0.00     0.031 C 
ATOM     34  C   UNL A   1      45.049  29.198  32.453  1.00  0.00     0.029 A 
ATOM     35  C   UNL A   1      44.073  30.189  32.336  1.00  0.00     0.049 A 
ATOM     36  H   UNL A   1      44.450  32.010  31.334  1.00  0.00     0.167 HD
ATOM     37  C   UNL A   1      41.740  31.044  32.339  1.00  0.00     0.074 A 
ATOM     38  C   UNL A   1      41.744  32.022  31.258  1.00  0.00     0.031 C 
ATOM     39  C   UNL A   1      42.741  30.294  32.891  1.00  0.00     0.037 A 
BRANCH  26  40
ATOM     40  C   UNL A   1      45.540  31.832  28.474  1.00  0.00     0.058 A 
ATOM     41  C   UNL A   1      46.887  32.202  28.306  1.00  0.00     0.135 A 
ATOM     42  C   UNL A   1      44.589  32.859  28.276  1.00  0.00     0.135 A 
ATOM     43  F   UNL A   1      47.869  31.308  28.503  1.00  0.00    -0.206 F 
ATOM     44  C   UNL A   1      47.266  33.510  27.995  1.00  0.00     0.059 A 
ATOM     45  C   UNL A   1      44.940  34.155  27.916  1.00  0.00     0.059 A 
ATOM     46  F   UNL A   1      43.285  32.663  28.514  1.00  0.00    -0.206 F 
ATOM     47  C   UNL A   1      46.284  34.482  27.818  1.00  0.00     0.060 A 
BRANCH  47  48
ATOM     48  S   UNL A   1      46.765  36.195  27.528  1.00  0.00     0.124 S 
ATOM     49  O   UNL A   1      45.961  36.892  28.527  1.00  0.00    -0.237 OA
ATOM     50  O   UNL A   1      48.203  36.158  27.777  1.00  0.00    -0.237 OA
ATOM     51  O   UNL A   1      46.382  36.419  26.138  1.00  0.00    -0.744 OA
ENDBRANCH  47  48
ENDBRANCH  26  40
BRANCH  27  52
ATOM     52  C   UNL A   1      37.393  31.209  30.402  1.00  0.00     0.058 A 
ATOM     53  C   UNL A   1      36.463  31.674  31.342  1.00  0.00     0.135 A 
ATOM     54  C   UNL A   1      37.205  31.643  29.071  1.00  0.00     0.135 A 
ATOM     55  F   UNL A   1      36.594  31.347  32.637  1.00  0.00    -0.206 F 
ATOM     56  C   UNL A   1      35.414  32.529  30.986  1.00  0.00     0.059 A 
ATOM     57  C   UNL A   1      36.157  32.473  28.688  1.00  0.00     0.059 A 
ATOM     58  F   UNL A   1      38.089  31.343  28.107  1.00  0.00    -0.206 F 
ATOM     59  C   UNL A   1      35.276  32.930  29.656  1.00  0.00     0.060 A 
BRANCH  59  60
ATOM     60  S   UNL A   1      34.008  34.138  29.213  1.00  0.00     0.124 S 
ATOM     61  O   UNL A   1      33.382  34.405  30.504  1.00  0.00    -0.237 OA
ATOM     62  O   UNL A   1      34.805  35.225  28.653  1.00  0.00    -0.237 OA
ATOM     63  O   UNL A   1      33.175  33.421  28.252  1.00  0.00    -0.744 OA
ENDBRANCH  59  60
ENDBRANCH  27  52
BRANCH  39  64
ATOM     64  C   UNL A   1      42.364  29.278  33.940  1.00  0.00     0.058 A 
ATOM     65  C   UNL A   1      41.982  27.960  33.630  1.00  0.00     0.135 A 
ATOM     66  C   UNL A   1      42.563  29.584  35.295  1.00  0.00     0.135 A 
ATOM     67  F   UNL A   1      41.886  27.557  32.357  1.00  0.00    -0.206 F 
ATOM     68  C   UNL A   1      41.767  27.002  34.620  1.00  0.00     0.059 A 
ATOM     69  C   UNL A   1      42.383  28.634  36.299  1.00  0.00     0.059 A 
ATOM     70  F   UNL A   1      42.998  30.803  35.652  1.00  0.00    -0.206 F 
ATOM     71  C   UNL A   1      41.975  27.346  35.954  1.00  0.00     0.060 A 
BRANCH  71  72
ATOM     72  S   UNL A   1      41.816  26.065  37.220  1.00  0.00     0.124 S 
ATOM     73  O   UNL A   1      40.448  26.265  37.688  1.00  0.00    -0.237 OA
ATOM     74  O   UNL A   1      42.055  24.838  36.465  1.00  0.00    -0.237 OA
ATOM     75  O   UNL A   1      42.862  26.405  38.182  1.00  0.00    -0.744 OA
ENDBRANCH  71  72
ENDBRANCH  39  64
ENDBRANCH  13  14
ENDBRANCH   6   8
ENDBRANCH   5   6
ENDBRANCH   4   5
ENDBRANCH   3   4
ENDBRANCH   2   3
ENDBRANCH   1   2
BRANCH   1  76
ATOM     76  C   UNL A   1      45.186  22.260  25.346  1.00  0.00     0.188 C 
BRANCH  76  77
ATOM     77  O   UNL A   1      45.980  22.925  26.326  1.00  0.00    -0.376 OA
BRANCH  77  78
ATOM     78  C   UNL A   1      45.381  23.934  27.119  1.00  0.00     0.202 C 
BRANCH  78  79
ATOM     79  C   UNL A   1      45.226  25.225  26.312  1.00  0.00     0.261 C 
BRANCH  79  80
ATOM     80  O   UNL A   1      46.415  25.597  25.597  1.00  0.00    -0.458 OA
BRANCH  80  81
ATOM     81  C   UNL A   1      47.295  26.395  26.282  1.00  0.00     0.361 C 
ATOM     82  O   UNL A   1      47.118  27.570  26.569  1.00  0.00    -0.244 OA
BRANCH  81  83
ATOM     83  C   UNL A   1      48.555  25.718  26.513  1.00  0.00     0.198 A 
ATOM     84  N   UNL A   1      48.773  24.778  27.486  1.00  0.00    -0.122 NA
ATOM     85  C   UNL A   1      49.717  25.918  25.789  1.00  0.00     0.109 A 
ATOM     86  N   UNL A   1      50.046  24.401  27.409  1.00  0.00    -0.061 NA
ATOM     87  N   UNL A   1      50.660  25.232  26.537  1.00  0.00    -0.211 N 
BRANCH  85  88
ATOM     88  C   UNL A   1      49.945  26.695  24.577  1.00  0.00     0.004 A 
ATOM     89  C   UNL A   1      50.911  27.709  24.549  1.00  0.00     0.010 A 
ATOM     90  C   UNL A   1      49.257  26.374  23.399  1.00  0.00     0.031 A 
ATOM     91  C   UNL A   1      51.177  28.396  23.363  1.00  0.00     0.002 A 
ATOM     92  C   UNL A   1      49.528  27.060  22.219  1.00  0.00     0.041 A 
ATOM     93  C   UNL A   1      50.485  28.071  22.197  1.00  0.00     0.020 A 
ATOM     94  Cl  UNL A   1      48.682  26.644  20.780  1.00  0.00    -0.084 Cl
ENDBRANCH  85  88
BRANCH  87  95
ATOM     95  C   UNL A   1      52.065  25.370  26.517  1.00  0.00     0.079 A 
ATOM     96  C   UNL A   1      52.794  24.529  25.664  1.00  0.00     0.029 A 
ATOM     97  C   UNL A   1      52.722  26.334  27.312  1.00  0.00     0.081 A 
ATOM     98  C   UNL A   1      54.167  24.723  25.509  1.00  0.00     0.002 A 
ATOM     99  C   UNL A   1      54.103  26.521  27.117  1.00  0.00     0.015 A 
ATOM    100  C   UNL A   1      54.816  25.733  26.215  1.00  0.00     0.001 A 
BRANCH  97 101
ATOM    101  C   UNL A   1      52.075  27.104  28.444  1.00  0.00     0.418 C 
ATOM    102  F   UNL A   1      52.989  27.816  29.167  1.00  0.00    -0.166 F 
ATOM    103  F   UNL A   1      51.177  28.023  28.001  1.00  0.00    -0.166 F 
ATOM    104  F   UNL A   1      51.423  26.342  29.360  1.00  0.00    -0.166 F 
ENDBRANCH  97 101
ENDBRANCH  87  95
ENDBRANCH  81  83
ENDBRANCH  80  81
ENDBRANCH  79  80
ENDBRANCH  78  79
ENDBRANCH  77  78
ENDBRANCH  76  77
ENDBRANCH   1  76
TORSDOF 23
ENDMDL
MODEL 2
REMARK VINA RESULT:      -9.6      1.448      2.108
REMARK SMILES O=C(OCCOCCOCCOC(=O)c1nnn(-c2ccccc2C(F)(F)F)c1-c1cccc(Cl)c1)c1ccc(-c2c3nc(c(-c4c(F)cc(S(=O)(=O)[O-])cc4F)c4ccc([nH]4)c(-c4c(F)cc(S(=O)(=O)[O-])cc4F)c4nc(c(-c5c(F)cc(S(=O)(=O)[O-])cc5F)c5ccc2[nH]5)C=C4)C=C3)cc1
REMARK SMILES IDX 7 1 6 2 5 3 4 4 3 5 2 6 1 7 37 8 38 9 102 10 39 11 101 12
REMARK SMILES IDX 40 13 41 14 42 15 95 16 43 17 100 18 94 19 96 20 44 21 99 22
REMARK SMILES IDX 93 23 92 24 45 26 79 27 58 28 78 29 59 30 62 31 77 32 97 33
REMARK SMILES IDX 60 34 61 35 76 37 98 38 63 39 46 40 47 41 56 42 48 43 49 44
REMARK SMILES IDX 55 45 57 46 50 47 51 48 52 49 53 50 54 51 80 52 81 53 90 54
REMARK SMILES IDX 82 55 83 56 89 57 91 58 84 59 85 60 86 61 87 62 88 63 64 64
REMARK SMILES IDX 65 65 74 66 66 67 67 68 73 69 75 70 68 71 69 72 70 73 71 74
REMARK SMILES IDX 72 75 8 76 9 77 10 78 11 79 12 80 13 81 14 82 15 83 16 84
REMARK SMILES IDX 29 85 17 86 18 87 30 88 31 89 36 90 32 91 34 92 33 93 35 94
REMARK SMILES IDX 19 95 20 96 24 97 21 98 23 99 22 100 25 101 26 102 27 103
REMARK SMILES IDX 28 104
REMARK H PARENT 96 25 62 36
REMARK Flexibility Score: inf
ROOT
ATOM      1  C   UNL A   1      43.745  22.420  25.422  1.00  0.00     0.188 C 
ENDROOT
BRANCH   1   2
ATOM      2  O   UNL A   1      42.931  21.263  25.238  1.00  0.00    -0.376 OA
BRANCH   2   3
ATOM      3  C   UNL A   1      42.774  20.450  26.391  1.00  0.00     0.202 C 
BRANCH   3   4
ATOM      4  C   UNL A   1      41.331  19.994  26.614  1.00  0.00     0.261 C 
BRANCH   4   5
ATOM      5  O   UNL A   1      40.456  20.917  27.290  1.00  0.00    -0.460 OA
BRANCH   5   6
ATOM      6  C   UNL A   1      39.901  22.080  26.893  1.00  0.00     0.338 C 
ATOM      7  O   UNL A   1      38.896  22.061  26.189  1.00  0.00    -0.246 OA
BRANCH   6   8
ATOM      8  C   UNL A   1      40.569  23.380  27.121  1.00  0.00     0.060 A 
ATOM      9  C   UNL A   1      41.546  23.586  28.094  1.00  0.00     0.016 A 
ATOM     10  C   UNL A   1      40.086  24.470  26.372  1.00  0.00     0.016 A 
ATOM     11  C   UNL A   1      41.992  24.869  28.366  1.00  0.00     0.010 A 
ATOM     12  C   UNL A   1      40.508  25.761  26.660  1.00  0.00     0.010 A 
ATOM     13  C   UNL A   1      41.401  25.952  27.716  1.00  0.00    -0.014 A 
BRANCH  13  14
ATOM     14  C   UNL A   1      41.526  27.241  28.389  1.00  0.00     0.031 A 
ATOM     15  C   UNL A   1      42.772  28.030  28.212  1.00  0.00     0.074 A 
ATOM     16  C   UNL A   1      40.502  27.673  29.152  1.00  0.00     0.049 A 
ATOM     17  N   UNL A   1      43.590  28.463  29.120  1.00  0.00    -0.248 NA
ATOM     18  C   UNL A   1      43.176  28.354  26.836  1.00  0.00     0.031 C 
ATOM     19  C   UNL A   1      39.143  27.114  29.223  1.00  0.00     0.029 A 
ATOM     20  N   UNL A   1      40.422  28.777  29.946  1.00  0.00    -0.354 N 
ATOM     21  C   UNL A   1      44.499  29.283  28.456  1.00  0.00     0.074 A 
ATOM     22  C   UNL A   1      44.265  29.095  27.045  1.00  0.00     0.031 C 
ATOM     23  C   UNL A   1      38.327  28.009  29.814  1.00  0.00     0.029 A 
ATOM     24  C   UNL A   1      39.123  29.133  30.269  1.00  0.00     0.049 A 
ATOM     25  H   UNL A   1      41.212  29.274  30.259  1.00  0.00     0.167 HD
ATOM     26  C   UNL A   1      45.260  30.217  29.092  1.00  0.00     0.037 A 
ATOM     27  C   UNL A   1      38.710  30.322  30.765  1.00  0.00     0.037 A 
ATOM     28  C   UNL A   1      45.380  29.977  30.502  1.00  0.00     0.049 A 
ATOM     29  C   UNL A   1      39.877  30.971  31.409  1.00  0.00     0.074 A 
ATOM     30  C   UNL A   1      45.901  28.959  31.277  1.00  0.00     0.029 A 
ATOM     31  N   UNL A   1      44.662  30.765  31.365  1.00  0.00    -0.354 N 
ATOM     32  N   UNL A   1      40.473  30.518  32.479  1.00  0.00    -0.248 NA
ATOM     33  C   UNL A   1      40.645  31.934  30.635  1.00  0.00     0.031 C 
ATOM     34  C   UNL A   1      45.094  28.929  32.452  1.00  0.00     0.029 A 
ATOM     35  C   UNL A   1      44.134  29.934  32.322  1.00  0.00     0.049 A 
ATOM     36  H   UNL A   1      44.545  31.742  31.309  1.00  0.00     0.167 HD
ATOM     37  C   UNL A   1      41.815  30.825  32.303  1.00  0.00     0.074 A 
ATOM     38  C   UNL A   1      41.840  31.794  31.215  1.00  0.00     0.031 C 
ATOM     39  C   UNL A   1      42.800  30.063  32.867  1.00  0.00     0.037 A 
BRANCH  26  40
ATOM     40  C   UNL A   1      45.650  31.526  28.457  1.00  0.00     0.058 A 
ATOM     41  C   UNL A   1      44.694  32.537  28.243  1.00  0.00     0.135 A 
ATOM     42  C   UNL A   1      46.893  31.706  27.809  1.00  0.00     0.135 A 
ATOM     43  F   UNL A   1      43.471  32.445  28.787  1.00  0.00    -0.206 F 
ATOM     44  C   UNL A   1      44.946  33.635  27.416  1.00  0.00     0.059 A 
ATOM     45  C   UNL A   1      47.183  32.815  27.023  1.00  0.00     0.059 A 
ATOM     46  F   UNL A   1      47.844  30.762  27.842  1.00  0.00    -0.206 F 
ATOM     47  C   UNL A   1      46.189  33.755  26.799  1.00  0.00     0.060 A 
BRANCH  47  48
ATOM     48  S   UNL A   1      46.485  35.106  25.643  1.00  0.00     0.124 S 
ATOM     49  O   UNL A   1      45.730  36.188  26.267  1.00  0.00    -0.237 OA
ATOM     50  O   UNL A   1      47.938  35.234  25.684  1.00  0.00    -0.237 OA
ATOM     51  O   UNL A   1      45.943  34.597  24.388  1.00  0.00    -0.744 OA
ENDBRANCH  47  48
ENDBRANCH  26  40
BRANCH  27  52
ATOM     52  C   UNL A   1      37.483  31.041  30.337  1.00  0.00     0.058 A 
ATOM     53  C   UNL A   1      36.647  31.682  31.262  1.00  0.00     0.135 A 
ATOM     54  C   UNL A   1      37.226  31.308  28.974  1.00  0.00     0.135 A 
ATOM     55  F   UNL A   1      36.849  31.519  32.579  1.00  0.00    -0.206 F 
ATOM     56  C   UNL A   1      35.623  32.547  30.860  1.00  0.00     0.059 A 
ATOM     57  C   UNL A   1      36.200  32.145  28.549  1.00  0.00     0.059 A 
ATOM     58  F   UNL A   1      38.023  30.831  28.006  1.00  0.00    -0.206 F 
ATOM     59  C   UNL A   1      35.414  32.779  29.499  1.00  0.00     0.060 A 
BRANCH  59  60
ATOM     60  S   UNL A   1      34.185  33.995  28.978  1.00  0.00     0.124 S 
ATOM     61  O   UNL A   1      33.407  33.238  28.003  1.00  0.00    -0.237 OA
ATOM     62  O   UNL A   1      33.509  34.304  30.234  1.00  0.00    -0.237 OA
ATOM     63  O   UNL A   1      34.992  35.080  28.425  1.00  0.00    -0.744 OA
ENDBRANCH  59  60
ENDBRANCH  27  52
BRANCH  39  64
ATOM     64  C   UNL A   1      42.402  29.061  33.921  1.00  0.00     0.058 A 
ATOM     65  C   UNL A   1      42.082  27.723  33.626  1.00  0.00     0.135 A 
ATOM     66  C   UNL A   1      42.514  29.408  35.276  1.00  0.00     0.135 A 
ATOM     67  F   UNL A   1      42.071  27.285  32.361  1.00  0.00    -0.206 F 
ATOM     68  C   UNL A   1      41.847  26.783  34.629  1.00  0.00     0.059 A 
ATOM     69  C   UNL A   1      42.312  28.477  36.294  1.00  0.00     0.059 A 
ATOM     70  F   UNL A   1      42.887  30.650  35.623  1.00  0.00    -0.206 F 
ATOM     71  C   UNL A   1      41.969  27.168  35.962  1.00  0.00     0.060 A 
BRANCH  71  72
ATOM     72  S   UNL A   1      41.784  25.913  37.252  1.00  0.00     0.124 S 
ATOM     73  O   UNL A   1      42.833  26.285  38.195  1.00  0.00    -0.237 OA
ATOM     74  O   UNL A   1      40.414  26.126  37.710  1.00  0.00    -0.237 OA
ATOM     75  O   UNL A   1      42.001  24.657  36.537  1.00  0.00    -0.744 OA
ENDBRANCH  71  72
ENDBRANCH  39  64
ENDBRANCH  13  14
ENDBRANCH   6   8
ENDBRANCH   5   6
ENDBRANCH   4   5
ENDBRANCH   3   4
ENDBRANCH   2   3
ENDBRANCH   1   2
BRANCH   1  76
ATOM     76  C   UNL A   1      45.259  22.122  25.417  1.00  0.00     0.188 C 
BRANCH  76  77
ATOM     77  O   UNL A   1      46.211  23.156  25.662  1.00  0.00    -0.376 OA
BRANCH  77  78
ATOM     78  C   UNL A   1      45.768  24.364  26.254  1.00  0.00     0.202 C 
BRANCH  78  79
ATOM     79  C   UNL A   1      45.512  25.423  25.178  1.00  0.00     0.261 C 
BRANCH  79  80
ATOM     80  O   UNL A   1      46.666  25.705  24.371  1.00  0.00    -0.458 OA
BRANCH  80  81
ATOM     81  C   UNL A   1      47.064  27.017  24.340  1.00  0.00     0.361 C 
ATOM     82  O   UNL A   1      46.441  27.939  23.835  1.00  0.00    -0.244 OA
BRANCH  81  83
ATOM     83  C   UNL A   1      48.407  27.175  24.858  1.00  0.00     0.198 A 
ATOM     84  N   UNL A   1      48.752  27.094  26.182  1.00  0.00    -0.122 NA
ATOM     85  C   UNL A   1      49.536  27.428  24.097  1.00  0.00     0.109 A 
ATOM     86  N   UNL A   1      50.060  27.314  26.276  1.00  0.00    -0.061 NA
ATOM     87  N   UNL A   1      50.489  27.720  25.060  1.00  0.00    -0.211 N 
BRANCH  85  88
ATOM     88  C   UNL A   1      49.706  27.450  22.650  1.00  0.00     0.004 A 
ATOM     89  C   UNL A   1      50.123  28.617  21.998  1.00  0.00     0.010 A 
ATOM     90  C   UNL A   1      49.536  26.275  21.906  1.00  0.00     0.031 A 
ATOM     91  C   UNL A   1      50.357  28.609  20.622  1.00  0.00     0.002 A 
ATOM     92  C   UNL A   1      49.775  26.272  20.535  1.00  0.00     0.041 A 
ATOM     93  C   UNL A   1      50.183  27.435  19.889  1.00  0.00     0.020 A 
ATOM     94  Cl  UNL A   1      49.573  24.817  19.641  1.00  0.00    -0.084 Cl
ENDBRANCH  85  88
BRANCH  87  95
ATOM     95  C   UNL A   1      51.713  28.406  24.902  1.00  0.00     0.079 A 
ATOM     96  C   UNL A   1      51.716  29.794  25.099  1.00  0.00     0.029 A 
ATOM     97  C   UNL A   1      52.904  27.722  24.576  1.00  0.00     0.081 A 
ATOM     98  C   UNL A   1      52.925  30.491  25.091  1.00  0.00     0.002 A 
ATOM     99  C   UNL A   1      54.110  28.447  24.597  1.00  0.00     0.015 A 
ATOM    100  C   UNL A   1      54.121  29.815  24.864  1.00  0.00     0.001 A 
BRANCH  97 101
ATOM    101  C   UNL A   1      52.970  26.289  24.090  1.00  0.00     0.418 C 
ATOM    102  F   UNL A   1      52.077  25.486  24.741  1.00  0.00    -0.166 F 
ATOM    103  F   UNL A   1      52.658  26.173  22.772  1.00  0.00    -0.166 F 
ATOM    104  F   UNL A   1      54.172  25.680  24.254  1.00  0.00    -0.166 F 
ENDBRANCH  97 101
ENDBRANCH  87  95
ENDBRANCH  81  83
ENDBRANCH  80  81
ENDBRANCH  79  80
ENDBRANCH  78  79
ENDBRANCH  77  78
ENDBRANCH  76  77
ENDBRANCH   1  76
TORSDOF 23
ENDMDL
MODEL 3
REMARK VINA RESULT:      -9.5      5.060     11.705
REMARK SMILES O=C(OCCOCCOCCOC(=O)c1nnn(-c2ccccc2C(F)(F)F)c1-c1cccc(Cl)c1)c1ccc(-c2c3nc(c(-c4c(F)cc(S(=O)(=O)[O-])cc4F)c4ccc([nH]4)c(-c4c(F)cc(S(=O)(=O)[O-])cc4F)c4nc(c(-c5c(F)cc(S(=O)(=O)[O-])cc5F)c5ccc2[nH]5)C=C4)C=C3)cc1
REMARK SMILES IDX 7 1 6 2 5 3 4 4 3 5 2 6 1 7 37 8 38 9 102 10 39 11 101 12
REMARK SMILES IDX 40 13 41 14 42 15 95 16 43 17 100 18 94 19 96 20 44 21 99 22
REMARK SMILES IDX 93 23 92 24 45 26 79 27 58 28 78 29 59 30 62 31 77 32 97 33
REMARK SMILES IDX 60 34 61 35 76 37 98 38 63 39 46 40 47 41 56 42 48 43 49 44
REMARK SMILES IDX 55 45 57 46 50 47 51 48 52 49 53 50 54 51 80 52 81 53 90 54
REMARK SMILES IDX 82 55 83 56 89 57 91 58 84 59 85 60 86 61 87 62 88 63 64 64
REMARK SMILES IDX 65 65 74 66 66 67 67 68 73 69 75 70 68 71 69 72 70 73 71 74
REMARK SMILES IDX 72 75 8 76 9 77 10 78 11 79 12 80 13 81 14 82 15 83 16 84
REMARK SMILES IDX 29 85 17 86 18 87 30 88 31 89 36 90 32 91 34 92 33 93 35 94
REMARK SMILES IDX 19 95 20 96 24 97 21 98 23 99 22 100 25 101 26 102 27 103
REMARK SMILES IDX 28 104
REMARK H PARENT 96 25 62 36
REMARK Flexibility Score: inf
ROOT
ATOM      1  C   UNL A   1      34.086  30.715  27.020  1.00  0.00     0.188 C 
ENDROOT
BRANCH   1   2
ATOM      2  O   UNL A   1      34.929  31.679  27.651  1.00  0.00    -0.376 OA
BRANCH   2   3
ATOM      3  C   UNL A   1      34.248  32.772  28.248  1.00  0.00     0.202 C 
BRANCH   3   4
ATOM      4  C   UNL A   1      35.142  33.612  29.162  1.00  0.00     0.261 C 
BRANCH   4   5
ATOM      5  O   UNL A   1      35.341  33.123  30.502  1.00  0.00    -0.460 OA
BRANCH   5   6
ATOM      6  C   UNL A   1      36.030  32.066  30.977  1.00  0.00     0.338 C 
ATOM      7  O   UNL A   1      35.535  31.367  31.857  1.00  0.00    -0.246 OA
BRANCH   6   8
ATOM      8  C   UNL A   1      37.442  31.826  30.607  1.00  0.00     0.060 A 
ATOM      9  C   UNL A   1      37.846  30.848  29.700  1.00  0.00     0.016 A 
ATOM     10  C   UNL A   1      38.408  32.569  31.313  1.00  0.00     0.016 A 
ATOM     11  C   UNL A   1      39.194  30.565  29.543  1.00  0.00     0.010 A 
ATOM     12  C   UNL A   1      39.757  32.270  31.181  1.00  0.00     0.010 A 
ATOM     13  C   UNL A   1      40.129  31.210  30.352  1.00  0.00    -0.014 A 
BRANCH  13  14
ATOM     14  C   UNL A   1      41.408  30.527  30.511  1.00  0.00     0.031 A 
ATOM     15  C   UNL A   1      42.584  31.010  29.742  1.00  0.00     0.074 A 
ATOM     16  C   UNL A   1      41.481  29.476  31.353  1.00  0.00     0.049 A 
ATOM     17  N   UNL A   1      43.330  30.352  28.909  1.00  0.00    -0.248 NA
ATOM     18  C   UNL A   1      42.960  32.422  29.899  1.00  0.00     0.031 C 
ATOM     19  C   UNL A   1      40.473  29.050  32.336  1.00  0.00     0.029 A 
ATOM     20  N   UNL A   1      42.520  28.631  31.592  1.00  0.00    -0.354 N 
ATOM     21  C   UNL A   1      44.387  31.202  28.591  1.00  0.00     0.074 A 
ATOM     22  C   UNL A   1      44.054  32.494  29.140  1.00  0.00     0.031 C 
ATOM     23  C   UNL A   1      41.041  28.196  33.211  1.00  0.00     0.029 A 
ATOM     24  C   UNL A   1      42.399  27.926  32.778  1.00  0.00     0.049 A 
ATOM     25  H   UNL A   1      43.285  28.530  30.980  1.00  0.00     0.167 HD
ATOM     26  C   UNL A   1      45.564  30.759  28.069  1.00  0.00     0.037 A 
ATOM     27  C   UNL A   1      43.383  27.262  33.428  1.00  0.00     0.037 A 
ATOM     28  C   UNL A   1      45.458  29.461  27.466  1.00  0.00     0.049 A 
ATOM     29  C   UNL A   1      44.442  26.946  32.441  1.00  0.00     0.074 A 
ATOM     30  C   UNL A   1      44.739  28.929  26.414  1.00  0.00     0.029 A 
ATOM     31  N   UNL A   1      45.977  28.382  28.137  1.00  0.00    -0.354 N 
ATOM     32  N   UNL A   1      44.291  26.122  31.438  1.00  0.00    -0.248 NA
ATOM     33  C   UNL A   1      45.576  27.851  32.331  1.00  0.00     0.031 C 
ATOM     34  C   UNL A   1      44.481  27.576  26.777  1.00  0.00     0.029 A 
ATOM     35  C   UNL A   1      45.063  27.364  28.028  1.00  0.00     0.049 A 
ATOM     36  H   UNL A   1      46.841  28.344  28.609  1.00  0.00     0.167 HD
ATOM     37  C   UNL A   1      45.053  26.660  30.411  1.00  0.00     0.074 A 
ATOM     38  C   UNL A   1      45.908  27.650  31.054  1.00  0.00     0.031 C 
ATOM     39  C   UNL A   1      44.729  26.450  29.099  1.00  0.00     0.037 A 
BRANCH  26  40
ATOM     40  C   UNL A   1      46.891  31.402  28.379  1.00  0.00     0.058 A 
ATOM     41  C   UNL A   1      47.419  31.374  29.683  1.00  0.00     0.135 A 
ATOM     42  C   UNL A   1      47.532  32.277  27.473  1.00  0.00     0.135 A 
ATOM     43  F   UNL A   1      46.862  30.600  30.628  1.00  0.00    -0.206 F 
ATOM     44  C   UNL A   1      48.488  32.186  30.070  1.00  0.00     0.059 A 
ATOM     45  C   UNL A   1      48.629  33.056  27.822  1.00  0.00     0.059 A 
ATOM     46  F   UNL A   1      47.057  32.477  26.236  1.00  0.00    -0.206 F 
ATOM     47  C   UNL A   1      49.075  33.035  29.134  1.00  0.00     0.060 A 
BRANCH  47  48
ATOM     48  S   UNL A   1      50.380  34.167  29.650  1.00  0.00     0.124 S 
ATOM     49  O   UNL A   1      50.765  33.594  30.936  1.00  0.00    -0.237 OA
ATOM     50  O   UNL A   1      51.353  34.027  28.572  1.00  0.00    -0.237 OA
ATOM     51  O   UNL A   1      49.700  35.456  29.708  1.00  0.00    -0.744 OA
ENDBRANCH  47  48
ENDBRANCH  26  40
BRANCH  27  52
ATOM     52  C   UNL A   1      43.586  27.275  34.899  1.00  0.00     0.058 A 
ATOM     53  C   UNL A   1      43.615  26.089  35.647  1.00  0.00     0.135 A 
ATOM     54  C   UNL A   1      43.988  28.448  35.575  1.00  0.00     0.135 A 
ATOM     55  F   UNL A   1      43.292  24.922  35.070  1.00  0.00    -0.206 F 
ATOM     56  C   UNL A   1      44.028  26.066  36.984  1.00  0.00     0.059 A 
ATOM     57  C   UNL A   1      44.381  28.455  36.910  1.00  0.00     0.059 A 
ATOM     58  F   UNL A   1      44.097  29.622  34.934  1.00  0.00    -0.206 F 
ATOM     59  C   UNL A   1      44.418  27.255  37.604  1.00  0.00     0.060 A 
BRANCH  59  60
ATOM     60  S   UNL A   1      45.080  27.213  39.284  1.00  0.00     0.124 S 
ATOM     61  O   UNL A   1      46.356  26.533  39.088  1.00  0.00    -0.237 OA
ATOM     62  O   UNL A   1      45.156  28.632  39.616  1.00  0.00    -0.237 OA
ATOM     63  O   UNL A   1      44.076  26.455  40.026  1.00  0.00    -0.744 OA
ENDBRANCH  59  60
ENDBRANCH  27  52
BRANCH  39  64
ATOM     64  C   UNL A   1      43.707  25.387  28.786  1.00  0.00     0.058 A 
ATOM     65  C   UNL A   1      42.324  25.640  28.743  1.00  0.00     0.135 A 
ATOM     66  C   UNL A   1      44.140  24.126  28.346  1.00  0.00     0.135 A 
ATOM     67  F   UNL A   1      41.842  26.855  29.034  1.00  0.00    -0.206 F 
ATOM     68  C   UNL A   1      41.410  24.675  28.321  1.00  0.00     0.059 A 
ATOM     69  C   UNL A   1      43.246  23.157  27.893  1.00  0.00     0.059 A 
ATOM     70  F   UNL A   1      45.452  23.847  28.294  1.00  0.00    -0.206 F 
ATOM     71  C   UNL A   1      41.880  23.436  27.892  1.00  0.00     0.060 A 
BRANCH  71  72
ATOM     72  S   UNL A   1      40.700  22.237  27.231  1.00  0.00     0.124 S 
ATOM     73  O   UNL A   1      39.435  22.955  27.347  1.00  0.00    -0.237 OA
ATOM     74  O   UNL A   1      41.187  22.024  25.871  1.00  0.00    -0.237 OA
ATOM     75  O   UNL A   1      40.850  21.087  28.120  1.00  0.00    -0.744 OA
ENDBRANCH  71  72
ENDBRANCH  39  64
ENDBRANCH  13  14
ENDBRANCH   6   8
ENDBRANCH   5   6
ENDBRANCH   4   5
ENDBRANCH   3   4
ENDBRANCH   2   3
ENDBRANCH   1   2
BRANCH   1  76
ATOM     76  C   UNL A   1      34.337  29.268  27.491  1.00  0.00     0.188 C 
BRANCH  76  77
ATOM     77  O   UNL A   1      33.353  28.252  27.298  1.00  0.00    -0.376 OA
BRANCH  77  78
ATOM     78  C   UNL A   1      32.088  28.620  26.779  1.00  0.00     0.202 C 
BRANCH  78  79
ATOM     79  C   UNL A   1      31.217  27.378  26.571  1.00  0.00     0.261 C 
BRANCH  79  80
ATOM     80  O   UNL A   1      31.897  26.148  26.865  1.00  0.00    -0.458 OA
BRANCH  80  81
ATOM     81  C   UNL A   1      31.205  25.001  26.572  1.00  0.00     0.361 C 
ATOM     82  O   UNL A   1      29.991  24.907  26.470  1.00  0.00    -0.244 OA
BRANCH  81  83
ATOM     83  C   UNL A   1      32.081  23.848  26.537  1.00  0.00     0.198 A 
ATOM     84  N   UNL A   1      32.220  22.936  27.551  1.00  0.00    -0.122 NA
ATOM     85  C   UNL A   1      32.903  23.498  25.479  1.00  0.00     0.109 A 
ATOM     86  N   UNL A   1      33.123  22.038  27.170  1.00  0.00    -0.061 NA
ATOM     87  N   UNL A   1      33.682  22.490  26.025  1.00  0.00    -0.211 N 
BRANCH  85  88
ATOM     88  C   UNL A   1      32.998  24.060  24.138  1.00  0.00     0.004 A 
ATOM     89  C   UNL A   1      32.685  23.284  23.015  1.00  0.00     0.010 A 
ATOM     90  C   UNL A   1      33.320  25.413  23.967  1.00  0.00     0.031 A 
ATOM     91  C   UNL A   1      32.703  23.852  21.740  1.00  0.00     0.002 A 
ATOM     92  C   UNL A   1      33.334  25.975  22.694  1.00  0.00     0.041 A 
ATOM     93  C   UNL A   1      33.028  25.199  21.579  1.00  0.00     0.020 A 
ATOM     94  Cl  UNL A   1      33.720  27.640  22.504  1.00  0.00    -0.084 Cl
ENDBRANCH  85  88
BRANCH  87  95
ATOM     95  C   UNL A   1      34.926  21.999  25.569  1.00  0.00     0.079 A 
ATOM     96  C   UNL A   1      36.024  22.870  25.600  1.00  0.00     0.029 A 
ATOM     97  C   UNL A   1      35.072  20.671  25.115  1.00  0.00     0.081 A 
ATOM     98  C   UNL A   1      37.297  22.389  25.291  1.00  0.00     0.002 A 
ATOM     99  C   UNL A   1      36.371  20.208  24.833  1.00  0.00     0.015 A 
ATOM    100  C   UNL A   1      37.473  21.055  24.932  1.00  0.00     0.001 A 
BRANCH  97 101
ATOM    101  C   UNL A   1      33.923  19.737  24.796  1.00  0.00     0.418 C 
ATOM    102  F   UNL A   1      33.039  20.296  23.917  1.00  0.00    -0.166 F 
ATOM    103  F   UNL A   1      34.339  18.588  24.201  1.00  0.00    -0.166 F 
ATOM    104  F   UNL A   1      33.169  19.366  25.862  1.00  0.00    -0.166 F 
ENDBRANCH  97 101
ENDBRANCH  87  95
ENDBRANCH  81  83
ENDBRANCH  80  81
ENDBRANCH  79  80
ENDBRANCH  78  79
ENDBRANCH  77  78
ENDBRANCH  76  77
ENDBRANCH   1  76
TORSDOF 23
ENDMDL
