MODEL 1
REMARK VINA RESULT:     -11.0      0.000      0.000
REMARK SMILES O=C(OCCOCCOCCOC(=O)[C@H]1C[N@H+](Cc2cccc(Cl)c2)CC12CCCCC2)c1ccc(-c2c3nc(c(-c4c(F)cc(S(=O)(=O)[O-])cc4F)c4ccc([nH]4)c(-c4c(F)cc(S(=O)(=O)[O-])cc4F)c4nc(c(-c5c(F)cc(S(=O)(=O)[O-])cc5F)c5ccc2[nH]5)C=C4)C=C3)cc1
REMARK SMILES IDX 7 1 6 2 5 3 4 4 3 5 2 6 1 7 33 8 34 9 98 10 35 11 97 12
REMARK SMILES IDX 36 13 37 14 38 15 91 16 39 17 96 18 90 19 92 20 40 21 95 22
REMARK SMILES IDX 89 23 88 24 41 26 75 27 54 28 74 29 55 30 58 31 73 32 93 33
REMARK SMILES IDX 56 34 57 35 72 37 94 38 59 39 42 40 43 41 52 42 44 43 45 44
REMARK SMILES IDX 51 45 53 46 46 47 47 48 48 49 49 50 50 51 76 52 77 53 86 54
REMARK SMILES IDX 78 55 79 56 85 57 87 58 80 59 81 60 82 61 83 62 84 63 60 64
REMARK SMILES IDX 61 65 70 66 62 67 63 68 69 69 71 70 64 71 65 72 66 73 67 74
REMARK SMILES IDX 68 75 8 76 9 77 10 78 11 79 12 80 13 81 14 82 15 83 16 84
REMARK SMILES IDX 27 85 17 86 26 87 28 88 32 89 29 91 31 92 30 93 18 94 19 95
REMARK SMILES IDX 20 96 25 97 21 98 23 99 22 100 24 101
REMARK H PARENT 92 25 58 36 17 90
REMARK Flexibility Score: inf
ROOT
ATOM      1  C   UNL A   1      42.383  21.868  25.920  1.00  0.00     0.188 C 
ENDROOT
BRANCH   1   2
ATOM      2  O   UNL A   1      43.672  22.485  25.967  1.00  0.00    -0.376 OA
BRANCH   2   3
ATOM      3  C   UNL A   1      43.710  23.782  25.361  1.00  0.00     0.202 C 
BRANCH   3   4
ATOM      4  C   UNL A   1      42.553  24.732  25.716  1.00  0.00     0.261 C 
BRANCH   4   5
ATOM      5  O   UNL A   1      42.556  25.971  24.990  1.00  0.00    -0.460 OA
BRANCH   5   6
ATOM      6  C   UNL A   1      42.376  27.237  25.443  1.00  0.00     0.338 C 
ATOM      7  O   UNL A   1      42.433  28.152  24.620  1.00  0.00    -0.246 OA
BRANCH   6   8
ATOM      8  C   UNL A   1      42.153  27.603  26.879  1.00  0.00     0.060 A 
ATOM      9  C   UNL A   1      41.150  27.090  27.705  1.00  0.00     0.016 A 
ATOM     10  C   UNL A   1      43.055  28.517  27.452  1.00  0.00     0.016 A 
ATOM     11  C   UNL A   1      40.984  27.510  29.017  1.00  0.00     0.010 A 
ATOM     12  C   UNL A   1      42.914  28.931  28.781  1.00  0.00     0.010 A 
ATOM     13  C   UNL A   1      41.846  28.454  29.554  1.00  0.00    -0.014 A 
BRANCH  13  14
ATOM     14  C   UNL A   1      41.487  29.095  30.831  1.00  0.00     0.031 A 
ATOM     15  C   UNL A   1      40.394  30.109  30.806  1.00  0.00     0.074 A 
ATOM     16  C   UNL A   1      42.027  28.711  32.000  1.00  0.00     0.049 A 
ATOM     17  N   UNL A   1      39.976  30.884  31.763  1.00  0.00    -0.248 NA
ATOM     18  C   UNL A   1      39.623  30.212  29.555  1.00  0.00     0.031 C 
ATOM     19  C   UNL A   1      42.870  27.541  32.187  1.00  0.00     0.029 A 
ATOM     20  N   UNL A   1      42.006  29.295  33.239  1.00  0.00    -0.354 N 
ATOM     21  C   UNL A   1      38.866  31.533  31.250  1.00  0.00     0.074 A 
ATOM     22  C   UNL A   1      38.712  31.114  29.876  1.00  0.00     0.031 C 
ATOM     23  C   UNL A   1      43.449  27.594  33.395  1.00  0.00     0.029 A 
ATOM     24  C   UNL A   1      42.992  28.797  34.063  1.00  0.00     0.049 A 
ATOM     25  H   UNL A   1      41.361  29.988  33.509  1.00  0.00     0.167 HD
ATOM     26  C   UNL A   1      38.039  32.380  31.899  1.00  0.00     0.037 A 
ATOM     27  C   UNL A   1      43.515  29.309  35.190  1.00  0.00     0.037 A 
ATOM     28  C   UNL A   1      38.267  32.796  33.255  1.00  0.00     0.049 A 
ATOM     29  C   UNL A   1      42.791  30.468  35.798  1.00  0.00     0.074 A 
ATOM     30  C   UNL A   1      37.542  33.682  34.023  1.00  0.00     0.029 A 
ATOM     31  N   UNL A   1      39.338  32.365  34.034  1.00  0.00    -0.354 N 
ATOM     32  N   UNL A   1      41.757  31.113  35.313  1.00  0.00    -0.248 NA
ATOM     33  C   UNL A   1      43.229  30.918  37.119  1.00  0.00     0.031 C 
ATOM     34  C   UNL A   1      38.215  33.841  35.241  1.00  0.00     0.029 A 
ATOM     35  C   UNL A   1      39.323  33.004  35.259  1.00  0.00     0.049 A 
ATOM     36  H   UNL A   1      40.009  31.702  33.753  1.00  0.00     0.167 HD
ATOM     37  C   UNL A   1      41.360  31.993  36.304  1.00  0.00     0.074 A 
ATOM     38  C   UNL A   1      42.305  31.830  37.397  1.00  0.00     0.031 C 
ATOM     39  C   UNL A   1      40.285  32.817  36.323  1.00  0.00     0.037 A 
BRANCH  26  40
ATOM     40  C   UNL A   1      36.897  32.941  31.103  1.00  0.00     0.058 A 
ATOM     41  C   UNL A   1      35.588  32.442  31.223  1.00  0.00     0.135 A 
ATOM     42  C   UNL A   1      37.137  33.925  30.133  1.00  0.00     0.135 A 
ATOM     43  F   UNL A   1      35.310  31.472  32.110  1.00  0.00    -0.206 F 
ATOM     44  C   UNL A   1      34.570  32.863  30.373  1.00  0.00     0.059 A 
ATOM     45  C   UNL A   1      36.128  34.379  29.290  1.00  0.00     0.059 A 
ATOM     46  F   UNL A   1      38.372  34.421  29.966  1.00  0.00    -0.206 F 
ATOM     47  C   UNL A   1      34.854  33.823  29.401  1.00  0.00     0.060 A 
BRANCH  47  48
ATOM     48  S   UNL A   1      33.547  34.311  28.256  1.00  0.00     0.124 S 
ATOM     49  O   UNL A   1      33.155  33.021  27.696  1.00  0.00    -0.237 OA
ATOM     50  O   UNL A   1      32.571  34.936  29.147  1.00  0.00    -0.237 OA
ATOM     51  O   UNL A   1      34.221  35.219  27.336  1.00  0.00    -0.744 OA
ENDBRANCH  47  48
ENDBRANCH  26  40
BRANCH  27  52
ATOM     52  C   UNL A   1      44.767  28.742  35.751  1.00  0.00     0.058 A 
ATOM     53  C   UNL A   1      44.761  27.695  36.680  1.00  0.00     0.135 A 
ATOM     54  C   UNL A   1      46.018  29.206  35.301  1.00  0.00     0.135 A 
ATOM     55  F   UNL A   1      43.596  27.212  37.136  1.00  0.00    -0.206 F 
ATOM     56  C   UNL A   1      45.946  27.126  37.145  1.00  0.00     0.059 A 
ATOM     57  C   UNL A   1      47.214  28.648  35.743  1.00  0.00     0.059 A 
ATOM     58  F   UNL A   1      46.081  30.197  34.397  1.00  0.00    -0.206 F 
ATOM     59  C   UNL A   1      47.168  27.605  36.665  1.00  0.00     0.060 A 
BRANCH  59  60
ATOM     60  S   UNL A   1      48.693  26.819  37.235  1.00  0.00     0.124 S 
ATOM     61  O   UNL A   1      48.416  25.411  36.973  1.00  0.00    -0.237 OA
ATOM     62  O   UNL A   1      49.693  27.443  36.374  1.00  0.00    -0.237 OA
ATOM     63  O   UNL A   1      48.764  27.198  38.642  1.00  0.00    -0.744 OA
ENDBRANCH  59  60
ENDBRANCH  27  52
BRANCH  39  64
ATOM     64  C   UNL A   1      40.038  33.573  37.590  1.00  0.00     0.058 A 
ATOM     65  C   UNL A   1      40.703  34.772  37.873  1.00  0.00     0.135 A 
ATOM     66  C   UNL A   1      39.043  33.133  38.478  1.00  0.00     0.135 A 
ATOM     67  F   UNL A   1      41.674  35.217  37.060  1.00  0.00    -0.206 F 
ATOM     68  C   UNL A   1      40.382  35.520  38.998  1.00  0.00     0.059 A 
ATOM     69  C   UNL A   1      38.686  33.879  39.590  1.00  0.00     0.059 A 
ATOM     70  F   UNL A   1      38.382  31.987  38.242  1.00  0.00    -0.206 F 
ATOM     71  C   UNL A   1      39.361  35.073  39.840  1.00  0.00     0.060 A 
BRANCH  71  72
ATOM     72  S   UNL A   1      38.886  36.107  41.239  1.00  0.00     0.124 S 
ATOM     73  O   UNL A   1      40.084  36.045  42.069  1.00  0.00    -0.237 OA
ATOM     74  O   UNL A   1      38.623  37.392  40.598  1.00  0.00    -0.237 OA
ATOM     75  O   UNL A   1      37.711  35.429  41.778  1.00  0.00    -0.744 OA
ENDBRANCH  71  72
ENDBRANCH  39  64
ENDBRANCH  13  14
ENDBRANCH   6   8
ENDBRANCH   5   6
ENDBRANCH   4   5
ENDBRANCH   3   4
ENDBRANCH   2   3
ENDBRANCH   1   2
BRANCH   1  76
ATOM     76  C   UNL A   1      41.814  21.523  27.292  1.00  0.00     0.188 C 
BRANCH  76  77
ATOM     77  O   UNL A   1      40.402  21.391  27.413  1.00  0.00    -0.376 OA
BRANCH  77  78
ATOM     78  C   UNL A   1      39.620  21.318  26.230  1.00  0.00     0.202 C 
BRANCH  78  79
ATOM     79  C   UNL A   1      38.603  22.425  25.898  1.00  0.00     0.261 C 
BRANCH  79  80
ATOM     80  O   UNL A   1      37.227  22.039  25.804  1.00  0.00    -0.463 OA
BRANCH  80  81
ATOM     81  C   UNL A   1      36.653  22.374  24.620  1.00  0.00     0.315 C 
ATOM     82  O   UNL A   1      37.288  22.844  23.681  1.00  0.00    -0.252 OA
BRANCH  81  83
ATOM     83  C   UNL A   1      35.188  21.987  24.506  1.00  0.00     0.166 C 
ATOM     84  C   UNL A   1      34.617  21.163  25.658  1.00  0.00     0.278 C 
ATOM     85  C   UNL A   1      34.211  23.192  24.313  1.00  0.00     0.038 C 
ATOM     86  N   UNL A   1      33.224  21.556  25.778  1.00  0.00    -0.330 N 
ATOM     87  C   UNL A   1      33.126  22.952  25.392  1.00  0.00     0.270 C 
ATOM     88  C   UNL A   1      34.843  24.596  24.491  1.00  0.00     0.014 C 
ATOM     89  C   UNL A   1      33.649  23.122  22.874  1.00  0.00     0.014 C 
ATOM     90  H   UNL A   1      32.979  21.442  26.762  1.00  0.00     0.348 HD
ATOM     91  C   UNL A   1      33.899  25.745  24.142  1.00  0.00     0.001 C 
ATOM     92  C   UNL A   1      32.664  24.238  22.553  1.00  0.00     0.001 C 
ATOM     93  C   UNL A   1      33.334  25.590  22.732  1.00  0.00     0.000 C 
BRANCH  86  94
ATOM     94  C   UNL A   1      32.142  20.647  25.395  1.00  0.00     0.299 C 
BRANCH  94  95
ATOM     95  C   UNL A   1      32.498  19.390  24.648  1.00  0.00     0.008 A 
ATOM     96  C   UNL A   1      32.457  19.362  23.246  1.00  0.00     0.009 A 
ATOM     97  C   UNL A   1      32.867  18.228  25.346  1.00  0.00     0.030 A 
ATOM     98  C   UNL A   1      32.677  18.172  22.555  1.00  0.00     0.002 A 
ATOM     99  C   UNL A   1      33.090  17.043  24.648  1.00  0.00     0.041 A 
ATOM    100  C   UNL A   1      32.976  17.006  23.259  1.00  0.00     0.020 A 
ATOM    101  Cl  UNL A   1      33.457  15.598  25.508  1.00  0.00    -0.084 Cl
ENDBRANCH  94  95
ENDBRANCH  86  94
ENDBRANCH  81  83
ENDBRANCH  80  81
ENDBRANCH  79  80
ENDBRANCH  78  79
ENDBRANCH  77  78
ENDBRANCH  76  77
ENDBRANCH   1  76
TORSDOF 22
ENDMDL
MODEL 2
REMARK VINA RESULT:     -10.8      6.192      8.472
REMARK SMILES O=C(OCCOCCOCCOC(=O)[C@H]1C[N@H+](Cc2cccc(Cl)c2)CC12CCCCC2)c1ccc(-c2c3nc(c(-c4c(F)cc(S(=O)(=O)[O-])cc4F)c4ccc([nH]4)c(-c4c(F)cc(S(=O)(=O)[O-])cc4F)c4nc(c(-c5c(F)cc(S(=O)(=O)[O-])cc5F)c5ccc2[nH]5)C=C4)C=C3)cc1
REMARK SMILES IDX 7 1 6 2 5 3 4 4 3 5 2 6 1 7 33 8 34 9 98 10 35 11 97 12
REMARK SMILES IDX 36 13 37 14 38 15 91 16 39 17 96 18 90 19 92 20 40 21 95 22
REMARK SMILES IDX 89 23 88 24 41 26 75 27 54 28 74 29 55 30 58 31 73 32 93 33
REMARK SMILES IDX 56 34 57 35 72 37 94 38 59 39 42 40 43 41 52 42 44 43 45 44
REMARK SMILES IDX 51 45 53 46 46 47 47 48 48 49 49 50 50 51 76 52 77 53 86 54
REMARK SMILES IDX 78 55 79 56 85 57 87 58 80 59 81 60 82 61 83 62 84 63 60 64
REMARK SMILES IDX 61 65 70 66 62 67 63 68 69 69 71 70 64 71 65 72 66 73 67 74
REMARK SMILES IDX 68 75 8 76 9 77 10 78 11 79 12 80 13 81 14 82 15 83 16 84
REMARK SMILES IDX 27 85 17 86 26 87 28 88 32 89 29 91 31 92 30 93 18 94 19 95
REMARK SMILES IDX 20 96 25 97 21 98 23 99 22 100 24 101
REMARK H PARENT 92 25 58 36 17 90
REMARK Flexibility Score: inf
ROOT
ATOM      1  C   UNL A   1      40.795  20.899  26.829  1.00  0.00     0.188 C 
ENDROOT
BRANCH   1   2
ATOM      2  O   UNL A   1      41.095  19.649  26.203  1.00  0.00    -0.376 OA
BRANCH   2   3
ATOM      3  C   UNL A   1      42.254  19.001  26.741  1.00  0.00     0.202 C 
BRANCH   3   4
ATOM      4  C   UNL A   1      43.099  18.186  25.746  1.00  0.00     0.261 C 
BRANCH   4   5
ATOM      5  O   UNL A   1      44.289  18.849  25.293  1.00  0.00    -0.460 OA
BRANCH   5   6
ATOM      6  C   UNL A   1      44.420  19.924  24.475  1.00  0.00     0.338 C 
ATOM      7  O   UNL A   1      44.526  19.712  23.266  1.00  0.00    -0.246 OA
BRANCH   6   8
ATOM      8  C   UNL A   1      44.482  21.346  24.943  1.00  0.00     0.060 A 
ATOM      9  C   UNL A   1      44.542  22.473  24.121  1.00  0.00     0.016 A 
ATOM     10  C   UNL A   1      44.442  21.563  26.332  1.00  0.00     0.016 A 
ATOM     11  C   UNL A   1      44.638  23.759  24.633  1.00  0.00     0.010 A 
ATOM     12  C   UNL A   1      44.514  22.856  26.861  1.00  0.00     0.010 A 
ATOM     13  C   UNL A   1      44.653  23.957  26.005  1.00  0.00    -0.014 A 
BRANCH  13  14
ATOM     14  C   UNL A   1      45.042  25.280  26.525  1.00  0.00     0.031 A 
ATOM     15  C   UNL A   1      43.947  26.208  26.928  1.00  0.00     0.074 A 
ATOM     16  C   UNL A   1      46.325  25.611  26.748  1.00  0.00     0.049 A 
ATOM     17  N   UNL A   1      44.024  27.450  27.306  1.00  0.00    -0.248 NA
ATOM     18  C   UNL A   1      42.589  25.635  26.982  1.00  0.00     0.031 C 
ATOM     19  C   UNL A   1      47.449  24.692  26.679  1.00  0.00     0.029 A 
ATOM     20  N   UNL A   1      46.912  26.820  27.010  1.00  0.00    -0.354 N 
ATOM     21  C   UNL A   1      42.740  27.798  27.685  1.00  0.00     0.074 A 
ATOM     22  C   UNL A   1      41.886  26.660  27.432  1.00  0.00     0.031 C 
ATOM     23  C   UNL A   1      48.597  25.385  26.691  1.00  0.00     0.029 A 
ATOM     24  C   UNL A   1      48.273  26.794  26.788  1.00  0.00     0.049 A 
ATOM     25  H   UNL A   1      46.420  27.613  27.323  1.00  0.00     0.167 HD
ATOM     26  C   UNL A   1      42.334  28.965  28.229  1.00  0.00     0.037 A 
ATOM     27  C   UNL A   1      49.136  27.808  26.605  1.00  0.00     0.037 A 
ATOM     28  C   UNL A   1      43.220  30.080  28.417  1.00  0.00     0.049 A 
ATOM     29  C   UNL A   1      48.631  29.181  26.910  1.00  0.00     0.074 A 
ATOM     30  C   UNL A   1      42.940  31.336  28.911  1.00  0.00     0.029 A 
ATOM     31  N   UNL A   1      44.571  30.069  28.079  1.00  0.00    -0.354 N 
ATOM     32  N   UNL A   1      47.412  29.534  27.243  1.00  0.00    -0.248 NA
ATOM     33  C   UNL A   1      49.603  30.275  26.901  1.00  0.00     0.031 C 
ATOM     34  C   UNL A   1      44.104  32.106  28.804  1.00  0.00     0.029 A 
ATOM     35  C   UNL A   1      45.129  31.312  28.307  1.00  0.00     0.049 A 
ATOM     36  H   UNL A   1      45.058  29.288  27.728  1.00  0.00     0.167 HD
ATOM     37  C   UNL A   1      47.481  30.876  27.570  1.00  0.00     0.074 A 
ATOM     38  C   UNL A   1      48.859  31.282  27.340  1.00  0.00     0.031 C 
ATOM     39  C   UNL A   1      46.507  31.679  28.062  1.00  0.00     0.037 A 
BRANCH  26  40
ATOM     40  C   UNL A   1      40.874  29.078  28.558  1.00  0.00     0.058 A 
ATOM     41  C   UNL A   1      39.904  29.327  27.571  1.00  0.00     0.135 A 
ATOM     42  C   UNL A   1      40.453  29.035  29.895  1.00  0.00     0.135 A 
ATOM     43  F   UNL A   1      40.258  29.415  26.278  1.00  0.00    -0.206 F 
ATOM     44  C   UNL A   1      38.578  29.582  27.906  1.00  0.00     0.059 A 
ATOM     45  C   UNL A   1      39.126  29.261  30.249  1.00  0.00     0.059 A 
ATOM     46  F   UNL A   1      41.341  28.819  30.876  1.00  0.00    -0.206 F 
ATOM     47  C   UNL A   1      38.202  29.560  29.249  1.00  0.00     0.060 A 
BRANCH  47  48
ATOM     48  S   UNL A   1      36.496  29.962  29.679  1.00  0.00     0.124 S 
ATOM     49  O   UNL A   1      36.538  31.421  29.701  1.00  0.00    -0.237 OA
ATOM     50  O   UNL A   1      35.748  29.368  28.573  1.00  0.00    -0.237 OA
ATOM     51  O   UNL A   1      36.310  29.318  30.974  1.00  0.00    -0.744 OA
ENDBRANCH  47  48
ENDBRANCH  26  40
BRANCH  27  52
ATOM     52  C   UNL A   1      50.503  27.534  26.094  1.00  0.00     0.058 A 
ATOM     53  C   UNL A   1      50.791  27.483  24.725  1.00  0.00     0.135 A 
ATOM     54  C   UNL A   1      51.577  27.386  26.992  1.00  0.00     0.135 A 
ATOM     55  F   UNL A   1      49.805  27.625  23.828  1.00  0.00    -0.206 F 
ATOM     56  C   UNL A   1      52.092  27.295  24.261  1.00  0.00     0.059 A 
ATOM     57  C   UNL A   1      52.886  27.206  26.552  1.00  0.00     0.059 A 
ATOM     58  F   UNL A   1      51.359  27.444  28.315  1.00  0.00    -0.206 F 
ATOM     59  C   UNL A   1      53.134  27.164  25.182  1.00  0.00     0.060 A 
BRANCH  59  60
ATOM     60  S   UNL A   1      54.822  26.977  24.563  1.00  0.00     0.124 S 
ATOM     61  O   UNL A   1      54.737  27.636  23.265  1.00  0.00    -0.237 OA
ATOM     62  O   UNL A   1      55.597  27.676  25.585  1.00  0.00    -0.237 OA
ATOM     63  O   UNL A   1      55.011  25.531  24.526  1.00  0.00    -0.744 OA
ENDBRANCH  59  60
ENDBRANCH  27  52
BRANCH  39  64
ATOM     64  C   UNL A   1      46.907  33.070  28.438  1.00  0.00     0.058 A 
ATOM     65  C   UNL A   1      46.826  34.131  27.528  1.00  0.00     0.135 A 
ATOM     66  C   UNL A   1      47.276  33.351  29.764  1.00  0.00     0.135 A 
ATOM     67  F   UNL A   1      46.495  33.902  26.248  1.00  0.00    -0.206 F 
ATOM     68  C   UNL A   1      47.092  35.435  27.923  1.00  0.00     0.059 A 
ATOM     69  C   UNL A   1      47.517  34.650  30.187  1.00  0.00     0.059 A 
ATOM     70  F   UNL A   1      47.365  32.362  30.667  1.00  0.00    -0.206 F 
ATOM     71  C   UNL A   1      47.420  35.685  29.258  1.00  0.00     0.060 A 
BRANCH  71  72
ATOM     72  S   UNL A   1      47.662  37.394  29.778  1.00  0.00     0.124 S 
ATOM     73  O   UNL A   1      48.641  37.239  30.849  1.00  0.00    -0.237 OA
ATOM     74  O   UNL A   1      48.153  38.023  28.555  1.00  0.00    -0.237 OA
ATOM     75  O   UNL A   1      46.329  37.812  30.200  1.00  0.00    -0.744 OA
ENDBRANCH  71  72
ENDBRANCH  39  64
ENDBRANCH  13  14
ENDBRANCH   6   8
ENDBRANCH   5   6
ENDBRANCH   4   5
ENDBRANCH   3   4
ENDBRANCH   2   3
ENDBRANCH   1   2
BRANCH   1  76
ATOM     76  C   UNL A   1      39.585  21.613  26.235  1.00  0.00     0.188 C 
BRANCH  76  77
ATOM     77  O   UNL A   1      39.119  22.788  26.887  1.00  0.00    -0.376 OA
BRANCH  77  78
ATOM     78  C   UNL A   1      38.321  23.704  26.152  1.00  0.00     0.202 C 
BRANCH  78  79
ATOM     79  C   UNL A   1      36.999  23.246  25.508  1.00  0.00     0.261 C 
BRANCH  79  80
ATOM     80  O   UNL A   1      35.808  23.934  25.905  1.00  0.00    -0.463 OA
BRANCH  80  81
ATOM     81  C   UNL A   1      34.831  23.104  26.356  1.00  0.00     0.315 C 
ATOM     82  O   UNL A   1      34.372  23.173  27.492  1.00  0.00    -0.252 OA
BRANCH  81  83
ATOM     83  C   UNL A   1      34.258  22.181  25.294  1.00  0.00     0.166 C 
ATOM     84  C   UNL A   1      33.537  20.935  25.801  1.00  0.00     0.278 C 
ATOM     85  C   UNL A   1      33.271  22.873  24.298  1.00  0.00     0.038 C 
ATOM     86  N   UNL A   1      32.481  20.664  24.842  1.00  0.00    -0.330 N 
ATOM     87  C   UNL A   1      32.036  21.939  24.309  1.00  0.00     0.270 C 
ATOM     88  C   UNL A   1      32.853  24.319  24.672  1.00  0.00     0.014 C 
ATOM     89  C   UNL A   1      33.959  22.938  22.916  1.00  0.00     0.014 C 
ATOM     90  H   UNL A   1      31.729  20.215  25.364  1.00  0.00     0.348 HD
ATOM     91  C   UNL A   1      32.017  25.014  23.599  1.00  0.00     0.001 C 
ATOM     92  C   UNL A   1      33.096  23.581  21.838  1.00  0.00     0.001 C 
ATOM     93  C   UNL A   1      32.723  24.997  22.246  1.00  0.00     0.000 C 
BRANCH  86  94
ATOM     94  C   UNL A   1      32.551  19.515  23.938  1.00  0.00     0.299 C 
BRANCH  94  95
ATOM     95  C   UNL A   1      33.161  18.239  24.453  1.00  0.00     0.008 A 
ATOM     96  C   UNL A   1      34.532  17.990  24.287  1.00  0.00     0.009 A 
ATOM     97  C   UNL A   1      32.364  17.280  25.099  1.00  0.00     0.030 A 
ATOM     98  C   UNL A   1      35.080  16.765  24.661  1.00  0.00     0.002 A 
ATOM     99  C   UNL A   1      32.920  16.058  25.475  1.00  0.00     0.041 A 
ATOM    100  C   UNL A   1      34.268  15.790  25.240  1.00  0.00     0.020 A 
ATOM    101  Cl  UNL A   1      31.926  14.847  26.187  1.00  0.00    -0.084 Cl
ENDBRANCH  94  95
ENDBRANCH  86  94
ENDBRANCH  81  83
ENDBRANCH  80  81
ENDBRANCH  79  80
ENDBRANCH  78  79
ENDBRANCH  77  78
ENDBRANCH  76  77
ENDBRANCH   1  76
TORSDOF 22
ENDMDL
MODEL 3
REMARK VINA RESULT:     -10.5      6.412      9.153
REMARK SMILES O=C(OCCOCCOCCOC(=O)[C@H]1C[N@H+](Cc2cccc(Cl)c2)CC12CCCCC2)c1ccc(-c2c3nc(c(-c4c(F)cc(S(=O)(=O)[O-])cc4F)c4ccc([nH]4)c(-c4c(F)cc(S(=O)(=O)[O-])cc4F)c4nc(c(-c5c(F)cc(S(=O)(=O)[O-])cc5F)c5ccc2[nH]5)C=C4)C=C3)cc1
REMARK SMILES IDX 7 1 6 2 5 3 4 4 3 5 2 6 1 7 33 8 34 9 98 10 35 11 97 12
REMARK SMILES IDX 36 13 37 14 38 15 91 16 39 17 96 18 90 19 92 20 40 21 95 22
REMARK SMILES IDX 89 23 88 24 41 26 75 27 54 28 74 29 55 30 58 31 73 32 93 33
REMARK SMILES IDX 56 34 57 35 72 37 94 38 59 39 42 40 43 41 52 42 44 43 45 44
REMARK SMILES IDX 51 45 53 46 46 47 47 48 48 49 49 50 50 51 76 52 77 53 86 54
REMARK SMILES IDX 78 55 79 56 85 57 87 58 80 59 81 60 82 61 83 62 84 63 60 64
REMARK SMILES IDX 61 65 70 66 62 67 63 68 69 69 71 70 64 71 65 72 66 73 67 74
REMARK SMILES IDX 68 75 8 76 9 77 10 78 11 79 12 80 13 81 14 82 15 83 16 84
REMARK SMILES IDX 27 85 17 86 26 87 28 88 32 89 29 91 31 92 30 93 18 94 19 95
REMARK SMILES IDX 20 96 25 97 21 98 23 99 22 100 24 101
REMARK H PARENT 92 25 58 36 17 90
REMARK Flexibility Score: inf
ROOT
ATOM      1  C   UNL A   1      40.860  20.812  26.971  1.00  0.00     0.188 C 
ENDROOT
BRANCH   1   2
ATOM      2  O   UNL A   1      41.401  19.848  26.063  1.00  0.00    -0.376 OA
BRANCH   2   3
ATOM      3  C   UNL A   1      42.255  18.885  26.691  1.00  0.00     0.202 C 
BRANCH   3   4
ATOM      4  C   UNL A   1      43.205  18.110  25.761  1.00  0.00     0.261 C 
BRANCH   4   5
ATOM      5  O   UNL A   1      44.367  18.846  25.349  1.00  0.00    -0.460 OA
BRANCH   5   6
ATOM      6  C   UNL A   1      44.463  19.911  24.516  1.00  0.00     0.338 C 
ATOM      7  O   UNL A   1      44.541  19.686  23.307  1.00  0.00    -0.246 OA
BRANCH   6   8
ATOM      8  C   UNL A   1      44.519  21.340  24.965  1.00  0.00     0.060 A 
ATOM      9  C   UNL A   1      44.620  22.454  24.129  1.00  0.00     0.016 A 
ATOM     10  C   UNL A   1      44.429  21.578  26.348  1.00  0.00     0.016 A 
ATOM     11  C   UNL A   1      44.707  23.747  24.625  1.00  0.00     0.010 A 
ATOM     12  C   UNL A   1      44.491  22.878  26.860  1.00  0.00     0.010 A 
ATOM     13  C   UNL A   1      44.672  23.966  25.993  1.00  0.00    -0.014 A 
BRANCH  13  14
ATOM     14  C   UNL A   1      45.052  25.293  26.509  1.00  0.00     0.031 A 
ATOM     15  C   UNL A   1      43.950  26.217  26.903  1.00  0.00     0.074 A 
ATOM     16  C   UNL A   1      46.332  25.632  26.734  1.00  0.00     0.049 A 
ATOM     17  N   UNL A   1      44.020  27.461  27.274  1.00  0.00    -0.248 NA
ATOM     18  C   UNL A   1      42.596  25.638  26.955  1.00  0.00     0.031 C 
ATOM     19  C   UNL A   1      47.462  24.719  26.674  1.00  0.00     0.029 A 
ATOM     20  N   UNL A   1      46.912  26.845  26.993  1.00  0.00    -0.354 N 
ATOM     21  C   UNL A   1      42.732  27.805  27.647  1.00  0.00     0.074 A 
ATOM     22  C   UNL A   1      41.885  26.661  27.397  1.00  0.00     0.031 C 
ATOM     23  C   UNL A   1      48.606  25.418  26.686  1.00  0.00     0.029 A 
ATOM     24  C   UNL A   1      48.273  26.826  26.775  1.00  0.00     0.049 A 
ATOM     25  H   UNL A   1      46.415  27.638  27.299  1.00  0.00     0.167 HD
ATOM     26  C   UNL A   1      42.318  28.972  28.184  1.00  0.00     0.037 A 
ATOM     27  C   UNL A   1      49.132  27.843  26.590  1.00  0.00     0.037 A 
ATOM     28  C   UNL A   1      43.198  30.093  28.369  1.00  0.00     0.049 A 
ATOM     29  C   UNL A   1      48.618  29.216  26.886  1.00  0.00     0.074 A 
ATOM     30  C   UNL A   1      42.909  31.350  28.856  1.00  0.00     0.029 A 
ATOM     31  N   UNL A   1      44.550  30.087  28.036  1.00  0.00    -0.354 N 
ATOM     32  N   UNL A   1      47.396  29.564  27.213  1.00  0.00    -0.248 NA
ATOM     33  C   UNL A   1      49.585  30.314  26.876  1.00  0.00     0.031 C 
ATOM     34  C   UNL A   1      44.069  32.126  28.749  1.00  0.00     0.029 A 
ATOM     35  C   UNL A   1      45.100  31.334  28.260  1.00  0.00     0.049 A 
ATOM     36  H   UNL A   1      45.043  29.308  27.691  1.00  0.00     0.167 HD
ATOM     37  C   UNL A   1      47.457  30.907  27.534  1.00  0.00     0.074 A 
ATOM     38  C   UNL A   1      48.834  31.320  27.307  1.00  0.00     0.031 C 
ATOM     39  C   UNL A   1      46.477  31.707  28.018  1.00  0.00     0.037 A 
BRANCH  26  40
ATOM     40  C   UNL A   1      40.856  29.079  28.507  1.00  0.00     0.058 A 
ATOM     41  C   UNL A   1      39.885  29.282  27.510  1.00  0.00     0.135 A 
ATOM     42  C   UNL A   1      40.434  29.079  29.844  1.00  0.00     0.135 A 
ATOM     43  F   UNL A   1      40.240  29.328  26.216  1.00  0.00    -0.206 F 
ATOM     44  C   UNL A   1      38.555  29.532  27.834  1.00  0.00     0.059 A 
ATOM     45  C   UNL A   1      39.104  29.301  30.188  1.00  0.00     0.059 A 
ATOM     46  F   UNL A   1      41.322  28.908  30.833  1.00  0.00    -0.206 F 
ATOM     47  C   UNL A   1      38.177  29.553  29.177  1.00  0.00     0.060 A 
BRANCH  47  48
ATOM     48  S   UNL A   1      36.466  29.949  29.591  1.00  0.00     0.124 S 
ATOM     49  O   UNL A   1      36.497  31.409  29.585  1.00  0.00    -0.237 OA
ATOM     50  O   UNL A   1      35.729  29.329  28.491  1.00  0.00    -0.237 OA
ATOM     51  O   UNL A   1      36.278  29.328  30.896  1.00  0.00    -0.744 OA
ENDBRANCH  47  48
ENDBRANCH  26  40
BRANCH  27  52
ATOM     52  C   UNL A   1      50.502  27.574  26.086  1.00  0.00     0.058 A 
ATOM     53  C   UNL A   1      51.571  27.293  26.945  1.00  0.00     0.135 A 
ATOM     54  C   UNL A   1      50.750  27.525  24.701  1.00  0.00     0.135 A 
ATOM     55  F   UNL A   1      51.388  27.321  28.273  1.00  0.00    -0.206 F 
ATOM     56  C   UNL A   1      52.836  26.974  26.454  1.00  0.00     0.059 A 
ATOM     57  C   UNL A   1      52.001  27.198  24.186  1.00  0.00     0.059 A 
ATOM     58  F   UNL A   1      49.755  27.768  23.832  1.00  0.00    -0.206 F 
ATOM     59  C   UNL A   1      53.040  26.923  25.073  1.00  0.00     0.060 A 
BRANCH  59  60
ATOM     60  S   UNL A   1      54.671  26.451  24.453  1.00  0.00     0.124 S 
ATOM     61  O   UNL A   1      54.507  26.636  23.015  1.00  0.00    -0.237 OA
ATOM     62  O   UNL A   1      55.539  27.414  25.125  1.00  0.00    -0.237 OA
ATOM     63  O   UNL A   1      54.817  25.070  24.899  1.00  0.00    -0.744 OA
ENDBRANCH  59  60
ENDBRANCH  27  52
BRANCH  39  64
ATOM     64  C   UNL A   1      46.868  33.103  28.389  1.00  0.00     0.058 A 
ATOM     65  C   UNL A   1      47.393  33.410  29.650  1.00  0.00     0.135 A 
ATOM     66  C   UNL A   1      46.808  34.120  27.422  1.00  0.00     0.135 A 
ATOM     67  F   UNL A   1      47.450  32.471  30.607  1.00  0.00    -0.206 F 
ATOM     68  C   UNL A   1      47.857  34.686  29.941  1.00  0.00     0.059 A 
ATOM     69  C   UNL A   1      47.294  35.393  27.682  1.00  0.00     0.059 A 
ATOM     70  F   UNL A   1      46.311  33.866  26.200  1.00  0.00    -0.206 F 
ATOM     71  C   UNL A   1      47.818  35.665  28.945  1.00  0.00     0.060 A 
BRANCH  71  72
ATOM     72  S   UNL A   1      48.517  37.287  29.305  1.00  0.00     0.124 S 
ATOM     73  O   UNL A   1      49.352  36.994  30.465  1.00  0.00    -0.237 OA
ATOM     74  O   UNL A   1      49.230  37.597  28.070  1.00  0.00    -0.237 OA
ATOM     75  O   UNL A   1      47.342  38.112  29.569  1.00  0.00    -0.744 OA
ENDBRANCH  71  72
ENDBRANCH  39  64
ENDBRANCH  13  14
ENDBRANCH   6   8
ENDBRANCH   5   6
ENDBRANCH   4   5
ENDBRANCH   3   4
ENDBRANCH   2   3
ENDBRANCH   1   2
BRANCH   1  76
ATOM     76  C   UNL A   1      39.699  21.617  26.396  1.00  0.00     0.188 C 
BRANCH  76  77
ATOM     77  O   UNL A   1      39.460  22.915  26.929  1.00  0.00    -0.376 OA
BRANCH  77  78
ATOM     78  C   UNL A   1      38.700  23.837  26.163  1.00  0.00     0.202 C 
BRANCH  78  79
ATOM     79  C   UNL A   1      37.172  23.689  26.056  1.00  0.00     0.261 C 
BRANCH  79  80
ATOM     80  O   UNL A   1      36.670  22.839  25.019  1.00  0.00    -0.463 OA
BRANCH  80  81
ATOM     81  C   UNL A   1      35.893  23.492  24.115  1.00  0.00     0.315 C 
ATOM     82  O   UNL A   1      36.185  23.578  22.926  1.00  0.00    -0.252 OA
BRANCH  81  83
ATOM     83  C   UNL A   1      34.567  23.981  24.672  1.00  0.00     0.166 C 
ATOM     84  C   UNL A   1      34.080  25.335  24.162  1.00  0.00     0.278 C 
ATOM     85  C   UNL A   1      33.374  22.991  24.470  1.00  0.00     0.038 C 
ATOM     86  N   UNL A   1      32.629  25.257  24.143  1.00  0.00    -0.330 N 
ATOM     87  C   UNL A   1      32.268  23.881  23.853  1.00  0.00     0.270 C 
ATOM     88  C   UNL A   1      33.664  21.778  23.548  1.00  0.00     0.014 C 
ATOM     89  C   UNL A   1      32.984  22.428  25.857  1.00  0.00     0.014 C 
ATOM     90  H   UNL A   1      32.320  25.872  23.390  1.00  0.00     0.348 HD
ATOM     91  C   UNL A   1      32.530  20.756  23.501  1.00  0.00     0.001 C 
ATOM     92  C   UNL A   1      31.816  21.453  25.809  1.00  0.00     0.001 C 
ATOM     93  C   UNL A   1      32.153  20.281  24.902  1.00  0.00     0.000 C 
BRANCH  86  94
ATOM     94  C   UNL A   1      31.815  26.007  25.100  1.00  0.00     0.299 C 
BRANCH  94  95
ATOM     95  C   UNL A   1      31.361  27.391  24.721  1.00  0.00     0.008 A 
ATOM     96  C   UNL A   1      31.932  28.518  25.331  1.00  0.00     0.009 A 
ATOM     97  C   UNL A   1      30.355  27.569  23.757  1.00  0.00     0.030 A 
ATOM     98  C   UNL A   1      31.439  29.793  25.065  1.00  0.00     0.002 A 
ATOM     99  C   UNL A   1      29.870  28.849  23.493  1.00  0.00     0.041 A 
ATOM    100  C   UNL A   1      30.393  29.957  24.158  1.00  0.00     0.020 A 
ATOM    101  Cl  UNL A   1      28.577  29.062  22.377  1.00  0.00    -0.084 Cl
ENDBRANCH  94  95
ENDBRANCH  86  94
ENDBRANCH  81  83
ENDBRANCH  80  81
ENDBRANCH  79  80
ENDBRANCH  78  79
ENDBRANCH  77  78
ENDBRANCH  76  77
ENDBRANCH   1  76
TORSDOF 22
ENDMDL
