MODEL 1
REMARK VINA RESULT:      -9.2      0.000      0.000
REMARK SMILES CC(C)[C@@H](CCC(=O)OCCOCCOCCOC(=O)c1ccc(-c2c3nc(c(-c4c(F)cc(S(=O)(=O)[O-])cc4F)c4ccc([nH]4)c(-c4c(F)cc(S(=O)(=O)[O-])cc4F)c4nc(c(-c5c(F)cc(S(=O)(=O)[O-])cc5F)c5ccc2[nH]5)C=C4)C=C3)cc1)CC[NH+]1CC2(CC2)C1
REMARK SMILES IDX 13 1 12 2 11 3 10 4 9 5 7 6 8 7 6 8 5 9 4 10 2 11 1 12 3 13
REMARK SMILES IDX 87 14 88 15 89 16 90 17 94 18 91 20 92 21 93 22 14 23 15 24
REMARK SMILES IDX 16 25 17 26 18 27 19 28 20 29 21 30 22 31 86 32 23 33 85 34
REMARK SMILES IDX 24 35 25 36 26 37 79 38 27 39 84 40 78 41 80 42 28 43 83 44
REMARK SMILES IDX 77 45 76 46 29 48 63 49 42 50 62 51 43 52 46 53 61 54 81 55
REMARK SMILES IDX 44 56 45 57 60 59 82 60 47 61 30 62 31 63 40 64 32 65 33 66
REMARK SMILES IDX 39 67 41 68 34 69 35 70 36 71 37 72 38 73 64 74 65 75 74 76
REMARK SMILES IDX 66 77 67 78 73 79 75 80 68 81 69 82 70 83 71 84 72 85 48 86
REMARK SMILES IDX 49 87 58 88 50 89 51 90 57 91 59 92 52 93 53 94 54 95 55 96
REMARK SMILES IDX 56 97
REMARK H PARENT 89 19 80 47 46 58
REMARK Flexibility Score: inf
ROOT
ATOM      1  C   UNL A   1      33.477  29.591  25.784  1.00  0.00     0.188 C 
ENDROOT
BRANCH   1   2
ATOM      2  O   UNL A   1      32.623  28.458  25.690  1.00  0.00    -0.376 OA
BRANCH   2   3
ATOM      3  C   UNL A   1      32.673  27.825  24.409  1.00  0.00     0.202 C 
BRANCH   3   4
ATOM      4  C   UNL A   1      33.430  26.480  24.386  1.00  0.00     0.261 C 
BRANCH   4   5
ATOM      5  O   UNL A   1      34.012  26.199  23.087  1.00  0.00    -0.463 OA
BRANCH   5   6
ATOM      6  C   UNL A   1      33.406  25.271  22.309  1.00  0.00     0.305 C 
ATOM      7  O   UNL A   1      33.348  25.334  21.087  1.00  0.00    -0.252 OA
BRANCH   6   8
ATOM      8  C   UNL A   1      32.771  24.136  23.102  1.00  0.00     0.123 C 
BRANCH   8   9
ATOM      9  C   UNL A   1      33.526  22.805  23.346  1.00  0.00     0.016 C 
BRANCH   9  10
ATOM     10  C   UNL A   1      34.385  22.611  24.657  1.00  0.00    -0.002 C 
BRANCH  10  11
ATOM     11  C   UNL A   1      35.752  23.348  24.523  1.00  0.00    -0.014 C 
ATOM     12  C   UNL A   1      36.605  23.119  25.786  1.00  0.00     0.007 C 
ATOM     13  C   UNL A   1      36.602  22.970  23.315  1.00  0.00     0.007 C 
ENDBRANCH  10  11
BRANCH  10  14
ATOM     14  C   UNL A   1      34.370  21.113  25.043  1.00  0.00     0.065 C 
BRANCH  14  15
ATOM     15  C   UNL A   1      33.897  19.996  24.108  1.00  0.00     0.262 C 
BRANCH  15  16
ATOM     16  N   UNL A   1      32.656  19.304  24.489  1.00  0.00    -0.334 N 
ATOM     17  C   UNL A   1      32.507  18.032  23.727  1.00  0.00     0.275 C 
ATOM     18  C   UNL A   1      32.912  18.492  25.712  1.00  0.00     0.275 C 
ATOM     19  H   UNL A   1      31.940  20.029  24.451  1.00  0.00     0.348 HD
ATOM     20  C   UNL A   1      33.262  17.371  24.816  1.00  0.00     0.068 C 
ATOM     21  C   UNL A   1      34.610  16.722  24.688  1.00  0.00     0.020 C 
ATOM     22  C   UNL A   1      33.413  15.924  25.132  1.00  0.00     0.020 C 
ENDBRANCH  15  16
ENDBRANCH  14  15
ENDBRANCH  10  14
ENDBRANCH   9  10
ENDBRANCH   8   9
ENDBRANCH   6   8
ENDBRANCH   5   6
ENDBRANCH   4   5
ENDBRANCH   3   4
ENDBRANCH   2   3
ENDBRANCH   1   2
BRANCH   1  23
ATOM     23  C   UNL A   1      34.047  29.781  27.169  1.00  0.00     0.188 C 
BRANCH  23  24
ATOM     24  O   UNL A   1      33.693  31.069  27.684  1.00  0.00    -0.376 OA
BRANCH  24  25
ATOM     25  C   UNL A   1      34.812  31.920  27.906  1.00  0.00     0.202 C 
BRANCH  25  26
ATOM     26  C   UNL A   1      35.219  31.992  29.383  1.00  0.00     0.261 C 
BRANCH  26  27
ATOM     27  O   UNL A   1      35.971  30.830  29.770  1.00  0.00    -0.460 OA
BRANCH  27  28
ATOM     28  C   UNL A   1      36.987  31.051  30.644  1.00  0.00     0.338 C 
ATOM     29  O   UNL A   1      36.895  31.466  31.787  1.00  0.00    -0.246 OA
BRANCH  28  30
ATOM     30  C   UNL A   1      38.234  30.486  30.071  1.00  0.00     0.060 A 
ATOM     31  C   UNL A   1      39.305  30.212  30.939  1.00  0.00     0.016 A 
ATOM     32  C   UNL A   1      38.334  30.172  28.713  1.00  0.00     0.016 A 
ATOM     33  C   UNL A   1      40.484  29.648  30.448  1.00  0.00     0.010 A 
ATOM     34  C   UNL A   1      39.520  29.631  28.219  1.00  0.00     0.010 A 
ATOM     35  C   UNL A   1      40.610  29.401  29.077  1.00  0.00    -0.014 A 
BRANCH  35  36
ATOM     36  C   UNL A   1      41.944  29.190  28.469  1.00  0.00     0.031 A 
ATOM     37  C   UNL A   1      42.275  27.786  28.040  1.00  0.00     0.074 A 
ATOM     38  C   UNL A   1      42.846  30.179  28.352  1.00  0.00     0.049 A 
ATOM     39  N   UNL A   1      43.419  27.275  27.677  1.00  0.00    -0.248 NA
ATOM     40  C   UNL A   1      41.158  26.824  28.045  1.00  0.00     0.031 C 
ATOM     41  C   UNL A   1      42.617  31.585  28.682  1.00  0.00     0.029 A 
ATOM     42  N   UNL A   1      44.156  30.138  27.945  1.00  0.00    -0.354 N 
ATOM     43  C   UNL A   1      43.164  25.932  27.426  1.00  0.00     0.074 A 
ATOM     44  C   UNL A   1      41.765  25.700  27.700  1.00  0.00     0.031 C 
ATOM     45  C   UNL A   1      43.761  32.269  28.488  1.00  0.00     0.029 A 
ATOM     46  C   UNL A   1      44.809  31.342  28.063  1.00  0.00     0.049 A 
ATOM     47  H   UNL A   1      44.587  29.322  27.600  1.00  0.00     0.167 HD
ATOM     48  C   UNL A   1      44.021  24.976  27.002  1.00  0.00     0.037 A 
ATOM     49  C   UNL A   1      46.112  31.643  27.884  1.00  0.00     0.037 A 
ATOM     50  C   UNL A   1      45.413  25.216  26.742  1.00  0.00     0.049 A 
ATOM     51  C   UNL A   1      47.068  30.543  27.485  1.00  0.00     0.074 A 
ATOM     52  C   UNL A   1      46.380  24.318  26.332  1.00  0.00     0.029 A 
ATOM     53  N   UNL A   1      46.035  26.450  26.869  1.00  0.00    -0.354 N 
ATOM     54  N   UNL A   1      46.823  29.271  27.264  1.00  0.00    -0.248 NA
ATOM     55  C   UNL A   1      48.482  30.915  27.315  1.00  0.00     0.031 C 
ATOM     56  C   UNL A   1      47.597  25.002  26.242  1.00  0.00     0.029 A 
ATOM     57  C   UNL A   1      47.375  26.337  26.548  1.00  0.00     0.049 A 
ATOM     58  H   UNL A   1      45.588  27.282  27.146  1.00  0.00     0.167 HD
ATOM     59  C   UNL A   1      48.038  28.706  26.887  1.00  0.00     0.074 A 
ATOM     60  C   UNL A   1      49.018  29.771  26.913  1.00  0.00     0.031 C 
ATOM     61  C   UNL A   1      48.321  27.424  26.546  1.00  0.00     0.037 A 
BRANCH  48  62
ATOM     62  C   UNL A   1      43.477  23.589  26.818  1.00  0.00     0.058 A 
ATOM     63  C   UNL A   1      43.286  23.038  25.542  1.00  0.00     0.135 A 
ATOM     64  C   UNL A   1      43.157  22.795  27.931  1.00  0.00     0.135 A 
ATOM     65  F   UNL A   1      43.548  23.766  24.445  1.00  0.00    -0.206 F 
ATOM     66  C   UNL A   1      42.780  21.753  25.373  1.00  0.00     0.059 A 
ATOM     67  C   UNL A   1      42.675  21.498  27.787  1.00  0.00     0.059 A 
ATOM     68  F   UNL A   1      43.308  23.280  29.174  1.00  0.00    -0.206 F 
ATOM     69  C   UNL A   1      42.481  20.989  26.503  1.00  0.00     0.060 A 
BRANCH  69  70
ATOM     70  S   UNL A   1      41.845  19.317  26.267  1.00  0.00     0.124 S 
ATOM     71  O   UNL A   1      42.251  18.672  27.512  1.00  0.00    -0.237 OA
ATOM     72  O   UNL A   1      40.413  19.547  26.109  1.00  0.00    -0.237 OA
ATOM     73  O   UNL A   1      42.538  18.855  25.068  1.00  0.00    -0.744 OA
ENDBRANCH  69  70
ENDBRANCH  48  62
BRANCH  49  74
ATOM     74  C   UNL A   1      46.608  33.031  28.096  1.00  0.00     0.058 A 
ATOM     75  C   UNL A   1      47.087  33.443  29.349  1.00  0.00     0.135 A 
ATOM     76  C   UNL A   1      46.579  33.985  27.068  1.00  0.00     0.135 A 
ATOM     77  F   UNL A   1      47.123  32.573  30.371  1.00  0.00    -0.206 F 
ATOM     78  C   UNL A   1      47.490  34.754  29.584  1.00  0.00     0.059 A 
ATOM     79  C   UNL A   1      47.003  35.296  27.269  1.00  0.00     0.059 A 
ATOM     80  F   UNL A   1      46.137  33.645  25.846  1.00  0.00    -0.206 F 
ATOM     81  C   UNL A   1      47.442  35.675  28.537  1.00  0.00     0.060 A 
BRANCH  81  82
ATOM     82  S   UNL A   1      47.981  37.370  28.849  1.00  0.00     0.124 S 
ATOM     83  O   UNL A   1      48.961  37.567  27.786  1.00  0.00    -0.237 OA
ATOM     84  O   UNL A   1      46.736  38.120  28.716  1.00  0.00    -0.237 OA
ATOM     85  O   UNL A   1      48.524  37.307  30.203  1.00  0.00    -0.744 OA
ENDBRANCH  81  82
ENDBRANCH  49  74
BRANCH  61  86
ATOM     86  C   UNL A   1      49.720  27.109  26.097  1.00  0.00     0.058 A 
ATOM     87  C   UNL A   1      50.702  26.656  26.989  1.00  0.00     0.135 A 
ATOM     88  C   UNL A   1      50.051  27.178  24.733  1.00  0.00     0.135 A 
ATOM     89  F   UNL A   1      50.438  26.574  28.303  1.00  0.00    -0.206 F 
ATOM     90  C   UNL A   1      51.972  26.296  26.547  1.00  0.00     0.059 A 
ATOM     91  C   UNL A   1      51.304  26.798  24.265  1.00  0.00     0.059 A 
ATOM     92  F   UNL A   1      49.141  27.592  23.837  1.00  0.00    -0.206 F 
ATOM     93  C   UNL A   1      52.260  26.365  25.182  1.00  0.00     0.060 A 
BRANCH  93  94
ATOM     94  S   UNL A   1      53.892  25.842  24.614  1.00  0.00     0.124 S 
ATOM     95  O   UNL A   1      53.788  26.064  23.175  1.00  0.00    -0.237 OA
ATOM     96  O   UNL A   1      54.780  26.750  25.333  1.00  0.00    -0.237 OA
ATOM     97  O   UNL A   1      53.966  24.444  25.029  1.00  0.00    -0.744 OA
ENDBRANCH  93  94
ENDBRANCH  61  86
ENDBRANCH  35  36
ENDBRANCH  28  30
ENDBRANCH  27  28
ENDBRANCH  26  27
ENDBRANCH  25  26
ENDBRANCH  24  25
ENDBRANCH  23  24
ENDBRANCH   1  23
TORSDOF 26
ENDMDL
MODEL 2
REMARK VINA RESULT:      -9.1      1.273      8.306
REMARK SMILES CC(C)[C@@H](CCC(=O)OCCOCCOCCOC(=O)c1ccc(-c2c3nc(c(-c4c(F)cc(S(=O)(=O)[O-])cc4F)c4ccc([nH]4)c(-c4c(F)cc(S(=O)(=O)[O-])cc4F)c4nc(c(-c5c(F)cc(S(=O)(=O)[O-])cc5F)c5ccc2[nH]5)C=C4)C=C3)cc1)CC[NH+]1CC2(CC2)C1
REMARK SMILES IDX 13 1 12 2 11 3 10 4 9 5 7 6 8 7 6 8 5 9 4 10 2 11 1 12 3 13
REMARK SMILES IDX 87 14 88 15 89 16 90 17 94 18 91 20 92 21 93 22 14 23 15 24
REMARK SMILES IDX 16 25 17 26 18 27 19 28 20 29 21 30 22 31 86 32 23 33 85 34
REMARK SMILES IDX 24 35 25 36 26 37 79 38 27 39 84 40 78 41 80 42 28 43 83 44
REMARK SMILES IDX 77 45 76 46 29 48 63 49 42 50 62 51 43 52 46 53 61 54 81 55
REMARK SMILES IDX 44 56 45 57 60 59 82 60 47 61 30 62 31 63 40 64 32 65 33 66
REMARK SMILES IDX 39 67 41 68 34 69 35 70 36 71 37 72 38 73 64 74 65 75 74 76
REMARK SMILES IDX 66 77 67 78 73 79 75 80 68 81 69 82 70 83 71 84 72 85 48 86
REMARK SMILES IDX 49 87 58 88 50 89 51 90 57 91 59 92 52 93 53 94 54 95 55 96
REMARK SMILES IDX 56 97
REMARK H PARENT 89 19 80 47 46 58
REMARK Flexibility Score: inf
ROOT
ATOM      1  C   UNL A   1      31.427  29.253  25.850  1.00  0.00     0.188 C 
ENDROOT
BRANCH   1   2
ATOM      2  O   UNL A   1      32.112  28.007  25.831  1.00  0.00    -0.376 OA
BRANCH   2   3
ATOM      3  C   UNL A   1      31.615  27.082  26.802  1.00  0.00     0.202 C 
BRANCH   3   4
ATOM      4  C   UNL A   1      31.308  25.674  26.249  1.00  0.00     0.261 C 
BRANCH   4   5
ATOM      5  O   UNL A   1      31.822  24.622  27.106  1.00  0.00    -0.463 OA
BRANCH   5   6
ATOM      6  C   UNL A   1      31.266  23.391  27.000  1.00  0.00     0.305 C 
ATOM      7  O   UNL A   1      30.212  23.067  27.534  1.00  0.00    -0.252 OA
BRANCH   6   8
ATOM      8  C   UNL A   1      32.095  22.422  26.167  1.00  0.00     0.123 C 
BRANCH   8   9
ATOM      9  C   UNL A   1      33.244  21.597  26.801  1.00  0.00     0.016 C 
BRANCH   9  10
ATOM     10  C   UNL A   1      34.320  20.900  25.879  1.00  0.00    -0.002 C 
BRANCH  10  11
ATOM     11  C   UNL A   1      35.647  21.717  25.884  1.00  0.00    -0.014 C 
ATOM     12  C   UNL A   1      36.718  20.998  25.041  1.00  0.00     0.007 C 
ATOM     13  C   UNL A   1      35.552  23.154  25.383  1.00  0.00     0.007 C 
ENDBRANCH  10  11
BRANCH  10  14
ATOM     14  C   UNL A   1      33.659  20.542  24.527  1.00  0.00     0.065 C 
BRANCH  14  15
ATOM     15  C   UNL A   1      33.069  19.167  24.204  1.00  0.00     0.262 C 
BRANCH  15  16
ATOM     16  N   UNL A   1      34.004  18.161  23.676  1.00  0.00    -0.334 N 
ATOM     17  C   UNL A   1      34.619  17.380  24.788  1.00  0.00     0.275 C 
ATOM     18  C   UNL A   1      33.237  16.940  23.299  1.00  0.00     0.275 C 
ATOM     19  H   UNL A   1      34.581  18.675  23.012  1.00  0.00     0.348 HD
ATOM     20  C   UNL A   1      33.476  16.444  24.671  1.00  0.00     0.068 C 
ATOM     21  C   UNL A   1      32.432  16.190  25.719  1.00  0.00     0.020 C 
ATOM     22  C   UNL A   1      33.307  15.070  25.218  1.00  0.00     0.020 C 
ENDBRANCH  15  16
ENDBRANCH  14  15
ENDBRANCH  10  14
ENDBRANCH   9  10
ENDBRANCH   8   9
ENDBRANCH   6   8
ENDBRANCH   5   6
ENDBRANCH   4   5
ENDBRANCH   3   4
ENDBRANCH   2   3
ENDBRANCH   1   2
BRANCH   1  23
ATOM     23  C   UNL A   1      32.365  30.435  25.917  1.00  0.00     0.188 C 
BRANCH  23  24
ATOM     24  O   UNL A   1      33.666  30.018  26.345  1.00  0.00    -0.376 OA
BRANCH  24  25
ATOM     25  C   UNL A   1      34.192  30.801  27.411  1.00  0.00     0.202 C 
BRANCH  25  26
ATOM     26  C   UNL A   1      35.171  30.018  28.295  1.00  0.00     0.261 C 
BRANCH  26  27
ATOM     27  O   UNL A   1      35.856  30.890  29.208  1.00  0.00    -0.460 OA
BRANCH  27  28
ATOM     28  C   UNL A   1      36.466  30.281  30.258  1.00  0.00     0.338 C 
ATOM     29  O   UNL A   1      35.928  29.807  31.245  1.00  0.00    -0.246 OA
BRANCH  28  30
ATOM     30  C   UNL A   1      37.895  30.071  29.918  1.00  0.00     0.060 A 
ATOM     31  C   UNL A   1      38.255  29.991  28.562  1.00  0.00     0.016 A 
ATOM     32  C   UNL A   1      38.878  30.012  30.909  1.00  0.00     0.016 A 
ATOM     33  C   UNL A   1      39.592  29.829  28.195  1.00  0.00     0.010 A 
ATOM     34  C   UNL A   1      40.211  29.826  30.544  1.00  0.00     0.010 A 
ATOM     35  C   UNL A   1      40.568  29.698  29.190  1.00  0.00    -0.014 A 
BRANCH  35  36
ATOM     36  C   UNL A   1      41.900  29.136  28.870  1.00  0.00     0.031 A 
ATOM     37  C   UNL A   1      43.049  30.106  28.827  1.00  0.00     0.074 A 
ATOM     38  C   UNL A   1      42.080  27.837  28.574  1.00  0.00     0.049 A 
ATOM     39  N   UNL A   1      44.263  29.939  28.381  1.00  0.00    -0.248 NA
ATOM     40  C   UNL A   1      42.776  31.460  29.343  1.00  0.00     0.031 C 
ATOM     41  C   UNL A   1      41.054  26.798  28.637  1.00  0.00     0.029 A 
ATOM     42  N   UNL A   1      43.200  27.178  28.130  1.00  0.00    -0.354 N 
ATOM     43  C   UNL A   1      44.893  31.166  28.546  1.00  0.00     0.074 A 
ATOM     44  C   UNL A   1      43.924  32.077  29.110  1.00  0.00     0.031 C 
ATOM     45  C   UNL A   1      41.587  25.635  28.219  1.00  0.00     0.029 A 
ATOM     46  C   UNL A   1      42.976  25.858  27.819  1.00  0.00     0.049 A 
ATOM     47  H   UNL A   1      44.080  27.612  28.042  1.00  0.00     0.167 HD
ATOM     48  C   UNL A   1      46.169  31.505  28.254  1.00  0.00     0.037 A 
ATOM     49  C   UNL A   1      43.794  24.952  27.244  1.00  0.00     0.037 A 
ATOM     50  C   UNL A   1      47.122  30.594  27.682  1.00  0.00     0.049 A 
ATOM     51  C   UNL A   1      45.193  25.374  26.855  1.00  0.00     0.074 A 
ATOM     52  C   UNL A   1      48.435  30.834  27.324  1.00  0.00     0.029 A 
ATOM     53  N   UNL A   1      46.858  29.264  27.388  1.00  0.00    -0.354 N 
ATOM     54  N   UNL A   1      45.777  26.541  27.001  1.00  0.00    -0.248 NA
ATOM     55  C   UNL A   1      46.043  24.356  26.218  1.00  0.00     0.031 C 
ATOM     56  C   UNL A   1      48.957  29.656  26.780  1.00  0.00     0.029 A 
ATOM     57  C   UNL A   1      47.984  28.670  26.849  1.00  0.00     0.049 A 
ATOM     58  H   UNL A   1      45.998  28.812  27.541  1.00  0.00     0.167 HD
ATOM     59  C   UNL A   1      47.073  26.384  26.516  1.00  0.00     0.074 A 
ATOM     60  C   UNL A   1      47.187  25.011  26.070  1.00  0.00     0.031 C 
ATOM     61  C   UNL A   1      48.080  27.289  26.447  1.00  0.00     0.037 A 
BRANCH  48  62
ATOM     62  C   UNL A   1      46.591  32.919  28.527  1.00  0.00     0.058 A 
ATOM     63  C   UNL A   1      46.464  33.925  27.556  1.00  0.00     0.135 A 
ATOM     64  C   UNL A   1      47.114  33.279  29.779  1.00  0.00     0.135 A 
ATOM     65  F   UNL A   1      45.999  33.628  26.332  1.00  0.00    -0.206 F 
ATOM     66  C   UNL A   1      46.858  35.234  27.810  1.00  0.00     0.059 A 
ATOM     67  C   UNL A   1      47.489  34.588  30.064  1.00  0.00     0.059 A 
ATOM     68  F   UNL A   1      47.270  32.353  30.739  1.00  0.00    -0.206 F 
ATOM     69  C   UNL A   1      47.366  35.557  29.069  1.00  0.00     0.060 A 
BRANCH  69  70
ATOM     70  S   UNL A   1      47.852  37.265  29.389  1.00  0.00     0.124 S 
ATOM     71  O   UNL A   1      47.001  37.991  28.452  1.00  0.00    -0.237 OA
ATOM     72  O   UNL A   1      47.521  37.425  30.801  1.00  0.00    -0.237 OA
ATOM     73  O   UNL A   1      49.279  37.277  29.078  1.00  0.00    -0.744 OA
ENDBRANCH  69  70
ENDBRANCH  48  62
BRANCH  49  74
ATOM     74  C   UNL A   1      43.324  23.565  26.977  1.00  0.00     0.058 A 
ATOM     75  C   UNL A   1      43.295  22.603  27.998  1.00  0.00     0.135 A 
ATOM     76  C   UNL A   1      42.934  23.158  25.692  1.00  0.00     0.135 A 
ATOM     77  F   UNL A   1      43.673  22.936  29.243  1.00  0.00    -0.206 F 
ATOM     78  C   UNL A   1      42.924  21.284  27.752  1.00  0.00     0.059 A 
ATOM     79  C   UNL A   1      42.531  21.852  25.425  1.00  0.00     0.059 A 
ATOM     80  F   UNL A   1      42.935  24.038  24.678  1.00  0.00    -0.206 F 
ATOM     81  C   UNL A   1      42.546  20.918  26.460  1.00  0.00     0.060 A 
BRANCH  81  82
ATOM     82  S   UNL A   1      42.053  19.207  26.154  1.00  0.00     0.124 S 
ATOM     83  O   UNL A   1      42.863  18.872  24.988  1.00  0.00    -0.237 OA
ATOM     84  O   UNL A   1      42.428  18.549  27.402  1.00  0.00    -0.237 OA
ATOM     85  O   UNL A   1      40.616  19.309  25.915  1.00  0.00    -0.744 OA
ENDBRANCH  81  82
ENDBRANCH  49  74
BRANCH  61  86
ATOM     86  C   UNL A   1      49.417  26.816  25.948  1.00  0.00     0.058 A 
ATOM     87  C   UNL A   1      49.818  26.997  24.616  1.00  0.00     0.135 A 
ATOM     88  C   UNL A   1      50.342  26.255  26.844  1.00  0.00     0.135 A 
ATOM     89  F   UNL A   1      48.971  27.527  23.720  1.00  0.00    -0.206 F 
ATOM     90  C   UNL A   1      51.087  26.622  24.186  1.00  0.00     0.059 A 
ATOM     91  C   UNL A   1      51.624  25.898  26.442  1.00  0.00     0.059 A 
ATOM     92  F   UNL A   1      50.011  26.075  28.133  1.00  0.00    -0.206 F 
ATOM     93  C   UNL A   1      51.985  26.079  25.108  1.00  0.00     0.060 A 
BRANCH  93  94
ATOM     94  S   UNL A   1      53.647  25.650  24.549  1.00  0.00     0.124 S 
ATOM     95  O   UNL A   1      53.549  25.901  23.115  1.00  0.00    -0.237 OA
ATOM     96  O   UNL A   1      54.480  26.582  25.302  1.00  0.00    -0.237 OA
ATOM     97  O   UNL A   1      53.784  24.248  24.933  1.00  0.00    -0.744 OA
ENDBRANCH  93  94
ENDBRANCH  61  86
ENDBRANCH  35  36
ENDBRANCH  28  30
ENDBRANCH  27  28
ENDBRANCH  26  27
ENDBRANCH  25  26
ENDBRANCH  24  25
ENDBRANCH  23  24
ENDBRANCH   1  23
TORSDOF 26
ENDMDL
MODEL 3
REMARK VINA RESULT:      -9.0      2.587      9.142
REMARK SMILES CC(C)[C@@H](CCC(=O)OCCOCCOCCOC(=O)c1ccc(-c2c3nc(c(-c4c(F)cc(S(=O)(=O)[O-])cc4F)c4ccc([nH]4)c(-c4c(F)cc(S(=O)(=O)[O-])cc4F)c4nc(c(-c5c(F)cc(S(=O)(=O)[O-])cc5F)c5ccc2[nH]5)C=C4)C=C3)cc1)CC[NH+]1CC2(CC2)C1
REMARK SMILES IDX 13 1 12 2 11 3 10 4 9 5 7 6 8 7 6 8 5 9 4 10 2 11 1 12 3 13
REMARK SMILES IDX 87 14 88 15 89 16 90 17 94 18 91 20 92 21 93 22 14 23 15 24
REMARK SMILES IDX 16 25 17 26 18 27 19 28 20 29 21 30 22 31 86 32 23 33 85 34
REMARK SMILES IDX 24 35 25 36 26 37 79 38 27 39 84 40 78 41 80 42 28 43 83 44
REMARK SMILES IDX 77 45 76 46 29 48 63 49 42 50 62 51 43 52 46 53 61 54 81 55
REMARK SMILES IDX 44 56 45 57 60 59 82 60 47 61 30 62 31 63 40 64 32 65 33 66
REMARK SMILES IDX 39 67 41 68 34 69 35 70 36 71 37 72 38 73 64 74 65 75 74 76
REMARK SMILES IDX 66 77 67 78 73 79 75 80 68 81 69 82 70 83 71 84 72 85 48 86
REMARK SMILES IDX 49 87 58 88 50 89 51 90 57 91 59 92 52 93 53 94 54 95 55 96
REMARK SMILES IDX 56 97
REMARK H PARENT 89 19 80 47 46 58
REMARK Flexibility Score: inf
ROOT
ATOM      1  C   UNL A   1      34.230  29.853  26.787  1.00  0.00     0.188 C 
ENDROOT
BRANCH   1   2
ATOM      2  O   UNL A   1      33.149  29.676  25.881  1.00  0.00    -0.376 OA
BRANCH   2   3
ATOM      3  C   UNL A   1      32.003  29.075  26.490  1.00  0.00     0.202 C 
BRANCH   3   4
ATOM      4  C   UNL A   1      32.170  27.580  26.839  1.00  0.00     0.261 C 
BRANCH   4   5
ATOM      5  O   UNL A   1      30.923  26.971  27.259  1.00  0.00    -0.463 OA
BRANCH   5   6
ATOM      6  C   UNL A   1      30.470  25.905  26.555  1.00  0.00     0.305 C 
ATOM      7  O   UNL A   1      29.361  25.407  26.705  1.00  0.00    -0.252 OA
BRANCH   6   8
ATOM      8  C   UNL A   1      31.488  25.356  25.564  1.00  0.00     0.123 C 
BRANCH   8   9
ATOM      9  C   UNL A   1      31.049  24.793  24.189  1.00  0.00     0.016 C 
BRANCH   9  10
ATOM     10  C   UNL A   1      31.269  25.644  22.878  1.00  0.00    -0.002 C 
BRANCH  10  11
ATOM     11  C   UNL A   1      32.511  25.120  22.095  1.00  0.00    -0.014 C 
ATOM     12  C   UNL A   1      32.855  26.080  20.940  1.00  0.00     0.007 C 
ATOM     13  C   UNL A   1      33.779  24.908  22.913  1.00  0.00     0.007 C 
ENDBRANCH  10  11
BRANCH  10  14
ATOM     14  C   UNL A   1      31.183  27.145  23.240  1.00  0.00     0.065 C 
BRANCH  14  15
ATOM     15  C   UNL A   1      30.061  28.074  22.769  1.00  0.00     0.262 C 
BRANCH  15  16
ATOM     16  N   UNL A   1      30.449  29.453  22.433  1.00  0.00    -0.334 N 
ATOM     17  C   UNL A   1      29.394  30.112  21.614  1.00  0.00     0.275 C 
ATOM     18  C   UNL A   1      30.073  30.349  23.563  1.00  0.00     0.275 C 
ATOM     19  H   UNL A   1      31.407  29.371  22.093  1.00  0.00     0.348 HD
ATOM     20  C   UNL A   1      28.775  30.550  22.887  1.00  0.00     0.068 C 
ATOM     21  C   UNL A   1      27.429  30.132  23.404  1.00  0.00     0.020 C 
ATOM     22  C   UNL A   1      27.732  31.583  23.137  1.00  0.00     0.020 C 
ENDBRANCH  15  16
ENDBRANCH  14  15
ENDBRANCH  10  14
ENDBRANCH   9  10
ENDBRANCH   8   9
ENDBRANCH   6   8
ENDBRANCH   5   6
ENDBRANCH   4   5
ENDBRANCH   3   4
ENDBRANCH   2   3
ENDBRANCH   1   2
BRANCH   1  23
ATOM     23  C   UNL A   1      34.006  30.992  27.751  1.00  0.00     0.188 C 
BRANCH  23  24
ATOM     24  O   UNL A   1      34.926  32.058  27.491  1.00  0.00    -0.376 OA
BRANCH  24  25
ATOM     25  C   UNL A   1      35.148  32.904  28.614  1.00  0.00     0.202 C 
BRANCH  25  26
ATOM     26  C   UNL A   1      36.604  32.878  29.097  1.00  0.00     0.261 C 
BRANCH  26  27
ATOM     27  O   UNL A   1      36.715  32.220  30.370  1.00  0.00    -0.460 OA
BRANCH  27  28
ATOM     28  C   UNL A   1      36.865  30.870  30.323  1.00  0.00     0.338 C 
ATOM     29  O   UNL A   1      35.985  30.031  30.410  1.00  0.00    -0.246 OA
BRANCH  28  30
ATOM     30  C   UNL A   1      38.259  30.564  29.915  1.00  0.00     0.060 A 
ATOM     31  C   UNL A   1      38.480  30.039  28.631  1.00  0.00     0.016 A 
ATOM     32  C   UNL A   1      39.340  30.841  30.755  1.00  0.00     0.016 A 
ATOM     33  C   UNL A   1      39.777  29.768  28.193  1.00  0.00     0.010 A 
ATOM     34  C   UNL A   1      40.635  30.549  30.327  1.00  0.00     0.010 A 
ATOM     35  C   UNL A   1      40.855  29.979  29.061  1.00  0.00    -0.014 A 
BRANCH  35  36
ATOM     36  C   UNL A   1      42.168  29.347  28.799  1.00  0.00     0.031 A 
ATOM     37  C   UNL A   1      43.364  30.260  28.775  1.00  0.00     0.074 A 
ATOM     38  C   UNL A   1      42.295  28.035  28.537  1.00  0.00     0.049 A 
ATOM     39  N   UNL A   1      44.582  30.025  28.374  1.00  0.00    -0.248 NA
ATOM     40  C   UNL A   1      43.140  31.637  29.252  1.00  0.00     0.031 C 
ATOM     41  C   UNL A   1      41.218  27.048  28.586  1.00  0.00     0.029 A 
ATOM     42  N   UNL A   1      43.395  27.313  28.146  1.00  0.00    -0.354 N 
ATOM     43  C   UNL A   1      45.266  31.225  28.535  1.00  0.00     0.074 A 
ATOM     44  C   UNL A   1      44.323  32.193  29.046  1.00  0.00     0.031 C 
ATOM     45  C   UNL A   1      41.708  25.851  28.212  1.00  0.00     0.029 A 
ATOM     46  C   UNL A   1      43.119  25.998  27.856  1.00  0.00     0.049 A 
ATOM     47  H   UNL A   1      44.298  27.702  28.080  1.00  0.00     0.167 HD
ATOM     48  C   UNL A   1      46.565  31.495  28.280  1.00  0.00     0.037 A 
ATOM     49  C   UNL A   1      43.911  25.042  27.329  1.00  0.00     0.037 A 
ATOM     50  C   UNL A   1      47.492  30.527  27.762  1.00  0.00     0.049 A 
ATOM     51  C   UNL A   1      45.340  25.387  26.979  1.00  0.00     0.074 A 
ATOM     52  C   UNL A   1      48.826  30.696  27.444  1.00  0.00     0.029 A 
ATOM     53  N   UNL A   1      47.174  29.205  27.487  1.00  0.00    -0.354 N 
ATOM     54  N   UNL A   1      45.975  26.528  27.120  1.00  0.00    -0.248 NA
ATOM     55  C   UNL A   1      46.162  24.316  26.393  1.00  0.00     0.031 C 
ATOM     56  C   UNL A   1      49.308  29.482  26.944  1.00  0.00     0.029 A 
ATOM     57  C   UNL A   1      48.287  28.546  26.999  1.00  0.00     0.049 A 
ATOM     58  H   UNL A   1      46.288  28.797  27.620  1.00  0.00     0.167 HD
ATOM     59  C   UNL A   1      47.277  26.298  26.684  1.00  0.00     0.074 A 
ATOM     60  C   UNL A   1      47.340  24.912  26.272  1.00  0.00     0.031 C 
ATOM     61  C   UNL A   1      48.329  27.153  26.631  1.00  0.00     0.037 A 
BRANCH  48  62
ATOM     62  C   UNL A   1      47.046  32.894  28.538  1.00  0.00     0.058 A 
ATOM     63  C   UNL A   1      47.585  33.269  29.779  1.00  0.00     0.135 A 
ATOM     64  C   UNL A   1      46.982  33.868  27.529  1.00  0.00     0.135 A 
ATOM     65  F   UNL A   1      47.640  32.384  30.787  1.00  0.00    -0.206 F 
ATOM     66  C   UNL A   1      48.028  34.565  30.017  1.00  0.00     0.059 A 
ATOM     67  C   UNL A   1      47.444  35.164  27.736  1.00  0.00     0.059 A 
ATOM     68  F   UNL A   1      46.463  33.565  26.328  1.00  0.00    -0.206 F 
ATOM     69  C   UNL A   1      47.957  35.505  28.987  1.00  0.00     0.060 A 
BRANCH  69  70
ATOM     70  S   UNL A   1      48.555  37.178  29.306  1.00  0.00     0.124 S 
ATOM     71  O   UNL A   1      49.278  36.994  30.560  1.00  0.00    -0.237 OA
ATOM     72  O   UNL A   1      49.379  37.443  28.131  1.00  0.00    -0.237 OA
ATOM     73  O   UNL A   1      47.329  37.966  29.399  1.00  0.00    -0.744 OA
ENDBRANCH  69  70
ENDBRANCH  48  62
BRANCH  49  74
ATOM     74  C   UNL A   1      43.384  23.673  27.074  1.00  0.00     0.058 A 
ATOM     75  C   UNL A   1      43.387  22.699  28.085  1.00  0.00     0.135 A 
ATOM     76  C   UNL A   1      42.903  23.295  25.811  1.00  0.00     0.135 A 
ATOM     77  F   UNL A   1      43.850  23.004  29.308  1.00  0.00    -0.206 F 
ATOM     78  C   UNL A   1      42.962  21.395  27.847  1.00  0.00     0.059 A 
ATOM     79  C   UNL A   1      42.445  22.005  25.555  1.00  0.00     0.059 A 
ATOM     80  F   UNL A   1      42.870  24.188  24.809  1.00  0.00    -0.206 F 
ATOM     81  C   UNL A   1      42.495  21.057  26.576  1.00  0.00     0.060 A 
BRANCH  81  82
ATOM     82  S   UNL A   1      41.933  19.366  26.281  1.00  0.00     0.124 S 
ATOM     83  O   UNL A   1      42.751  18.979  25.137  1.00  0.00    -0.237 OA
ATOM     84  O   UNL A   1      42.251  18.709  27.545  1.00  0.00    -0.237 OA
ATOM     85  O   UNL A   1      40.507  19.528  26.010  1.00  0.00    -0.744 OA
ENDBRANCH  81  82
ENDBRANCH  49  74
BRANCH  61  86
ATOM     86  C   UNL A   1      49.658  26.605  26.188  1.00  0.00     0.058 A 
ATOM     87  C   UNL A   1      50.140  26.792  24.885  1.00  0.00     0.135 A 
ATOM     88  C   UNL A   1      50.495  25.962  27.115  1.00  0.00     0.135 A 
ATOM     89  F   UNL A   1      49.378  27.399  23.961  1.00  0.00    -0.206 F 
ATOM     90  C   UNL A   1      51.403  26.345  24.510  1.00  0.00     0.059 A 
ATOM     91  C   UNL A   1      51.771  25.532  26.769  1.00  0.00     0.059 A 
ATOM     92  F   UNL A   1      50.084  25.772  28.379  1.00  0.00    -0.206 F 
ATOM     93  C   UNL A   1      52.213  25.721  25.462  1.00  0.00     0.060 A 
BRANCH  93  94
ATOM     94  S   UNL A   1      53.872  25.197  24.978  1.00  0.00     0.124 S 
ATOM     95  O   UNL A   1      54.042  25.895  23.708  1.00  0.00    -0.237 OA
ATOM     96  O   UNL A   1      54.689  25.685  26.085  1.00  0.00    -0.237 OA
ATOM     97  O   UNL A   1      53.757  23.745  24.886  1.00  0.00    -0.744 OA
ENDBRANCH  93  94
ENDBRANCH  61  86
ENDBRANCH  35  36
ENDBRANCH  28  30
ENDBRANCH  27  28
ENDBRANCH  26  27
ENDBRANCH  25  26
ENDBRANCH  24  25
ENDBRANCH  23  24
ENDBRANCH   1  23
TORSDOF 26
ENDMDL
