MODEL 1
REMARK VINA RESULT:     -10.3      0.000      0.000
REMARK SMILES O=C(OCCOCCOCCOC(=O)c1cn(C2CC2)c2cc(N3CC[NH2+]CC3)ccc2c1=O)c1ccc(-c2c3nc(c(-c4c(F)cc(S(=O)(=O)[O-])cc4F)c4ccc([nH]4)c(-c4c(F)cc(S(=O)(=O)[O-])cc4F)c4nc(c(-c5c(F)cc(S(=O)(=O)[O-])cc5F)c5ccc2[nH]5)C=C4)C=C3)cc1
REMARK SMILES IDX 7 1 6 2 5 3 4 4 3 5 2 6 1 7 35 8 36 9 100 10 37 11 99 12
REMARK SMILES IDX 38 13 39 14 40 15 93 16 41 17 98 18 92 19 94 20 42 21 97 22
REMARK SMILES IDX 91 23 90 24 43 26 77 27 56 28 76 29 57 30 60 31 75 32 95 33
REMARK SMILES IDX 58 34 59 35 74 37 96 38 61 39 44 40 45 41 54 42 46 43 47 44
REMARK SMILES IDX 53 45 55 46 48 47 49 48 50 49 51 50 52 51 78 52 79 53 88 54
REMARK SMILES IDX 80 55 81 56 87 57 89 58 82 59 83 60 84 61 85 62 86 63 62 64
REMARK SMILES IDX 63 65 72 66 64 67 65 68 71 69 73 70 66 71 67 72 68 73 69 74
REMARK SMILES IDX 70 75 8 76 9 77 10 78 11 79 12 80 13 81 14 82 15 83 16 84
REMARK SMILES IDX 33 85 17 86 32 87 34 88 21 89 31 90 22 91 30 92 23 93 18 94
REMARK SMILES IDX 19 95 20 96 24 97 25 98 29 99 26 100 28 101 27 102
REMARK H PARENT 94 25 60 36 27 103 27 104
REMARK Flexibility Score: inf
ROOT
ATOM      1  C   UNL A   1      34.768  20.404  24.989  1.00  0.00     0.188 C 
ENDROOT
BRANCH   1   2
ATOM      2  O   UNL A   1      34.636  21.454  25.960  1.00  0.00    -0.376 OA
BRANCH   2   3
ATOM      3  C   UNL A   1      35.863  22.142  26.206  1.00  0.00     0.202 C 
BRANCH   3   4
ATOM      4  C   UNL A   1      37.115  21.469  25.633  1.00  0.00     0.261 C 
BRANCH   4   5
ATOM      5  O   UNL A   1      38.250  22.338  25.540  1.00  0.00    -0.460 OA
BRANCH   5   6
ATOM      6  C   UNL A   1      39.139  22.698  26.499  1.00  0.00     0.338 C 
ATOM      7  O   UNL A   1      39.653  21.788  27.151  1.00  0.00    -0.246 OA
BRANCH   6   8
ATOM      8  C   UNL A   1      39.540  24.112  26.833  1.00  0.00     0.060 A 
ATOM      9  C   UNL A   1      39.425  24.490  28.188  1.00  0.00     0.016 A 
ATOM     10  C   UNL A   1      40.029  25.077  25.950  1.00  0.00     0.016 A 
ATOM     11  C   UNL A   1      39.824  25.757  28.636  1.00  0.00     0.010 A 
ATOM     12  C   UNL A   1      40.451  26.334  26.392  1.00  0.00     0.010 A 
ATOM     13  C   UNL A   1      40.365  26.683  27.739  1.00  0.00    -0.014 A 
BRANCH  13  14
ATOM     14  C   UNL A   1      41.028  27.920  28.205  1.00  0.00     0.031 A 
ATOM     15  C   UNL A   1      42.519  28.043  28.319  1.00  0.00     0.074 A 
ATOM     16  C   UNL A   1      40.237  28.905  28.672  1.00  0.00     0.049 A 
ATOM     17  N   UNL A   1      43.235  29.109  28.576  1.00  0.00    -0.248 NA
ATOM     18  C   UNL A   1      43.312  26.820  28.146  1.00  0.00     0.031 C 
ATOM     19  C   UNL A   1      38.773  28.849  28.742  1.00  0.00     0.029 A 
ATOM     20  N   UNL A   1      40.550  30.119  29.219  1.00  0.00    -0.354 N 
ATOM     21  C   UNL A   1      44.562  28.704  28.496  1.00  0.00     0.074 A 
ATOM     22  C   UNL A   1      44.550  27.279  28.282  1.00  0.00     0.031 C 
ATOM     23  C   UNL A   1      38.319  29.969  29.323  1.00  0.00     0.029 A 
ATOM     24  C   UNL A   1      39.455  30.822  29.656  1.00  0.00     0.049 A 
ATOM     25  H   UNL A   1      41.472  30.456  29.292  1.00  0.00     0.167 HD
ATOM     26  C   UNL A   1      45.676  29.468  28.571  1.00  0.00     0.037 A 
ATOM     27  C   UNL A   1      39.378  32.023  30.256  1.00  0.00     0.037 A 
ATOM     28  C   UNL A   1      45.664  30.850  28.953  1.00  0.00     0.049 A 
ATOM     29  C   UNL A   1      40.636  32.817  30.454  1.00  0.00     0.074 A 
ATOM     30  C   UNL A   1      46.734  31.721  29.058  1.00  0.00     0.029 A 
ATOM     31  N   UNL A   1      44.537  31.534  29.371  1.00  0.00    -0.354 N 
ATOM     32  N   UNL A   1      41.866  32.498  30.129  1.00  0.00    -0.248 NA
ATOM     33  C   UNL A   1      40.497  34.140  31.075  1.00  0.00     0.031 C 
ATOM     34  C   UNL A   1      46.262  32.915  29.605  1.00  0.00     0.029 A 
ATOM     35  C   UNL A   1      44.893  32.799  29.793  1.00  0.00     0.049 A 
ATOM     36  H   UNL A   1      43.621  31.175  29.367  1.00  0.00     0.167 HD
ATOM     37  C   UNL A   1      42.645  33.595  30.478  1.00  0.00     0.074 A 
ATOM     38  C   UNL A   1      41.748  34.584  31.037  1.00  0.00     0.031 C 
ATOM     39  C   UNL A   1      43.981  33.768  30.340  1.00  0.00     0.037 A 
BRANCH  26  40
ATOM     40  C   UNL A   1      47.011  28.886  28.205  1.00  0.00     0.058 A 
ATOM     41  C   UNL A   1      47.455  28.961  26.874  1.00  0.00     0.135 A 
ATOM     42  C   UNL A   1      47.915  28.425  29.170  1.00  0.00     0.135 A 
ATOM     43  F   UNL A   1      46.638  29.420  25.913  1.00  0.00    -0.206 F 
ATOM     44  C   UNL A   1      48.734  28.555  26.504  1.00  0.00     0.059 A 
ATOM     45  C   UNL A   1      49.209  28.027  28.826  1.00  0.00     0.059 A 
ATOM     46  F   UNL A   1      47.547  28.350  30.459  1.00  0.00    -0.206 F 
ATOM     47  C   UNL A   1      49.600  28.074  27.484  1.00  0.00     0.060 A 
BRANCH  47  48
ATOM     48  S   UNL A   1      51.234  27.476  26.996  1.00  0.00     0.124 S 
ATOM     49  O   UNL A   1      51.149  26.068  27.370  1.00  0.00    -0.237 OA
ATOM     50  O   UNL A   1      51.260  27.743  25.562  1.00  0.00    -0.237 OA
ATOM     51  O   UNL A   1      52.138  28.287  27.802  1.00  0.00    -0.744 OA
ENDBRANCH  47  48
ENDBRANCH  26  40
BRANCH  27  52
ATOM     52  C   UNL A   1      38.050  32.560  30.638  1.00  0.00     0.058 A 
ATOM     53  C   UNL A   1      37.576  32.419  31.949  1.00  0.00     0.135 A 
ATOM     54  C   UNL A   1      37.260  33.274  29.724  1.00  0.00     0.135 A 
ATOM     55  F   UNL A   1      38.303  31.748  32.855  1.00  0.00    -0.206 F 
ATOM     56  C   UNL A   1      36.358  32.959  32.342  1.00  0.00     0.059 A 
ATOM     57  C   UNL A   1      36.045  33.841  30.099  1.00  0.00     0.059 A 
ATOM     58  F   UNL A   1      37.684  33.455  28.464  1.00  0.00    -0.206 F 
ATOM     59  C   UNL A   1      35.601  33.674  31.410  1.00  0.00     0.060 A 
BRANCH  59  60
ATOM     60  S   UNL A   1      34.049  34.418  31.954  1.00  0.00     0.124 S 
ATOM     61  O   UNL A   1      34.518  35.651  32.575  1.00  0.00    -0.237 OA
ATOM     62  O   UNL A   1      33.326  34.569  30.695  1.00  0.00    -0.237 OA
ATOM     63  O   UNL A   1      33.501  33.419  32.867  1.00  0.00    -0.744 OA
ENDBRANCH  59  60
ENDBRANCH  27  52
BRANCH  39  64
ATOM     64  C   UNL A   1      44.568  35.069  30.790  1.00  0.00     0.058 A 
ATOM     65  C   UNL A   1      45.056  35.234  32.094  1.00  0.00     0.135 A 
ATOM     66  C   UNL A   1      44.752  36.117  29.873  1.00  0.00     0.135 A 
ATOM     67  F   UNL A   1      44.904  34.256  33.001  1.00  0.00    -0.206 F 
ATOM     68  C   UNL A   1      45.701  36.401  32.479  1.00  0.00     0.059 A 
ATOM     69  C   UNL A   1      45.419  37.282  30.230  1.00  0.00     0.059 A 
ATOM     70  F   UNL A   1      44.319  35.993  28.609  1.00  0.00    -0.206 F 
ATOM     71  C   UNL A   1      45.884  37.416  31.537  1.00  0.00     0.060 A 
BRANCH  71  72
ATOM     72  S   UNL A   1      46.781  38.900  32.035  1.00  0.00     0.124 S 
ATOM     73  O   UNL A   1      47.240  39.409  30.748  1.00  0.00    -0.237 OA
ATOM     74  O   UNL A   1      45.743  39.685  32.695  1.00  0.00    -0.237 OA
ATOM     75  O   UNL A   1      47.825  38.385  32.917  1.00  0.00    -0.744 OA
ENDBRANCH  71  72
ENDBRANCH  39  64
ENDBRANCH  13  14
ENDBRANCH   6   8
ENDBRANCH   5   6
ENDBRANCH   4   5
ENDBRANCH   3   4
ENDBRANCH   2   3
ENDBRANCH   1   2
BRANCH   1  76
ATOM     76  C   UNL A   1      33.525  19.518  24.889  1.00  0.00     0.188 C 
BRANCH  76  77
ATOM     77  O   UNL A   1      32.298  20.157  24.528  1.00  0.00    -0.376 OA
BRANCH  77  78
ATOM     78  C   UNL A   1      32.348  21.186  23.547  1.00  0.00     0.202 C 
BRANCH  78  79
ATOM     79  C   UNL A   1      31.916  22.601  23.948  1.00  0.00     0.261 C 
BRANCH  79  80
ATOM     80  O   UNL A   1      31.664  23.492  22.855  1.00  0.00    -0.459 OA
BRANCH  80  81
ATOM     81  C   UNL A   1      32.743  24.228  22.476  1.00  0.00     0.343 C 
ATOM     82  O   UNL A   1      33.653  23.858  21.750  1.00  0.00    -0.246 OA
BRANCH  81  83
ATOM     83  C   UNL A   1      32.776  25.486  23.209  1.00  0.00     0.124 A 
ATOM     84  C   UNL A   1      31.882  26.378  22.790  1.00  0.00     0.106 A 
ATOM     85  C   UNL A   1      33.591  25.808  24.384  1.00  0.00     0.203 A 
ATOM     86  N   UNL A   1      31.633  27.619  23.333  1.00  0.00    -0.343 N 
ATOM     87  C   UNL A   1      33.362  27.144  25.010  1.00  0.00     0.047 A 
ATOM     88  O   UNL A   1      34.405  25.015  24.845  1.00  0.00    -0.288 OA
ATOM     89  C   UNL A   1      32.386  28.026  24.484  1.00  0.00     0.054 A 
ATOM     90  C   UNL A   1      34.134  27.498  26.119  1.00  0.00     0.016 A 
ATOM     91  C   UNL A   1      32.229  29.271  25.129  1.00  0.00     0.053 A 
ATOM     92  C   UNL A   1      33.968  28.748  26.708  1.00  0.00     0.027 A 
ATOM     93  C   UNL A   1      33.015  29.658  26.232  1.00  0.00     0.039 A 
BRANCH  86  94
ATOM     94  C   UNL A   1      30.574  28.441  22.691  1.00  0.00     0.087 C 
ATOM     95  C   UNL A   1      29.114  28.331  23.079  1.00  0.00     0.027 C 
ATOM     96  C   UNL A   1      29.886  29.574  23.408  1.00  0.00     0.027 C 
ENDBRANCH  86  94
BRANCH  93  97
ATOM     97  N   UNL A   1      32.861  30.867  26.873  1.00  0.00    -0.360 N 
ATOM     98  C   UNL A   1      33.823  31.368  27.856  1.00  0.00     0.178 C 
ATOM     99  C   UNL A   1      31.559  31.554  26.876  1.00  0.00     0.178 C 
ATOM    100  C   UNL A   1      33.992  32.897  27.658  1.00  0.00     0.282 C 
ATOM    101  C   UNL A   1      31.778  33.078  26.715  1.00  0.00     0.282 C 
ATOM    102  N   UNL A   1      32.723  33.664  27.696  1.00  0.00    -0.343 N 
ATOM    103  H   UNL A   1      32.904  34.638  27.457  1.00  0.00     0.346 HD
ATOM    104  H   UNL A   1      32.320  33.619  28.632  1.00  0.00     0.346 HD
ENDBRANCH  93  97
ENDBRANCH  81  83
ENDBRANCH  80  81
ENDBRANCH  79  80
ENDBRANCH  78  79
ENDBRANCH  77  78
ENDBRANCH  76  77
ENDBRANCH   1  76
TORSDOF 22
ENDMDL
MODEL 2
REMARK VINA RESULT:     -10.1      5.312     10.992
REMARK SMILES O=C(OCCOCCOCCOC(=O)c1cn(C2CC2)c2cc(N3CC[NH2+]CC3)ccc2c1=O)c1ccc(-c2c3nc(c(-c4c(F)cc(S(=O)(=O)[O-])cc4F)c4ccc([nH]4)c(-c4c(F)cc(S(=O)(=O)[O-])cc4F)c4nc(c(-c5c(F)cc(S(=O)(=O)[O-])cc5F)c5ccc2[nH]5)C=C4)C=C3)cc1
REMARK SMILES IDX 7 1 6 2 5 3 4 4 3 5 2 6 1 7 35 8 36 9 100 10 37 11 99 12
REMARK SMILES IDX 38 13 39 14 40 15 93 16 41 17 98 18 92 19 94 20 42 21 97 22
REMARK SMILES IDX 91 23 90 24 43 26 77 27 56 28 76 29 57 30 60 31 75 32 95 33
REMARK SMILES IDX 58 34 59 35 74 37 96 38 61 39 44 40 45 41 54 42 46 43 47 44
REMARK SMILES IDX 53 45 55 46 48 47 49 48 50 49 51 50 52 51 78 52 79 53 88 54
REMARK SMILES IDX 80 55 81 56 87 57 89 58 82 59 83 60 84 61 85 62 86 63 62 64
REMARK SMILES IDX 63 65 72 66 64 67 65 68 71 69 73 70 66 71 67 72 68 73 69 74
REMARK SMILES IDX 70 75 8 76 9 77 10 78 11 79 12 80 13 81 14 82 15 83 16 84
REMARK SMILES IDX 33 85 17 86 32 87 34 88 21 89 31 90 22 91 30 92 23 93 18 94
REMARK SMILES IDX 19 95 20 96 24 97 25 98 29 99 26 100 28 101 27 102
REMARK H PARENT 94 25 60 36 27 103 27 104
REMARK Flexibility Score: inf
ROOT
ATOM      1  C   UNL A   1      34.819  32.730  28.044  1.00  0.00     0.188 C 
ENDROOT
BRANCH   1   2
ATOM      2  O   UNL A   1      34.258  33.983  27.625  1.00  0.00    -0.376 OA
BRANCH   2   3
ATOM      3  C   UNL A   1      33.162  34.402  28.439  1.00  0.00     0.202 C 
BRANCH   3   4
ATOM      4  C   UNL A   1      33.181  35.879  28.850  1.00  0.00     0.261 C 
BRANCH   4   5
ATOM      5  O   UNL A   1      32.898  36.099  30.237  1.00  0.00    -0.460 OA
BRANCH   5   6
ATOM      6  C   UNL A   1      33.019  35.248  31.286  1.00  0.00     0.338 C 
ATOM      7  O   UNL A   1      32.051  35.157  32.043  1.00  0.00    -0.246 OA
BRANCH   6   8
ATOM      8  C   UNL A   1      34.235  34.416  31.601  1.00  0.00     0.060 A 
ATOM      9  C   UNL A   1      35.458  34.867  31.064  1.00  0.00     0.016 A 
ATOM     10  C   UNL A   1      34.279  33.259  32.383  1.00  0.00     0.016 A 
ATOM     11  C   UNL A   1      36.669  34.215  31.335  1.00  0.00     0.010 A 
ATOM     12  C   UNL A   1      35.485  32.615  32.677  1.00  0.00     0.010 A 
ATOM     13  C   UNL A   1      36.692  33.093  32.168  1.00  0.00    -0.014 A 
BRANCH  13  14
ATOM     14  C   UNL A   1      37.961  32.533  32.682  1.00  0.00     0.031 A 
ATOM     15  C   UNL A   1      38.566  32.968  33.984  1.00  0.00     0.074 A 
ATOM     16  C   UNL A   1      38.648  31.711  31.866  1.00  0.00     0.049 A 
ATOM     17  N   UNL A   1      39.593  32.462  34.620  1.00  0.00    -0.248 NA
ATOM     18  C   UNL A   1      37.964  34.129  34.654  1.00  0.00     0.031 C 
ATOM     19  C   UNL A   1      38.229  31.321  30.516  1.00  0.00     0.029 A 
ATOM     20  N   UNL A   1      39.860  31.098  32.029  1.00  0.00    -0.354 N 
ATOM     21  C   UNL A   1      39.697  33.177  35.807  1.00  0.00     0.074 A 
ATOM     22  C   UNL A   1      38.706  34.222  35.751  1.00  0.00     0.031 C 
ATOM     23  C   UNL A   1      39.182  30.553  29.967  1.00  0.00     0.029 A 
ATOM     24  C   UNL A   1      40.269  30.392  30.925  1.00  0.00     0.049 A 
ATOM     25  H   UNL A   1      40.387  31.157  32.858  1.00  0.00     0.167 HD
ATOM     26  C   UNL A   1      40.530  32.954  36.849  1.00  0.00     0.037 A 
ATOM     27  C   UNL A   1      41.396  29.689  30.714  1.00  0.00     0.037 A 
ATOM     28  C   UNL A   1      41.617  32.019  36.806  1.00  0.00     0.049 A 
ATOM     29  C   UNL A   1      42.384  29.549  31.835  1.00  0.00     0.074 A 
ATOM     30  C   UNL A   1      42.522  31.709  37.806  1.00  0.00     0.029 A 
ATOM     31  N   UNL A   1      41.991  31.308  35.681  1.00  0.00    -0.354 N 
ATOM     32  N   UNL A   1      42.323  30.042  33.049  1.00  0.00    -0.248 NA
ATOM     33  C   UNL A   1      43.579  28.738  31.571  1.00  0.00     0.031 C 
ATOM     34  C   UNL A   1      43.486  30.859  37.262  1.00  0.00     0.029 A 
ATOM     35  C   UNL A   1      43.151  30.606  35.941  1.00  0.00     0.049 A 
ATOM     36  H   UNL A   1      41.505  31.303  34.825  1.00  0.00     0.167 HD
ATOM     37  C   UNL A   1      43.456  29.576  33.704  1.00  0.00     0.074 A 
ATOM     38  C   UNL A   1      44.183  28.761  32.753  1.00  0.00     0.031 C 
ATOM     39  C   UNL A   1      43.853  29.797  34.979  1.00  0.00     0.037 A 
BRANCH  26  40
ATOM     40  C   UNL A   1      40.317  33.673  38.149  1.00  0.00     0.058 A 
ATOM     41  C   UNL A   1      39.340  33.206  39.045  1.00  0.00     0.135 A 
ATOM     42  C   UNL A   1      41.172  34.692  38.588  1.00  0.00     0.135 A 
ATOM     43  F   UNL A   1      38.511  32.214  38.683  1.00  0.00    -0.206 F 
ATOM     44  C   UNL A   1      39.188  33.755  40.315  1.00  0.00     0.059 A 
ATOM     45  C   UNL A   1      41.049  35.247  39.864  1.00  0.00     0.059 A 
ATOM     46  F   UNL A   1      42.133  35.163  37.778  1.00  0.00    -0.206 F 
ATOM     47  C   UNL A   1      40.037  34.787  40.711  1.00  0.00     0.060 A 
BRANCH  47  48
ATOM     48  S   UNL A   1      39.793  35.551  42.330  1.00  0.00     0.124 S 
ATOM     49  O   UNL A   1      38.903  34.590  42.972  1.00  0.00    -0.237 OA
ATOM     50  O   UNL A   1      41.148  35.608  42.867  1.00  0.00    -0.237 OA
ATOM     51  O   UNL A   1      39.194  36.839  42.001  1.00  0.00    -0.744 OA
ENDBRANCH  47  48
ENDBRANCH  26  40
BRANCH  27  52
ATOM     52  C   UNL A   1      41.599  29.016  29.409  1.00  0.00     0.058 A 
ATOM     53  C   UNL A   1      42.381  29.615  28.413  1.00  0.00     0.135 A 
ATOM     54  C   UNL A   1      41.069  27.741  29.155  1.00  0.00     0.135 A 
ATOM     55  F   UNL A   1      42.909  30.831  28.617  1.00  0.00    -0.206 F 
ATOM     56  C   UNL A   1      42.626  28.979  27.202  1.00  0.00     0.059 A 
ATOM     57  C   UNL A   1      41.316  27.075  27.958  1.00  0.00     0.059 A 
ATOM     58  F   UNL A   1      40.334  27.118  30.089  1.00  0.00    -0.206 F 
ATOM     59  C   UNL A   1      42.093  27.706  26.986  1.00  0.00     0.060 A 
BRANCH  59  60
ATOM     60  S   UNL A   1      42.469  26.870  25.431  1.00  0.00     0.124 S 
ATOM     61  O   UNL A   1      43.679  26.135  25.780  1.00  0.00    -0.237 OA
ATOM     62  O   UNL A   1      41.270  26.066  25.219  1.00  0.00    -0.237 OA
ATOM     63  O   UNL A   1      42.649  27.974  24.493  1.00  0.00    -0.744 OA
ENDBRANCH  59  60
ENDBRANCH  27  52
BRANCH  39  64
ATOM     64  C   UNL A   1      45.124  29.153  35.439  1.00  0.00     0.058 A 
ATOM     65  C   UNL A   1      45.129  27.856  35.969  1.00  0.00     0.135 A 
ATOM     66  C   UNL A   1      46.356  29.794  35.233  1.00  0.00     0.135 A 
ATOM     67  F   UNL A   1      43.973  27.206  36.179  1.00  0.00    -0.206 F 
ATOM     68  C   UNL A   1      46.318  27.215  36.291  1.00  0.00     0.059 A 
ATOM     69  C   UNL A   1      47.558  29.161  35.522  1.00  0.00     0.059 A 
ATOM     70  F   UNL A   1      46.398  31.028  34.707  1.00  0.00    -0.206 F 
ATOM     71  C   UNL A   1      47.527  27.873  36.057  1.00  0.00     0.060 A 
BRANCH  71  72
ATOM     72  S   UNL A   1      49.065  27.003  36.420  1.00  0.00     0.124 S 
ATOM     73  O   UNL A   1      49.514  27.694  37.623  1.00  0.00    -0.237 OA
ATOM     74  O   UNL A   1      48.609  25.629  36.608  1.00  0.00    -0.237 OA
ATOM     75  O   UNL A   1      49.873  27.230  35.225  1.00  0.00    -0.744 OA
ENDBRANCH  71  72
ENDBRANCH  39  64
ENDBRANCH  13  14
ENDBRANCH   6   8
ENDBRANCH   5   6
ENDBRANCH   4   5
ENDBRANCH   3   4
ENDBRANCH   2   3
ENDBRANCH   1   2
BRANCH   1  76
ATOM     76  C   UNL A   1      33.838  31.562  27.924  1.00  0.00     0.188 C 
BRANCH  76  77
ATOM     77  O   UNL A   1      34.085  30.610  26.886  1.00  0.00    -0.376 OA
BRANCH  77  78
ATOM     78  C   UNL A   1      33.678  29.264  27.107  1.00  0.00     0.202 C 
BRANCH  78  79
ATOM     79  C   UNL A   1      33.149  28.454  25.919  1.00  0.00     0.261 C 
BRANCH  79  80
ATOM     80  O   UNL A   1      33.558  27.082  25.888  1.00  0.00    -0.459 OA
BRANCH  80  81
ATOM     81  C   UNL A   1      33.866  26.620  24.647  1.00  0.00     0.343 C 
ATOM     82  O   UNL A   1      33.967  27.289  23.630  1.00  0.00    -0.246 OA
BRANCH  81  83
ATOM     83  C   UNL A   1      33.881  25.163  24.642  1.00  0.00     0.124 A 
ATOM     84  C   UNL A   1      34.948  24.634  25.237  1.00  0.00     0.106 A 
ATOM     85  C   UNL A   1      32.827  24.266  24.162  1.00  0.00     0.203 A 
ATOM     86  N   UNL A   1      35.199  23.296  25.446  1.00  0.00    -0.343 N 
ATOM     87  C   UNL A   1      33.052  22.804  24.363  1.00  0.00     0.047 A 
ATOM     88  O   UNL A   1      31.802  24.692  23.640  1.00  0.00    -0.288 OA
ATOM     89  C   UNL A   1      34.225  22.339  25.006  1.00  0.00     0.054 A 
ATOM     90  C   UNL A   1      32.080  21.914  23.900  1.00  0.00     0.016 A 
ATOM     91  C   UNL A   1      34.367  20.944  25.157  1.00  0.00     0.053 A 
ATOM     92  C   UNL A   1      32.272  20.543  24.043  1.00  0.00     0.027 A 
ATOM     93  C   UNL A   1      33.412  20.028  24.674  1.00  0.00     0.039 A 
BRANCH  86  94
ATOM     94  C   UNL A   1      36.463  22.944  26.143  1.00  0.00     0.087 C 
ATOM     95  C   UNL A   1      37.703  22.492  25.398  1.00  0.00     0.027 C 
ATOM     96  C   UNL A   1      37.686  23.822  26.090  1.00  0.00     0.027 C 
ENDBRANCH  86  94
BRANCH  93  97
ATOM     97  N   UNL A   1      33.538  18.665  24.828  1.00  0.00    -0.360 N 
ATOM     98  C   UNL A   1      32.782  17.910  25.830  1.00  0.00     0.178 C 
ATOM     99  C   UNL A   1      34.683  17.947  24.246  1.00  0.00     0.178 C 
ATOM    100  C   UNL A   1      32.345  16.556  25.212  1.00  0.00     0.282 C 
ATOM    101  C   UNL A   1      34.208  16.588  23.678  1.00  0.00     0.282 C 
ATOM    102  N   UNL A   1      33.456  15.753  24.647  1.00  0.00    -0.343 N 
ATOM    103  H   UNL A   1      33.079  14.934  24.172  1.00  0.00     0.346 HD
ATOM    104  H   UNL A   1      34.078  15.449  25.396  1.00  0.00     0.346 HD
ENDBRANCH  93  97
ENDBRANCH  81  83
ENDBRANCH  80  81
ENDBRANCH  79  80
ENDBRANCH  78  79
ENDBRANCH  77  78
ENDBRANCH  76  77
ENDBRANCH   1  76
TORSDOF 22
ENDMDL
MODEL 3
REMARK VINA RESULT:      -9.8      0.717      7.937
REMARK SMILES O=C(OCCOCCOCCOC(=O)c1cn(C2CC2)c2cc(N3CC[NH2+]CC3)ccc2c1=O)c1ccc(-c2c3nc(c(-c4c(F)cc(S(=O)(=O)[O-])cc4F)c4ccc([nH]4)c(-c4c(F)cc(S(=O)(=O)[O-])cc4F)c4nc(c(-c5c(F)cc(S(=O)(=O)[O-])cc5F)c5ccc2[nH]5)C=C4)C=C3)cc1
REMARK SMILES IDX 7 1 6 2 5 3 4 4 3 5 2 6 1 7 35 8 36 9 100 10 37 11 99 12
REMARK SMILES IDX 38 13 39 14 40 15 93 16 41 17 98 18 92 19 94 20 42 21 97 22
REMARK SMILES IDX 91 23 90 24 43 26 77 27 56 28 76 29 57 30 60 31 75 32 95 33
REMARK SMILES IDX 58 34 59 35 74 37 96 38 61 39 44 40 45 41 54 42 46 43 47 44
REMARK SMILES IDX 53 45 55 46 48 47 49 48 50 49 51 50 52 51 78 52 79 53 88 54
REMARK SMILES IDX 80 55 81 56 87 57 89 58 82 59 83 60 84 61 85 62 86 63 62 64
REMARK SMILES IDX 63 65 72 66 64 67 65 68 71 69 73 70 66 71 67 72 68 73 69 74
REMARK SMILES IDX 70 75 8 76 9 77 10 78 11 79 12 80 13 81 14 82 15 83 16 84
REMARK SMILES IDX 33 85 17 86 32 87 34 88 21 89 31 90 22 91 30 92 23 93 18 94
REMARK SMILES IDX 19 95 20 96 24 97 25 98 29 99 26 100 28 101 27 102
REMARK H PARENT 94 25 60 36 27 103 27 104
REMARK Flexibility Score: inf
ROOT
ATOM      1  C   UNL A   1      34.507  20.268  24.679  1.00  0.00     0.188 C 
ENDROOT
BRANCH   1   2
ATOM      2  O   UNL A   1      35.429  20.966  25.530  1.00  0.00    -0.376 OA
BRANCH   2   3
ATOM      3  C   UNL A   1      36.738  21.069  24.967  1.00  0.00     0.202 C 
BRANCH   3   4
ATOM      4  C   UNL A   1      37.497  22.355  25.312  1.00  0.00     0.261 C 
BRANCH   4   5
ATOM      5  O   UNL A   1      38.498  22.185  26.322  1.00  0.00    -0.460 OA
BRANCH   5   6
ATOM      6  C   UNL A   1      39.736  22.731  26.408  1.00  0.00     0.338 C 
ATOM      7  O   UNL A   1      40.687  22.006  26.109  1.00  0.00    -0.246 OA
BRANCH   6   8
ATOM      8  C   UNL A   1      40.042  24.142  26.842  1.00  0.00     0.060 A 
ATOM      9  C   UNL A   1      40.059  24.377  28.233  1.00  0.00     0.016 A 
ATOM     10  C   UNL A   1      40.327  25.231  26.015  1.00  0.00     0.016 A 
ATOM     11  C   UNL A   1      40.390  25.632  28.764  1.00  0.00     0.010 A 
ATOM     12  C   UNL A   1      40.680  26.479  26.537  1.00  0.00     0.010 A 
ATOM     13  C   UNL A   1      40.728  26.689  27.915  1.00  0.00    -0.014 A 
BRANCH  13  14
ATOM     14  C   UNL A   1      41.325  27.940  28.431  1.00  0.00     0.031 A 
ATOM     15  C   UNL A   1      40.494  29.112  28.864  1.00  0.00     0.074 A 
ATOM     16  C   UNL A   1      42.665  28.057  28.365  1.00  0.00     0.049 A 
ATOM     17  N   UNL A   1      40.878  30.209  29.466  1.00  0.00    -0.248 NA
ATOM     18  C   UNL A   1      39.056  29.065  28.571  1.00  0.00     0.031 C 
ATOM     19  C   UNL A   1      43.575  27.037  27.833  1.00  0.00     0.029 A 
ATOM     20  N   UNL A   1      43.489  29.097  28.699  1.00  0.00    -0.354 N 
ATOM     21  C   UNL A   1      39.718  30.935  29.711  1.00  0.00     0.074 A 
ATOM     22  C   UNL A   1      38.636  30.211  29.094  1.00  0.00     0.031 C 
ATOM     23  C   UNL A   1      44.828  27.514  27.856  1.00  0.00     0.029 A 
ATOM     24  C   UNL A   1      44.810  28.863  28.409  1.00  0.00     0.049 A 
ATOM     25  H   UNL A   1      43.165  29.931  29.108  1.00  0.00     0.167 HD
ATOM     26  C   UNL A   1      39.582  32.085  30.410  1.00  0.00     0.037 A 
ATOM     27  C   UNL A   1      45.887  29.651  28.577  1.00  0.00     0.037 A 
ATOM     28  C   UNL A   1      40.692  32.871  30.866  1.00  0.00     0.049 A 
ATOM     29  C   UNL A   1      45.713  30.986  29.240  1.00  0.00     0.074 A 
ATOM     30  C   UNL A   1      40.670  34.051  31.587  1.00  0.00     0.029 A 
ATOM     31  N   UNL A   1      42.016  32.596  30.572  1.00  0.00    -0.354 N 
ATOM     32  N   UNL A   1      44.614  31.539  29.694  1.00  0.00    -0.248 NA
ATOM     33  C   UNL A   1      46.923  31.793  29.438  1.00  0.00     0.031 C 
ATOM     34  C   UNL A   1      41.980  34.526  31.671  1.00  0.00     0.029 A 
ATOM     35  C   UNL A   1      42.817  33.616  31.043  1.00  0.00     0.049 A 
ATOM     36  H   UNL A   1      42.337  31.795  30.098  1.00  0.00     0.167 HD
ATOM     37  C   UNL A   1      45.004  32.746  30.260  1.00  0.00     0.074 A 
ATOM     38  C   UNL A   1      46.439  32.842  30.093  1.00  0.00     0.031 C 
ATOM     39  C   UNL A   1      44.243  33.686  30.869  1.00  0.00     0.037 A 
BRANCH  26  40
ATOM     40  C   UNL A   1      38.215  32.579  30.785  1.00  0.00     0.058 A 
ATOM     41  C   UNL A   1      37.593  32.081  31.942  1.00  0.00     0.135 A 
ATOM     42  C   UNL A   1      37.600  33.649  30.121  1.00  0.00     0.135 A 
ATOM     43  F   UNL A   1      38.153  31.073  32.630  1.00  0.00    -0.206 F 
ATOM     44  C   UNL A   1      36.386  32.596  32.405  1.00  0.00     0.059 A 
ATOM     45  C   UNL A   1      36.397  34.193  30.576  1.00  0.00     0.059 A 
ATOM     46  F   UNL A   1      38.161  34.173  29.020  1.00  0.00    -0.206 F 
ATOM     47  C   UNL A   1      35.786  33.642  31.706  1.00  0.00     0.060 A 
BRANCH  47  48
ATOM     48  S   UNL A   1      34.181  34.261  32.261  1.00  0.00     0.124 S 
ATOM     49  O   UNL A   1      33.472  34.401  30.994  1.00  0.00    -0.237 OA
ATOM     50  O   UNL A   1      33.706  33.191  33.133  1.00  0.00    -0.237 OA
ATOM     51  O   UNL A   1      34.522  35.511  32.931  1.00  0.00    -0.744 OA
ENDBRANCH  47  48
ENDBRANCH  26  40
BRANCH  27  52
ATOM     52  C   UNL A   1      47.222  29.153  28.168  1.00  0.00     0.058 A 
ATOM     53  C   UNL A   1      48.057  28.511  29.092  1.00  0.00     0.135 A 
ATOM     54  C   UNL A   1      47.663  29.253  26.839  1.00  0.00     0.135 A 
ATOM     55  F   UNL A   1      47.671  28.390  30.371  1.00  0.00    -0.206 F 
ATOM     56  C   UNL A   1      49.290  27.991  28.717  1.00  0.00     0.059 A 
ATOM     57  C   UNL A   1      48.885  28.723  26.435  1.00  0.00     0.059 A 
ATOM     58  F   UNL A   1      46.887  29.839  25.914  1.00  0.00    -0.206 F 
ATOM     59  C   UNL A   1      49.693  28.098  27.384  1.00  0.00     0.060 A 
BRANCH  59  60
ATOM     60  S   UNL A   1      51.271  27.367  26.904  1.00  0.00     0.124 S 
ATOM     61  O   UNL A   1      52.017  28.540  26.464  1.00  0.00    -0.237 OA
ATOM     62  O   UNL A   1      51.718  26.756  28.152  1.00  0.00    -0.237 OA
ATOM     63  O   UNL A   1      50.898  26.424  25.852  1.00  0.00    -0.744 OA
ENDBRANCH  59  60
ENDBRANCH  27  52
BRANCH  39  64
ATOM     64  C   UNL A   1      44.931  34.900  31.411  1.00  0.00     0.058 A 
ATOM     65  C   UNL A   1      45.048  36.069  30.646  1.00  0.00     0.135 A 
ATOM     66  C   UNL A   1      45.366  34.931  32.745  1.00  0.00     0.135 A 
ATOM     67  F   UNL A   1      44.641  36.084  29.367  1.00  0.00    -0.206 F 
ATOM     68  C   UNL A   1      45.584  37.230  31.185  1.00  0.00     0.059 A 
ATOM     69  C   UNL A   1      45.881  36.090  33.312  1.00  0.00     0.059 A 
ATOM     70  F   UNL A   1      45.253  33.840  33.519  1.00  0.00    -0.206 F 
ATOM     71  C   UNL A   1      45.991  37.233  32.521  1.00  0.00     0.060 A 
BRANCH  71  72
ATOM     72  S   UNL A   1      46.626  38.767  33.225  1.00  0.00     0.124 S 
ATOM     73  O   UNL A   1      45.867  39.765  32.481  1.00  0.00    -0.237 OA
ATOM     74  O   UNL A   1      46.283  38.629  34.637  1.00  0.00    -0.237 OA
ATOM     75  O   UNL A   1      48.055  38.711  32.926  1.00  0.00    -0.744 OA
ENDBRANCH  71  72
ENDBRANCH  39  64
ENDBRANCH  13  14
ENDBRANCH   6   8
ENDBRANCH   5   6
ENDBRANCH   4   5
ENDBRANCH   3   4
ENDBRANCH   2   3
ENDBRANCH   1   2
BRANCH   1  76
ATOM     76  C   UNL A   1      33.047  20.452  25.097  1.00  0.00     0.188 C 
BRANCH  76  77
ATOM     77  O   UNL A   1      32.542  21.789  25.127  1.00  0.00    -0.376 OA
BRANCH  77  78
ATOM     78  C   UNL A   1      31.697  22.205  24.059  1.00  0.00     0.202 C 
BRANCH  78  79
ATOM     79  C   UNL A   1      31.295  23.681  23.977  1.00  0.00     0.261 C 
BRANCH  79  80
ATOM     80  O   UNL A   1      31.496  24.296  22.699  1.00  0.00    -0.459 OA
BRANCH  80  81
ATOM     81  C   UNL A   1      32.723  24.859  22.539  1.00  0.00     0.343 C 
ATOM     82  O   UNL A   1      33.679  24.361  21.964  1.00  0.00    -0.246 OA
BRANCH  81  83
ATOM     83  C   UNL A   1      32.817  26.088  23.316  1.00  0.00     0.124 A 
ATOM     84  C   UNL A   1      32.030  27.066  22.876  1.00  0.00     0.106 A 
ATOM     85  C   UNL A   1      33.582  26.303  24.548  1.00  0.00     0.203 A 
ATOM     86  N   UNL A   1      31.855  28.307  23.447  1.00  0.00    -0.343 N 
ATOM     87  C   UNL A   1      33.429  27.634  25.205  1.00  0.00     0.047 A 
ATOM     88  O   UNL A   1      34.296  25.428  25.028  1.00  0.00    -0.288 OA
ATOM     89  C   UNL A   1      32.566  28.612  24.654  1.00  0.00     0.054 A 
ATOM     90  C   UNL A   1      34.159  27.886  26.370  1.00  0.00     0.016 A 
ATOM     91  C   UNL A   1      32.476  29.847  25.331  1.00  0.00     0.053 A 
ATOM     92  C   UNL A   1      34.063  29.128  26.991  1.00  0.00     0.027 A 
ATOM     93  C   UNL A   1      33.223  30.131  26.491  1.00  0.00     0.039 A 
BRANCH  86  94
ATOM     94  C   UNL A   1      30.911  29.237  22.773  1.00  0.00     0.087 C 
ATOM     95  C   UNL A   1      29.516  28.817  22.355  1.00  0.00     0.027 C 
ATOM     96  C   UNL A   1      29.702  29.805  23.468  1.00  0.00     0.027 C 
ENDBRANCH  86  94
BRANCH  93  97
ATOM     97  N   UNL A   1      33.132  31.330  27.165  1.00  0.00    -0.360 N 
ATOM     98  C   UNL A   1      34.173  31.801  28.081  1.00  0.00     0.178 C 
ATOM     99  C   UNL A   1      31.843  32.030  27.279  1.00  0.00     0.178 C 
ATOM    100  C   UNL A   1      34.344  33.332  27.898  1.00  0.00     0.282 C 
ATOM    101  C   UNL A   1      32.067  33.554  27.129  1.00  0.00     0.282 C 
ATOM    102  N   UNL A   1      33.091  34.111  28.046  1.00  0.00    -0.343 N 
ATOM    103  H   UNL A   1      33.266  35.088  27.811  1.00  0.00     0.346 HD
ATOM    104  H   UNL A   1      32.760  34.053  29.009  1.00  0.00     0.346 HD
ENDBRANCH  93  97
ENDBRANCH  81  83
ENDBRANCH  80  81
ENDBRANCH  79  80
ENDBRANCH  78  79
ENDBRANCH  77  78
ENDBRANCH  76  77
ENDBRANCH   1  76
TORSDOF 22
ENDMDL
