MODEL 1
REMARK VINA RESULT:     -10.2      0.000      0.000
REMARK SMILES O=C(CSc1ccc(NC(=O)c2cccc3ccccc23)cc1)OCCOCCOCCOC(=O)c1ccc(-c2c3nc(c(-c4c(F)cc(S(=O)(=O)[O-])cc4F)c4ccc([nH]4)c(-c4c(F)cc(S(=O)(=O)[O-])cc4F)c4nc(c(-c5c(F)cc(S(=O)(=O)[O-])cc5F)c5ccc2[nH]5)C=C4)C=C3)cc1
REMARK SMILES IDX 28 1 27 2 26 3 25 4 24 5 2 6 1 7 3 8 4 9 5 10 6 11 23 12
REMARK SMILES IDX 7 13 22 14 8 15 9 16 10 17 11 19 12 20 13 21 21 22 14 23
REMARK SMILES IDX 16 24 20 25 15 26 17 27 19 28 18 29 29 30 30 31 31 32 32 33
REMARK SMILES IDX 33 34 34 35 35 36 36 37 37 38 101 39 38 40 100 41 39 42
REMARK SMILES IDX 40 43 41 44 94 45 42 46 99 47 93 48 95 49 43 50 98 51 92 52
REMARK SMILES IDX 91 53 44 55 78 56 57 57 77 58 58 59 61 60 76 61 96 62 59 63
REMARK SMILES IDX 60 64 75 66 97 67 62 68 45 69 46 70 55 71 47 72 48 73 54 74
REMARK SMILES IDX 56 75 49 76 50 77 51 78 52 79 53 80 79 81 80 82 89 83 81 84
REMARK SMILES IDX 82 85 88 86 90 87 83 88 84 89 85 90 86 91 87 92 63 93 64 94
REMARK SMILES IDX 73 95 65 96 66 97 72 98 74 99 67 100 68 101 69 102 70 103
REMARK SMILES IDX 71 104
REMARK H PARENT 9 18 95 54 61 65
REMARK Flexibility Score: inf
ROOT
ATOM      1  C   UNL A   1      38.851  21.846  26.196  1.00  0.00     0.188 C 
ENDROOT
BRANCH   1   2
ATOM      2  O   UNL A   1      38.366  21.779  24.868  1.00  0.00    -0.376 OA
BRANCH   2   3
ATOM      3  C   UNL A   1      37.070  22.274  24.601  1.00  0.00     0.202 C 
BRANCH   3   4
ATOM      4  C   UNL A   1      36.142  21.913  25.753  1.00  0.00     0.261 C 
BRANCH   4   5
ATOM      5  O   UNL A   1      34.823  21.428  25.419  1.00  0.00    -0.463 OA
BRANCH   5   6
ATOM      6  C   UNL A   1      33.835  21.006  26.227  1.00  0.00     0.316 C 
ATOM      7  O   UNL A   1      33.971  21.155  27.443  1.00  0.00    -0.251 OA
BRANCH   6   8
ATOM      8  C   UNL A   1      32.625  20.270  25.686  1.00  0.00     0.197 C 
BRANCH   8   9
ATOM      9  S   UNL A   1      32.257  20.581  23.948  1.00  0.00    -0.114 SA
BRANCH   9  10
ATOM     10  C   UNL A   1      31.903  22.330  23.948  1.00  0.00     0.008 A 
ATOM     11  C   UNL A   1      32.234  23.200  22.910  1.00  0.00     0.017 A 
ATOM     12  C   UNL A   1      31.169  22.834  25.022  1.00  0.00     0.017 A 
ATOM     13  C   UNL A   1      31.661  24.461  22.821  1.00  0.00     0.027 A 
ATOM     14  C   UNL A   1      30.620  24.116  24.955  1.00  0.00     0.027 A 
ATOM     15  C   UNL A   1      30.758  24.868  23.786  1.00  0.00     0.041 A 
BRANCH  15  16
ATOM     16  N   UNL A   1      29.885  25.943  23.613  1.00  0.00    -0.322 N 
ATOM     17  C   UNL A   1      30.106  27.301  23.582  1.00  0.00     0.256 C 
ATOM     18  H   UNL A   1      28.943  25.685  23.494  1.00  0.00     0.170 HD
ATOM     19  O   UNL A   1      29.139  28.044  23.391  1.00  0.00    -0.269 OA
BRANCH  17  20
ATOM     20  C   UNL A   1      31.432  27.949  23.751  1.00  0.00     0.048 A 
ATOM     21  C   UNL A   1      32.090  28.209  22.536  1.00  0.00     0.014 A 
ATOM     22  C   UNL A   1      32.092  28.175  24.998  1.00  0.00    -0.006 A 
ATOM     23  C   UNL A   1      33.401  28.666  22.523  1.00  0.00     0.001 A 
ATOM     24  C   UNL A   1      33.440  28.626  24.957  1.00  0.00    -0.018 A 
ATOM     25  C   UNL A   1      31.519  27.999  26.285  1.00  0.00     0.009 A 
ATOM     26  C   UNL A   1      34.075  28.853  23.726  1.00  0.00     0.009 A 
ATOM     27  C   UNL A   1      34.156  28.858  26.143  1.00  0.00     0.009 A 
ATOM     28  C   UNL A   1      32.229  28.291  27.457  1.00  0.00     0.001 A 
ATOM     29  C   UNL A   1      33.551  28.706  27.387  1.00  0.00     0.001 A 
ENDBRANCH  17  20
ENDBRANCH  15  16
ENDBRANCH   9  10
ENDBRANCH   8   9
ENDBRANCH   6   8
ENDBRANCH   5   6
ENDBRANCH   4   5
ENDBRANCH   3   4
ENDBRANCH   2   3
ENDBRANCH   1   2
BRANCH   1  30
ATOM     30  C   UNL A   1      40.226  21.177  26.319  1.00  0.00     0.188 C 
BRANCH  30  31
ATOM     31  O   UNL A   1      41.084  21.511  27.405  1.00  0.00    -0.376 OA
BRANCH  31  32
ATOM     32  C   UNL A   1      41.390  22.870  27.670  1.00  0.00     0.202 C 
BRANCH  32  33
ATOM     33  C   UNL A   1      41.828  23.741  26.486  1.00  0.00     0.261 C 
BRANCH  33  34
ATOM     34  O   UNL A   1      40.878  24.740  26.064  1.00  0.00    -0.460 OA
BRANCH  34  35
ATOM     35  C   UNL A   1      41.298  26.021  26.183  1.00  0.00     0.338 C 
ATOM     36  O   UNL A   1      41.422  26.834  25.269  1.00  0.00    -0.246 OA
BRANCH  35  37
ATOM     37  C   UNL A   1      41.484  26.418  27.597  1.00  0.00     0.060 A 
ATOM     38  C   UNL A   1      40.374  26.333  28.449  1.00  0.00     0.016 A 
ATOM     39  C   UNL A   1      42.664  27.017  28.048  1.00  0.00     0.016 A 
ATOM     40  C   UNL A   1      40.403  26.928  29.713  1.00  0.00     0.010 A 
ATOM     41  C   UNL A   1      42.687  27.626  29.315  1.00  0.00     0.010 A 
ATOM     42  C   UNL A   1      41.537  27.640  30.127  1.00  0.00    -0.014 A 
BRANCH  42  43
ATOM     43  C   UNL A   1      41.406  28.606  31.255  1.00  0.00     0.031 A 
ATOM     44  C   UNL A   1      40.317  29.651  31.179  1.00  0.00     0.074 A 
ATOM     45  C   UNL A   1      42.176  28.534  32.357  1.00  0.00     0.049 A 
ATOM     46  N   UNL A   1      39.989  30.580  32.043  1.00  0.00    -0.248 NA
ATOM     47  C   UNL A   1      39.486  29.645  29.964  1.00  0.00     0.031 C 
ATOM     48  C   UNL A   1      43.233  27.553  32.591  1.00  0.00     0.029 A 
ATOM     49  N   UNL A   1      42.178  29.308  33.494  1.00  0.00    -0.354 N 
ATOM     50  C   UNL A   1      38.924  31.271  31.473  1.00  0.00     0.074 A 
ATOM     51  C   UNL A   1      38.682  30.675  30.177  1.00  0.00     0.031 C 
ATOM     52  C   UNL A   1      43.786  27.787  33.796  1.00  0.00     0.029 A 
ATOM     53  C   UNL A   1      43.136  28.944  34.412  1.00  0.00     0.049 A 
ATOM     54  H   UNL A   1      41.552  30.053  33.638  1.00  0.00     0.167 HD
ATOM     55  C   UNL A   1      38.201  32.298  31.980  1.00  0.00     0.037 A 
ATOM     56  C   UNL A   1      43.455  29.485  35.606  1.00  0.00     0.037 A 
ATOM     57  C   UNL A   1      38.425  32.889  33.273  1.00  0.00     0.049 A 
ATOM     58  C   UNL A   1      42.670  30.663  36.132  1.00  0.00     0.074 A 
ATOM     59  C   UNL A   1      37.729  33.920  33.880  1.00  0.00     0.029 A 
ATOM     60  N   UNL A   1      39.423  32.508  34.156  1.00  0.00    -0.354 N 
ATOM     61  N   UNL A   1      41.650  31.286  35.591  1.00  0.00    -0.248 NA
ATOM     62  C   UNL A   1      43.074  31.204  37.439  1.00  0.00     0.031 C 
ATOM     63  C   UNL A   1      38.334  34.194  35.111  1.00  0.00     0.029 A 
ATOM     64  C   UNL A   1      39.374  33.298  35.294  1.00  0.00     0.049 A 
ATOM     65  H   UNL A   1      40.071  31.784  33.999  1.00  0.00     0.167 HD
ATOM     66  C   UNL A   1      41.268  32.263  36.508  1.00  0.00     0.074 A 
ATOM     67  C   UNL A   1      42.164  32.147  37.639  1.00  0.00     0.031 C 
ATOM     68  C   UNL A   1      40.260  33.167  36.424  1.00  0.00     0.037 A 
BRANCH  55  69
ATOM     69  C   UNL A   1      37.110  32.869  31.117  1.00  0.00     0.058 A 
ATOM     70  C   UNL A   1      35.755  32.593  31.353  1.00  0.00     0.135 A 
ATOM     71  C   UNL A   1      37.428  33.724  30.048  1.00  0.00     0.135 A 
ATOM     72  F   UNL A   1      35.397  31.768  32.350  1.00  0.00    -0.206 F 
ATOM     73  C   UNL A   1      34.753  33.119  30.543  1.00  0.00     0.059 A 
ATOM     74  C   UNL A   1      36.441  34.283  29.242  1.00  0.00     0.059 A 
ATOM     75  F   UNL A   1      38.708  34.021  29.777  1.00  0.00    -0.206 F 
ATOM     76  C   UNL A   1      35.106  33.960  29.488  1.00  0.00     0.060 A 
BRANCH  76  77
ATOM     77  S   UNL A   1      33.799  34.633  28.440  1.00  0.00     0.124 S 
ATOM     78  O   UNL A   1      34.269  35.998  28.231  1.00  0.00    -0.237 OA
ATOM     79  O   UNL A   1      33.854  33.759  27.273  1.00  0.00    -0.237 OA
ATOM     80  O   UNL A   1      32.601  34.501  29.263  1.00  0.00    -0.744 OA
ENDBRANCH  76  77
ENDBRANCH  55  69
BRANCH  56  81
ATOM     81  C   UNL A   1      44.573  28.917  36.409  1.00  0.00     0.058 A 
ATOM     82  C   UNL A   1      45.857  29.480  36.367  1.00  0.00     0.135 A 
ATOM     83  C   UNL A   1      44.384  27.783  37.214  1.00  0.00     0.135 A 
ATOM     84  F   UNL A   1      46.094  30.553  35.597  1.00  0.00    -0.206 F 
ATOM     85  C   UNL A   1      46.919  28.933  37.082  1.00  0.00     0.059 A 
ATOM     86  C   UNL A   1      45.423  27.233  37.959  1.00  0.00     0.059 A 
ATOM     87  F   UNL A   1      43.174  27.209  37.294  1.00  0.00    -0.206 F 
ATOM     88  C   UNL A   1      46.690  27.810  37.878  1.00  0.00     0.060 A 
BRANCH  88  89
ATOM     89  S   UNL A   1      48.061  27.136  38.843  1.00  0.00     0.124 S 
ATOM     90  O   UNL A   1      48.846  26.467  37.812  1.00  0.00    -0.237 OA
ATOM     91  O   UNL A   1      48.652  28.340  39.417  1.00  0.00    -0.237 OA
ATOM     92  O   UNL A   1      47.395  26.256  39.800  1.00  0.00    -0.744 OA
ENDBRANCH  88  89
ENDBRANCH  56  81
BRANCH  68  93
ATOM     93  C   UNL A   1      40.029  34.071  37.607  1.00  0.00     0.058 A 
ATOM     94  C   UNL A   1      39.288  33.659  38.726  1.00  0.00     0.135 A 
ATOM     95  C   UNL A   1      40.593  35.358  37.635  1.00  0.00     0.135 A 
ATOM     96  F   UNL A   1      38.727  32.440  38.753  1.00  0.00    -0.206 F 
ATOM     97  C   UNL A   1      39.085  34.504  39.815  1.00  0.00     0.059 A 
ATOM     98  C   UNL A   1      40.427  36.208  38.724  1.00  0.00     0.059 A 
ATOM     99  F   UNL A   1      41.324  35.798  36.598  1.00  0.00    -0.206 F 
ATOM    100  C   UNL A   1      39.656  35.777  39.803  1.00  0.00     0.060 A 
BRANCH 100 101
ATOM    101  S   UNL A   1      39.395  36.862  41.224  1.00  0.00     0.124 S 
ATOM    102  O   UNL A   1      38.849  38.055  40.586  1.00  0.00    -0.237 OA
ATOM    103  O   UNL A   1      38.458  36.093  42.038  1.00  0.00    -0.237 OA
ATOM    104  O   UNL A   1      40.733  37.008  41.790  1.00  0.00    -0.744 OA
ENDBRANCH 100 101
ENDBRANCH  68  93
ENDBRANCH  42  43
ENDBRANCH  35  37
ENDBRANCH  34  35
ENDBRANCH  33  34
ENDBRANCH  32  33
ENDBRANCH  31  32
ENDBRANCH  30  31
ENDBRANCH   1  30
TORSDOF 24
ENDMDL
MODEL 2
REMARK VINA RESULT:     -10.1      2.077      8.349
REMARK SMILES O=C(CSc1ccc(NC(=O)c2cccc3ccccc23)cc1)OCCOCCOCCOC(=O)c1ccc(-c2c3nc(c(-c4c(F)cc(S(=O)(=O)[O-])cc4F)c4ccc([nH]4)c(-c4c(F)cc(S(=O)(=O)[O-])cc4F)c4nc(c(-c5c(F)cc(S(=O)(=O)[O-])cc5F)c5ccc2[nH]5)C=C4)C=C3)cc1
REMARK SMILES IDX 28 1 27 2 26 3 25 4 24 5 2 6 1 7 3 8 4 9 5 10 6 11 23 12
REMARK SMILES IDX 7 13 22 14 8 15 9 16 10 17 11 19 12 20 13 21 21 22 14 23
REMARK SMILES IDX 16 24 20 25 15 26 17 27 19 28 18 29 29 30 30 31 31 32 32 33
REMARK SMILES IDX 33 34 34 35 35 36 36 37 37 38 101 39 38 40 100 41 39 42
REMARK SMILES IDX 40 43 41 44 94 45 42 46 99 47 93 48 95 49 43 50 98 51 92 52
REMARK SMILES IDX 91 53 44 55 78 56 57 57 77 58 58 59 61 60 76 61 96 62 59 63
REMARK SMILES IDX 60 64 75 66 97 67 62 68 45 69 46 70 55 71 47 72 48 73 54 74
REMARK SMILES IDX 56 75 49 76 50 77 51 78 52 79 53 80 79 81 80 82 89 83 81 84
REMARK SMILES IDX 82 85 88 86 90 87 83 88 84 89 85 90 86 91 87 92 63 93 64 94
REMARK SMILES IDX 73 95 65 96 66 97 72 98 74 99 67 100 68 101 69 102 70 103
REMARK SMILES IDX 71 104
REMARK H PARENT 9 18 95 54 61 65
REMARK Flexibility Score: inf
ROOT
ATOM      1  C   UNL A   1      39.172  21.756  26.266  1.00  0.00     0.188 C 
ENDROOT
BRANCH   1   2
ATOM      2  O   UNL A   1      38.433  21.794  25.059  1.00  0.00    -0.376 OA
BRANCH   2   3
ATOM      3  C   UNL A   1      37.053  22.087  25.126  1.00  0.00     0.202 C 
BRANCH   3   4
ATOM      4  C   UNL A   1      36.291  20.847  25.576  1.00  0.00     0.261 C 
BRANCH   4   5
ATOM      5  O   UNL A   1      34.883  20.781  25.263  1.00  0.00    -0.463 OA
BRANCH   5   6
ATOM      6  C   UNL A   1      33.818  20.998  26.054  1.00  0.00     0.316 C 
ATOM      7  O   UNL A   1      34.009  21.137  27.265  1.00  0.00    -0.251 OA
BRANCH   6   8
ATOM      8  C   UNL A   1      32.404  20.973  25.510  1.00  0.00     0.197 C 
BRANCH   8   9
ATOM      9  S   UNL A   1      31.989  22.333  24.400  1.00  0.00    -0.114 SA
BRANCH   9  10
ATOM     10  C   UNL A   1      32.564  23.751  25.318  1.00  0.00     0.008 A 
ATOM     11  C   UNL A   1      33.897  24.157  25.387  1.00  0.00     0.017 A 
ATOM     12  C   UNL A   1      31.600  24.552  25.930  1.00  0.00     0.017 A 
ATOM     13  C   UNL A   1      34.238  25.424  25.839  1.00  0.00     0.027 A 
ATOM     14  C   UNL A   1      31.944  25.812  26.420  1.00  0.00     0.027 A 
ATOM     15  C   UNL A   1      33.243  26.294  26.241  1.00  0.00     0.041 A 
BRANCH  15  16
ATOM     16  N   UNL A   1      33.438  27.670  26.380  1.00  0.00    -0.322 N 
ATOM     17  C   UNL A   1      32.982  28.734  25.637  1.00  0.00     0.256 C 
ATOM     18  H   UNL A   1      34.003  27.923  27.146  1.00  0.00     0.170 HD
ATOM     19  O   UNL A   1      33.295  29.872  25.999  1.00  0.00    -0.269 OA
BRANCH  17  20
ATOM     20  C   UNL A   1      32.128  28.622  24.427  1.00  0.00     0.048 A 
ATOM     21  C   UNL A   1      30.997  29.457  24.458  1.00  0.00     0.014 A 
ATOM     22  C   UNL A   1      32.302  27.672  23.373  1.00  0.00    -0.006 A 
ATOM     23  C   UNL A   1      30.016  29.359  23.480  1.00  0.00     0.001 A 
ATOM     24  C   UNL A   1      31.274  27.580  22.395  1.00  0.00    -0.018 A 
ATOM     25  C   UNL A   1      33.419  26.813  23.207  1.00  0.00     0.009 A 
ATOM     26  C   UNL A   1      30.147  28.412  22.469  1.00  0.00     0.009 A 
ATOM     27  C   UNL A   1      31.371  26.661  21.337  1.00  0.00     0.009 A 
ATOM     28  C   UNL A   1      33.527  25.944  22.113  1.00  0.00     0.001 A 
ATOM     29  C   UNL A   1      32.497  25.857  21.187  1.00  0.00     0.001 A 
ENDBRANCH  17  20
ENDBRANCH  15  16
ENDBRANCH   9  10
ENDBRANCH   8   9
ENDBRANCH   6   8
ENDBRANCH   5   6
ENDBRANCH   4   5
ENDBRANCH   3   4
ENDBRANCH   2   3
ENDBRANCH   1   2
BRANCH   1  30
ATOM     30  C   UNL A   1      39.995  20.466  26.372  1.00  0.00     0.188 C 
BRANCH  30  31
ATOM     31  O   UNL A   1      41.080  20.389  27.291  1.00  0.00    -0.376 OA
BRANCH  31  32
ATOM     32  C   UNL A   1      42.106  21.368  27.253  1.00  0.00     0.202 C 
BRANCH  32  33
ATOM     33  C   UNL A   1      42.889  21.524  25.944  1.00  0.00     0.261 C 
BRANCH  33  34
ATOM     34  O   UNL A   1      42.422  22.562  25.059  1.00  0.00    -0.460 OA
BRANCH  34  35
ATOM     35  C   UNL A   1      43.198  23.670  25.010  1.00  0.00     0.338 C 
ATOM     36  O   UNL A   1      44.244  23.796  24.376  1.00  0.00    -0.246 OA
BRANCH  35  37
ATOM     37  C   UNL A   1      42.583  24.814  25.718  1.00  0.00     0.060 A 
ATOM     38  C   UNL A   1      43.381  25.945  25.944  1.00  0.00     0.016 A 
ATOM     39  C   UNL A   1      41.314  24.730  26.298  1.00  0.00     0.016 A 
ATOM     40  C   UNL A   1      42.958  26.947  26.822  1.00  0.00     0.010 A 
ATOM     41  C   UNL A   1      40.896  25.733  27.191  1.00  0.00     0.010 A 
ATOM     42  C   UNL A   1      41.743  26.812  27.507  1.00  0.00    -0.014 A 
BRANCH  42  43
ATOM     43  C   UNL A   1      41.510  27.641  28.725  1.00  0.00     0.031 A 
ATOM     44  C   UNL A   1      42.464  27.489  29.886  1.00  0.00     0.074 A 
ATOM     45  C   UNL A   1      40.525  28.556  28.795  1.00  0.00     0.049 A 
ATOM     46  N   UNL A   1      42.486  28.114  31.037  1.00  0.00    -0.248 NA
ATOM     47  C   UNL A   1      43.542  26.499  29.724  1.00  0.00     0.031 C 
ATOM     48  C   UNL A   1      39.558  28.844  27.739  1.00  0.00     0.029 A 
ATOM     49  N   UNL A   1      40.182  29.419  29.810  1.00  0.00    -0.354 N 
ATOM     50  C   UNL A   1      43.568  27.587  31.736  1.00  0.00     0.074 A 
ATOM     51  C   UNL A   1      44.159  26.571  30.893  1.00  0.00     0.031 C 
ATOM     52  C   UNL A   1      38.727  29.815  28.162  1.00  0.00     0.029 A 
ATOM     53  C   UNL A   1      39.090  30.204  29.525  1.00  0.00     0.049 A 
ATOM     54  H   UNL A   1      40.673  29.470  30.661  1.00  0.00     0.167 HD
ATOM     55  C   UNL A   1      44.039  27.923  32.961  1.00  0.00     0.037 A 
ATOM     56  C   UNL A   1      38.453  31.126  30.278  1.00  0.00     0.037 A 
ATOM     57  C   UNL A   1      43.467  28.941  33.802  1.00  0.00     0.049 A 
ATOM     58  C   UNL A   1      38.964  31.449  31.662  1.00  0.00     0.074 A 
ATOM     59  C   UNL A   1      43.891  29.364  35.050  1.00  0.00     0.029 A 
ATOM     60  N   UNL A   1      42.345  29.691  33.486  1.00  0.00    -0.354 N 
ATOM     61  N   UNL A   1      40.004  30.960  32.296  1.00  0.00    -0.248 NA
ATOM     62  C   UNL A   1      38.220  32.461  32.428  1.00  0.00     0.031 C 
ATOM     63  C   UNL A   1      42.999  30.339  35.509  1.00  0.00     0.029 A 
ATOM     64  C   UNL A   1      42.050  30.561  34.524  1.00  0.00     0.049 A 
ATOM     65  H   UNL A   1      41.834  29.618  32.649  1.00  0.00     0.167 HD
ATOM     66  C   UNL A   1      40.060  31.633  33.515  1.00  0.00     0.074 A 
ATOM     67  C   UNL A   1      38.952  32.564  33.529  1.00  0.00     0.031 C 
ATOM     68  C   UNL A   1      40.954  31.497  34.526  1.00  0.00     0.037 A 
BRANCH  55  69
ATOM     69  C   UNL A   1      45.226  27.157  33.479  1.00  0.00     0.058 A 
ATOM     70  C   UNL A   1      46.540  27.622  33.314  1.00  0.00     0.135 A 
ATOM     71  C   UNL A   1      45.041  25.949  34.171  1.00  0.00     0.135 A 
ATOM     72  F   UNL A   1      46.774  28.761  32.644  1.00  0.00    -0.206 F 
ATOM     73  C   UNL A   1      47.632  26.901  33.788  1.00  0.00     0.059 A 
ATOM     74  C   UNL A   1      46.116  25.226  34.678  1.00  0.00     0.059 A 
ATOM     75  F   UNL A   1      43.806  25.459  34.357  1.00  0.00    -0.206 F 
ATOM     76  C   UNL A   1      47.409  25.702  34.467  1.00  0.00     0.060 A 
BRANCH  76  77
ATOM     77  S   UNL A   1      48.834  24.773  35.073  1.00  0.00     0.124 S 
ATOM     78  O   UNL A   1      48.732  24.995  36.512  1.00  0.00    -0.237 OA
ATOM     79  O   UNL A   1      48.539  23.418  34.619  1.00  0.00    -0.237 OA
ATOM     80  O   UNL A   1      49.966  25.419  34.418  1.00  0.00    -0.744 OA
ENDBRANCH  76  77
ENDBRANCH  55  69
BRANCH  56  81
ATOM     81  C   UNL A   1      37.254  31.828  29.744  1.00  0.00     0.058 A 
ATOM     82  C   UNL A   1      37.371  33.045  29.056  1.00  0.00     0.135 A 
ATOM     83  C   UNL A   1      35.965  31.307  29.934  1.00  0.00     0.135 A 
ATOM     84  F   UNL A   1      38.580  33.594  28.865  1.00  0.00    -0.206 F 
ATOM     85  C   UNL A   1      36.253  33.729  28.586  1.00  0.00     0.059 A 
ATOM     86  C   UNL A   1      34.833  31.959  29.452  1.00  0.00     0.059 A 
ATOM     87  F   UNL A   1      35.797  30.144  30.581  1.00  0.00    -0.206 F 
ATOM     88  C   UNL A   1      34.987  33.176  28.787  1.00  0.00     0.060 A 
BRANCH  88  89
ATOM     89  S   UNL A   1      33.545  34.045  28.132  1.00  0.00     0.124 S 
ATOM     90  O   UNL A   1      32.815  32.959  27.487  1.00  0.00    -0.237 OA
ATOM     91  O   UNL A   1      32.942  34.592  29.342  1.00  0.00    -0.237 OA
ATOM     92  O   UNL A   1      34.133  35.033  27.231  1.00  0.00    -0.744 OA
ENDBRANCH  88  89
ENDBRANCH  56  81
BRANCH  68  93
ATOM     93  C   UNL A   1      40.812  32.412  35.714  1.00  0.00     0.058 A 
ATOM     94  C   UNL A   1      41.573  33.584  35.848  1.00  0.00     0.135 A 
ATOM     95  C   UNL A   1      39.869  32.127  36.717  1.00  0.00     0.135 A 
ATOM     96  F   UNL A   1      42.488  33.904  34.920  1.00  0.00    -0.206 F 
ATOM     97  C   UNL A   1      41.429  34.423  36.950  1.00  0.00     0.059 A 
ATOM     98  C   UNL A   1      39.689  32.966  37.813  1.00  0.00     0.059 A 
ATOM     99  F   UNL A   1      39.104  31.027  36.633  1.00  0.00    -0.206 F 
ATOM    100  C   UNL A   1      40.487  34.104  37.929  1.00  0.00     0.060 A 
BRANCH 100 101
ATOM    101  S   UNL A   1      40.301  35.203  39.350  1.00  0.00     0.124 S 
ATOM    102  O   UNL A   1      39.382  34.444  40.191  1.00  0.00    -0.237 OA
ATOM    103  O   UNL A   1      41.671  35.311  39.845  1.00  0.00    -0.237 OA
ATOM    104  O   UNL A   1      39.755  36.425  38.766  1.00  0.00    -0.744 OA
ENDBRANCH 100 101
ENDBRANCH  68  93
ENDBRANCH  42  43
ENDBRANCH  35  37
ENDBRANCH  34  35
ENDBRANCH  33  34
ENDBRANCH  32  33
ENDBRANCH  31  32
ENDBRANCH  30  31
ENDBRANCH   1  30
TORSDOF 24
ENDMDL
MODEL 3
REMARK VINA RESULT:      -9.5      5.691     10.871
REMARK SMILES O=C(CSc1ccc(NC(=O)c2cccc3ccccc23)cc1)OCCOCCOCCOC(=O)c1ccc(-c2c3nc(c(-c4c(F)cc(S(=O)(=O)[O-])cc4F)c4ccc([nH]4)c(-c4c(F)cc(S(=O)(=O)[O-])cc4F)c4nc(c(-c5c(F)cc(S(=O)(=O)[O-])cc5F)c5ccc2[nH]5)C=C4)C=C3)cc1
REMARK SMILES IDX 28 1 27 2 26 3 25 4 24 5 2 6 1 7 3 8 4 9 5 10 6 11 23 12
REMARK SMILES IDX 7 13 22 14 8 15 9 16 10 17 11 19 12 20 13 21 21 22 14 23
REMARK SMILES IDX 16 24 20 25 15 26 17 27 19 28 18 29 29 30 30 31 31 32 32 33
REMARK SMILES IDX 33 34 34 35 35 36 36 37 37 38 101 39 38 40 100 41 39 42
REMARK SMILES IDX 40 43 41 44 94 45 42 46 99 47 93 48 95 49 43 50 98 51 92 52
REMARK SMILES IDX 91 53 44 55 78 56 57 57 77 58 58 59 61 60 76 61 96 62 59 63
REMARK SMILES IDX 60 64 75 66 97 67 62 68 45 69 46 70 55 71 47 72 48 73 54 74
REMARK SMILES IDX 56 75 49 76 50 77 51 78 52 79 53 80 79 81 80 82 89 83 81 84
REMARK SMILES IDX 82 85 88 86 90 87 83 88 84 89 85 90 86 91 87 92 63 93 64 94
REMARK SMILES IDX 73 95 65 96 66 97 72 98 74 99 67 100 68 101 69 102 70 103
REMARK SMILES IDX 71 104
REMARK H PARENT 9 18 95 54 61 65
REMARK Flexibility Score: inf
ROOT
ATOM      1  C   UNL A   1      32.829  36.025  30.118  1.00  0.00     0.188 C 
ENDROOT
BRANCH   1   2
ATOM      2  O   UNL A   1      33.092  34.663  29.833  1.00  0.00    -0.376 OA
BRANCH   2   3
ATOM      3  C   UNL A   1      34.417  34.288  29.519  1.00  0.00     0.202 C 
BRANCH   3   4
ATOM      4  C   UNL A   1      34.505  33.920  28.044  1.00  0.00     0.261 C 
BRANCH   4   5
ATOM      5  O   UNL A   1      35.703  33.246  27.596  1.00  0.00    -0.463 OA
BRANCH   5   6
ATOM      6  C   UNL A   1      36.417  32.279  28.197  1.00  0.00     0.316 C 
ATOM      7  O   UNL A   1      37.458  32.597  28.776  1.00  0.00    -0.251 OA
BRANCH   6   8
ATOM      8  C   UNL A   1      36.026  30.819  28.091  1.00  0.00     0.197 C 
BRANCH   8   9
ATOM      9  S   UNL A   1      36.325  29.839  29.576  1.00  0.00    -0.114 SA
BRANCH   9  10
ATOM     10  C   UNL A   1      37.903  29.087  29.215  1.00  0.00     0.008 A 
ATOM     11  C   UNL A   1      38.534  29.140  27.972  1.00  0.00     0.017 A 
ATOM     12  C   UNL A   1      38.583  28.487  30.274  1.00  0.00     0.017 A 
ATOM     13  C   UNL A   1      39.878  28.823  27.837  1.00  0.00     0.027 A 
ATOM     14  C   UNL A   1      39.926  28.132  30.133  1.00  0.00     0.027 A 
ATOM     15  C   UNL A   1      40.602  28.435  28.949  1.00  0.00     0.041 A 
BRANCH  15  16
ATOM     16  N   UNL A   1      41.997  28.430  28.992  1.00  0.00    -0.322 N 
ATOM     17  C   UNL A   1      42.918  27.499  28.569  1.00  0.00     0.256 C 
ATOM     18  H   UNL A   1      42.393  29.234  29.398  1.00  0.00     0.170 HD
ATOM     19  O   UNL A   1      44.116  27.760  28.713  1.00  0.00    -0.269 OA
BRANCH  17  20
ATOM     20  C   UNL A   1      42.582  26.197  27.939  1.00  0.00     0.048 A 
ATOM     21  C   UNL A   1      41.515  25.528  28.564  1.00  0.00     0.014 A 
ATOM     22  C   UNL A   1      43.326  25.564  26.894  1.00  0.00    -0.006 A 
ATOM     23  C   UNL A   1      41.179  24.231  28.197  1.00  0.00     0.001 A 
ATOM     24  C   UNL A   1      42.972  24.230  26.551  1.00  0.00    -0.018 A 
ATOM     25  C   UNL A   1      44.386  26.152  26.157  1.00  0.00     0.009 A 
ATOM     26  C   UNL A   1      41.917  23.583  27.212  1.00  0.00     0.009 A 
ATOM     27  C   UNL A   1      43.667  23.541  25.543  1.00  0.00     0.009 A 
ATOM     28  C   UNL A   1      45.029  25.471  25.115  1.00  0.00     0.001 A 
ATOM     29  C   UNL A   1      44.680  24.161  24.818  1.00  0.00     0.001 A 
ENDBRANCH  17  20
ENDBRANCH  15  16
ENDBRANCH   9  10
ENDBRANCH   8   9
ENDBRANCH   6   8
ENDBRANCH   5   6
ENDBRANCH   4   5
ENDBRANCH   3   4
ENDBRANCH   2   3
ENDBRANCH   1   2
BRANCH   1  30
ATOM     30  C   UNL A   1      33.702  36.527  31.275  1.00  0.00     0.188 C 
BRANCH  30  31
ATOM     31  O   UNL A   1      33.417  36.120  32.609  1.00  0.00    -0.376 OA
BRANCH  31  32
ATOM     32  C   UNL A   1      32.876  34.831  32.852  1.00  0.00     0.202 C 
BRANCH  32  33
ATOM     33  C   UNL A   1      33.857  33.709  33.213  1.00  0.00     0.261 C 
BRANCH  33  34
ATOM     34  O   UNL A   1      35.249  34.083  33.235  1.00  0.00    -0.460 OA
BRANCH  34  35
ATOM     35  C   UNL A   1      35.939  33.673  34.325  1.00  0.00     0.338 C 
ATOM     36  O   UNL A   1      35.621  33.857  35.499  1.00  0.00    -0.246 OA
BRANCH  35  37
ATOM     37  C   UNL A   1      37.101  32.831  33.965  1.00  0.00     0.060 A 
ATOM     38  C   UNL A   1      38.269  32.970  34.729  1.00  0.00     0.016 A 
ATOM     39  C   UNL A   1      37.116  32.044  32.810  1.00  0.00     0.016 A 
ATOM     40  C   UNL A   1      39.472  32.409  34.294  1.00  0.00     0.010 A 
ATOM     41  C   UNL A   1      38.330  31.490  32.367  1.00  0.00     0.010 A 
ATOM     42  C   UNL A   1      39.526  31.725  33.072  1.00  0.00    -0.014 A 
BRANCH  42  43
ATOM     43  C   UNL A   1      40.853  31.512  32.426  1.00  0.00     0.031 A 
ATOM     44  C   UNL A   1      41.386  32.594  31.515  1.00  0.00     0.074 A 
ATOM     45  C   UNL A   1      41.611  30.428  32.677  1.00  0.00     0.049 A 
ATOM     46  N   UNL A   1      42.520  32.652  30.861  1.00  0.00    -0.248 NA
ATOM     47  C   UNL A   1      40.522  33.769  31.318  1.00  0.00     0.031 C 
ATOM     48  C   UNL A   1      41.248  29.327  33.566  1.00  0.00     0.029 A 
ATOM     49  N   UNL A   1      42.854  30.082  32.203  1.00  0.00    -0.354 N 
ATOM     50  C   UNL A   1      42.500  33.860  30.172  1.00  0.00     0.074 A 
ATOM     51  C   UNL A   1      41.230  34.490  30.461  1.00  0.00     0.031 C 
ATOM     52  C   UNL A   1      42.246  28.424  33.571  1.00  0.00     0.029 A 
ATOM     53  C   UNL A   1      43.310  28.872  32.672  1.00  0.00     0.049 A 
ATOM     54  H   UNL A   1      43.371  30.648  31.586  1.00  0.00     0.167 HD
ATOM     55  C   UNL A   1      43.452  34.408  29.380  1.00  0.00     0.037 A 
ATOM     56  C   UNL A   1      44.450  28.201  32.403  1.00  0.00     0.037 A 
ATOM     57  C   UNL A   1      44.724  33.797  29.095  1.00  0.00     0.049 A 
ATOM     58  C   UNL A   1      45.477  28.806  31.476  1.00  0.00     0.074 A 
ATOM     59  C   UNL A   1      45.761  34.289  28.320  1.00  0.00     0.029 A 
ATOM     60  N   UNL A   1      45.132  32.560  29.568  1.00  0.00    -0.354 N 
ATOM     61  N   UNL A   1      45.453  29.961  30.854  1.00  0.00    -0.248 NA
ATOM     62  C   UNL A   1      46.695  28.019  31.225  1.00  0.00     0.031 C 
ATOM     63  C   UNL A   1      46.778  33.328  28.287  1.00  0.00     0.029 A 
ATOM     64  C   UNL A   1      46.396  32.262  29.085  1.00  0.00     0.049 A 
ATOM     65  H   UNL A   1      44.602  31.979  30.160  1.00  0.00     0.167 HD
ATOM     66  C   UNL A   1      46.665  30.054  30.173  1.00  0.00     0.074 A 
ATOM     67  C   UNL A   1      47.400  28.841  30.461  1.00  0.00     0.031 C 
ATOM     68  C   UNL A   1      47.130  31.058  29.388  1.00  0.00     0.037 A 
BRANCH  55  69
ATOM     69  C   UNL A   1      43.141  35.732  28.737  1.00  0.00     0.058 A 
ATOM     70  C   UNL A   1      42.587  35.821  27.450  1.00  0.00     0.135 A 
ATOM     71  C   UNL A   1      43.380  36.929  29.431  1.00  0.00     0.135 A 
ATOM     72  F   UNL A   1      42.356  34.707  26.736  1.00  0.00    -0.206 F 
ATOM     73  C   UNL A   1      42.311  37.050  26.860  1.00  0.00     0.059 A 
ATOM     74  C   UNL A   1      43.086  38.169  28.871  1.00  0.00     0.059 A 
ATOM     75  F   UNL A   1      43.908  36.903  30.664  1.00  0.00    -0.206 F 
ATOM     76  C   UNL A   1      42.567  38.219  27.578  1.00  0.00     0.060 A 
BRANCH  76  77
ATOM     77  S   UNL A   1      42.210  39.809  26.800  1.00  0.00     0.124 S 
ATOM     78  O   UNL A   1      41.064  39.470  25.963  1.00  0.00    -0.237 OA
ATOM     79  O   UNL A   1      41.925  40.661  27.949  1.00  0.00    -0.237 OA
ATOM     80  O   UNL A   1      43.441  40.121  26.081  1.00  0.00    -0.744 OA
ENDBRANCH  76  77
ENDBRANCH  55  69
BRANCH  56  81
ATOM     81  C   UNL A   1      44.698  26.871  33.025  1.00  0.00     0.058 A 
ATOM     82  C   UNL A   1      44.337  25.684  32.370  1.00  0.00     0.135 A 
ATOM     83  C   UNL A   1      45.279  26.763  34.297  1.00  0.00     0.135 A 
ATOM     84  F   UNL A   1      43.761  25.735  31.159  1.00  0.00    -0.206 F 
ATOM     85  C   UNL A   1      44.529  24.438  32.959  1.00  0.00     0.059 A 
ATOM     86  C   UNL A   1      45.504  25.528  34.897  1.00  0.00     0.059 A 
ATOM     87  F   UNL A   1      45.648  27.868  34.965  1.00  0.00    -0.206 F 
ATOM     88  C   UNL A   1      45.116  24.370  34.223  1.00  0.00     0.060 A 
BRANCH  88  89
ATOM     89  S   UNL A   1      45.408  22.746  34.959  1.00  0.00     0.124 S 
ATOM     90  O   UNL A   1      46.783  22.480  34.552  1.00  0.00    -0.237 OA
ATOM     91  O   UNL A   1      45.201  23.013  36.379  1.00  0.00    -0.237 OA
ATOM     92  O   UNL A   1      44.389  21.907  34.332  1.00  0.00    -0.744 OA
ENDBRANCH  88  89
ENDBRANCH  56  81
BRANCH  68  93
ATOM     93  C   UNL A   1      48.520  30.921  28.825  1.00  0.00     0.058 A 
ATOM     94  C   UNL A   1      49.654  31.373  29.519  1.00  0.00     0.135 A 
ATOM     95  C   UNL A   1      48.722  30.291  27.585  1.00  0.00     0.135 A 
ATOM     96  F   UNL A   1      49.519  31.982  30.708  1.00  0.00    -0.206 F 
ATOM     97  C   UNL A   1      50.934  31.237  28.988  1.00  0.00     0.059 A 
ATOM     98  C   UNL A   1      49.995  30.119  27.048  1.00  0.00     0.059 A 
ATOM     99  F   UNL A   1      47.675  29.826  26.884  1.00  0.00    -0.206 F 
ATOM    100  C   UNL A   1      51.094  30.612  27.751  1.00  0.00     0.060 A 
BRANCH 100 101
ATOM    101  S   UNL A   1      52.759  30.431  27.075  1.00  0.00     0.124 S 
ATOM    102  O   UNL A   1      52.653  31.182  25.829  1.00  0.00    -0.237 OA
ATOM    103  O   UNL A   1      53.587  31.039  28.113  1.00  0.00    -0.237 OA
ATOM    104  O   UNL A   1      52.912  28.987  26.928  1.00  0.00    -0.744 OA
ENDBRANCH 100 101
ENDBRANCH  68  93
ENDBRANCH  42  43
ENDBRANCH  35  37
ENDBRANCH  34  35
ENDBRANCH  33  34
ENDBRANCH  32  33
ENDBRANCH  31  32
ENDBRANCH  30  31
ENDBRANCH   1  30
TORSDOF 24
ENDMDL
