MODEL 1
REMARK VINA RESULT:     -10.6      0.000      0.000
REMARK SMILES O=C(OCCOCCOCCOC(=O)c1ccccc1/C=C1/SC(=S)N(C2CCCC2)C1=O)c1ccc(-c2c3nc(c(-c4c(F)cc(S(=O)(=O)[O-])cc4F)c4ccc([nH]4)c(-c4c(F)cc(S(=O)(=O)[O-])cc4F)c4nc(c(-c5c(F)cc(S(=O)(=O)[O-])cc5F)c5ccc2[nH]5)C=C4)C=C3)cc1
REMARK SMILES IDX 7 1 6 2 5 3 4 4 3 5 2 6 1 7 34 8 35 9 99 10 36 11 98 12
REMARK SMILES IDX 37 13 38 14 39 15 92 16 40 17 97 18 91 19 93 20 41 21 96 22
REMARK SMILES IDX 90 23 89 24 42 26 76 27 55 28 75 29 56 30 59 31 74 32 94 33
REMARK SMILES IDX 57 34 58 35 73 37 95 38 60 39 43 40 44 41 53 42 45 43 46 44
REMARK SMILES IDX 52 45 54 46 47 47 48 48 49 49 50 50 51 51 77 52 78 53 87 54
REMARK SMILES IDX 79 55 80 56 86 57 88 58 81 59 82 60 83 61 84 62 85 63 61 64
REMARK SMILES IDX 62 65 71 66 63 67 64 68 70 69 72 70 65 71 66 72 67 73 68 74
REMARK SMILES IDX 69 75 8 76 9 77 10 78 11 79 12 80 13 81 14 82 15 83 16 84
REMARK SMILES IDX 20 85 17 86 19 87 18 88 21 89 22 90 23 91 32 92 24 93 26 94
REMARK SMILES IDX 33 95 25 96 27 97 28 98 31 99 29 100 30 101
REMARK H PARENT 93 25 59 36
REMARK Flexibility Score: inf
ROOT
ATOM      1  C   UNL A   1      41.644  21.154  26.367  1.00  0.00     0.188 C 
ENDROOT
BRANCH   1   2
ATOM      2  O   UNL A   1      42.958  21.644  26.658  1.00  0.00    -0.376 OA
BRANCH   2   3
ATOM      3  C   UNL A   1      43.379  22.710  25.808  1.00  0.00     0.202 C 
BRANCH   3   4
ATOM      4  C   UNL A   1      44.066  23.859  26.553  1.00  0.00     0.261 C 
BRANCH   4   5
ATOM      5  O   UNL A   1      43.822  25.127  25.923  1.00  0.00    -0.460 OA
BRANCH   5   6
ATOM      6  C   UNL A   1      42.705  25.892  26.027  1.00  0.00     0.338 C 
ATOM      7  O   UNL A   1      41.880  25.864  25.114  1.00  0.00    -0.246 OA
BRANCH   6   8
ATOM      8  C   UNL A   1      42.391  26.715  27.234  1.00  0.00     0.060 A 
ATOM      9  C   UNL A   1      42.950  27.963  27.511  1.00  0.00     0.016 A 
ATOM     10  C   UNL A   1      41.403  26.225  28.105  1.00  0.00     0.016 A 
ATOM     11  C   UNL A   1      42.634  28.655  28.679  1.00  0.00     0.010 A 
ATOM     12  C   UNL A   1      41.028  26.949  29.244  1.00  0.00     0.010 A 
ATOM     13  C   UNL A   1      41.666  28.158  29.553  1.00  0.00    -0.014 A 
BRANCH  13  14
ATOM     14  C   UNL A   1      41.359  28.890  30.804  1.00  0.00     0.031 A 
ATOM     15  C   UNL A   1      40.241  29.887  30.817  1.00  0.00     0.074 A 
ATOM     16  C   UNL A   1      42.040  28.628  31.935  1.00  0.00     0.049 A 
ATOM     17  N   UNL A   1      39.881  30.705  31.769  1.00  0.00    -0.248 NA
ATOM     18  C   UNL A   1      39.401  29.957  29.610  1.00  0.00     0.031 C 
ATOM     19  C   UNL A   1      43.069  27.598  32.075  1.00  0.00     0.029 A 
ATOM     20  N   UNL A   1      41.975  29.202  33.180  1.00  0.00    -0.354 N 
ATOM     21  C   UNL A   1      38.779  31.391  31.278  1.00  0.00     0.074 A 
ATOM     22  C   UNL A   1      38.538  30.909  29.937  1.00  0.00     0.031 C 
ATOM     23  C   UNL A   1      43.551  27.635  33.326  1.00  0.00     0.029 A 
ATOM     24  C   UNL A   1      42.939  28.737  34.043  1.00  0.00     0.049 A 
ATOM     25  H   UNL A   1      41.307  29.880  33.431  1.00  0.00     0.167 HD
ATOM     26  C   UNL A   1      38.034  32.331  31.904  1.00  0.00     0.037 A 
ATOM     27  C   UNL A   1      43.343  29.181  35.247  1.00  0.00     0.037 A 
ATOM     28  C   UNL A   1      38.278  32.787  33.245  1.00  0.00     0.049 A 
ATOM     29  C   UNL A   1      42.609  30.334  35.858  1.00  0.00     0.074 A 
ATOM     30  C   UNL A   1      37.564  33.713  33.983  1.00  0.00     0.029 A 
ATOM     31  N   UNL A   1      39.326  32.357  34.045  1.00  0.00    -0.354 N 
ATOM     32  N   UNL A   1      41.571  30.979  35.384  1.00  0.00    -0.248 NA
ATOM     33  C   UNL A   1      43.089  30.823  37.155  1.00  0.00     0.031 C 
ATOM     34  C   UNL A   1      38.208  33.877  35.215  1.00  0.00     0.029 A 
ATOM     35  C   UNL A   1      39.304  33.029  35.255  1.00  0.00     0.049 A 
ATOM     36  H   UNL A   1      39.988  31.674  33.791  1.00  0.00     0.167 HD
ATOM     37  C   UNL A   1      41.262  31.943  36.331  1.00  0.00     0.074 A 
ATOM     38  C   UNL A   1      42.218  31.790  37.411  1.00  0.00     0.031 C 
ATOM     39  C   UNL A   1      40.271  32.865  36.309  1.00  0.00     0.037 A 
BRANCH  26  40
ATOM     40  C   UNL A   1      36.910  32.946  31.128  1.00  0.00     0.058 A 
ATOM     41  C   UNL A   1      37.140  33.913  30.138  1.00  0.00     0.135 A 
ATOM     42  C   UNL A   1      35.588  32.546  31.366  1.00  0.00     0.135 A 
ATOM     43  F   UNL A   1      38.386  34.349  29.893  1.00  0.00    -0.206 F 
ATOM     44  C   UNL A   1      36.091  34.471  29.415  1.00  0.00     0.059 A 
ATOM     45  C   UNL A   1      34.525  33.078  30.644  1.00  0.00     0.059 A 
ATOM     46  F   UNL A   1      35.318  31.634  32.314  1.00  0.00    -0.206 F 
ATOM     47  C   UNL A   1      34.786  34.047  29.676  1.00  0.00     0.060 A 
BRANCH  47  48
ATOM     48  S   UNL A   1      33.435  34.774  28.725  1.00  0.00     0.124 S 
ATOM     49  O   UNL A   1      32.455  35.046  29.773  1.00  0.00    -0.237 OA
ATOM     50  O   UNL A   1      34.067  35.946  28.130  1.00  0.00    -0.237 OA
ATOM     51  O   UNL A   1      33.073  33.715  27.787  1.00  0.00    -0.744 OA
ENDBRANCH  47  48
ENDBRANCH  26  40
BRANCH  27  52
ATOM     52  C   UNL A   1      44.555  28.609  35.893  1.00  0.00     0.058 A 
ATOM     53  C   UNL A   1      44.472  27.577  36.838  1.00  0.00     0.135 A 
ATOM     54  C   UNL A   1      45.832  29.103  35.577  1.00  0.00     0.135 A 
ATOM     55  F   UNL A   1      43.277  27.071  37.173  1.00  0.00    -0.206 F 
ATOM     56  C   UNL A   1      45.609  27.070  37.464  1.00  0.00     0.059 A 
ATOM     57  C   UNL A   1      46.984  28.601  36.173  1.00  0.00     0.059 A 
ATOM     58  F   UNL A   1      45.971  30.076  34.662  1.00  0.00    -0.206 F 
ATOM     59  C   UNL A   1      46.859  27.595  37.129  1.00  0.00     0.060 A 
BRANCH  59  60
ATOM     60  S   UNL A   1      48.331  26.924  37.936  1.00  0.00     0.124 S 
ATOM     61  O   UNL A   1      47.741  25.987  38.884  1.00  0.00    -0.237 OA
ATOM     62  O   UNL A   1      49.053  26.333  36.815  1.00  0.00    -0.237 OA
ATOM     63  O   UNL A   1      48.955  28.108  38.521  1.00  0.00    -0.744 OA
ENDBRANCH  59  60
ENDBRANCH  27  52
BRANCH  39  64
ATOM     64  C   UNL A   1      40.170  33.774  37.494  1.00  0.00     0.058 A 
ATOM     65  C   UNL A   1      39.307  33.481  38.560  1.00  0.00     0.135 A 
ATOM     66  C   UNL A   1      40.978  34.916  37.585  1.00  0.00     0.135 A 
ATOM     67  F   UNL A   1      38.505  32.407  38.505  1.00  0.00    -0.206 F 
ATOM     68  C   UNL A   1      39.245  34.298  39.681  1.00  0.00     0.059 A 
ATOM     69  C   UNL A   1      40.947  35.737  38.706  1.00  0.00     0.059 A 
ATOM     70  F   UNL A   1      41.818  35.232  36.587  1.00  0.00    -0.206 F 
ATOM     71  C   UNL A   1      40.072  35.422  39.746  1.00  0.00     0.060 A 
BRANCH  71  72
ATOM     72  S   UNL A   1      40.025  36.448  41.230  1.00  0.00     0.124 S 
ATOM     73  O   UNL A   1      38.742  36.067  41.809  1.00  0.00    -0.237 OA
ATOM     74  O   UNL A   1      41.208  36.000  41.958  1.00  0.00    -0.237 OA
ATOM     75  O   UNL A   1      40.100  37.807  40.702  1.00  0.00    -0.744 OA
ENDBRANCH  71  72
ENDBRANCH  39  64
ENDBRANCH  13  14
ENDBRANCH   6   8
ENDBRANCH   5   6
ENDBRANCH   4   5
ENDBRANCH   3   4
ENDBRANCH   2   3
ENDBRANCH   1   2
BRANCH   1  76
ATOM     76  C   UNL A   1      40.607  22.001  27.107  1.00  0.00     0.188 C 
BRANCH  76  77
ATOM     77  O   UNL A   1      39.310  22.024  26.501  1.00  0.00    -0.376 OA
BRANCH  77  78
ATOM     78  C   UNL A   1      38.656  23.285  26.400  1.00  0.00     0.202 C 
BRANCH  78  79
ATOM     79  C   UNL A   1      37.627  23.461  25.277  1.00  0.00     0.261 C 
BRANCH  79  80
ATOM     80  O   UNL A   1      37.440  22.353  24.379  1.00  0.00    -0.460 OA
BRANCH  80  81
ATOM     81  C   UNL A   1      36.379  22.505  23.555  1.00  0.00     0.338 C 
ATOM     82  O   UNL A   1      36.410  22.935  22.408  1.00  0.00    -0.246 OA
BRANCH  81  83
ATOM     83  C   UNL A   1      35.103  22.180  24.209  1.00  0.00     0.067 A 
ATOM     84  C   UNL A   1      35.116  21.209  25.218  1.00  0.00     0.016 A 
ATOM     85  C   UNL A   1      33.889  22.647  23.666  1.00  0.00    -0.010 A 
ATOM     86  C   UNL A   1      33.910  20.682  25.679  1.00  0.00     0.001 A 
ATOM     87  C   UNL A   1      32.696  22.054  24.089  1.00  0.00     0.009 A 
ATOM     88  C   UNL A   1      32.707  21.084  25.097  1.00  0.00     0.001 A 
BRANCH  85  89
ATOM     89  C   UNL A   1      33.833  23.753  22.695  1.00  0.00     0.030 C 
ATOM     90  C   UNL A   1      33.808  25.045  23.041  1.00  0.00     0.081 C 
ATOM     91  S   UNL A   1      33.285  26.315  22.014  1.00  0.00    -0.054 SA
ATOM     92  C   UNL A   1      33.950  25.560  24.420  1.00  0.00     0.266 C 
ATOM     93  C   UNL A   1      32.762  27.292  23.397  1.00  0.00     0.148 C 
ATOM     94  N   UNL A   1      33.169  26.696  24.573  1.00  0.00    -0.290 N 
ATOM     95  O   UNL A   1      34.668  25.045  25.267  1.00  0.00    -0.268 OA
ATOM     96  S   UNL A   1      31.884  28.693  23.156  1.00  0.00    -0.052 S 
BRANCH  94  97
ATOM     97  C   UNL A   1      32.927  27.119  25.951  1.00  0.00     0.092 C 
ATOM     98  C   UNL A   1      33.535  28.460  26.334  1.00  0.00     0.025 C 
ATOM     99  C   UNL A   1      31.470  27.197  26.418  1.00  0.00     0.025 C 
ATOM    100  C   UNL A   1      32.917  28.704  27.703  1.00  0.00     0.002 C 
ATOM    101  C   UNL A   1      31.484  28.186  27.587  1.00  0.00     0.002 C 
ENDBRANCH  94  97
ENDBRANCH  85  89
ENDBRANCH  81  83
ENDBRANCH  80  81
ENDBRANCH  79  80
ENDBRANCH  78  79
ENDBRANCH  77  78
ENDBRANCH  76  77
ENDBRANCH   1  76
TORSDOF 22
ENDMDL
MODEL 2
REMARK VINA RESULT:     -10.4      6.084     11.804
REMARK SMILES O=C(OCCOCCOCCOC(=O)c1ccccc1/C=C1/SC(=S)N(C2CCCC2)C1=O)c1ccc(-c2c3nc(c(-c4c(F)cc(S(=O)(=O)[O-])cc4F)c4ccc([nH]4)c(-c4c(F)cc(S(=O)(=O)[O-])cc4F)c4nc(c(-c5c(F)cc(S(=O)(=O)[O-])cc5F)c5ccc2[nH]5)C=C4)C=C3)cc1
REMARK SMILES IDX 7 1 6 2 5 3 4 4 3 5 2 6 1 7 34 8 35 9 99 10 36 11 98 12
REMARK SMILES IDX 37 13 38 14 39 15 92 16 40 17 97 18 91 19 93 20 41 21 96 22
REMARK SMILES IDX 90 23 89 24 42 26 76 27 55 28 75 29 56 30 59 31 74 32 94 33
REMARK SMILES IDX 57 34 58 35 73 37 95 38 60 39 43 40 44 41 53 42 45 43 46 44
REMARK SMILES IDX 52 45 54 46 47 47 48 48 49 49 50 50 51 51 77 52 78 53 87 54
REMARK SMILES IDX 79 55 80 56 86 57 88 58 81 59 82 60 83 61 84 62 85 63 61 64
REMARK SMILES IDX 62 65 71 66 63 67 64 68 70 69 72 70 65 71 66 72 67 73 68 74
REMARK SMILES IDX 69 75 8 76 9 77 10 78 11 79 12 80 13 81 14 82 15 83 16 84
REMARK SMILES IDX 20 85 17 86 19 87 18 88 21 89 22 90 23 91 32 92 24 93 26 94
REMARK SMILES IDX 33 95 25 96 27 97 28 98 31 99 29 100 30 101
REMARK H PARENT 93 25 59 36
REMARK Flexibility Score: inf
ROOT
ATOM      1  C   UNL A   1      34.874  34.406  28.777  1.00  0.00     0.188 C 
ENDROOT
BRANCH   1   2
ATOM      2  O   UNL A   1      35.574  34.456  30.026  1.00  0.00    -0.376 OA
BRANCH   2   3
ATOM      3  C   UNL A   1      34.781  34.077  31.150  1.00  0.00     0.202 C 
BRANCH   3   4
ATOM      4  C   UNL A   1      35.226  32.764  31.803  1.00  0.00     0.261 C 
BRANCH   4   5
ATOM      5  O   UNL A   1      36.388  32.215  31.162  1.00  0.00    -0.460 OA
BRANCH   5   6
ATOM      6  C   UNL A   1      36.725  30.903  31.060  1.00  0.00     0.338 C 
ATOM      7  O   UNL A   1      35.862  30.051  31.265  1.00  0.00    -0.246 OA
BRANCH   6   8
ATOM      8  C   UNL A   1      38.082  30.442  30.637  1.00  0.00     0.060 A 
ATOM      9  C   UNL A   1      39.079  30.002  31.510  1.00  0.00     0.016 A 
ATOM     10  C   UNL A   1      38.336  30.374  29.257  1.00  0.00     0.016 A 
ATOM     11  C   UNL A   1      40.335  29.621  31.041  1.00  0.00     0.010 A 
ATOM     12  C   UNL A   1      39.572  29.924  28.776  1.00  0.00     0.010 A 
ATOM     13  C   UNL A   1      40.592  29.572  29.671  1.00  0.00    -0.014 A 
BRANCH  13  14
ATOM     14  C   UNL A   1      41.939  29.191  29.188  1.00  0.00     0.031 A 
ATOM     15  C   UNL A   1      43.004  30.239  29.075  1.00  0.00     0.074 A 
ATOM     16  C   UNL A   1      42.226  27.907  28.904  1.00  0.00     0.049 A 
ATOM     17  N   UNL A   1      44.207  30.137  28.577  1.00  0.00    -0.248 NA
ATOM     18  C   UNL A   1      42.683  31.571  29.613  1.00  0.00     0.031 C 
ATOM     19  C   UNL A   1      41.310  26.782  29.087  1.00  0.00     0.029 A 
ATOM     20  N   UNL A   1      43.365  27.328  28.400  1.00  0.00    -0.354 N 
ATOM     21  C   UNL A   1      44.786  31.388  28.736  1.00  0.00     0.074 A 
ATOM     22  C   UNL A   1      43.798  32.241  29.358  1.00  0.00     0.031 C 
ATOM     23  C   UNL A   1      41.916  25.658  28.677  1.00  0.00     0.029 A 
ATOM     24  C   UNL A   1      43.215  25.989  28.124  1.00  0.00     0.049 A 
ATOM     25  H   UNL A   1      44.203  27.820  28.251  1.00  0.00     0.167 HD
ATOM     26  C   UNL A   1      46.036  31.778  28.398  1.00  0.00     0.037 A 
ATOM     27  C   UNL A   1      43.995  25.131  27.442  1.00  0.00     0.037 A 
ATOM     28  C   UNL A   1      47.012  30.913  27.795  1.00  0.00     0.049 A 
ATOM     29  C   UNL A   1      45.312  25.625  26.930  1.00  0.00     0.074 A 
ATOM     30  C   UNL A   1      48.317  31.201  27.441  1.00  0.00     0.029 A 
ATOM     31  N   UNL A   1      46.783  29.591  27.444  1.00  0.00    -0.354 N 
ATOM     32  N   UNL A   1      45.849  26.811  27.081  1.00  0.00    -0.248 NA
ATOM     33  C   UNL A   1      46.129  24.680  26.160  1.00  0.00     0.031 C 
ATOM     34  C   UNL A   1      48.864  30.064  26.834  1.00  0.00     0.029 A 
ATOM     35  C   UNL A   1      47.909  29.059  26.840  1.00  0.00     0.049 A 
ATOM     36  H   UNL A   1      45.943  29.101  27.602  1.00  0.00     0.167 HD
ATOM     37  C   UNL A   1      47.075  26.754  26.438  1.00  0.00     0.074 A 
ATOM     38  C   UNL A   1      47.206  25.412  25.904  1.00  0.00     0.031 C 
ATOM     39  C   UNL A   1      48.010  27.725  26.309  1.00  0.00     0.037 A 
BRANCH  26  40
ATOM     40  C   UNL A   1      46.400  33.211  28.647  1.00  0.00     0.058 A 
ATOM     41  C   UNL A   1      46.989  33.624  29.851  1.00  0.00     0.135 A 
ATOM     42  C   UNL A   1      46.172  34.177  27.656  1.00  0.00     0.135 A 
ATOM     43  F   UNL A   1      47.201  32.741  30.839  1.00  0.00    -0.206 F 
ATOM     44  C   UNL A   1      47.333  34.954  30.068  1.00  0.00     0.059 A 
ATOM     45  C   UNL A   1      46.522  35.510  27.845  1.00  0.00     0.059 A 
ATOM     46  F   UNL A   1      45.597  33.830  26.494  1.00  0.00    -0.206 F 
ATOM     47  C   UNL A   1      47.094  35.890  29.058  1.00  0.00     0.060 A 
BRANCH  47  48
ATOM     48  S   UNL A   1      47.553  37.611  29.350  1.00  0.00     0.124 S 
ATOM     49  O   UNL A   1      48.909  37.646  28.810  1.00  0.00    -0.237 OA
ATOM     50  O   UNL A   1      46.547  38.337  28.583  1.00  0.00    -0.237 OA
ATOM     51  O   UNL A   1      47.451  37.748  30.800  1.00  0.00    -0.744 OA
ENDBRANCH  47  48
ENDBRANCH  26  40
BRANCH  27  52
ATOM     52  C   UNL A   1      43.504  23.764  27.116  1.00  0.00     0.058 A 
ATOM     53  C   UNL A   1      42.884  23.472  25.894  1.00  0.00     0.135 A 
ATOM     54  C   UNL A   1      43.642  22.718  28.046  1.00  0.00     0.135 A 
ATOM     55  F   UNL A   1      42.729  24.435  24.975  1.00  0.00    -0.206 F 
ATOM     56  C   UNL A   1      42.397  22.198  25.612  1.00  0.00     0.059 A 
ATOM     57  C   UNL A   1      43.182  21.432  27.779  1.00  0.00     0.059 A 
ATOM     58  F   UNL A   1      44.249  22.938  29.223  1.00  0.00    -0.206 F 
ATOM     59  C   UNL A   1      42.545  21.187  26.564  1.00  0.00     0.060 A 
BRANCH  59  60
ATOM     60  S   UNL A   1      41.921  19.533  26.186  1.00  0.00     0.124 S 
ATOM     61  O   UNL A   1      42.237  18.816  27.416  1.00  0.00    -0.237 OA
ATOM     62  O   UNL A   1      40.506  19.789  25.939  1.00  0.00    -0.237 OA
ATOM     63  O   UNL A   1      42.697  19.149  25.011  1.00  0.00    -0.744 OA
ENDBRANCH  59  60
ENDBRANCH  27  52
BRANCH  39  64
ATOM     64  C   UNL A   1      49.258  27.363  25.567  1.00  0.00     0.058 A 
ATOM     65  C   UNL A   1      49.307  27.407  24.165  1.00  0.00     0.135 A 
ATOM     66  C   UNL A   1      50.426  27.020  26.263  1.00  0.00     0.135 A 
ATOM     67  F   UNL A   1      48.207  27.715  23.460  1.00  0.00    -0.206 F 
ATOM     68  C   UNL A   1      50.477  27.116  23.476  1.00  0.00     0.059 A 
ATOM     69  C   UNL A   1      51.612  26.744  25.595  1.00  0.00     0.059 A 
ATOM     70  F   UNL A   1      50.422  26.967  27.605  1.00  0.00    -0.206 F 
ATOM     71  C   UNL A   1      51.625  26.790  24.201  1.00  0.00     0.060 A 
BRANCH  71  72
ATOM     72  S   UNL A   1      53.155  26.468  23.300  1.00  0.00     0.124 S 
ATOM     73  O   UNL A   1      53.869  27.727  23.473  1.00  0.00    -0.237 OA
ATOM     74  O   UNL A   1      53.706  25.322  24.017  1.00  0.00    -0.237 OA
ATOM     75  O   UNL A   1      52.694  26.186  21.943  1.00  0.00    -0.744 OA
ENDBRANCH  71  72
ENDBRANCH  39  64
ENDBRANCH  13  14
ENDBRANCH   6   8
ENDBRANCH   5   6
ENDBRANCH   4   5
ENDBRANCH   3   4
ENDBRANCH   2   3
ENDBRANCH   1   2
BRANCH   1  76
ATOM     76  C   UNL A   1      35.386  33.226  27.950  1.00  0.00     0.188 C 
BRANCH  76  77
ATOM     77  O   UNL A   1      34.362  32.411  27.371  1.00  0.00    -0.376 OA
BRANCH  77  78
ATOM     78  C   UNL A   1      34.050  31.185  28.028  1.00  0.00     0.202 C 
BRANCH  78  79
ATOM     79  C   UNL A   1      33.137  30.199  27.289  1.00  0.00     0.261 C 
BRANCH  79  80
ATOM     80  O   UNL A   1      33.598  29.702  26.021  1.00  0.00    -0.460 OA
BRANCH  80  81
ATOM     81  C   UNL A   1      32.613  29.588  25.101  1.00  0.00     0.338 C 
ATOM     82  O   UNL A   1      31.534  30.169  25.124  1.00  0.00    -0.246 OA
BRANCH  81  83
ATOM     83  C   UNL A   1      32.919  28.595  24.062  1.00  0.00     0.067 A 
ATOM     84  C   UNL A   1      34.025  28.833  23.237  1.00  0.00     0.016 A 
ATOM     85  C   UNL A   1      31.989  27.580  23.756  1.00  0.00    -0.010 A 
ATOM     86  C   UNL A   1      34.198  28.068  22.084  1.00  0.00     0.001 A 
ATOM     87  C   UNL A   1      32.141  26.874  22.560  1.00  0.00     0.009 A 
ATOM     88  C   UNL A   1      33.245  27.110  21.734  1.00  0.00     0.001 A 
BRANCH  85  89
ATOM     89  C   UNL A   1      30.887  27.220  24.664  1.00  0.00     0.030 C 
ATOM     90  C   UNL A   1      30.960  26.238  25.569  1.00  0.00     0.081 C 
ATOM     91  S   UNL A   1      29.601  25.489  26.301  1.00  0.00    -0.054 SA
ATOM     92  C   UNL A   1      32.174  25.452  25.876  1.00  0.00     0.266 C 
ATOM     93  C   UNL A   1      30.486  23.968  26.517  1.00  0.00     0.148 C 
ATOM     94  N   UNL A   1      31.816  24.150  26.193  1.00  0.00    -0.290 N 
ATOM     95  O   UNL A   1      33.307  25.915  25.858  1.00  0.00    -0.268 OA
ATOM     96  S   UNL A   1      29.685  22.590  27.016  1.00  0.00    -0.052 S 
BRANCH  94  97
ATOM     97  C   UNL A   1      32.901  23.171  26.180  1.00  0.00     0.092 C 
ATOM     98  C   UNL A   1      33.348  22.680  27.550  1.00  0.00     0.025 C 
ATOM     99  C   UNL A   1      32.693  21.899  25.352  1.00  0.00     0.025 C 
ATOM    100  C   UNL A   1      34.286  21.540  27.182  1.00  0.00     0.002 C 
ATOM    101  C   UNL A   1      33.633  20.865  25.977  1.00  0.00     0.002 C 
ENDBRANCH  94  97
ENDBRANCH  85  89
ENDBRANCH  81  83
ENDBRANCH  80  81
ENDBRANCH  79  80
ENDBRANCH  78  79
ENDBRANCH  77  78
ENDBRANCH  76  77
ENDBRANCH   1  76
TORSDOF 22
ENDMDL
MODEL 3
REMARK VINA RESULT:     -10.3      6.305     11.889
REMARK SMILES O=C(OCCOCCOCCOC(=O)c1ccccc1/C=C1/SC(=S)N(C2CCCC2)C1=O)c1ccc(-c2c3nc(c(-c4c(F)cc(S(=O)(=O)[O-])cc4F)c4ccc([nH]4)c(-c4c(F)cc(S(=O)(=O)[O-])cc4F)c4nc(c(-c5c(F)cc(S(=O)(=O)[O-])cc5F)c5ccc2[nH]5)C=C4)C=C3)cc1
REMARK SMILES IDX 7 1 6 2 5 3 4 4 3 5 2 6 1 7 34 8 35 9 99 10 36 11 98 12
REMARK SMILES IDX 37 13 38 14 39 15 92 16 40 17 97 18 91 19 93 20 41 21 96 22
REMARK SMILES IDX 90 23 89 24 42 26 76 27 55 28 75 29 56 30 59 31 74 32 94 33
REMARK SMILES IDX 57 34 58 35 73 37 95 38 60 39 43 40 44 41 53 42 45 43 46 44
REMARK SMILES IDX 52 45 54 46 47 47 48 48 49 49 50 50 51 51 77 52 78 53 87 54
REMARK SMILES IDX 79 55 80 56 86 57 88 58 81 59 82 60 83 61 84 62 85 63 61 64
REMARK SMILES IDX 62 65 71 66 63 67 64 68 70 69 72 70 65 71 66 72 67 73 68 74
REMARK SMILES IDX 69 75 8 76 9 77 10 78 11 79 12 80 13 81 14 82 15 83 16 84
REMARK SMILES IDX 20 85 17 86 19 87 18 88 21 89 22 90 23 91 32 92 24 93 26 94
REMARK SMILES IDX 33 95 25 96 27 97 28 98 31 99 29 100 30 101
REMARK H PARENT 93 25 59 36
REMARK Flexibility Score: inf
ROOT
ATOM      1  C   UNL A   1      32.842  29.800  27.215  1.00  0.00     0.188 C 
ENDROOT
BRANCH   1   2
ATOM      2  O   UNL A   1      34.187  29.347  27.406  1.00  0.00    -0.376 OA
BRANCH   2   3
ATOM      3  C   UNL A   1      35.152  30.398  27.435  1.00  0.00     0.202 C 
BRANCH   3   4
ATOM      4  C   UNL A   1      35.149  31.203  28.739  1.00  0.00     0.261 C 
BRANCH   4   5
ATOM      5  O   UNL A   1      35.915  30.556  29.767  1.00  0.00    -0.460 OA
BRANCH   5   6
ATOM      6  C   UNL A   1      37.055  31.012  30.350  1.00  0.00     0.338 C 
ATOM      7  O   UNL A   1      36.966  31.776  31.309  1.00  0.00    -0.246 OA
BRANCH   6   8
ATOM      8  C   UNL A   1      38.418  30.570  29.926  1.00  0.00     0.060 A 
ATOM      9  C   UNL A   1      39.514  30.448  30.782  1.00  0.00     0.016 A 
ATOM     10  C   UNL A   1      38.579  30.178  28.587  1.00  0.00     0.016 A 
ATOM     11  C   UNL A   1      40.766  30.064  30.305  1.00  0.00     0.010 A 
ATOM     12  C   UNL A   1      39.818  29.723  28.117  1.00  0.00     0.010 A 
ATOM     13  C   UNL A   1      40.929  29.693  28.970  1.00  0.00    -0.014 A 
BRANCH  13  14
ATOM     14  C   UNL A   1      42.271  29.314  28.470  1.00  0.00     0.031 A 
ATOM     15  C   UNL A   1      42.537  27.890  28.088  1.00  0.00     0.074 A 
ATOM     16  C   UNL A   1      43.229  30.245  28.308  1.00  0.00     0.049 A 
ATOM     17  N   UNL A   1      43.664  27.332  27.733  1.00  0.00    -0.248 NA
ATOM     18  C   UNL A   1      41.382  26.978  28.079  1.00  0.00     0.031 C 
ATOM     19  C   UNL A   1      43.052  31.679  28.534  1.00  0.00     0.029 A 
ATOM     20  N   UNL A   1      44.541  30.131  27.919  1.00  0.00    -0.354 N 
ATOM     21  C   UNL A   1      43.358  26.006  27.465  1.00  0.00     0.074 A 
ATOM     22  C   UNL A   1      41.944  25.833  27.715  1.00  0.00     0.031 C 
ATOM     23  C   UNL A   1      44.218  32.301  28.303  1.00  0.00     0.029 A 
ATOM     24  C   UNL A   1      45.237  31.313  28.005  1.00  0.00     0.049 A 
ATOM     25  H   UNL A   1      44.943  29.288  27.610  1.00  0.00     0.167 HD
ATOM     26  C   UNL A   1      44.188  25.027  27.037  1.00  0.00     0.037 A 
ATOM     27  C   UNL A   1      46.554  31.576  27.926  1.00  0.00     0.037 A 
ATOM     28  C   UNL A   1      45.589  25.219  26.776  1.00  0.00     0.049 A 
ATOM     29  C   UNL A   1      47.483  30.445  27.611  1.00  0.00     0.074 A 
ATOM     30  C   UNL A   1      46.512  24.302  26.312  1.00  0.00     0.029 A 
ATOM     31  N   UNL A   1      46.270  26.412  26.972  1.00  0.00    -0.354 N 
ATOM     32  N   UNL A   1      47.185  29.194  27.363  1.00  0.00    -0.248 NA
ATOM     33  C   UNL A   1      48.918  30.750  27.563  1.00  0.00     0.031 C 
ATOM     34  C   UNL A   1      47.763  24.927  26.269  1.00  0.00     0.029 A 
ATOM     35  C   UNL A   1      47.611  26.244  26.676  1.00  0.00     0.049 A 
ATOM     36  H   UNL A   1      45.860  27.254  27.275  1.00  0.00     0.167 HD
ATOM     37  C   UNL A   1      48.393  28.561  27.115  1.00  0.00     0.074 A 
ATOM     38  C   UNL A   1      49.426  29.571  27.233  1.00  0.00     0.031 C 
ATOM     39  C   UNL A   1      48.621  27.261  26.811  1.00  0.00     0.037 A 
BRANCH  26  40
ATOM     40  C   UNL A   1      43.604  23.659  26.858  1.00  0.00     0.058 A 
ATOM     41  C   UNL A   1      43.233  23.174  25.595  1.00  0.00     0.135 A 
ATOM     42  C   UNL A   1      43.432  22.817  27.966  1.00  0.00     0.135 A 
ATOM     43  F   UNL A   1      43.353  23.953  24.509  1.00  0.00    -0.206 F 
ATOM     44  C   UNL A   1      42.701  21.898  25.438  1.00  0.00     0.059 A 
ATOM     45  C   UNL A   1      42.916  21.532  27.831  1.00  0.00     0.059 A 
ATOM     46  F   UNL A   1      43.758  23.244  29.196  1.00  0.00    -0.206 F 
ATOM     47  C   UNL A   1      42.546  21.085  26.563  1.00  0.00     0.060 A 
BRANCH  47  48
ATOM     48  S   UNL A   1      41.862  19.429  26.344  1.00  0.00     0.124 S 
ATOM     49  O   UNL A   1      42.501  19.014  25.098  1.00  0.00    -0.237 OA
ATOM     50  O   UNL A   1      42.317  18.742  27.547  1.00  0.00    -0.237 OA
ATOM     51  O   UNL A   1      40.424  19.664  26.264  1.00  0.00    -0.744 OA
ENDBRANCH  47  48
ENDBRANCH  26  40
BRANCH  27  52
ATOM     52  C   UNL A   1      47.071  32.933  28.252  1.00  0.00     0.058 A 
ATOM     53  C   UNL A   1      47.455  33.286  29.552  1.00  0.00     0.135 A 
ATOM     54  C   UNL A   1      47.179  33.914  27.250  1.00  0.00     0.135 A 
ATOM     55  F   UNL A   1      47.371  32.386  30.542  1.00  0.00    -0.206 F 
ATOM     56  C   UNL A   1      47.906  34.568  29.855  1.00  0.00     0.059 A 
ATOM     57  C   UNL A   1      47.645  35.195  27.523  1.00  0.00     0.059 A 
ATOM     58  F   UNL A   1      46.846  33.622  25.983  1.00  0.00    -0.206 F 
ATOM     59  C   UNL A   1      47.991  35.517  28.834  1.00  0.00     0.060 A 
BRANCH  59  60
ATOM     60  S   UNL A   1      48.588  37.176  29.232  1.00  0.00     0.124 S 
ATOM     61  O   UNL A   1      49.683  37.327  28.281  1.00  0.00    -0.237 OA
ATOM     62  O   UNL A   1      47.406  37.995  28.985  1.00  0.00    -0.237 OA
ATOM     63  O   UNL A   1      48.979  37.059  30.634  1.00  0.00    -0.744 OA
ENDBRANCH  59  60
ENDBRANCH  27  52
BRANCH  39  64
ATOM     64  C   UNL A   1      50.045  26.865  26.577  1.00  0.00     0.058 A 
ATOM     65  C   UNL A   1      50.842  26.374  27.621  1.00  0.00     0.135 A 
ATOM     66  C   UNL A   1      50.599  26.930  25.290  1.00  0.00     0.135 A 
ATOM     67  F   UNL A   1      50.355  26.311  28.871  1.00  0.00    -0.206 F 
ATOM     68  C   UNL A   1      52.149  25.963  27.398  1.00  0.00     0.059 A 
ATOM     69  C   UNL A   1      51.898  26.506  25.040  1.00  0.00     0.059 A 
ATOM     70  F   UNL A   1      49.871  27.394  24.263  1.00  0.00    -0.206 F 
ATOM     71  C   UNL A   1      52.667  26.029  26.103  1.00  0.00     0.060 A 
BRANCH  71  72
ATOM     72  S   UNL A   1      54.348  25.441  25.811  1.00  0.00     0.124 S 
ATOM     73  O   UNL A   1      54.106  24.245  25.012  1.00  0.00    -0.237 OA
ATOM     74  O   UNL A   1      54.955  26.564  25.104  1.00  0.00    -0.237 OA
ATOM     75  O   UNL A   1      54.861  25.206  27.157  1.00  0.00    -0.744 OA
ENDBRANCH  71  72
ENDBRANCH  39  64
ENDBRANCH  13  14
ENDBRANCH   6   8
ENDBRANCH   5   6
ENDBRANCH   4   5
ENDBRANCH   3   4
ENDBRANCH   2   3
ENDBRANCH   1   2
BRANCH   1  76
ATOM     76  C   UNL A   1      32.588  30.039  25.726  1.00  0.00     0.188 C 
BRANCH  76  77
ATOM     77  O   UNL A   1      31.526  29.260  25.166  1.00  0.00    -0.376 OA
BRANCH  77  78
ATOM     78  C   UNL A   1      30.892  29.763  23.993  1.00  0.00     0.202 C 
BRANCH  78  79
ATOM     79  C   UNL A   1      30.805  28.829  22.780  1.00  0.00     0.261 C 
BRANCH  79  80
ATOM     80  O   UNL A   1      31.938  27.981  22.522  1.00  0.00    -0.460 OA
BRANCH  80  81
ATOM     81  C   UNL A   1      31.605  26.681  22.355  1.00  0.00     0.338 C 
ATOM     82  O   UNL A   1      31.656  26.052  21.304  1.00  0.00    -0.246 OA
BRANCH  81  83
ATOM     83  C   UNL A   1      31.065  26.073  23.579  1.00  0.00     0.067 A 
ATOM     84  C   UNL A   1      29.695  26.213  23.828  1.00  0.00     0.016 A 
ATOM     85  C   UNL A   1      31.939  25.589  24.575  1.00  0.00    -0.010 A 
ATOM     86  C   UNL A   1      29.189  25.888  25.086  1.00  0.00     0.001 A 
ATOM     87  C   UNL A   1      31.425  25.339  25.850  1.00  0.00     0.009 A 
ATOM     88  C   UNL A   1      30.056  25.478  26.100  1.00  0.00     0.001 A 
BRANCH  85  89
ATOM     89  C   UNL A   1      33.361  25.312  24.309  1.00  0.00     0.030 C 
ATOM     90  C   UNL A   1      33.845  24.093  24.047  1.00  0.00     0.081 C 
ATOM     91  S   UNL A   1      35.496  23.652  24.193  1.00  0.00    -0.054 SA
ATOM     92  C   UNL A   1      33.028  22.873  23.869  1.00  0.00     0.266 C 
ATOM     93  C   UNL A   1      35.071  21.968  24.551  1.00  0.00     0.148 C 
ATOM     94  N   UNL A   1      33.716  21.777  24.367  1.00  0.00    -0.290 N 
ATOM     95  O   UNL A   1      31.921  22.867  23.345  1.00  0.00    -0.268 OA
ATOM     96  S   UNL A   1      36.244  20.891  25.056  1.00  0.00    -0.052 S 
BRANCH  94  97
ATOM     97  C   UNL A   1      32.920  20.571  24.583  1.00  0.00     0.092 C 
ATOM     98  C   UNL A   1      32.991  19.538  23.468  1.00  0.00     0.025 C 
ATOM     99  C   UNL A   1      33.173  19.781  25.871  1.00  0.00     0.025 C 
ATOM    100  C   UNL A   1      32.271  18.353  24.093  1.00  0.00     0.002 C 
ATOM    101  C   UNL A   1      32.700  18.359  25.559  1.00  0.00     0.002 C 
ENDBRANCH  94  97
ENDBRANCH  85  89
ENDBRANCH  81  83
ENDBRANCH  80  81
ENDBRANCH  79  80
ENDBRANCH  78  79
ENDBRANCH  77  78
ENDBRANCH  76  77
ENDBRANCH   1  76
TORSDOF 22
ENDMDL
