MODEL 1
REMARK VINA RESULT:     -10.6      0.000      0.000
REMARK SMILES O=C(CN(c1ccccc1)[C@@H]1CCO[C@]2(CCSC2)C1)OCCOCCOCCOC(=O)c1ccc(-c2c3nc(c(-c4c(F)cc(S(=O)(=O)[O-])cc4F)c4ccc([nH]4)c(-c4c(F)cc(S(=O)(=O)[O-])cc4F)c4nc(c(-c5c(F)cc(S(=O)(=O)[O-])cc5F)c5ccc2[nH]5)C=C4)C=C3)cc1
REMARK SMILES IDX 26 1 25 2 24 3 23 4 22 5 21 6 2 7 1 8 3 9 4 10 5 11 6 12
REMARK SMILES IDX 10 13 7 14 9 15 8 16 11 17 12 18 20 19 13 20 15 21 14 22
REMARK SMILES IDX 16 23 19 24 17 25 18 26 27 27 28 28 29 29 30 30 31 31 32 32
REMARK SMILES IDX 33 33 34 34 98 35 35 36 97 37 36 38 37 39 38 40 91 41 39 42
REMARK SMILES IDX 96 43 90 44 92 45 40 46 95 47 89 48 88 49 41 51 75 52 54 53
REMARK SMILES IDX 74 54 55 55 58 56 73 57 93 58 56 59 57 60 72 62 94 63 59 64
REMARK SMILES IDX 42 65 43 66 52 67 44 68 45 69 51 70 53 71 46 72 47 73 48 74
REMARK SMILES IDX 49 75 50 76 76 77 77 78 86 79 78 80 79 81 85 82 87 83 80 84
REMARK SMILES IDX 81 85 82 86 83 87 84 88 60 89 61 90 70 91 62 92 63 93 69 94
REMARK SMILES IDX 71 95 64 96 65 97 66 98 67 99 68 100
REMARK H PARENT 92 50 58 61
REMARK Flexibility Score: inf
ROOT
ATOM      1  C   UNL A   1      31.803  30.323  25.741  1.00  0.00     0.188 C 
ENDROOT
BRANCH   1   2
ATOM      2  C   UNL A   1      31.034  29.299  24.907  1.00  0.00     0.188 C 
BRANCH   2   3
ATOM      3  O   UNL A   1      30.759  29.590  23.551  1.00  0.00    -0.376 OA
BRANCH   3   4
ATOM      4  C   UNL A   1      31.634  29.111  22.539  1.00  0.00     0.202 C 
BRANCH   4   5
ATOM      5  C   UNL A   1      32.537  27.892  22.763  1.00  0.00     0.261 C 
BRANCH   5   6
ATOM      6  O   UNL A   1      32.221  26.623  22.176  1.00  0.00    -0.462 OA
BRANCH   6   7
ATOM      7  C   UNL A   1      33.043  25.610  21.845  1.00  0.00     0.325 C 
ATOM      8  O   UNL A   1      33.196  25.352  20.651  1.00  0.00    -0.250 OA
BRANCH   7   9
ATOM      9  C   UNL A   1      33.733  24.787  22.924  1.00  0.00     0.239 C 
BRANCH   9  10
ATOM     10  N   UNL A   1      32.810  24.020  23.793  1.00  0.00    -0.357 N 
BRANCH  10  11
ATOM     11  C   UNL A   1      32.136  24.793  24.726  1.00  0.00     0.037 A 
ATOM     12  C   UNL A   1      32.787  25.555  25.701  1.00  0.00     0.026 A 
ATOM     13  C   UNL A   1      30.730  24.859  24.690  1.00  0.00     0.026 A 
ATOM     14  C   UNL A   1      32.065  26.327  26.622  1.00  0.00     0.002 A 
ATOM     15  C   UNL A   1      30.003  25.620  25.608  1.00  0.00     0.002 A 
ATOM     16  C   UNL A   1      30.674  26.352  26.580  1.00  0.00     0.000 A 
ENDBRANCH  10  11
BRANCH  10  17
ATOM     17  C   UNL A   1      32.924  22.538  23.801  1.00  0.00     0.088 C 
ATOM     18  C   UNL A   1      32.049  21.902  24.900  1.00  0.00     0.053 C 
ATOM     19  C   UNL A   1      34.345  21.963  23.952  1.00  0.00     0.061 C 
ATOM     20  C   UNL A   1      32.685  22.079  26.266  1.00  0.00     0.163 C 
ATOM     21  C   UNL A   1      34.913  21.915  25.392  1.00  0.00     0.080 C 
ATOM     22  O   UNL A   1      33.930  21.394  26.292  1.00  0.00    -0.374 OA
ATOM     23  C   UNL A   1      35.493  23.226  25.942  1.00  0.00     0.047 C 
ATOM     24  C   UNL A   1      36.123  20.958  25.449  1.00  0.00     0.105 C 
ATOM     25  C   UNL A   1      36.792  23.532  25.215  1.00  0.00     0.072 C 
ATOM     26  S   UNL A   1      37.568  21.923  24.909  1.00  0.00    -0.159 SA
ENDBRANCH  10  17
ENDBRANCH   9  10
ENDBRANCH   7   9
ENDBRANCH   6   7
ENDBRANCH   5   6
ENDBRANCH   4   5
ENDBRANCH   3   4
ENDBRANCH   2   3
ENDBRANCH   1   2
BRANCH   1  27
ATOM     27  O   UNL A   1      33.179  30.098  25.972  1.00  0.00    -0.376 OA
BRANCH  27  28
ATOM     28  C   UNL A   1      33.762  30.681  27.137  1.00  0.00     0.202 C 
BRANCH  28  29
ATOM     29  C   UNL A   1      34.871  29.934  27.888  1.00  0.00     0.261 C 
BRANCH  29  30
ATOM     30  O   UNL A   1      35.613  30.763  28.808  1.00  0.00    -0.460 OA
BRANCH  30  31
ATOM     31  C   UNL A   1      36.348  30.100  29.721  1.00  0.00     0.338 C 
ATOM     32  O   UNL A   1      35.917  29.476  30.702  1.00  0.00    -0.246 OA
BRANCH  31  33
ATOM     33  C   UNL A   1      37.776  30.109  29.391  1.00  0.00     0.060 A 
ATOM     34  C   UNL A   1      38.163  29.880  28.064  1.00  0.00     0.016 A 
ATOM     35  C   UNL A   1      38.730  30.139  30.410  1.00  0.00     0.016 A 
ATOM     36  C   UNL A   1      39.505  29.639  27.759  1.00  0.00     0.010 A 
ATOM     37  C   UNL A   1      40.072  29.884  30.103  1.00  0.00     0.010 A 
ATOM     38  C   UNL A   1      40.461  29.593  28.782  1.00  0.00    -0.014 A 
BRANCH  38  39
ATOM     39  C   UNL A   1      41.830  29.086  28.503  1.00  0.00     0.031 A 
ATOM     40  C   UNL A   1      42.987  30.052  28.514  1.00  0.00     0.074 A 
ATOM     41  C   UNL A   1      42.049  27.783  28.246  1.00  0.00     0.049 A 
ATOM     42  N   UNL A   1      44.248  29.841  28.234  1.00  0.00    -0.248 NA
ATOM     43  C   UNL A   1      42.680  31.441  28.890  1.00  0.00     0.031 C 
ATOM     44  C   UNL A   1      41.027  26.739  28.242  1.00  0.00     0.029 A 
ATOM     45  N   UNL A   1      43.209  27.122  27.925  1.00  0.00    -0.354 N 
ATOM     46  C   UNL A   1      44.883  31.066  28.392  1.00  0.00     0.074 A 
ATOM     47  C   UNL A   1      43.867  32.023  28.774  1.00  0.00     0.031 C 
ATOM     48  C   UNL A   1      41.603  25.569  27.913  1.00  0.00     0.029 A 
ATOM     49  C   UNL A   1      43.026  25.787  27.653  1.00  0.00     0.049 A 
ATOM     50  H   UNL A   1      44.089  27.562  27.892  1.00  0.00     0.167 HD
ATOM     51  C   UNL A   1      46.196  31.369  28.240  1.00  0.00     0.037 A 
ATOM     52  C   UNL A   1      43.899  24.855  27.219  1.00  0.00     0.037 A 
ATOM     53  C   UNL A   1      47.211  30.420  27.864  1.00  0.00     0.049 A 
ATOM     54  C   UNL A   1      45.342  25.231  26.990  1.00  0.00     0.074 A 
ATOM     55  C   UNL A   1      48.570  30.632  27.707  1.00  0.00     0.029 A 
ATOM     56  N   UNL A   1      46.982  29.083  27.577  1.00  0.00    -0.354 N 
ATOM     57  N   UNL A   1      45.933  26.388  27.169  1.00  0.00    -0.248 NA
ATOM     58  C   UNL A   1      46.238  24.172  26.500  1.00  0.00     0.031 C 
ATOM     59  C   UNL A   1      49.156  29.435  27.283  1.00  0.00     0.029 A 
ATOM     60  C   UNL A   1      48.169  28.465  27.221  1.00  0.00     0.049 A 
ATOM     61  H   UNL A   1      46.104  28.639  27.620  1.00  0.00     0.167 HD
ATOM     62  C   UNL A   1      47.271  26.189  26.842  1.00  0.00     0.074 A 
ATOM     63  C   UNL A   1      47.406  24.799  26.462  1.00  0.00     0.031 C 
ATOM     64  C   UNL A   1      48.296  27.076  26.856  1.00  0.00     0.037 A 
BRANCH  51  65
ATOM     65  C   UNL A   1      46.615  32.794  28.462  1.00  0.00     0.058 A 
ATOM     66  C   UNL A   1      47.137  33.226  29.691  1.00  0.00     0.135 A 
ATOM     67  C   UNL A   1      46.551  33.725  27.413  1.00  0.00     0.135 A 
ATOM     68  F   UNL A   1      47.205  32.380  30.732  1.00  0.00    -0.206 F 
ATOM     69  C   UNL A   1      47.565  34.536  29.878  1.00  0.00     0.059 A 
ATOM     70  C   UNL A   1      46.995  35.034  27.570  1.00  0.00     0.059 A 
ATOM     71  F   UNL A   1      46.057  33.363  26.218  1.00  0.00    -0.206 F 
ATOM     72  C   UNL A   1      47.492  35.433  28.810  1.00  0.00     0.060 A 
BRANCH  72  73
ATOM     73  S   UNL A   1      48.072  37.124  29.060  1.00  0.00     0.124 S 
ATOM     74  O   UNL A   1      46.868  37.892  28.760  1.00  0.00    -0.237 OA
ATOM     75  O   UNL A   1      48.482  37.110  30.461  1.00  0.00    -0.237 OA
ATOM     76  O   UNL A   1      49.159  37.258  28.095  1.00  0.00    -0.744 OA
ENDBRANCH  72  73
ENDBRANCH  51  65
BRANCH  52  77
ATOM     77  C   UNL A   1      43.434  23.470  26.942  1.00  0.00     0.058 A 
ATOM     78  C   UNL A   1      43.162  22.573  27.986  1.00  0.00     0.135 A 
ATOM     79  C   UNL A   1      43.284  23.006  25.625  1.00  0.00     0.135 A 
ATOM     80  F   UNL A   1      43.303  22.967  29.260  1.00  0.00    -0.206 F 
ATOM     81  C   UNL A   1      42.782  21.259  27.736  1.00  0.00     0.059 A 
ATOM     82  C   UNL A   1      42.881  21.704  25.350  1.00  0.00     0.059 A 
ATOM     83  F   UNL A   1      43.524  23.828  24.591  1.00  0.00    -0.206 F 
ATOM     84  C   UNL A   1      42.647  20.832  26.414  1.00  0.00     0.060 A 
BRANCH  84  85
ATOM     85  S   UNL A   1      42.139  19.128  26.098  1.00  0.00     0.124 S 
ATOM     86  O   UNL A   1      42.969  18.785  24.950  1.00  0.00    -0.237 OA
ATOM     87  O   UNL A   1      42.482  18.469  27.354  1.00  0.00    -0.237 OA
ATOM     88  O   UNL A   1      40.709  19.250  25.831  1.00  0.00    -0.744 OA
ENDBRANCH  84  85
ENDBRANCH  52  77
BRANCH  64  89
ATOM     89  C   UNL A   1      49.666  26.571  26.490  1.00  0.00     0.058 A 
ATOM     90  C   UNL A   1      50.501  25.950  27.432  1.00  0.00     0.135 A 
ATOM     91  C   UNL A   1      50.127  26.661  25.166  1.00  0.00     0.135 A 
ATOM     92  F   UNL A   1      50.112  25.841  28.712  1.00  0.00    -0.206 F 
ATOM     93  C   UNL A   1      51.752  25.452  27.079  1.00  0.00     0.059 A 
ATOM     94  C   UNL A   1      51.364  26.149  24.785  1.00  0.00     0.059 A 
ATOM     95  F   UNL A   1      49.364  27.236  24.223  1.00  0.00    -0.206 F 
ATOM     96  C   UNL A   1      52.175  25.557  25.752  1.00  0.00     0.060 A 
BRANCH  96  97
ATOM     97  S   UNL A   1      53.785  24.876  25.298  1.00  0.00     0.124 S 
ATOM     98  O   UNL A   1      54.078  25.609  24.071  1.00  0.00    -0.237 OA
ATOM     99  O   UNL A   1      54.609  25.220  26.453  1.00  0.00    -0.237 OA
ATOM    100  O   UNL A   1      53.517  23.451  25.130  1.00  0.00    -0.744 OA
ENDBRANCH  96  97
ENDBRANCH  64  89
ENDBRANCH  38  39
ENDBRANCH  31  33
ENDBRANCH  30  31
ENDBRANCH  29  30
ENDBRANCH  28  29
ENDBRANCH  27  28
ENDBRANCH   1  27
TORSDOF 23
ENDMDL
MODEL 2
REMARK VINA RESULT:     -10.5      1.506      8.387
REMARK SMILES O=C(CN(c1ccccc1)[C@@H]1CCO[C@]2(CCSC2)C1)OCCOCCOCCOC(=O)c1ccc(-c2c3nc(c(-c4c(F)cc(S(=O)(=O)[O-])cc4F)c4ccc([nH]4)c(-c4c(F)cc(S(=O)(=O)[O-])cc4F)c4nc(c(-c5c(F)cc(S(=O)(=O)[O-])cc5F)c5ccc2[nH]5)C=C4)C=C3)cc1
REMARK SMILES IDX 26 1 25 2 24 3 23 4 22 5 21 6 2 7 1 8 3 9 4 10 5 11 6 12
REMARK SMILES IDX 10 13 7 14 9 15 8 16 11 17 12 18 20 19 13 20 15 21 14 22
REMARK SMILES IDX 16 23 19 24 17 25 18 26 27 27 28 28 29 29 30 30 31 31 32 32
REMARK SMILES IDX 33 33 34 34 98 35 35 36 97 37 36 38 37 39 38 40 91 41 39 42
REMARK SMILES IDX 96 43 90 44 92 45 40 46 95 47 89 48 88 49 41 51 75 52 54 53
REMARK SMILES IDX 74 54 55 55 58 56 73 57 93 58 56 59 57 60 72 62 94 63 59 64
REMARK SMILES IDX 42 65 43 66 52 67 44 68 45 69 51 70 53 71 46 72 47 73 48 74
REMARK SMILES IDX 49 75 50 76 76 77 77 78 86 79 78 80 79 81 85 82 87 83 80 84
REMARK SMILES IDX 81 85 82 86 83 87 84 88 60 89 61 90 70 91 62 92 63 93 69 94
REMARK SMILES IDX 71 95 64 96 65 97 66 98 67 99 68 100
REMARK H PARENT 92 50 58 61
REMARK Flexibility Score: inf
ROOT
ATOM      1  C   UNL A   1      35.091  33.702  27.996  1.00  0.00     0.188 C 
ENDROOT
BRANCH   1   2
ATOM      2  C   UNL A   1      33.574  33.564  28.112  1.00  0.00     0.188 C 
BRANCH   2   3
ATOM      3  O   UNL A   1      32.956  32.385  27.637  1.00  0.00    -0.376 OA
BRANCH   3   4
ATOM      4  C   UNL A   1      33.700  31.174  27.587  1.00  0.00     0.202 C 
BRANCH   4   5
ATOM      5  C   UNL A   1      33.284  30.009  26.681  1.00  0.00     0.261 C 
BRANCH   5   6
ATOM      6  O   UNL A   1      33.229  28.668  27.184  1.00  0.00    -0.462 OA
BRANCH   6   7
ATOM      7  C   UNL A   1      32.226  27.774  27.115  1.00  0.00     0.325 C 
ATOM      8  O   UNL A   1      31.328  27.842  27.955  1.00  0.00    -0.250 OA
BRANCH   7   9
ATOM      9  C   UNL A   1      32.227  26.687  26.049  1.00  0.00     0.239 C 
BRANCH   9  10
ATOM     10  N   UNL A   1      32.354  27.190  24.661  1.00  0.00    -0.357 N 
BRANCH  10  11
ATOM     11  C   UNL A   1      31.169  27.658  24.117  1.00  0.00     0.037 A 
ATOM     12  C   UNL A   1      30.026  26.864  23.977  1.00  0.00     0.026 A 
ATOM     13  C   UNL A   1      31.072  29.002  23.710  1.00  0.00     0.026 A 
ATOM     14  C   UNL A   1      28.845  27.379  23.426  1.00  0.00     0.002 A 
ATOM     15  C   UNL A   1      29.902  29.522  23.154  1.00  0.00     0.002 A 
ATOM     16  C   UNL A   1      28.787  28.706  23.007  1.00  0.00     0.000 A 
ENDBRANCH  10  11
BRANCH  10  17
ATOM     17  C   UNL A   1      33.597  26.869  23.912  1.00  0.00     0.088 C 
ATOM     18  C   UNL A   1      33.445  27.153  22.403  1.00  0.00     0.053 C 
ATOM     19  C   UNL A   1      34.132  25.431  24.057  1.00  0.00     0.061 C 
ATOM     20  C   UNL A   1      32.617  26.075  21.731  1.00  0.00     0.163 C 
ATOM     21  C   UNL A   1      33.444  24.354  23.184  1.00  0.00     0.080 C 
ATOM     22  O   UNL A   1      33.294  24.830  21.842  1.00  0.00    -0.374 OA
ATOM     23  C   UNL A   1      32.108  23.803  23.703  1.00  0.00     0.047 C 
ATOM     24  C   UNL A   1      34.327  23.091  23.113  1.00  0.00     0.105 C 
ATOM     25  C   UNL A   1      32.374  22.941  24.926  1.00  0.00     0.072 C 
ATOM     26  S   UNL A   1      33.957  22.119  24.606  1.00  0.00    -0.159 SA
ENDBRANCH  10  17
ENDBRANCH   9  10
ENDBRANCH   7   9
ENDBRANCH   6   7
ENDBRANCH   5   6
ENDBRANCH   4   5
ENDBRANCH   3   4
ENDBRANCH   2   3
ENDBRANCH   1   2
BRANCH   1  27
ATOM     27  O   UNL A   1      35.882  33.350  29.114  1.00  0.00    -0.376 OA
BRANCH  27  28
ATOM     28  C   UNL A   1      35.252  33.329  30.394  1.00  0.00     0.202 C 
BRANCH  28  29
ATOM     29  C   UNL A   1      36.110  33.284  31.664  1.00  0.00     0.261 C 
BRANCH  29  30
ATOM     30  O   UNL A   1      37.361  32.582  31.499  1.00  0.00    -0.460 OA
BRANCH  30  31
ATOM     31  C   UNL A   1      37.327  31.265  31.778  1.00  0.00     0.338 C 
ATOM     32  O   UNL A   1      36.476  30.678  32.464  1.00  0.00    -0.246 OA
BRANCH  31  33
ATOM     33  C   UNL A   1      38.394  30.529  31.094  1.00  0.00     0.060 A 
ATOM     34  C   UNL A   1      39.413  29.950  31.861  1.00  0.00     0.016 A 
ATOM     35  C   UNL A   1      38.500  30.582  29.702  1.00  0.00     0.016 A 
ATOM     36  C   UNL A   1      40.563  29.458  31.239  1.00  0.00     0.010 A 
ATOM     37  C   UNL A   1      39.659  30.100  29.083  1.00  0.00     0.010 A 
ATOM     38  C   UNL A   1      40.714  29.572  29.850  1.00  0.00    -0.014 A 
BRANCH  38  39
ATOM     39  C   UNL A   1      42.029  29.292  29.217  1.00  0.00     0.031 A 
ATOM     40  C   UNL A   1      42.309  27.910  28.685  1.00  0.00     0.074 A 
ATOM     41  C   UNL A   1      42.967  30.252  29.109  1.00  0.00     0.049 A 
ATOM     42  N   UNL A   1      43.406  27.429  28.158  1.00  0.00    -0.248 NA
ATOM     43  C   UNL A   1      41.203  26.941  28.760  1.00  0.00     0.031 C 
ATOM     44  C   UNL A   1      42.812  31.638  29.546  1.00  0.00     0.029 A 
ATOM     45  N   UNL A   1      44.243  30.197  28.606  1.00  0.00    -0.354 N 
ATOM     46  C   UNL A   1      43.128  26.104  27.843  1.00  0.00     0.074 A 
ATOM     47  C   UNL A   1      41.765  25.849  28.257  1.00  0.00     0.031 C 
ATOM     48  C   UNL A   1      43.960  32.298  29.311  1.00  0.00     0.029 A 
ATOM     49  C   UNL A   1      44.939  31.376  28.737  1.00  0.00     0.049 A 
ATOM     50  H   UNL A   1      44.625  29.390  28.192  1.00  0.00     0.167 HD
ATOM     51  C   UNL A   1      43.931  25.184  27.257  1.00  0.00     0.037 A 
ATOM     52  C   UNL A   1      46.224  31.669  28.450  1.00  0.00     0.037 A 
ATOM     53  C   UNL A   1      45.287  25.434  26.841  1.00  0.00     0.049 A 
ATOM     54  C   UNL A   1      47.121  30.608  27.863  1.00  0.00     0.074 A 
ATOM     55  C   UNL A   1      46.169  24.567  26.219  1.00  0.00     0.029 A 
ATOM     56  N   UNL A   1      45.961  26.634  27.009  1.00  0.00    -0.354 N 
ATOM     57  N   UNL A   1      46.835  29.367  27.548  1.00  0.00    -0.248 NA
ATOM     58  C   UNL A   1      48.515  30.989  27.590  1.00  0.00     0.031 C 
ATOM     59  C   UNL A   1      47.389  25.228  26.051  1.00  0.00     0.029 A 
ATOM     60  C   UNL A   1      47.254  26.522  26.526  1.00  0.00     0.049 A 
ATOM     61  H   UNL A   1      45.577  27.445  27.413  1.00  0.00     0.167 HD
ATOM     62  C   UNL A   1      48.004  28.830  27.015  1.00  0.00     0.074 A 
ATOM     63  C   UNL A   1      48.998  29.882  27.042  1.00  0.00     0.031 C 
ATOM     64  C   UNL A   1      48.233  27.579  26.545  1.00  0.00     0.037 A 
BRANCH  51  65
ATOM     65  C   UNL A   1      43.375  23.804  27.045  1.00  0.00     0.058 A 
ATOM     66  C   UNL A   1      43.415  22.831  28.055  1.00  0.00     0.135 A 
ATOM     67  C   UNL A   1      42.742  23.471  25.837  1.00  0.00     0.135 A 
ATOM     68  F   UNL A   1      44.023  23.092  29.224  1.00  0.00    -0.206 F 
ATOM     69  C   UNL A   1      42.858  21.569  27.870  1.00  0.00     0.059 A 
ATOM     70  C   UNL A   1      42.158  22.224  25.638  1.00  0.00     0.059 A 
ATOM     71  F   UNL A   1      42.680  24.366  24.838  1.00  0.00    -0.206 F 
ATOM     72  C   UNL A   1      42.231  21.276  26.658  1.00  0.00     0.060 A 
BRANCH  72  73
ATOM     73  S   UNL A   1      41.494  19.642  26.439  1.00  0.00     0.124 S 
ATOM     74  O   UNL A   1      40.102  19.984  26.171  1.00  0.00    -0.237 OA
ATOM     75  O   UNL A   1      42.246  19.109  25.307  1.00  0.00    -0.237 OA
ATOM     76  O   UNL A   1      41.743  18.982  27.717  1.00  0.00    -0.744 OA
ENDBRANCH  72  73
ENDBRANCH  51  65
BRANCH  52  77
ATOM     77  C   UNL A   1      46.761  33.026  28.740  1.00  0.00     0.058 A 
ATOM     78  C   UNL A   1      47.213  33.368  30.023  1.00  0.00     0.135 A 
ATOM     79  C   UNL A   1      46.801  34.016  27.746  1.00  0.00     0.135 A 
ATOM     80  F   UNL A   1      47.182  32.459  31.009  1.00  0.00    -0.206 F 
ATOM     81  C   UNL A   1      47.663  34.651  30.318  1.00  0.00     0.059 A 
ATOM     82  C   UNL A   1      47.271  35.298  28.010  1.00  0.00     0.059 A 
ATOM     83  F   UNL A   1      46.388  33.736  26.499  1.00  0.00    -0.206 F 
ATOM     84  C   UNL A   1      47.685  35.610  29.304  1.00  0.00     0.060 A 
BRANCH  84  85
ATOM     85  S   UNL A   1      48.285  37.269  29.692  1.00  0.00     0.124 S 
ATOM     86  O   UNL A   1      47.203  38.099  29.174  1.00  0.00    -0.237 OA
ATOM     87  O   UNL A   1      48.410  37.218  31.146  1.00  0.00    -0.237 OA
ATOM     88  O   UNL A   1      49.547  37.347  28.963  1.00  0.00    -0.744 OA
ENDBRANCH  84  85
ENDBRANCH  52  77
BRANCH  64  89
ATOM     89  C   UNL A   1      49.597  27.280  25.982  1.00  0.00     0.058 A 
ATOM     90  C   UNL A   1      50.658  26.859  26.799  1.00  0.00     0.135 A 
ATOM     91  C   UNL A   1      49.829  27.363  24.599  1.00  0.00     0.135 A 
ATOM     92  F   UNL A   1      50.492  26.767  28.128  1.00  0.00    -0.206 F 
ATOM     93  C   UNL A   1      51.907  26.549  26.267  1.00  0.00     0.059 A 
ATOM     94  C   UNL A   1      51.062  27.034  24.043  1.00  0.00     0.059 A 
ATOM     95  F   UNL A   1      48.846  27.749  23.771  1.00  0.00    -0.206 F 
ATOM     96  C   UNL A   1      52.099  26.640  24.887  1.00  0.00     0.060 A 
BRANCH  96  97
ATOM     97  S   UNL A   1      53.713  26.202  24.205  1.00  0.00     0.124 S 
ATOM     98  O   UNL A   1      53.471  26.334  22.772  1.00  0.00    -0.237 OA
ATOM     99  O   UNL A   1      54.589  27.209  24.796  1.00  0.00    -0.237 OA
ATOM    100  O   UNL A   1      53.925  24.838  24.683  1.00  0.00    -0.744 OA
ENDBRANCH  96  97
ENDBRANCH  64  89
ENDBRANCH  38  39
ENDBRANCH  31  33
ENDBRANCH  30  31
ENDBRANCH  29  30
ENDBRANCH  28  29
ENDBRANCH  27  28
ENDBRANCH   1  27
TORSDOF 23
ENDMDL
MODEL 3
REMARK VINA RESULT:     -10.3      1.095      2.202
REMARK SMILES O=C(CN(c1ccccc1)[C@@H]1CCO[C@]2(CCSC2)C1)OCCOCCOCCOC(=O)c1ccc(-c2c3nc(c(-c4c(F)cc(S(=O)(=O)[O-])cc4F)c4ccc([nH]4)c(-c4c(F)cc(S(=O)(=O)[O-])cc4F)c4nc(c(-c5c(F)cc(S(=O)(=O)[O-])cc5F)c5ccc2[nH]5)C=C4)C=C3)cc1
REMARK SMILES IDX 26 1 25 2 24 3 23 4 22 5 21 6 2 7 1 8 3 9 4 10 5 11 6 12
REMARK SMILES IDX 10 13 7 14 9 15 8 16 11 17 12 18 20 19 13 20 15 21 14 22
REMARK SMILES IDX 16 23 19 24 17 25 18 26 27 27 28 28 29 29 30 30 31 31 32 32
REMARK SMILES IDX 33 33 34 34 98 35 35 36 97 37 36 38 37 39 38 40 91 41 39 42
REMARK SMILES IDX 96 43 90 44 92 45 40 46 95 47 89 48 88 49 41 51 75 52 54 53
REMARK SMILES IDX 74 54 55 55 58 56 73 57 93 58 56 59 57 60 72 62 94 63 59 64
REMARK SMILES IDX 42 65 43 66 52 67 44 68 45 69 51 70 53 71 46 72 47 73 48 74
REMARK SMILES IDX 49 75 50 76 76 77 77 78 86 79 78 80 79 81 85 82 87 83 80 84
REMARK SMILES IDX 81 85 82 86 83 87 84 88 60 89 61 90 70 91 62 92 63 93 69 94
REMARK SMILES IDX 71 95 64 96 65 97 66 98 67 99 68 100
REMARK H PARENT 92 50 58 61
REMARK Flexibility Score: inf
ROOT
ATOM      1  C   UNL A   1      33.195  29.732  26.151  1.00  0.00     0.188 C 
ENDROOT
BRANCH   1   2
ATOM      2  C   UNL A   1      31.926  29.326  25.402  1.00  0.00     0.188 C 
BRANCH   2   3
ATOM      3  O   UNL A   1      31.933  29.337  23.989  1.00  0.00    -0.376 OA
BRANCH   3   4
ATOM      4  C   UNL A   1      30.728  29.088  23.278  1.00  0.00     0.202 C 
BRANCH   4   5
ATOM      5  C   UNL A   1      30.555  27.849  22.391  1.00  0.00     0.261 C 
BRANCH   5   6
ATOM      6  O   UNL A   1      31.135  26.592  22.760  1.00  0.00    -0.462 OA
BRANCH   6   7
ATOM      7  C   UNL A   1      32.432  26.263  22.907  1.00  0.00     0.325 C 
ATOM      8  O   UNL A   1      33.186  26.433  21.949  1.00  0.00    -0.250 OA
BRANCH   7   9
ATOM      9  C   UNL A   1      32.937  25.663  24.212  1.00  0.00     0.239 C 
BRANCH   9  10
ATOM     10  N   UNL A   1      33.244  24.215  24.142  1.00  0.00    -0.357 N 
BRANCH  10  11
ATOM     11  C   UNL A   1      34.588  23.912  24.289  1.00  0.00     0.037 A 
ATOM     12  C   UNL A   1      35.300  24.148  25.470  1.00  0.00     0.026 A 
ATOM     13  C   UNL A   1      35.286  23.305  23.228  1.00  0.00     0.026 A 
ATOM     14  C   UNL A   1      36.658  23.821  25.578  1.00  0.00     0.002 A 
ATOM     15  C   UNL A   1      36.641  22.982  23.325  1.00  0.00     0.002 A 
ATOM     16  C   UNL A   1      37.330  23.246  24.502  1.00  0.00     0.000 A 
ENDBRANCH  10  11
BRANCH  10  17
ATOM     17  C   UNL A   1      32.191  23.300  23.629  1.00  0.00     0.088 C 
ATOM     18  C   UNL A   1      30.869  23.453  24.411  1.00  0.00     0.053 C 
ATOM     19  C   UNL A   1      32.540  21.800  23.605  1.00  0.00     0.061 C 
ATOM     20  C   UNL A   1      30.964  22.780  25.767  1.00  0.00     0.163 C 
ATOM     21  C   UNL A   1      32.404  21.044  24.949  1.00  0.00     0.080 C 
ATOM     22  O   UNL A   1      31.166  21.386  25.582  1.00  0.00    -0.374 OA
ATOM     23  C   UNL A   1      33.566  21.197  25.940  1.00  0.00     0.047 C 
ATOM     24  C   UNL A   1      32.371  19.522  24.696  1.00  0.00     0.105 C 
ATOM     25  C   UNL A   1      34.773  20.448  25.401  1.00  0.00     0.072 C 
ATOM     26  S   UNL A   1      34.104  18.984  24.567  1.00  0.00    -0.159 SA
ENDBRANCH  10  17
ENDBRANCH   9  10
ENDBRANCH   7   9
ENDBRANCH   6   7
ENDBRANCH   5   6
ENDBRANCH   4   5
ENDBRANCH   3   4
ENDBRANCH   2   3
ENDBRANCH   1   2
BRANCH   1  27
ATOM     27  O   UNL A   1      33.064  30.220  27.471  1.00  0.00    -0.376 OA
BRANCH  27  28
ATOM     28  C   UNL A   1      34.015  31.183  27.922  1.00  0.00     0.202 C 
BRANCH  28  29
ATOM     29  C   UNL A   1      35.507  30.826  27.947  1.00  0.00     0.261 C 
BRANCH  29  30
ATOM     30  O   UNL A   1      35.843  29.790  28.894  1.00  0.00    -0.460 OA
BRANCH  30  31
ATOM     31  C   UNL A   1      36.478  30.207  30.006  1.00  0.00     0.338 C 
ATOM     32  O   UNL A   1      35.950  30.517  31.085  1.00  0.00    -0.246 OA
BRANCH  31  33
ATOM     33  C   UNL A   1      37.936  30.180  29.852  1.00  0.00     0.060 A 
ATOM     34  C   UNL A   1      38.485  30.458  28.593  1.00  0.00     0.016 A 
ATOM     35  C   UNL A   1      38.740  29.689  30.881  1.00  0.00     0.016 A 
ATOM     36  C   UNL A   1      39.837  30.205  28.350  1.00  0.00     0.010 A 
ATOM     37  C   UNL A   1      40.092  29.424  30.631  1.00  0.00     0.010 A 
ATOM     38  C   UNL A   1      40.639  29.643  29.353  1.00  0.00    -0.014 A 
BRANCH  38  39
ATOM     39  C   UNL A   1      41.996  29.133  29.027  1.00  0.00     0.031 A 
ATOM     40  C   UNL A   1      43.163  30.087  29.050  1.00  0.00     0.074 A 
ATOM     41  C   UNL A   1      42.197  27.839  28.715  1.00  0.00     0.049 A 
ATOM     42  N   UNL A   1      44.416  29.875  28.737  1.00  0.00    -0.248 NA
ATOM     43  C   UNL A   1      42.879  31.464  29.486  1.00  0.00     0.031 C 
ATOM     44  C   UNL A   1      41.165  26.805  28.692  1.00  0.00     0.029 A 
ATOM     45  N   UNL A   1      43.343  27.180  28.345  1.00  0.00    -0.354 N 
ATOM     46  C   UNL A   1      45.067  31.087  28.929  1.00  0.00     0.074 A 
ATOM     47  C   UNL A   1      44.069  32.038  29.369  1.00  0.00     0.031 C 
ATOM     48  C   UNL A   1      41.722  25.644  28.306  1.00  0.00     0.029 A 
ATOM     49  C   UNL A   1      43.141  25.859  28.025  1.00  0.00     0.049 A 
ATOM     50  H   UNL A   1      44.227  27.613  28.311  1.00  0.00     0.167 HD
ATOM     51  C   UNL A   1      46.379  31.383  28.762  1.00  0.00     0.037 A 
ATOM     52  C   UNL A   1      43.996  24.936  27.538  1.00  0.00     0.037 A 
ATOM     53  C   UNL A   1      47.377  30.440  28.328  1.00  0.00     0.049 A 
ATOM     54  C   UNL A   1      45.438  25.306  27.294  1.00  0.00     0.074 A 
ATOM     55  C   UNL A   1      48.735  30.645  28.152  1.00  0.00     0.029 A 
ATOM     56  N   UNL A   1      47.128  29.117  27.995  1.00  0.00    -0.354 N 
ATOM     57  N   UNL A   1      46.043  26.451  27.506  1.00  0.00    -0.248 NA
ATOM     58  C   UNL A   1      46.312  24.259  26.745  1.00  0.00     0.031 C 
ATOM     59  C   UNL A   1      49.299  29.460  27.670  1.00  0.00     0.029 A 
ATOM     60  C   UNL A   1      48.302  28.502  27.591  1.00  0.00     0.049 A 
ATOM     61  H   UNL A   1      46.247  28.680  28.039  1.00  0.00     0.167 HD
ATOM     62  C   UNL A   1      47.373  26.251  27.143  1.00  0.00     0.074 A 
ATOM     63  C   UNL A   1      47.486  24.876  26.707  1.00  0.00     0.031 C 
ATOM     64  C   UNL A   1      48.407  27.128  27.171  1.00  0.00     0.037 A 
BRANCH  51  65
ATOM     65  C   UNL A   1      46.818  32.795  29.030  1.00  0.00     0.058 A 
ATOM     66  C   UNL A   1      47.225  33.210  30.307  1.00  0.00     0.135 A 
ATOM     67  C   UNL A   1      46.889  33.727  27.982  1.00  0.00     0.135 A 
ATOM     68  F   UNL A   1      47.161  32.362  31.346  1.00  0.00    -0.206 F 
ATOM     69  C   UNL A   1      47.672  34.506  30.540  1.00  0.00     0.059 A 
ATOM     70  C   UNL A   1      47.355  35.022  28.188  1.00  0.00     0.059 A 
ATOM     71  F   UNL A   1      46.508  33.381  26.742  1.00  0.00    -0.206 F 
ATOM     72  C   UNL A   1      47.735  35.405  29.474  1.00  0.00     0.060 A 
BRANCH  72  73
ATOM     73  S   UNL A   1      48.339  37.077  29.787  1.00  0.00     0.124 S 
ATOM     74  O   UNL A   1      47.703  37.823  28.706  1.00  0.00    -0.237 OA
ATOM     75  O   UNL A   1      47.830  37.347  31.128  1.00  0.00    -0.237 OA
ATOM     76  O   UNL A   1      49.788  36.941  29.687  1.00  0.00    -0.744 OA
ENDBRANCH  72  73
ENDBRANCH  51  65
BRANCH  52  77
ATOM     77  C   UNL A   1      43.511  23.567  27.217  1.00  0.00     0.058 A 
ATOM     78  C   UNL A   1      43.285  23.170  25.890  1.00  0.00     0.135 A 
ATOM     79  C   UNL A   1      43.233  22.640  28.233  1.00  0.00     0.135 A 
ATOM     80  F   UNL A   1      43.524  24.026  24.886  1.00  0.00    -0.206 F 
ATOM     81  C   UNL A   1      42.777  21.912  25.583  1.00  0.00     0.059 A 
ATOM     82  C   UNL A   1      42.749  21.367  27.950  1.00  0.00     0.059 A 
ATOM     83  F   UNL A   1      43.442  22.967  29.519  1.00  0.00    -0.206 F 
ATOM     84  C   UNL A   1      42.509  21.019  26.621  1.00  0.00     0.060 A 
BRANCH  84  85
ATOM     85  S   UNL A   1      41.864  19.382  26.212  1.00  0.00     0.124 S 
ATOM     86  O   UNL A   1      40.432  19.645  26.133  1.00  0.00    -0.237 OA
ATOM     87  O   UNL A   1      42.532  19.097  24.945  1.00  0.00    -0.237 OA
ATOM     88  O   UNL A   1      42.295  18.562  27.340  1.00  0.00    -0.744 OA
ENDBRANCH  84  85
ENDBRANCH  52  77
BRANCH  64  89
ATOM     89  C   UNL A   1      49.764  26.624  26.757  1.00  0.00     0.058 A 
ATOM     90  C   UNL A   1      50.205  26.699  25.427  1.00  0.00     0.135 A 
ATOM     91  C   UNL A   1      50.655  26.113  27.714  1.00  0.00     0.135 A 
ATOM     92  F   UNL A   1      49.393  27.175  24.471  1.00  0.00    -0.206 F 
ATOM     93  C   UNL A   1      51.476  26.265  25.056  1.00  0.00     0.059 A 
ATOM     94  C   UNL A   1      51.938  25.696  27.372  1.00  0.00     0.059 A 
ATOM     95  F   UNL A   1      50.288  26.029  29.003  1.00  0.00    -0.206 F 
ATOM     96  C   UNL A   1      52.335  25.765  26.037  1.00  0.00     0.060 A 
BRANCH  96  97
ATOM     97  S   UNL A   1      53.993  25.238  25.551  1.00  0.00     0.124 S 
ATOM     98  O   UNL A   1      54.480  26.417  24.843  1.00  0.00    -0.237 OA
ATOM     99  O   UNL A   1      54.626  24.964  26.837  1.00  0.00    -0.237 OA
ATOM    100  O   UNL A   1      53.746  24.064  24.718  1.00  0.00    -0.744 OA
ENDBRANCH  96  97
ENDBRANCH  64  89
ENDBRANCH  38  39
ENDBRANCH  31  33
ENDBRANCH  30  31
ENDBRANCH  29  30
ENDBRANCH  28  29
ENDBRANCH  27  28
ENDBRANCH   1  27
TORSDOF 23
ENDMDL
