MODEL 1
REMARK VINA RESULT:      -9.9      0.000      0.000
REMARK SMILES O=C(OCCOCCOCCOC(=O)c1ccc(-c2c3nc(c(-c4c(F)cc(S(=O)(=O)[O-])cc4F)c4ccc([nH]4)c(-c4c(F)cc(S(=O)(=O)[O-])cc4F)c4nc(c(-c5c(F)cc(S(=O)(=O)[O-])cc5F)c5ccc2[nH]5)C=C4)C=C3)cc1)C1=Cc2cc(OC(F)(F)F)ccc2O[C@@H]1C(F)(F)F
REMARK SMILES IDX 8 1 7 2 6 3 5 4 4 5 3 6 2 7 1 8 81 9 82 10 95 11 83 12 94 13
REMARK SMILES IDX 84 14 93 15 85 16 92 17 91 18 96 19 97 20 98 21 99 22 86 23
REMARK SMILES IDX 87 24 88 25 89 26 90 27 9 28 10 29 11 30 12 31 13 32 14 33
REMARK SMILES IDX 15 34 16 35 80 36 17 37 79 38 18 39 19 40 20 41 73 42 21 43
REMARK SMILES IDX 78 44 72 45 74 46 22 47 77 48 71 49 70 50 23 52 57 53 36 54
REMARK SMILES IDX 56 55 37 56 40 57 55 58 75 59 38 60 39 61 54 63 76 64 41 65
REMARK SMILES IDX 24 66 25 67 34 68 26 69 27 70 33 71 35 72 28 73 29 74 30 75
REMARK SMILES IDX 31 76 32 77 58 78 59 79 68 80 60 81 61 82 67 83 69 84 62 85
REMARK SMILES IDX 63 86 64 87 65 88 66 89 42 90 43 91 52 92 44 93 45 94 51 95
REMARK SMILES IDX 53 96 46 97 47 98 48 99 49 100 50 101
REMARK H PARENT 74 51 40 62
REMARK Flexibility Score: inf
ROOT
ATOM      1  C   UNL A   1      41.583  25.184  26.321  1.00  0.00     0.188 C 
ENDROOT
BRANCH   1   2
ATOM      2  C   UNL A   1      40.550  24.738  27.366  1.00  0.00     0.188 C 
BRANCH   2   3
ATOM      3  O   UNL A   1      39.213  24.162  27.017  1.00  0.00    -0.376 OA
BRANCH   3   4
ATOM      4  C   UNL A   1      38.870  22.648  26.247  1.00  0.00     0.202 C 
BRANCH   4   5
ATOM      5  C   UNL A   1      36.883  22.004  25.644  1.00  0.00     0.261 C 
BRANCH   5   6
ATOM      6  O   UNL A   1      36.439  21.631  24.248  1.00  0.00    -0.460 OA
BRANCH   6   7
ATOM      7  C   UNL A   1      35.667  22.586  23.708  1.00  0.00     0.338 C 
ATOM      8  O   UNL A   1      35.952  23.340  22.810  1.00  0.00    -0.246 OA
BRANCH   7   9
ATOM      9  C   UNL A   1      34.739  22.733  24.823  1.00  0.00     0.087 C 
ATOM     10  C   UNL A   1      34.619  24.070  25.387  1.00  0.00     0.027 C 
ATOM     11  C   UNL A   1      33.340  21.829  23.880  1.00  0.00     0.316 C 
ATOM     12  C   UNL A   1      33.275  25.201  25.041  1.00  0.00     0.021 A 
ATOM     13  O   UNL A   1      31.943  23.086  23.330  1.00  0.00    -0.475 OA
ATOM     14  C   UNL A   1      33.320  26.463  25.553  1.00  0.00     0.058 A 
ATOM     15  C   UNL A   1      31.975  24.798  23.986  1.00  0.00     0.128 A 
ATOM     16  C   UNL A   1      32.256  27.316  25.196  1.00  0.00     0.130 A 
ATOM     17  C   UNL A   1      30.959  25.663  23.693  1.00  0.00     0.051 A 
ATOM     18  C   UNL A   1      31.137  26.932  24.330  1.00  0.00     0.050 A 
BRANCH  11  19
ATOM     19  C   UNL A   1      33.352  20.553  24.993  1.00  0.00     0.430 C 
ATOM     20  F   UNL A   1      32.260  19.832  25.242  1.00  0.00    -0.167 F 
ATOM     21  F   UNL A   1      34.298  19.662  24.592  1.00  0.00    -0.167 F 
ATOM     22  F   UNL A   1      33.765  20.954  26.235  1.00  0.00    -0.167 F 
ENDBRANCH  11  19
BRANCH  16  23
ATOM     23  O   UNL A   1      32.441  28.548  25.782  1.00  0.00    -0.406 OA
BRANCH  23  24
ATOM     24  C   UNL A   1      32.031  28.770  27.112  1.00  0.00     0.573 C 
ATOM     25  F   UNL A   1      31.605  30.037  27.282  1.00  0.00    -0.132 F 
ATOM     26  F   UNL A   1      31.059  27.908  27.469  1.00  0.00    -0.132 F 
ATOM     27  F   UNL A   1      33.093  28.569  27.925  1.00  0.00    -0.132 F 
ENDBRANCH  23  24
ENDBRANCH  16  23
ENDBRANCH   7   9
ENDBRANCH   6   7
ENDBRANCH   5   6
ENDBRANCH   4   5
ENDBRANCH   3   4
ENDBRANCH   2   3
ENDBRANCH   1   2
BRANCH   1  28
ATOM     28  O   UNL A   1      42.655  24.330  26.018  1.00  0.00    -0.376 OA
BRANCH  28  29
ATOM     29  C   UNL A   1      43.529  24.806  25.003  1.00  0.00     0.202 C 
BRANCH  29  30
ATOM     30  C   UNL A   1      44.793  23.982  24.688  1.00  0.00     0.261 C 
BRANCH  30  31
ATOM     31  O   UNL A   1      46.025  24.741  24.706  1.00  0.00    -0.460 OA
BRANCH  31  32
ATOM     32  C   UNL A   1      46.699  24.818  25.884  1.00  0.00     0.338 C 
ATOM     33  O   UNL A   1      47.292  23.915  26.448  1.00  0.00    -0.246 OA
BRANCH  32  34
ATOM     34  C   UNL A   1      46.752  26.225  26.343  1.00  0.00     0.060 A 
ATOM     35  C   UNL A   1      47.223  26.524  27.632  1.00  0.00     0.016 A 
ATOM     36  C   UNL A   1      46.287  27.247  25.515  1.00  0.00     0.016 A 
ATOM     37  C   UNL A   1      47.275  27.849  28.077  1.00  0.00     0.010 A 
ATOM     38  C   UNL A   1      46.285  28.567  25.982  1.00  0.00     0.010 A 
ATOM     39  C   UNL A   1      46.768  28.874  27.267  1.00  0.00    -0.014 A 
BRANCH  39  40
ATOM     40  C   UNL A   1      46.499  30.214  27.852  1.00  0.00     0.031 A 
ATOM     41  C   UNL A   1      45.246  30.373  28.667  1.00  0.00     0.074 A 
ATOM     42  C   UNL A   1      47.323  31.262  27.662  1.00  0.00     0.049 A 
ATOM     43  N   UNL A   1      44.747  31.440  29.233  1.00  0.00    -0.248 NA
ATOM     44  C   UNL A   1      44.440  29.156  28.863  1.00  0.00     0.031 C 
ATOM     45  C   UNL A   1      48.582  31.226  26.923  1.00  0.00     0.029 A 
ATOM     46  N   UNL A   1      47.211  32.570  28.071  1.00  0.00    -0.354 N 
ATOM     47  C   UNL A   1      43.571  31.025  29.845  1.00  0.00     0.074 A 
ATOM     48  C   UNL A   1      43.411  29.619  29.554  1.00  0.00     0.031 C 
ATOM     49  C   UNL A   1      49.121  32.459  26.919  1.00  0.00     0.029 A 
ATOM     50  C   UNL A   1      48.230  33.380  27.624  1.00  0.00     0.049 A 
ATOM     51  H   UNL A   1      46.471  32.896  28.633  1.00  0.00     0.167 HD
ATOM     52  C   UNL A   1      42.704  31.750  30.589  1.00  0.00     0.037 A 
ATOM     53  C   UNL A   1      48.405  34.713  27.752  1.00  0.00     0.037 A 
ATOM     54  C   UNL A   1      42.857  33.157  30.851  1.00  0.00     0.049 A 
ATOM     55  C   UNL A   1      47.379  35.520  28.515  1.00  0.00     0.074 A 
ATOM     56  C   UNL A   1      42.041  33.984  31.600  1.00  0.00     0.029 A 
ATOM     57  N   UNL A   1      43.884  33.949  30.356  1.00  0.00    -0.354 N 
ATOM     58  N   UNL A   1      46.289  35.112  29.124  1.00  0.00    -0.248 NA
ATOM     59  C   UNL A   1      47.607  36.970  28.612  1.00  0.00     0.031 C 
ATOM     60  C   UNL A   1      42.530  35.289  31.494  1.00  0.00     0.029 A 
ATOM     61  C   UNL A   1      43.701  35.264  30.752  1.00  0.00     0.049 A 
ATOM     62  H   UNL A   1      44.632  33.625  29.804  1.00  0.00     0.167 HD
ATOM     63  C   UNL A   1      45.723  36.245  29.701  1.00  0.00     0.074 A 
ATOM     64  C   UNL A   1      46.598  37.354  29.381  1.00  0.00     0.031 C 
ATOM     65  C   UNL A   1      44.584  36.359  30.431  1.00  0.00     0.037 A 
BRANCH  52  66
ATOM     66  C   UNL A   1      41.492  31.042  31.132  1.00  0.00     0.058 A 
ATOM     67  C   UNL A   1      40.330  30.860  30.363  1.00  0.00     0.135 A 
ATOM     68  C   UNL A   1      41.500  30.519  32.435  1.00  0.00     0.135 A 
ATOM     69  F   UNL A   1      40.257  31.358  29.118  1.00  0.00    -0.206 F 
ATOM     70  C   UNL A   1      39.213  30.210  30.876  1.00  0.00     0.059 A 
ATOM     71  C   UNL A   1      40.407  29.834  32.956  1.00  0.00     0.059 A 
ATOM     72  F   UNL A   1      42.579  30.671  33.219  1.00  0.00    -0.206 F 
ATOM     73  C   UNL A   1      39.263  29.695  32.172  1.00  0.00     0.060 A 
BRANCH  73  74
ATOM     74  S   UNL A   1      37.810  28.840  32.813  1.00  0.00     0.124 S 
ATOM     75  O   UNL A   1      38.250  27.449  32.780  1.00  0.00    -0.237 OA
ATOM     76  O   UNL A   1      37.666  29.427  34.141  1.00  0.00    -0.237 OA
ATOM     77  O   UNL A   1      36.761  29.187  31.859  1.00  0.00    -0.744 OA
ENDBRANCH  73  74
ENDBRANCH  52  66
BRANCH  53  78
ATOM     78  C   UNL A   1      49.586  35.382  27.133  1.00  0.00     0.058 A 
ATOM     79  C   UNL A   1      49.519  35.950  25.851  1.00  0.00     0.135 A 
ATOM     80  C   UNL A   1      50.818  35.452  27.805  1.00  0.00     0.135 A 
ATOM     81  F   UNL A   1      48.374  35.892  25.152  1.00  0.00    -0.206 F 
ATOM     82  C   UNL A   1      50.625  36.549  25.254  1.00  0.00     0.059 A 
ATOM     83  C   UNL A   1      51.929  36.076  27.244  1.00  0.00     0.059 A 
ATOM     84  F   UNL A   1      50.946  34.924  29.033  1.00  0.00    -0.206 F 
ATOM     85  C   UNL A   1      51.825  36.614  25.963  1.00  0.00     0.060 A 
BRANCH  85  86
ATOM     86  S   UNL A   1      53.239  37.441  25.201  1.00  0.00     0.124 S 
ATOM     87  O   UNL A   1      54.359  36.799  25.877  1.00  0.00    -0.237 OA
ATOM     88  O   UNL A   1      53.066  37.103  23.791  1.00  0.00    -0.237 OA
ATOM     89  O   UNL A   1      53.025  38.848  25.532  1.00  0.00    -0.744 OA
ENDBRANCH  85  86
ENDBRANCH  53  78
BRANCH  65  90
ATOM     90  C   UNL A   1      44.232  37.720  30.978  1.00  0.00     0.058 A 
ATOM     91  C   UNL A   1      44.590  38.118  32.275  1.00  0.00     0.135 A 
ATOM     92  C   UNL A   1      43.581  38.663  30.162  1.00  0.00     0.135 A 
ATOM     93  F   UNL A   1      45.212  37.261  33.099  1.00  0.00    -0.206 F 
ATOM     94  C   UNL A   1      44.288  39.390  32.755  1.00  0.00     0.059 A 
ATOM     95  C   UNL A   1      43.306  39.951  30.608  1.00  0.00     0.059 A 
ATOM     96  F   UNL A   1      43.227  38.343  28.907  1.00  0.00    -0.206 F 
ATOM     97  C   UNL A   1      43.651  40.301  31.911  1.00  0.00     0.060 A 
BRANCH  97  98
ATOM     98  S   UNL A   1      43.300  41.958  32.536  1.00  0.00     0.124 S 
ATOM     99  O   UNL A   1      42.015  41.759  33.198  1.00  0.00    -0.237 OA
ATOM    100  O   UNL A   1      44.437  42.203  33.418  1.00  0.00    -0.237 OA
ATOM    101  O   UNL A   1      43.262  42.779  31.329  1.00  0.00    -0.744 OA
ENDBRANCH  97  98
ENDBRANCH  65  90
ENDBRANCH  39  40
ENDBRANCH  32  34
ENDBRANCH  31  32
ENDBRANCH  30  31
ENDBRANCH  29  30
ENDBRANCH  28  29
ENDBRANCH   1  28
TORSDOF 23
ENDMDL
MODEL 2
REMARK VINA RESULT:      -9.9      7.645     11.731
REMARK SMILES O=C(OCCOCCOCCOC(=O)c1ccc(-c2c3nc(c(-c4c(F)cc(S(=O)(=O)[O-])cc4F)c4ccc([nH]4)c(-c4c(F)cc(S(=O)(=O)[O-])cc4F)c4nc(c(-c5c(F)cc(S(=O)(=O)[O-])cc5F)c5ccc2[nH]5)C=C4)C=C3)cc1)C1=Cc2cc(OC(F)(F)F)ccc2O[C@@H]1C(F)(F)F
REMARK SMILES IDX 8 1 7 2 6 3 5 4 4 5 3 6 2 7 1 8 81 9 82 10 95 11 83 12 94 13
REMARK SMILES IDX 84 14 93 15 85 16 92 17 91 18 96 19 97 20 98 21 99 22 86 23
REMARK SMILES IDX 87 24 88 25 89 26 90 27 9 28 10 29 11 30 12 31 13 32 14 33
REMARK SMILES IDX 15 34 16 35 80 36 17 37 79 38 18 39 19 40 20 41 73 42 21 43
REMARK SMILES IDX 78 44 72 45 74 46 22 47 77 48 71 49 70 50 23 52 57 53 36 54
REMARK SMILES IDX 56 55 37 56 40 57 55 58 75 59 38 60 39 61 54 63 76 64 41 65
REMARK SMILES IDX 24 66 25 67 34 68 26 69 27 70 33 71 35 72 28 73 29 74 30 75
REMARK SMILES IDX 31 76 32 77 58 78 59 79 68 80 60 81 61 82 67 83 69 84 62 85
REMARK SMILES IDX 63 86 64 87 65 88 66 89 42 90 43 91 52 92 44 93 45 94 51 95
REMARK SMILES IDX 53 96 46 97 47 98 48 99 49 100 50 101
REMARK H PARENT 74 51 40 62
REMARK Flexibility Score: inf
ROOT
ATOM      1  C   UNL A   1      37.554  29.758  29.184  1.00  0.00     0.188 C 
ENDROOT
BRANCH   1   2
ATOM      2  C   UNL A   1      36.511  29.253  28.176  1.00  0.00     0.188 C 
BRANCH   2   3
ATOM      3  O   UNL A   1      35.759  30.149  27.242  1.00  0.00    -0.376 OA
BRANCH   3   4
ATOM      4  C   UNL A   1      34.068  30.527  27.254  1.00  0.00     0.202 C 
BRANCH   4   5
ATOM      5  C   UNL A   1      32.680  29.977  25.675  1.00  0.00     0.261 C 
BRANCH   5   6
ATOM      6  O   UNL A   1      31.352  29.273  25.843  1.00  0.00    -0.460 OA
BRANCH   6   7
ATOM      7  C   UNL A   1      31.505  27.941  25.872  1.00  0.00     0.338 C 
ATOM      8  O   UNL A   1      31.801  27.256  26.821  1.00  0.00    -0.246 OA
BRANCH   7   9
ATOM      9  C   UNL A   1      31.724  27.743  24.445  1.00  0.00     0.087 C 
ATOM     10  C   UNL A   1      32.964  27.078  24.071  1.00  0.00     0.027 C 
ATOM     11  C   UNL A   1      29.979  26.993  24.201  1.00  0.00     0.316 C 
ATOM     12  C   UNL A   1      33.091  25.352  23.609  1.00  0.00     0.021 A 
ATOM     13  O   UNL A   1      30.087  25.065  23.876  1.00  0.00    -0.475 OA
ATOM     14  C   UNL A   1      34.321  24.817  23.371  1.00  0.00     0.058 A 
ATOM     15  C   UNL A   1      31.725  24.303  23.566  1.00  0.00     0.128 A 
ATOM     16  C   UNL A   1      34.351  23.441  23.066  1.00  0.00     0.130 A 
ATOM     17  C   UNL A   1      31.814  22.979  23.241  1.00  0.00     0.051 A 
ATOM     18  C   UNL A   1      33.166  22.580  22.992  1.00  0.00     0.050 A 
BRANCH  11  19
ATOM     19  C   UNL A   1      29.509  28.291  23.219  1.00  0.00     0.430 C 
ATOM     20  F   UNL A   1      29.689  29.555  23.598  1.00  0.00    -0.167 F 
ATOM     21  F   UNL A   1      30.156  28.167  22.030  1.00  0.00    -0.167 F 
ATOM     22  F   UNL A   1      28.180  28.237  22.894  1.00  0.00    -0.167 F 
ENDBRANCH  11  19
BRANCH  16  23
ATOM     23  O   UNL A   1      35.653  23.047  22.855  1.00  0.00    -0.406 OA
BRANCH  23  24
ATOM     24  C   UNL A   1      36.469  22.687  23.946  1.00  0.00     0.573 C 
ATOM     25  F   UNL A   1      37.295  21.673  23.618  1.00  0.00    -0.132 F 
ATOM     26  F   UNL A   1      37.187  23.740  24.383  1.00  0.00    -0.132 F 
ATOM     27  F   UNL A   1      35.672  22.271  24.957  1.00  0.00    -0.132 F 
ENDBRANCH  23  24
ENDBRANCH  16  23
ENDBRANCH   7   9
ENDBRANCH   6   7
ENDBRANCH   5   6
ENDBRANCH   4   5
ENDBRANCH   3   4
ENDBRANCH   2   3
ENDBRANCH   1   2
BRANCH   1  28
ATOM     28  O   UNL A   1      38.415  30.800  28.805  1.00  0.00    -0.376 OA
BRANCH  28  29
ATOM     29  C   UNL A   1      38.211  32.024  29.499  1.00  0.00     0.202 C 
BRANCH  29  30
ATOM     30  C   UNL A   1      36.847  32.725  29.349  1.00  0.00     0.261 C 
BRANCH  30  31
ATOM     31  O   UNL A   1      35.957  32.554  30.477  1.00  0.00    -0.460 OA
BRANCH  31  32
ATOM     32  C   UNL A   1      35.799  33.608  31.321  1.00  0.00     0.338 C 
ATOM     33  O   UNL A   1      34.938  34.468  31.264  1.00  0.00    -0.246 OA
BRANCH  32  34
ATOM     34  C   UNL A   1      36.753  33.497  32.449  1.00  0.00     0.060 A 
ATOM     35  C   UNL A   1      37.990  34.159  32.387  1.00  0.00     0.016 A 
ATOM     36  C   UNL A   1      36.443  32.696  33.548  1.00  0.00     0.016 A 
ATOM     37  C   UNL A   1      38.899  34.059  33.446  1.00  0.00     0.010 A 
ATOM     38  C   UNL A   1      37.377  32.551  34.581  1.00  0.00     0.010 A 
ATOM     39  C   UNL A   1      38.613  33.221  34.531  1.00  0.00    -0.014 A 
BRANCH  39  40
ATOM     40  C   UNL A   1      39.694  32.839  35.477  1.00  0.00     0.031 A 
ATOM     41  C   UNL A   1      40.028  33.814  36.572  1.00  0.00     0.074 A 
ATOM     42  C   UNL A   1      40.369  31.680  35.370  1.00  0.00     0.049 A 
ATOM     43  N   UNL A   1      40.961  33.755  37.486  1.00  0.00    -0.248 NA
ATOM     44  C   UNL A   1      39.196  35.027  36.639  1.00  0.00     0.031 C 
ATOM     45  C   UNL A   1      40.115  30.641  34.376  1.00  0.00     0.029 A 
ATOM     46  N   UNL A   1      41.421  31.189  36.107  1.00  0.00    -0.354 N 
ATOM     47  C   UNL A   1      40.831  34.921  38.229  1.00  0.00     0.074 A 
ATOM     48  C   UNL A   1      39.755  35.686  37.642  1.00  0.00     0.031 C 
ATOM     49  C   UNL A   1      40.997  29.640  34.555  1.00  0.00     0.029 A 
ATOM     50  C   UNL A   1      41.901  29.982  35.653  1.00  0.00     0.049 A 
ATOM     51  H   UNL A   1      41.796  31.659  36.887  1.00  0.00     0.167 HD
ATOM     52  C   UNL A   1      41.543  35.318  39.310  1.00  0.00     0.037 A 
ATOM     53  C   UNL A   1      42.960  29.253  36.065  1.00  0.00     0.037 A 
ATOM     54  C   UNL A   1      42.632  34.564  39.871  1.00  0.00     0.049 A 
ATOM     55  C   UNL A   1      43.795  29.757  37.221  1.00  0.00     0.074 A 
ATOM     56  C   UNL A   1      43.413  34.872  40.970  1.00  0.00     0.029 A 
ATOM     57  N   UNL A   1      43.108  33.361  39.366  1.00  0.00    -0.354 N 
ATOM     58  N   UNL A   1      43.641  30.843  37.943  1.00  0.00    -0.248 NA
ATOM     59  C   UNL A   1      44.948  28.935  37.621  1.00  0.00     0.031 C 
ATOM     60  C   UNL A   1      44.408  33.897  41.083  1.00  0.00     0.029 A 
ATOM     61  C   UNL A   1      44.196  32.934  40.110  1.00  0.00     0.049 A 
ATOM     62  H   UNL A   1      42.729  32.883  38.594  1.00  0.00     0.167 HD
ATOM     63  C   UNL A   1      44.653  30.817  38.899  1.00  0.00     0.074 A 
ATOM     64  C   UNL A   1      45.405  29.600  38.673  1.00  0.00     0.031 C 
ATOM     65  C   UNL A   1      44.934  31.715  39.876  1.00  0.00     0.037 A 
BRANCH  52  66
ATOM     66  C   UNL A   1      41.193  36.647  39.923  1.00  0.00     0.058 A 
ATOM     67  C   UNL A   1      41.850  37.833  39.555  1.00  0.00     0.135 A 
ATOM     68  C   UNL A   1      40.169  36.739  40.880  1.00  0.00     0.135 A 
ATOM     69  F   UNL A   1      42.853  37.803  38.661  1.00  0.00    -0.206 F 
ATOM     70  C   UNL A   1      41.523  39.056  40.133  1.00  0.00     0.059 A 
ATOM     71  C   UNL A   1      39.801  37.956  41.444  1.00  0.00     0.059 A 
ATOM     72  F   UNL A   1      39.513  35.638  41.277  1.00  0.00    -0.206 F 
ATOM     73  C   UNL A   1      40.493  39.107  41.073  1.00  0.00     0.060 A 
BRANCH  73  74
ATOM     74  S   UNL A   1      40.073  40.705  41.798  1.00  0.00     0.124 S 
ATOM     75  O   UNL A   1      41.381  41.183  42.233  1.00  0.00    -0.237 OA
ATOM     76  O   UNL A   1      39.485  41.413  40.666  1.00  0.00    -0.237 OA
ATOM     77  O   UNL A   1      39.145  40.360  42.870  1.00  0.00    -0.744 OA
ENDBRANCH  73  74
ENDBRANCH  52  66
BRANCH  53  78
ATOM     78  C   UNL A   1      43.312  27.976  35.377  1.00  0.00     0.058 A 
ATOM     79  C   UNL A   1      42.753  26.751  35.775  1.00  0.00     0.135 A 
ATOM     80  C   UNL A   1      44.232  27.951  34.316  1.00  0.00     0.135 A 
ATOM     81  F   UNL A   1      41.885  26.712  36.798  1.00  0.00    -0.206 F 
ATOM     82  C   UNL A   1      43.098  25.552  35.158  1.00  0.00     0.059 A 
ATOM     83  C   UNL A   1      44.568  26.769  33.661  1.00  0.00     0.059 A 
ATOM     84  F   UNL A   1      44.803  29.090  33.893  1.00  0.00    -0.206 F 
ATOM     85  C   UNL A   1      44.003  25.572  34.095  1.00  0.00     0.060 A 
BRANCH  85  86
ATOM     86  S   UNL A   1      44.403  24.017  33.267  1.00  0.00     0.124 S 
ATOM     87  O   UNL A   1      43.339  23.143  33.745  1.00  0.00    -0.237 OA
ATOM     88  O   UNL A   1      44.333  24.396  31.859  1.00  0.00    -0.237 OA
ATOM     89  O   UNL A   1      45.742  23.707  33.760  1.00  0.00    -0.744 OA
ENDBRANCH  85  86
ENDBRANCH  53  78
BRANCH  65  90
ATOM     90  C   UNL A   1      46.076  31.405  40.811  1.00  0.00     0.058 A 
ATOM     91  C   UNL A   1      45.900  30.643  41.977  1.00  0.00     0.135 A 
ATOM     92  C   UNL A   1      47.381  31.824  40.497  1.00  0.00     0.135 A 
ATOM     93  F   UNL A   1      44.677  30.215  42.328  1.00  0.00    -0.206 F 
ATOM     94  C   UNL A   1      46.970  30.334  42.813  1.00  0.00     0.059 A 
ATOM     95  C   UNL A   1      48.470  31.493  41.297  1.00  0.00     0.059 A 
ATOM     96  F   UNL A   1      47.612  32.544  39.388  1.00  0.00    -0.206 F 
ATOM     97  C   UNL A   1      48.252  30.759  42.461  1.00  0.00     0.060 A 
BRANCH  97  98
ATOM     98  S   UNL A   1      49.633  30.319  43.536  1.00  0.00     0.124 S 
ATOM     99  O   UNL A   1      49.031  29.301  44.391  1.00  0.00    -0.237 OA
ATOM    100  O   UNL A   1      50.628  29.840  42.583  1.00  0.00    -0.237 OA
ATOM    101  O   UNL A   1      49.966  31.577  44.200  1.00  0.00    -0.744 OA
ENDBRANCH  97  98
ENDBRANCH  65  90
ENDBRANCH  39  40
ENDBRANCH  32  34
ENDBRANCH  31  32
ENDBRANCH  30  31
ENDBRANCH  29  30
ENDBRANCH  28  29
ENDBRANCH   1  28
TORSDOF 23
ENDMDL
MODEL 3
REMARK VINA RESULT:      -9.7      5.709     14.869
REMARK SMILES O=C(OCCOCCOCCOC(=O)c1ccc(-c2c3nc(c(-c4c(F)cc(S(=O)(=O)[O-])cc4F)c4ccc([nH]4)c(-c4c(F)cc(S(=O)(=O)[O-])cc4F)c4nc(c(-c5c(F)cc(S(=O)(=O)[O-])cc5F)c5ccc2[nH]5)C=C4)C=C3)cc1)C1=Cc2cc(OC(F)(F)F)ccc2O[C@@H]1C(F)(F)F
REMARK SMILES IDX 8 1 7 2 6 3 5 4 4 5 3 6 2 7 1 8 81 9 82 10 95 11 83 12 94 13
REMARK SMILES IDX 84 14 93 15 85 16 92 17 91 18 96 19 97 20 98 21 99 22 86 23
REMARK SMILES IDX 87 24 88 25 89 26 90 27 9 28 10 29 11 30 12 31 13 32 14 33
REMARK SMILES IDX 15 34 16 35 80 36 17 37 79 38 18 39 19 40 20 41 73 42 21 43
REMARK SMILES IDX 78 44 72 45 74 46 22 47 77 48 71 49 70 50 23 52 57 53 36 54
REMARK SMILES IDX 56 55 37 56 40 57 55 58 75 59 38 60 39 61 54 63 76 64 41 65
REMARK SMILES IDX 24 66 25 67 34 68 26 69 27 70 33 71 35 72 28 73 29 74 30 75
REMARK SMILES IDX 31 76 32 77 58 78 59 79 68 80 60 81 61 82 67 83 69 84 62 85
REMARK SMILES IDX 63 86 64 87 65 88 66 89 42 90 43 91 52 92 44 93 45 94 51 95
REMARK SMILES IDX 53 96 46 97 47 98 48 99 49 100 50 101
REMARK H PARENT 74 51 40 62
REMARK Flexibility Score: inf
ROOT
ATOM      1  C   UNL A   1      47.920  41.466  30.816  1.00  0.00     0.188 C 
ENDROOT
BRANCH   1   2
ATOM      2  C   UNL A   1      46.853  42.394  31.413  1.00  0.00     0.188 C 
BRANCH   2   3
ATOM      3  O   UNL A   1      45.384  42.229  31.176  1.00  0.00    -0.376 OA
BRANCH   3   4
ATOM      4  C   UNL A   1      44.463  42.718  29.791  1.00  0.00     0.202 C 
BRANCH   4   5
ATOM      5  C   UNL A   1      45.324  43.176  27.849  1.00  0.00     0.261 C 
BRANCH   5   6
ATOM      6  O   UNL A   1      44.602  43.761  26.656  1.00  0.00    -0.460 OA
BRANCH   6   7
ATOM      7  C   UNL A   1      45.396  43.802  25.576  1.00  0.00     0.338 C 
ATOM      8  O   UNL A   1      46.055  44.734  25.185  1.00  0.00    -0.246 OA
BRANCH   7   9
ATOM      9  C   UNL A   1      44.797  42.686  24.856  1.00  0.00     0.087 C 
ATOM     10  C   UNL A   1      43.584  42.981  24.106  1.00  0.00     0.027 C 
ATOM     11  C   UNL A   1      46.468  42.199  24.059  1.00  0.00     0.316 C 
ATOM     12  C   UNL A   1      43.523  43.236  22.334  1.00  0.00     0.021 A 
ATOM     13  O   UNL A   1      46.487  42.641  22.152  1.00  0.00    -0.475 OA
ATOM     14  C   UNL A   1      42.344  43.602  21.756  1.00  0.00     0.058 A 
ATOM     15  C   UNL A   1      44.925  43.152  21.339  1.00  0.00     0.128 A 
ATOM     16  C   UNL A   1      42.381  43.837  20.367  1.00  0.00     0.130 A 
ATOM     17  C   UNL A   1      44.895  43.370  19.990  1.00  0.00     0.051 A 
ATOM     18  C   UNL A   1      43.583  43.714  19.535  1.00  0.00     0.050 A 
BRANCH  11  19
ATOM     19  C   UNL A   1      46.485  40.723  24.888  1.00  0.00     0.430 C 
ATOM     20  F   UNL A   1      45.372  40.187  25.384  1.00  0.00    -0.167 F 
ATOM     21  F   UNL A   1      47.006  39.784  24.053  1.00  0.00    -0.167 F 
ATOM     22  F   UNL A   1      47.340  40.741  25.958  1.00  0.00    -0.167 F 
ENDBRANCH  11  19
BRANCH  16  23
ATOM     23  O   UNL A   1      41.127  44.199  19.930  1.00  0.00    -0.406 OA
BRANCH  23  24
ATOM     24  C   UNL A   1      40.880  44.379  18.555  1.00  0.00     0.573 C 
ATOM     25  F   UNL A   1      39.696  43.841  18.201  1.00  0.00    -0.132 F 
ATOM     26  F   UNL A   1      40.907  45.684  18.224  1.00  0.00    -0.132 F 
ATOM     27  F   UNL A   1      41.854  43.747  17.860  1.00  0.00    -0.132 F 
ENDBRANCH  23  24
ENDBRANCH  16  23
ENDBRANCH   7   9
ENDBRANCH   6   7
ENDBRANCH   5   6
ENDBRANCH   4   5
ENDBRANCH   3   4
ENDBRANCH   2   3
ENDBRANCH   1   2
BRANCH   1  28
ATOM     28  O   UNL A   1      47.624  40.759  29.639  1.00  0.00    -0.376 OA
BRANCH  28  29
ATOM     29  C   UNL A   1      47.513  39.351  29.801  1.00  0.00     0.202 C 
BRANCH  29  30
ATOM     30  C   UNL A   1      47.461  38.477  28.533  1.00  0.00     0.261 C 
BRANCH  30  31
ATOM     31  O   UNL A   1      48.401  37.377  28.523  1.00  0.00    -0.460 OA
BRANCH  31  32
ATOM     32  C   UNL A   1      48.465  36.592  29.630  1.00  0.00     0.338 C 
ATOM     33  O   UNL A   1      48.923  36.897  30.718  1.00  0.00    -0.246 OA
BRANCH  32  34
ATOM     34  C   UNL A   1      47.748  35.319  29.388  1.00  0.00     0.060 A 
ATOM     35  C   UNL A   1      47.811  34.288  30.341  1.00  0.00     0.016 A 
ATOM     36  C   UNL A   1      47.054  35.125  28.194  1.00  0.00     0.016 A 
ATOM     37  C   UNL A   1      47.140  33.081  30.121  1.00  0.00     0.010 A 
ATOM     38  C   UNL A   1      46.431  33.896  27.950  1.00  0.00     0.010 A 
ATOM     39  C   UNL A   1      46.479  32.864  28.905  1.00  0.00    -0.014 A 
BRANCH  39  40
ATOM     40  C   UNL A   1      46.067  31.489  28.522  1.00  0.00     0.031 A 
ATOM     41  C   UNL A   1      44.634  31.104  28.768  1.00  0.00     0.074 A 
ATOM     42  C   UNL A   1      46.926  30.601  27.987  1.00  0.00     0.049 A 
ATOM     43  N   UNL A   1      44.034  29.958  28.583  1.00  0.00    -0.248 NA
ATOM     44  C   UNL A   1      43.760  32.161  29.304  1.00  0.00     0.031 C 
ATOM     45  C   UNL A   1      48.327  30.865  27.669  1.00  0.00     0.029 A 
ATOM     46  N   UNL A   1      46.742  29.287  27.627  1.00  0.00    -0.354 N 
ATOM     47  C   UNL A   1      42.719  30.155  28.984  1.00  0.00     0.074 A 
ATOM     48  C   UNL A   1      42.614  31.517  29.454  1.00  0.00     0.031 C 
ATOM     49  C   UNL A   1      48.881  29.742  27.174  1.00  0.00     0.029 A 
ATOM     50  C   UNL A   1      47.885  28.671  27.171  1.00  0.00     0.049 A 
ATOM     51  H   UNL A   1      45.872  28.829  27.689  1.00  0.00     0.167 HD
ATOM     52  C   UNL A   1      41.687  29.279  28.958  1.00  0.00     0.037 A 
ATOM     53  C   UNL A   1      48.103  27.386  26.818  1.00  0.00     0.037 A 
ATOM     54  C   UNL A   1      41.807  27.915  28.515  1.00  0.00     0.049 A 
ATOM     55  C   UNL A   1      46.956  26.402  26.877  1.00  0.00     0.074 A 
ATOM     56  C   UNL A   1      40.821  26.948  28.439  1.00  0.00     0.029 A 
ATOM     57  N   UNL A   1      42.987  27.320  28.089  1.00  0.00    -0.354 N 
ATOM     58  N   UNL A   1      45.705  26.607  27.221  1.00  0.00    -0.248 NA
ATOM     59  C   UNL A   1      47.248  25.011  26.497  1.00  0.00     0.031 C 
ATOM     60  C   UNL A   1      41.420  25.748  28.043  1.00  0.00     0.029 A 
ATOM     61  C   UNL A   1      42.761  25.986  27.787  1.00  0.00     0.049 A 
ATOM     62  H   UNL A   1      43.855  27.776  28.015  1.00  0.00     0.167 HD
ATOM     63  C   UNL A   1      45.058  25.385  27.068  1.00  0.00     0.074 A 
ATOM     64  C   UNL A   1      46.052  24.447  26.586  1.00  0.00     0.031 C 
ATOM     65  C   UNL A   1      43.760  25.065  27.302  1.00  0.00     0.037 A 
BRANCH  52  66
ATOM     66  C   UNL A   1      40.354  29.759  29.466  1.00  0.00     0.058 A 
ATOM     67  C   UNL A   1      40.121  30.004  30.829  1.00  0.00     0.135 A 
ATOM     68  C   UNL A   1      39.299  29.999  28.570  1.00  0.00     0.135 A 
ATOM     69  F   UNL A   1      41.086  29.770  31.734  1.00  0.00    -0.206 F 
ATOM     70  C   UNL A   1      38.883  30.441  31.289  1.00  0.00     0.059 A 
ATOM     71  C   UNL A   1      38.064  30.472  29.004  1.00  0.00     0.059 A 
ATOM     72  F   UNL A   1      39.461  29.775  27.257  1.00  0.00    -0.206 F 
ATOM     73  C   UNL A   1      37.862  30.678  30.367  1.00  0.00     0.060 A 
BRANCH  73  74
ATOM     74  S   UNL A   1      36.270  31.262  30.981  1.00  0.00     0.124 S 
ATOM     75  O   UNL A   1      35.933  30.228  31.954  1.00  0.00    -0.237 OA
ATOM     76  O   UNL A   1      36.613  32.567  31.536  1.00  0.00    -0.237 OA
ATOM     77  O   UNL A   1      35.433  31.292  29.785  1.00  0.00    -0.744 OA
ENDBRANCH  73  74
ENDBRANCH  52  66
BRANCH  53  78
ATOM     78  C   UNL A   1      49.461  26.940  26.390  1.00  0.00     0.058 A 
ATOM     79  C   UNL A   1      50.389  26.429  27.313  1.00  0.00     0.135 A 
ATOM     80  C   UNL A   1      49.869  27.032  25.050  1.00  0.00     0.135 A 
ATOM     81  F   UNL A   1      50.062  26.340  28.612  1.00  0.00    -0.206 F 
ATOM     82  C   UNL A   1      51.669  26.039  26.927  1.00  0.00     0.059 A 
ATOM     83  C   UNL A   1      51.131  26.617  24.633  1.00  0.00     0.059 A 
ATOM     84  F   UNL A   1      49.028  27.515  24.122  1.00  0.00    -0.206 F 
ATOM     85  C   UNL A   1      52.028  26.130  25.582  1.00  0.00     0.060 A 
BRANCH  85  86
ATOM     86  S   UNL A   1      53.672  25.570  25.084  1.00  0.00     0.124 S 
ATOM     87  O   UNL A   1      53.941  24.526  26.066  1.00  0.00    -0.237 OA
ATOM     88  O   UNL A   1      53.438  25.116  23.717  1.00  0.00    -0.237 OA
ATOM     89  O   UNL A   1      54.490  26.775  25.206  1.00  0.00    -0.744 OA
ENDBRANCH  85  86
ENDBRANCH  53  78
BRANCH  65  90
ATOM     90  C   UNL A   1      43.317  23.655  27.001  1.00  0.00     0.058 A 
ATOM     91  C   UNL A   1      43.203  23.173  25.687  1.00  0.00     0.135 A 
ATOM     92  C   UNL A   1      43.065  22.753  28.050  1.00  0.00     0.135 A 
ATOM     93  F   UNL A   1      43.430  23.987  24.645  1.00  0.00    -0.206 F 
ATOM     94  C   UNL A   1      42.826  21.858  25.425  1.00  0.00     0.059 A 
ATOM     95  C   UNL A   1      42.726  21.426  27.810  1.00  0.00     0.059 A 
ATOM     96  F   UNL A   1      43.171  23.154  29.327  1.00  0.00    -0.206 F 
ATOM     97  C   UNL A   1      42.595  20.991  26.494  1.00  0.00     0.060 A 
BRANCH  97  98
ATOM     98  S   UNL A   1      42.143  19.281  26.136  1.00  0.00     0.124 S 
ATOM     99  O   UNL A   1      42.599  18.595  27.341  1.00  0.00    -0.237 OA
ATOM    100  O   UNL A   1      40.697  19.371  25.966  1.00  0.00    -0.237 OA
ATOM    101  O   UNL A   1      42.893  18.975  24.920  1.00  0.00    -0.744 OA
ENDBRANCH  97  98
ENDBRANCH  65  90
ENDBRANCH  39  40
ENDBRANCH  32  34
ENDBRANCH  31  32
ENDBRANCH  30  31
ENDBRANCH  29  30
ENDBRANCH  28  29
ENDBRANCH   1  28
TORSDOF 23
ENDMDL
