MODEL 1
REMARK VINA RESULT:     -10.3      0.000      0.000
REMARK SMILES COC(=O)N/N=C/c1ccc(-c2cccc(C(=O)OCCOCCOCCOC(=O)c3ccc(-c4c5nc(c(-c6c(F)cc(S(=O)(=O)[O-])cc6F)c6ccc([nH]6)c(-c6c(F)cc(S(=O)(=O)[O-])cc6F)c6nc(c(-c7c(F)cc(S(=O)(=O)[O-])cc7F)c7ccc4[nH]7)C=C6)C=C5)cc3)c2)o1
REMARK SMILES IDX 23 1 22 2 21 3 20 4 19 5 17 6 18 7 16 8 12 9 13 10 97 11
REMARK SMILES IDX 14 12 15 13 11 14 8 15 9 16 98 17 10 18 7 19 6 20 5 21 3 22
REMARK SMILES IDX 4 23 2 25 1 26 24 27 25 28 26 29 27 30 28 31 29 32 30 33
REMARK SMILES IDX 31 34 32 35 96 36 33 37 95 38 34 39 35 40 36 41 89 42 37 43
REMARK SMILES IDX 94 44 88 45 90 46 38 47 93 48 87 49 86 50 39 52 73 53 52 54
REMARK SMILES IDX 72 55 53 56 56 57 71 58 91 59 54 60 55 61 70 63 92 64 57 65
REMARK SMILES IDX 40 66 41 67 50 68 42 69 43 70 49 71 51 72 44 73 45 74 46 75
REMARK SMILES IDX 47 76 48 77 74 78 75 79 84 80 76 81 77 82 83 83 85 84 78 85
REMARK SMILES IDX 79 86 80 87 81 88 82 89 58 90 59 91 68 92 60 93 61 94 67 95
REMARK SMILES IDX 69 96 62 97 63 98 64 99 65 100 66 101
REMARK H PARENT 5 24 90 51 56 62
REMARK Flexibility Score: inf
ROOT
ATOM      1  C   UNL A   1      31.420  23.686  26.842  1.00  0.00     0.188 C 
ENDROOT
BRANCH   1   2
ATOM      2  O   UNL A   1      32.144  22.885  27.754  1.00  0.00    -0.376 OA
BRANCH   2   3
ATOM      3  C   UNL A   1      33.270  22.138  27.324  1.00  0.00     0.202 C 
BRANCH   3   4
ATOM      4  C   UNL A   1      34.671  22.744  27.127  1.00  0.00     0.261 C 
BRANCH   4   5
ATOM      5  O   UNL A   1      35.437  22.223  26.035  1.00  0.00    -0.460 OA
BRANCH   5   6
ATOM      6  C   UNL A   1      36.041  23.149  25.246  1.00  0.00     0.338 C 
ATOM      7  O   UNL A   1      37.225  23.441  25.228  1.00  0.00    -0.246 OA
BRANCH   6   8
ATOM      8  C   UNL A   1      35.066  23.639  24.251  1.00  0.00     0.060 A 
ATOM      9  C   UNL A   1      33.676  25.406  23.334  1.00  0.00     0.018 A 
ATOM     10  C   UNL A   1      33.123  24.476  22.439  1.00  0.00     0.012 A 
ATOM     11  C   UNL A   1      34.634  24.968  24.261  1.00  0.00     0.027 A 
ATOM     12  C   UNL A   1      33.554  23.146  22.432  1.00  0.00     0.002 A 
ATOM     13  C   UNL A   1      34.541  22.731  23.324  1.00  0.00     0.016 A 
BRANCH   9  14
ATOM     14  C   UNL A   1      33.350  26.822  23.249  1.00  0.00     0.134 A 
ATOM     15  C   UNL A   1      31.994  28.525  22.935  1.00  0.00     0.147 A 
ATOM     16  C   UNL A   1      33.265  29.049  23.063  1.00  0.00     0.053 A 
ATOM     17  O   UNL A   1      32.040  27.163  23.058  1.00  0.00    -0.455 OA
ATOM     18  C   UNL A   1      34.132  27.958  23.282  1.00  0.00     0.051 A 
BRANCH  15  19
ATOM     19  C   UNL A   1      30.735  29.161  22.658  1.00  0.00     0.180 C 
ATOM     20  N   UNL A   1      29.705  28.862  23.388  1.00  0.00    -0.175 NA
BRANCH  20  21
ATOM     21  N   UNL A   1      28.505  29.465  23.133  1.00  0.00    -0.212 N 
ATOM     22  C   UNL A   1      28.121  30.772  23.333  1.00  0.00     0.427 C 
ATOM     23  O   UNL A   1      27.011  31.167  22.986  1.00  0.00    -0.223 OA
ATOM     24  H   UNL A   1      27.815  28.878  22.747  1.00  0.00     0.197 HD
BRANCH  22  25
ATOM     25  O   UNL A   1      29.075  31.560  23.895  1.00  0.00    -0.452 OA
ATOM     26  C   UNL A   1      29.184  32.852  23.295  1.00  0.00     0.284 C 
ENDBRANCH  22  25
ENDBRANCH  20  21
ENDBRANCH  15  19
ENDBRANCH   9  14
ENDBRANCH   6   8
ENDBRANCH   5   6
ENDBRANCH   4   5
ENDBRANCH   3   4
ENDBRANCH   2   3
ENDBRANCH   1   2
BRANCH   1  27
ATOM     27  C   UNL A   1      31.924  25.101  26.497  1.00  0.00     0.188 C 
BRANCH  27  28
ATOM     28  O   UNL A   1      31.088  26.193  26.801  1.00  0.00    -0.376 OA
BRANCH  28  29
ATOM     29  C   UNL A   1      31.543  27.521  26.606  1.00  0.00     0.202 C 
BRANCH  29  30
ATOM     30  C   UNL A   1      32.312  28.387  27.625  1.00  0.00     0.261 C 
BRANCH  30  31
ATOM     31  O   UNL A   1      33.719  28.570  27.449  1.00  0.00    -0.460 OA
BRANCH  31  32
ATOM     32  C   UNL A   1      34.179  29.824  27.686  1.00  0.00     0.338 C 
ATOM     33  O   UNL A   1      33.528  30.853  27.722  1.00  0.00    -0.246 OA
BRANCH  32  34
ATOM     34  C   UNL A   1      35.598  29.741  28.077  1.00  0.00     0.060 A 
ATOM     35  C   UNL A   1      36.582  29.966  27.105  1.00  0.00     0.016 A 
ATOM     36  C   UNL A   1      35.952  29.406  29.384  1.00  0.00     0.016 A 
ATOM     37  C   UNL A   1      37.932  29.837  27.436  1.00  0.00     0.010 A 
ATOM     38  C   UNL A   1      37.303  29.255  29.707  1.00  0.00     0.010 A 
ATOM     39  C   UNL A   1      38.298  29.443  28.729  1.00  0.00    -0.014 A 
BRANCH  39  40
ATOM     40  C   UNL A   1      39.702  29.057  29.020  1.00  0.00     0.031 A 
ATOM     41  C   UNL A   1      40.625  30.093  29.601  1.00  0.00     0.074 A 
ATOM     42  C   UNL A   1      40.149  27.813  28.771  1.00  0.00     0.049 A 
ATOM     43  N   UNL A   1      41.904  30.015  29.856  1.00  0.00    -0.248 NA
ATOM     44  C   UNL A   1      40.022  31.395  29.933  1.00  0.00     0.031 C 
ATOM     45  C   UNL A   1      39.342  26.713  28.247  1.00  0.00     0.029 A 
ATOM     46  N   UNL A   1      41.404  27.274  28.914  1.00  0.00    -0.354 N 
ATOM     47  C   UNL A   1      42.264  31.259  30.364  1.00  0.00     0.074 A 
ATOM     48  C   UNL A   1      41.074  32.081  30.356  1.00  0.00     0.031 C 
ATOM     49  C   UNL A   1      40.129  25.633  28.092  1.00  0.00     0.029 A 
ATOM     50  C   UNL A   1      41.500  25.976  28.469  1.00  0.00     0.049 A 
ATOM     51  H   UNL A   1      42.163  27.769  29.298  1.00  0.00     0.167 HD
ATOM     52  C   UNL A   1      43.476  31.676  30.800  1.00  0.00     0.037 A 
ATOM     53  C   UNL A   1      42.575  25.171  28.351  1.00  0.00     0.037 A 
ATOM     54  C   UNL A   1      44.658  30.852  30.803  1.00  0.00     0.049 A 
ATOM     55  C   UNL A   1      43.930  25.679  28.780  1.00  0.00     0.074 A 
ATOM     56  C   UNL A   1      45.928  31.175  31.245  1.00  0.00     0.029 A 
ATOM     57  N   UNL A   1      44.719  29.549  30.330  1.00  0.00    -0.354 N 
ATOM     58  N   UNL A   1      44.254  26.847  29.283  1.00  0.00    -0.248 NA
ATOM     59  C   UNL A   1      45.066  24.758  28.629  1.00  0.00     0.031 C 
ATOM     60  C   UNL A   1      46.771  30.089  30.985  1.00  0.00     0.029 A 
ATOM     61  C   UNL A   1      46.011  29.065  30.444  1.00  0.00     0.049 A 
ATOM     62  H   UNL A   1      43.955  29.043  29.967  1.00  0.00     0.167 HD
ATOM     63  C   UNL A   1      45.622  26.789  29.538  1.00  0.00     0.074 A 
ATOM     64  C   UNL A   1      46.063  25.468  29.143  1.00  0.00     0.031 C 
ATOM     65  C   UNL A   1      46.437  27.741  30.058  1.00  0.00     0.037 A 
BRANCH  52  66
ATOM     66  C   UNL A   1      43.595  33.096  31.283  1.00  0.00     0.058 A 
ATOM     67  C   UNL A   1      43.340  33.452  32.617  1.00  0.00     0.135 A 
ATOM     68  C   UNL A   1      44.007  34.110  30.403  1.00  0.00     0.135 A 
ATOM     69  F   UNL A   1      42.926  32.528  33.497  1.00  0.00    -0.206 F 
ATOM     70  C   UNL A   1      43.465  34.767  33.054  1.00  0.00     0.059 A 
ATOM     71  C   UNL A   1      44.169  35.426  30.825  1.00  0.00     0.059 A 
ATOM     72  F   UNL A   1      44.260  33.827  29.115  1.00  0.00    -0.206 F 
ATOM     73  C   UNL A   1      43.882  35.746  32.152  1.00  0.00     0.060 A 
BRANCH  73  74
ATOM     74  S   UNL A   1      44.049  37.444  32.739  1.00  0.00     0.124 S 
ATOM     75  O   UNL A   1      42.950  37.531  33.697  1.00  0.00    -0.237 OA
ATOM     76  O   UNL A   1      45.391  37.444  33.315  1.00  0.00    -0.237 OA
ATOM     77  O   UNL A   1      43.888  38.243  31.528  1.00  0.00    -0.744 OA
ENDBRANCH  73  74
ENDBRANCH  52  66
BRANCH  53  78
ATOM     78  C   UNL A   1      42.423  23.802  27.786  1.00  0.00     0.058 A 
ATOM     79  C   UNL A   1      42.354  22.675  28.619  1.00  0.00     0.135 A 
ATOM     80  C   UNL A   1      42.349  23.592  26.400  1.00  0.00     0.135 A 
ATOM     81  F   UNL A   1      42.435  22.820  29.950  1.00  0.00    -0.206 F 
ATOM     82  C   UNL A   1      42.231  21.390  28.100  1.00  0.00     0.059 A 
ATOM     83  C   UNL A   1      42.195  22.320  25.858  1.00  0.00     0.059 A 
ATOM     84  F   UNL A   1      42.403  24.636  25.557  1.00  0.00    -0.206 F 
ATOM     85  C   UNL A   1      42.148  21.223  26.717  1.00  0.00     0.060 A 
BRANCH  85  86
ATOM     86  S   UNL A   1      41.938  19.554  26.058  1.00  0.00     0.124 S 
ATOM     87  O   UNL A   1      42.786  19.597  24.872  1.00  0.00    -0.237 OA
ATOM     88  O   UNL A   1      42.422  18.729  27.160  1.00  0.00    -0.237 OA
ATOM     89  O   UNL A   1      40.503  19.471  25.805  1.00  0.00    -0.744 OA
ENDBRANCH  85  86
ENDBRANCH  53  78
BRANCH  65  90
ATOM     90  C   UNL A   1      47.883  27.383  30.280  1.00  0.00     0.058 A 
ATOM     91  C   UNL A   1      48.891  27.756  29.378  1.00  0.00     0.135 A 
ATOM     92  C   UNL A   1      48.272  26.709  31.451  1.00  0.00     0.135 A 
ATOM     93  F   UNL A   1      48.577  28.397  28.241  1.00  0.00    -0.206 F 
ATOM     94  C   UNL A   1      50.229  27.457  29.616  1.00  0.00     0.059 A 
ATOM     95  C   UNL A   1      49.607  26.427  31.726  1.00  0.00     0.059 A 
ATOM     96  F   UNL A   1      47.352  26.338  32.355  1.00  0.00    -0.206 F 
ATOM     97  C   UNL A   1      50.578  26.795  30.796  1.00  0.00     0.060 A 
BRANCH  97  98
ATOM     98  S   UNL A   1      52.321  26.446  31.111  1.00  0.00     0.124 S 
ATOM     99  O   UNL A   1      52.236  25.271  31.973  1.00  0.00    -0.237 OA
ATOM    100  O   UNL A   1      52.839  26.209  29.767  1.00  0.00    -0.237 OA
ATOM    101  O   UNL A   1      52.802  27.664  31.756  1.00  0.00    -0.744 OA
ENDBRANCH  97  98
ENDBRANCH  65  90
ENDBRANCH  39  40
ENDBRANCH  32  34
ENDBRANCH  31  32
ENDBRANCH  30  31
ENDBRANCH  29  30
ENDBRANCH  28  29
ENDBRANCH  27  28
ENDBRANCH   1  27
TORSDOF 24
ENDMDL
MODEL 2
REMARK VINA RESULT:      -9.8      2.531      3.287
REMARK SMILES COC(=O)N/N=C/c1ccc(-c2cccc(C(=O)OCCOCCOCCOC(=O)c3ccc(-c4c5nc(c(-c6c(F)cc(S(=O)(=O)[O-])cc6F)c6ccc([nH]6)c(-c6c(F)cc(S(=O)(=O)[O-])cc6F)c6nc(c(-c7c(F)cc(S(=O)(=O)[O-])cc7F)c7ccc4[nH]7)C=C6)C=C5)cc3)c2)o1
REMARK SMILES IDX 23 1 22 2 21 3 20 4 19 5 17 6 18 7 16 8 12 9 13 10 97 11
REMARK SMILES IDX 14 12 15 13 11 14 8 15 9 16 98 17 10 18 7 19 6 20 5 21 3 22
REMARK SMILES IDX 4 23 2 25 1 26 24 27 25 28 26 29 27 30 28 31 29 32 30 33
REMARK SMILES IDX 31 34 32 35 96 36 33 37 95 38 34 39 35 40 36 41 89 42 37 43
REMARK SMILES IDX 94 44 88 45 90 46 38 47 93 48 87 49 86 50 39 52 73 53 52 54
REMARK SMILES IDX 72 55 53 56 56 57 71 58 91 59 54 60 55 61 70 63 92 64 57 65
REMARK SMILES IDX 40 66 41 67 50 68 42 69 43 70 49 71 51 72 44 73 45 74 46 75
REMARK SMILES IDX 47 76 48 77 74 78 75 79 84 80 76 81 77 82 83 83 85 84 78 85
REMARK SMILES IDX 79 86 80 87 81 88 82 89 58 90 59 91 68 92 60 93 61 94 67 95
REMARK SMILES IDX 69 96 62 97 63 98 64 99 65 100 66 101
REMARK H PARENT 5 24 90 51 56 62
REMARK Flexibility Score: inf
ROOT
ATOM      1  C   UNL A   1      31.044  25.055  26.186  1.00  0.00     0.188 C 
ENDROOT
BRANCH   1   2
ATOM      2  O   UNL A   1      31.345  24.103  27.188  1.00  0.00    -0.376 OA
BRANCH   2   3
ATOM      3  C   UNL A   1      32.059  22.921  26.869  1.00  0.00     0.202 C 
BRANCH   3   4
ATOM      4  C   UNL A   1      33.502  22.644  27.329  1.00  0.00     0.261 C 
BRANCH   4   5
ATOM      5  O   UNL A   1      34.429  22.264  26.307  1.00  0.00    -0.460 OA
BRANCH   5   6
ATOM      6  C   UNL A   1      35.147  23.277  25.758  1.00  0.00     0.338 C 
ATOM      7  O   UNL A   1      36.234  23.693  26.126  1.00  0.00    -0.246 OA
BRANCH   6   8
ATOM      8  C   UNL A   1      34.498  23.698  24.500  1.00  0.00     0.060 A 
ATOM      9  C   UNL A   1      33.374  25.375  23.151  1.00  0.00     0.018 A 
ATOM     10  C   UNL A   1      33.157  24.403  22.162  1.00  0.00     0.012 A 
ATOM     11  C   UNL A   1      34.026  25.004  24.337  1.00  0.00     0.027 A 
ATOM     12  C   UNL A   1      33.627  23.096  22.329  1.00  0.00     0.002 A 
ATOM     13  C   UNL A   1      34.316  22.748  23.489  1.00  0.00     0.016 A 
BRANCH   9  14
ATOM     14  C   UNL A   1      33.028  26.771  22.927  1.00  0.00     0.134 A 
ATOM     15  C   UNL A   1      31.626  28.434  22.601  1.00  0.00     0.147 A 
ATOM     16  C   UNL A   1      32.897  28.953  22.454  1.00  0.00     0.053 A 
ATOM     17  O   UNL A   1      31.702  27.101  22.900  1.00  0.00    -0.455 OA
ATOM     18  C   UNL A   1      33.796  27.890  22.680  1.00  0.00     0.051 A 
BRANCH  15  19
ATOM     19  C   UNL A   1      30.334  29.044  22.442  1.00  0.00     0.180 C 
ATOM     20  N   UNL A   1      29.668  29.391  23.500  1.00  0.00    -0.175 NA
BRANCH  20  21
ATOM     21  N   UNL A   1      28.440  29.975  23.357  1.00  0.00    -0.212 N 
ATOM     22  C   UNL A   1      28.087  31.304  23.431  1.00  0.00     0.427 C 
ATOM     23  O   UNL A   1      26.935  31.667  23.214  1.00  0.00    -0.223 OA
ATOM     24  H   UNL A   1      27.699  29.353  23.172  1.00  0.00     0.197 HD
BRANCH  22  25
ATOM     25  O   UNL A   1      29.116  32.144  23.718  1.00  0.00    -0.452 OA
ATOM     26  C   UNL A   1      28.986  33.438  23.127  1.00  0.00     0.284 C 
ENDBRANCH  22  25
ENDBRANCH  20  21
ENDBRANCH  15  19
ENDBRANCH   9  14
ENDBRANCH   6   8
ENDBRANCH   5   6
ENDBRANCH   4   5
ENDBRANCH   3   4
ENDBRANCH   2   3
ENDBRANCH   1   2
BRANCH   1  27
ATOM     27  C   UNL A   1      31.027  26.556  26.536  1.00  0.00     0.188 C 
BRANCH  27  28
ATOM     28  O   UNL A   1      31.974  27.391  25.913  1.00  0.00    -0.376 OA
BRANCH  28  29
ATOM     29  C   UNL A   1      33.041  27.949  26.661  1.00  0.00     0.202 C 
BRANCH  29  30
ATOM     30  C   UNL A   1      33.645  29.358  26.487  1.00  0.00     0.261 C 
BRANCH  30  31
ATOM     31  O   UNL A   1      33.696  30.229  27.619  1.00  0.00    -0.460 OA
BRANCH  31  32
ATOM     32  C   UNL A   1      34.732  31.106  27.635  1.00  0.00     0.338 C 
ATOM     33  O   UNL A   1      34.686  32.304  27.420  1.00  0.00    -0.246 OA
BRANCH  32  34
ATOM     34  C   UNL A   1      35.932  30.411  28.135  1.00  0.00     0.060 A 
ATOM     35  C   UNL A   1      35.860  29.729  29.357  1.00  0.00     0.016 A 
ATOM     36  C   UNL A   1      37.130  30.467  27.420  1.00  0.00     0.016 A 
ATOM     37  C   UNL A   1      36.998  29.112  29.880  1.00  0.00     0.010 A 
ATOM     38  C   UNL A   1      38.272  29.868  27.957  1.00  0.00     0.010 A 
ATOM     39  C   UNL A   1      38.219  29.211  29.201  1.00  0.00    -0.014 A 
BRANCH  39  40
ATOM     40  C   UNL A   1      39.476  28.785  29.865  1.00  0.00     0.031 A 
ATOM     41  C   UNL A   1      39.918  29.516  31.104  1.00  0.00     0.074 A 
ATOM     42  C   UNL A   1      40.212  27.769  29.378  1.00  0.00     0.049 A 
ATOM     43  N   UNL A   1      41.014  29.380  31.801  1.00  0.00    -0.248 NA
ATOM     44  C   UNL A   1      38.998  30.544  31.619  1.00  0.00     0.031 C 
ATOM     45  C   UNL A   1      39.869  26.959  28.211  1.00  0.00     0.029 A 
ATOM     46  N   UNL A   1      41.415  27.260  29.802  1.00  0.00    -0.354 N 
ATOM     47  C   UNL A   1      40.926  30.313  32.829  1.00  0.00     0.074 A 
ATOM     48  C   UNL A   1      39.681  31.026  32.648  1.00  0.00     0.031 C 
ATOM     49  C   UNL A   1      40.852  26.066  27.999  1.00  0.00     0.029 A 
ATOM     50  C   UNL A   1      41.908  26.266  28.990  1.00  0.00     0.049 A 
ATOM     51  H   UNL A   1      41.880  27.575  30.610  1.00  0.00     0.167 HD
ATOM     52  C   UNL A   1      41.803  30.551  33.833  1.00  0.00     0.037 A 
ATOM     53  C   UNL A   1      43.090  25.616  29.025  1.00  0.00     0.037 A 
ATOM     54  C   UNL A   1      43.042  29.838  34.005  1.00  0.00     0.049 A 
ATOM     55  C   UNL A   1      44.083  25.944  30.114  1.00  0.00     0.074 A 
ATOM     56  C   UNL A   1      43.988  29.989  35.003  1.00  0.00     0.029 A 
ATOM     57  N   UNL A   1      43.515  28.849  33.154  1.00  0.00    -0.354 N 
ATOM     58  N   UNL A   1      43.978  26.809  31.095  1.00  0.00    -0.248 NA
ATOM     59  C   UNL A   1      45.353  25.204  30.104  1.00  0.00     0.031 C 
ATOM     60  C   UNL A   1      45.060  29.135  34.723  1.00  0.00     0.029 A 
ATOM     61  C   UNL A   1      44.751  28.402  33.588  1.00  0.00     0.049 A 
ATOM     62  H   UNL A   1      43.041  28.515  32.357  1.00  0.00     0.167 HD
ATOM     63  C   UNL A   1      45.151  26.694  31.835  1.00  0.00     0.074 A 
ATOM     64  C   UNL A   1      45.948  25.669  31.194  1.00  0.00     0.031 C 
ATOM     65  C   UNL A   1      45.532  27.371  32.947  1.00  0.00     0.037 A 
BRANCH  52  66
ATOM     66  C   UNL A   1      41.469  31.647  34.808  1.00  0.00     0.058 A 
ATOM     67  C   UNL A   1      41.983  32.946  34.672  1.00  0.00     0.135 A 
ATOM     68  C   UNL A   1      40.589  31.401  35.875  1.00  0.00     0.135 A 
ATOM     69  F   UNL A   1      42.842  33.233  33.682  1.00  0.00    -0.206 F 
ATOM     70  C   UNL A   1      41.657  33.955  35.573  1.00  0.00     0.059 A 
ATOM     71  C   UNL A   1      40.225  32.402  36.770  1.00  0.00     0.059 A 
ATOM     72  F   UNL A   1      40.071  30.176  36.055  1.00  0.00    -0.206 F 
ATOM     73  C   UNL A   1      40.776  33.674  36.617  1.00  0.00     0.060 A 
BRANCH  73  74
ATOM     74  S   UNL A   1      40.356  34.997  37.770  1.00  0.00     0.124 S 
ATOM     75  O   UNL A   1      38.902  34.873  37.841  1.00  0.00    -0.237 OA
ATOM     76  O   UNL A   1      41.083  34.604  38.973  1.00  0.00    -0.237 OA
ATOM     77  O   UNL A   1      40.849  36.199  37.105  1.00  0.00    -0.744 OA
ENDBRANCH  73  74
ENDBRANCH  52  66
BRANCH  53  78
ATOM     78  C   UNL A   1      43.413  24.599  27.987  1.00  0.00     0.058 A 
ATOM     79  C   UNL A   1      44.161  24.935  26.848  1.00  0.00     0.135 A 
ATOM     80  C   UNL A   1      42.975  23.271  28.110  1.00  0.00     0.135 A 
ATOM     81  F   UNL A   1      44.589  26.194  26.676  1.00  0.00    -0.206 F 
ATOM     82  C   UNL A   1      44.451  23.996  25.863  1.00  0.00     0.059 A 
ATOM     83  C   UNL A   1      43.279  22.307  27.153  1.00  0.00     0.059 A 
ATOM     84  F   UNL A   1      42.263  22.893  29.183  1.00  0.00    -0.206 F 
ATOM     85  C   UNL A   1      44.008  22.683  26.027  1.00  0.00     0.060 A 
BRANCH  85  86
ATOM     86  S   UNL A   1      44.435  21.462  24.765  1.00  0.00     0.124 S 
ATOM     87  O   UNL A   1      45.811  21.137  25.124  1.00  0.00    -0.237 OA
ATOM     88  O   UNL A   1      43.448  20.416  25.007  1.00  0.00    -0.237 OA
ATOM     89  O   UNL A   1      44.266  22.198  23.515  1.00  0.00    -0.744 OA
ENDBRANCH  85  86
ENDBRANCH  53  78
BRANCH  65  90
ATOM     90  C   UNL A   1      46.847  26.999  33.582  1.00  0.00     0.058 A 
ATOM     91  C   UNL A   1      46.969  25.916  34.465  1.00  0.00     0.135 A 
ATOM     92  C   UNL A   1      48.017  27.703  33.247  1.00  0.00     0.135 A 
ATOM     93  F   UNL A   1      45.883  25.211  34.824  1.00  0.00    -0.206 F 
ATOM     94  C   UNL A   1      48.197  25.556  35.011  1.00  0.00     0.059 A 
ATOM     95  C   UNL A   1      49.260  27.342  33.755  1.00  0.00     0.059 A 
ATOM     96  F   UNL A   1      47.962  28.741  32.397  1.00  0.00    -0.206 F 
ATOM     97  C   UNL A   1      49.339  26.273  34.646  1.00  0.00     0.060 A 
BRANCH  97  98
ATOM     98  S   UNL A   1      50.932  25.772  35.332  1.00  0.00     0.124 S 
ATOM     99  O   UNL A   1      50.521  25.032  36.521  1.00  0.00    -0.237 OA
ATOM    100  O   UNL A   1      51.499  24.971  34.252  1.00  0.00    -0.237 OA
ATOM    101  O   UNL A   1      51.609  27.041  35.586  1.00  0.00    -0.744 OA
ENDBRANCH  97  98
ENDBRANCH  65  90
ENDBRANCH  39  40
ENDBRANCH  32  34
ENDBRANCH  31  32
ENDBRANCH  30  31
ENDBRANCH  29  30
ENDBRANCH  28  29
ENDBRANCH  27  28
ENDBRANCH   1  27
TORSDOF 24
ENDMDL
MODEL 3
REMARK VINA RESULT:      -9.7      2.771      8.126
REMARK SMILES COC(=O)N/N=C/c1ccc(-c2cccc(C(=O)OCCOCCOCCOC(=O)c3ccc(-c4c5nc(c(-c6c(F)cc(S(=O)(=O)[O-])cc6F)c6ccc([nH]6)c(-c6c(F)cc(S(=O)(=O)[O-])cc6F)c6nc(c(-c7c(F)cc(S(=O)(=O)[O-])cc7F)c7ccc4[nH]7)C=C6)C=C5)cc3)c2)o1
REMARK SMILES IDX 23 1 22 2 21 3 20 4 19 5 17 6 18 7 16 8 12 9 13 10 97 11
REMARK SMILES IDX 14 12 15 13 11 14 8 15 9 16 98 17 10 18 7 19 6 20 5 21 3 22
REMARK SMILES IDX 4 23 2 25 1 26 24 27 25 28 26 29 27 30 28 31 29 32 30 33
REMARK SMILES IDX 31 34 32 35 96 36 33 37 95 38 34 39 35 40 36 41 89 42 37 43
REMARK SMILES IDX 94 44 88 45 90 46 38 47 93 48 87 49 86 50 39 52 73 53 52 54
REMARK SMILES IDX 72 55 53 56 56 57 71 58 91 59 54 60 55 61 70 63 92 64 57 65
REMARK SMILES IDX 40 66 41 67 50 68 42 69 43 70 49 71 51 72 44 73 45 74 46 75
REMARK SMILES IDX 47 76 48 77 74 78 75 79 84 80 76 81 77 82 83 83 85 84 78 85
REMARK SMILES IDX 79 86 80 87 81 88 82 89 58 90 59 91 68 92 60 93 61 94 67 95
REMARK SMILES IDX 69 96 62 97 63 98 64 99 65 100 66 101
REMARK H PARENT 5 24 90 51 56 62
REMARK Flexibility Score: inf
ROOT
ATOM      1  C   UNL A   1      31.347  24.826  26.526  1.00  0.00     0.188 C 
ENDROOT
BRANCH   1   2
ATOM      2  O   UNL A   1      31.772  23.807  27.410  1.00  0.00    -0.376 OA
BRANCH   2   3
ATOM      3  C   UNL A   1      32.718  22.837  26.992  1.00  0.00     0.202 C 
BRANCH   3   4
ATOM      4  C   UNL A   1      34.238  22.991  27.182  1.00  0.00     0.261 C 
BRANCH   4   5
ATOM      5  O   UNL A   1      35.062  22.450  26.144  1.00  0.00    -0.460 OA
BRANCH   5   6
ATOM      6  C   UNL A   1      35.691  23.361  25.357  1.00  0.00     0.338 C 
ATOM      7  O   UNL A   1      36.858  23.710  25.424  1.00  0.00    -0.246 OA
BRANCH   6   8
ATOM      8  C   UNL A   1      34.788  23.748  24.255  1.00  0.00     0.060 A 
ATOM      9  C   UNL A   1      33.401  25.390  23.125  1.00  0.00     0.018 A 
ATOM     10  C   UNL A   1      32.978  24.389  22.237  1.00  0.00     0.012 A 
ATOM     11  C   UNL A   1      34.292  25.051  24.156  1.00  0.00     0.027 A 
ATOM     12  C   UNL A   1      33.473  23.085  22.340  1.00  0.00     0.002 A 
ATOM     13  C   UNL A   1      34.394  22.768  23.337  1.00  0.00     0.016 A 
BRANCH   9  14
ATOM     14  C   UNL A   1      33.015  26.780  22.936  1.00  0.00     0.134 A 
ATOM     15  C   UNL A   1      31.566  28.411  22.651  1.00  0.00     0.147 A 
ATOM     16  C   UNL A   1      32.823  28.969  22.519  1.00  0.00     0.053 A 
ATOM     17  O   UNL A   1      31.680  27.073  22.916  1.00  0.00    -0.455 OA
ATOM     18  C   UNL A   1      33.751  27.927  22.718  1.00  0.00     0.051 A 
BRANCH  15  19
ATOM     19  C   UNL A   1      30.258  28.987  22.506  1.00  0.00     0.180 C 
ATOM     20  N   UNL A   1      30.061  29.874  21.580  1.00  0.00    -0.175 NA
BRANCH  20  21
ATOM     21  N   UNL A   1      28.818  30.425  21.433  1.00  0.00    -0.212 N 
ATOM     22  C   UNL A   1      28.392  31.709  21.691  1.00  0.00     0.427 C 
ATOM     23  O   UNL A   1      27.242  32.057  21.442  1.00  0.00    -0.223 OA
ATOM     24  H   UNL A   1      28.126  29.813  21.092  1.00  0.00     0.197 HD
BRANCH  22  25
ATOM     25  O   UNL A   1      29.353  32.531  22.191  1.00  0.00    -0.452 OA
ATOM     26  C   UNL A   1      28.858  33.500  23.117  1.00  0.00     0.284 C 
ENDBRANCH  22  25
ENDBRANCH  20  21
ENDBRANCH  15  19
ENDBRANCH   9  14
ENDBRANCH   6   8
ENDBRANCH   5   6
ENDBRANCH   4   5
ENDBRANCH   3   4
ENDBRANCH   2   3
ENDBRANCH   1   2
BRANCH   1  27
ATOM     27  C   UNL A   1      32.059  26.193  26.534  1.00  0.00     0.188 C 
BRANCH  27  28
ATOM     28  O   UNL A   1      31.262  27.352  26.599  1.00  0.00    -0.376 OA
BRANCH  28  29
ATOM     29  C   UNL A   1      31.589  28.397  27.499  1.00  0.00     0.202 C 
BRANCH  29  30
ATOM     30  C   UNL A   1      32.146  29.787  27.129  1.00  0.00     0.261 C 
BRANCH  30  31
ATOM     31  O   UNL A   1      33.474  30.126  27.535  1.00  0.00    -0.460 OA
BRANCH  31  32
ATOM     32  C   UNL A   1      34.466  29.416  26.941  1.00  0.00     0.338 C 
ATOM     33  O   UNL A   1      34.432  28.874  25.851  1.00  0.00    -0.246 OA
BRANCH  32  34
ATOM     34  C   UNL A   1      35.689  29.542  27.753  1.00  0.00     0.060 A 
ATOM     35  C   UNL A   1      36.896  29.860  27.115  1.00  0.00     0.016 A 
ATOM     36  C   UNL A   1      35.652  29.309  29.129  1.00  0.00     0.016 A 
ATOM     37  C   UNL A   1      38.079  29.929  27.852  1.00  0.00     0.010 A 
ATOM     38  C   UNL A   1      36.842  29.356  29.860  1.00  0.00     0.010 A 
ATOM     39  C   UNL A   1      38.064  29.639  29.222  1.00  0.00    -0.014 A 
BRANCH  39  40
ATOM     40  C   UNL A   1      39.340  29.459  29.959  1.00  0.00     0.031 A 
ATOM     41  C   UNL A   1      40.286  28.381  29.503  1.00  0.00     0.074 A 
ATOM     42  C   UNL A   1      39.653  30.236  31.012  1.00  0.00     0.049 A 
ATOM     43  N   UNL A   1      41.410  27.984  30.038  1.00  0.00    -0.248 NA
ATOM     44  C   UNL A   1      39.906  27.651  28.282  1.00  0.00     0.031 C 
ATOM     45  C   UNL A   1      38.839  31.337  31.523  1.00  0.00     0.029 A 
ATOM     46  N   UNL A   1      40.740  30.200  31.851  1.00  0.00    -0.354 N 
ATOM     47  C   UNL A   1      41.866  26.948  29.230  1.00  0.00     0.074 A 
ATOM     48  C   UNL A   1      40.884  26.761  28.185  1.00  0.00     0.031 C 
ATOM     49  C   UNL A   1      39.446  31.860  32.604  1.00  0.00     0.029 A 
ATOM     50  C   UNL A   1      40.669  31.108  32.882  1.00  0.00     0.049 A 
ATOM     51  H   UNL A   1      41.497  29.584  31.728  1.00  0.00     0.167 HD
ATOM     52  C   UNL A   1      43.002  26.220  29.348  1.00  0.00     0.037 A 
ATOM     53  C   UNL A   1      41.481  31.288  33.943  1.00  0.00     0.037 A 
ATOM     54  C   UNL A   1      43.975  26.410  30.393  1.00  0.00     0.049 A 
ATOM     55  C   UNL A   1      42.707  30.421  34.093  1.00  0.00     0.074 A 
ATOM     56  C   UNL A   1      45.169  25.740  30.586  1.00  0.00     0.029 A 
ATOM     57  N   UNL A   1      43.861  27.328  31.427  1.00  0.00    -0.354 N 
ATOM     58  N   UNL A   1      43.142  29.462  33.309  1.00  0.00    -0.248 NA
ATOM     59  C   UNL A   1      43.556  30.662  35.269  1.00  0.00     0.031 C 
ATOM     60  C   UNL A   1      45.748  26.210  31.769  1.00  0.00     0.029 A 
ATOM     61  C   UNL A   1      44.949  27.221  32.276  1.00  0.00     0.049 A 
ATOM     62  H   UNL A   1      43.115  27.962  31.540  1.00  0.00     0.167 HD
ATOM     63  C   UNL A   1      44.329  29.010  33.879  1.00  0.00     0.074 A 
ATOM     64  C   UNL A   1      44.549  29.806  35.068  1.00  0.00     0.031 C 
ATOM     65  C   UNL A   1      45.164  28.029  33.453  1.00  0.00     0.037 A 
BRANCH  52  66
ATOM     66  C   UNL A   1      43.242  25.130  28.339  1.00  0.00     0.058 A 
ATOM     67  C   UNL A   1      42.855  23.801  28.573  1.00  0.00     0.135 A 
ATOM     68  C   UNL A   1      43.837  25.430  27.102  1.00  0.00     0.135 A 
ATOM     69  F   UNL A   1      42.300  23.454  29.744  1.00  0.00    -0.206 F 
ATOM     70  C   UNL A   1      43.072  22.804  27.627  1.00  0.00     0.059 A 
ATOM     71  C   UNL A   1      44.035  24.455  26.129  1.00  0.00     0.059 A 
ATOM     72  F   UNL A   1      44.231  26.683  26.826  1.00  0.00    -0.206 F 
ATOM     73  C   UNL A   1      43.661  23.141  26.407  1.00  0.00     0.060 A 
BRANCH  73  74
ATOM     74  S   UNL A   1      43.924  21.837  25.188  1.00  0.00     0.124 S 
ATOM     75  O   UNL A   1      43.746  22.567  23.936  1.00  0.00    -0.237 OA
ATOM     76  O   UNL A   1      45.287  21.407  25.482  1.00  0.00    -0.237 OA
ATOM     77  O   UNL A   1      42.881  20.863  25.498  1.00  0.00    -0.744 OA
ENDBRANCH  73  74
ENDBRANCH  52  66
BRANCH  53  78
ATOM     78  C   UNL A   1      41.155  32.323  34.964  1.00  0.00     0.058 A 
ATOM     79  C   UNL A   1      40.317  32.033  36.051  1.00  0.00     0.135 A 
ATOM     80  C   UNL A   1      41.673  33.624  34.869  1.00  0.00     0.135 A 
ATOM     81  F   UNL A   1      39.785  30.809  36.179  1.00  0.00    -0.206 F 
ATOM     82  C   UNL A   1      39.992  32.998  36.999  1.00  0.00     0.059 A 
ATOM     83  C   UNL A   1      41.387  34.598  35.821  1.00  0.00     0.059 A 
ATOM     84  F   UNL A   1      42.486  33.954  33.853  1.00  0.00    -0.206 F 
ATOM     85  C   UNL A   1      40.536  34.278  36.877  1.00  0.00     0.060 A 
BRANCH  85  86
ATOM     86  S   UNL A   1      40.146  35.507  38.142  1.00  0.00     0.124 S 
ATOM     87  O   UNL A   1      41.340  35.457  38.979  1.00  0.00    -0.237 OA
ATOM     88  O   UNL A   1      39.974  36.718  37.347  1.00  0.00    -0.237 OA
ATOM     89  O   UNL A   1      38.926  34.987  38.752  1.00  0.00    -0.744 OA
ENDBRANCH  85  86
ENDBRANCH  53  78
BRANCH  65  90
ATOM     90  C   UNL A   1      46.423  27.785  34.243  1.00  0.00     0.058 A 
ATOM     91  C   UNL A   1      46.481  26.843  35.282  1.00  0.00     0.135 A 
ATOM     92  C   UNL A   1      47.609  28.462  33.910  1.00  0.00     0.135 A 
ATOM     93  F   UNL A   1      45.378  26.171  35.647  1.00  0.00    -0.206 F 
ATOM     94  C   UNL A   1      47.661  26.597  35.976  1.00  0.00     0.059 A 
ATOM     95  C   UNL A   1      48.808  28.209  34.569  1.00  0.00     0.059 A 
ATOM     96  F   UNL A   1      47.615  29.366  32.917  1.00  0.00    -0.206 F 
ATOM     97  C   UNL A   1      48.822  27.282  35.609  1.00  0.00     0.060 A 
BRANCH  97  98
ATOM     98  S   UNL A   1      50.356  26.925  36.493  1.00  0.00     0.124 S 
ATOM     99  O   UNL A   1      50.719  25.625  35.938  1.00  0.00    -0.237 OA
ATOM    100  O   UNL A   1      51.209  28.043  36.101  1.00  0.00    -0.237 OA
ATOM    101  O   UNL A   1      49.947  26.917  37.894  1.00  0.00    -0.744 OA
ENDBRANCH  97  98
ENDBRANCH  65  90
ENDBRANCH  39  40
ENDBRANCH  32  34
ENDBRANCH  31  32
ENDBRANCH  30  31
ENDBRANCH  29  30
ENDBRANCH  28  29
ENDBRANCH  27  28
ENDBRANCH   1  27
TORSDOF 24
ENDMDL
