MODEL 1
REMARK VINA RESULT:     -11.0      0.000      0.000
REMARK SMILES CCc1cccc2c3c([nH]c12)[C@](CC)(CC(=O)OCCOCCOCCOC(=O)c1ccc(-c2c4nc(c(-c5c(F)cc(S(=O)(=O)[O-])cc5F)c5ccc([nH]5)c(-c5c(F)cc(S(=O)(=O)[O-])cc5F)c5nc(c(-c6c(F)cc(S(=O)(=O)[O-])cc6F)c6ccc2[nH]6)C=C5)C=C4)cc1)OCC3
REMARK SMILES IDX 23 1 22 2 21 3 20 4 19 5 18 6 16 7 17 8 15 9 12 10 3 11 4 12
REMARK SMILES IDX 11 13 5 14 7 15 10 16 6 17 8 18 9 19 98 21 97 22 96 23 2 24
REMARK SMILES IDX 1 25 13 26 14 27 24 28 25 29 26 30 27 31 28 32 29 33 30 34
REMARK SMILES IDX 31 35 95 36 32 37 94 38 33 39 34 40 35 41 88 42 36 43 93 44
REMARK SMILES IDX 87 45 89 46 37 47 92 48 86 49 85 50 38 52 72 53 51 54 71 55
REMARK SMILES IDX 52 56 55 57 70 58 90 59 53 60 54 61 69 63 91 64 56 65 39 66
REMARK SMILES IDX 40 67 49 68 41 69 42 70 48 71 50 72 43 73 44 74 45 75 46 76
REMARK SMILES IDX 47 77 73 78 74 79 83 80 75 81 76 82 82 83 84 84 77 85 78 86
REMARK SMILES IDX 79 87 80 88 81 89 57 90 58 91 67 92 59 93 60 94 66 95 68 96
REMARK SMILES IDX 61 97 62 98 63 99 64 100 65 101
REMARK H PARENT 10 20 89 51 55 62
REMARK Flexibility Score: inf
ROOT
ATOM      1  C   UNL A   1      41.660  19.414  26.224  1.00  0.00     0.188 C 
ENDROOT
BRANCH   1   2
ATOM      2  C   UNL A   1      41.651  20.827  26.844  1.00  0.00     0.188 C 
BRANCH   2   3
ATOM      3  O   UNL A   1      40.422  21.321  27.361  1.00  0.00    -0.376 OA
BRANCH   3   4
ATOM      4  C   UNL A   1      39.627  22.137  26.508  1.00  0.00     0.202 C 
BRANCH   4   5
ATOM      5  C   UNL A   1      38.652  21.399  25.575  1.00  0.00     0.261 C 
BRANCH   5   6
ATOM      6  O   UNL A   1      37.539  22.273  25.293  1.00  0.00    -0.463 OA
BRANCH   6   7
ATOM      7  C   UNL A   1      36.327  21.740  24.993  1.00  0.00     0.309 C 
ATOM      8  O   UNL A   1      36.095  20.540  25.008  1.00  0.00    -0.252 OA
BRANCH   7   9
ATOM      9  C   UNL A   1      35.263  22.838  24.893  1.00  0.00     0.164 C 
BRANCH   9  10
ATOM     10  C   UNL A   1      33.914  22.871  25.645  1.00  0.00     0.118 C 
ATOM     11  C   UNL A   1      32.234  27.714  25.942  1.00  0.00    -0.024 A 
ATOM     12  C   UNL A   1      31.421  28.454  25.052  1.00  0.00     0.006 A 
ATOM     13  C   UNL A   1      32.400  26.337  25.628  1.00  0.00     0.049 A 
ATOM     14  C   UNL A   1      30.762  27.868  23.978  1.00  0.00     0.001 A 
ATOM     15  C   UNL A   1      31.735  25.730  24.554  1.00  0.00     0.003 A 
ATOM     16  N   UNL A   1      33.194  25.343  26.191  1.00  0.00    -0.356 N 
ATOM     17  C   UNL A   1      30.882  26.500  23.743  1.00  0.00     0.010 A 
ATOM     18  C   UNL A   1      32.106  24.360  24.544  1.00  0.00    -0.014 A 
ATOM     19  C   UNL A   1      33.136  24.182  25.441  1.00  0.00     0.052 A 
ATOM     20  H   UNL A   1      33.724  25.450  27.014  1.00  0.00     0.166 HD
ATOM     21  C   UNL A   1      31.553  23.223  23.773  1.00  0.00     0.066 C 
ATOM     22  C   UNL A   1      32.437  21.978  23.920  1.00  0.00     0.166 C 
ATOM     23  O   UNL A   1      33.024  21.817  25.225  1.00  0.00    -0.368 OA
BRANCH  11  24
ATOM     24  C   UNL A   1      32.821  28.457  27.124  1.00  0.00     0.034 C 
ATOM     25  C   UNL A   1      34.305  28.740  27.026  1.00  0.00     0.009 C 
ENDBRANCH  11  24
BRANCH  10  26
ATOM     26  C   UNL A   1      34.176  22.722  27.176  1.00  0.00     0.039 C 
ATOM     27  C   UNL A   1      32.983  22.285  28.015  1.00  0.00     0.007 C 
ENDBRANCH  10  26
ENDBRANCH   9  10
ENDBRANCH   7   9
ENDBRANCH   6   7
ENDBRANCH   5   6
ENDBRANCH   4   5
ENDBRANCH   3   4
ENDBRANCH   2   3
ENDBRANCH   1   2
BRANCH   1  28
ATOM     28  O   UNL A   1      42.642  19.105  25.250  1.00  0.00    -0.376 OA
BRANCH  28  29
ATOM     29  C   UNL A   1      43.822  18.481  25.746  1.00  0.00     0.202 C 
BRANCH  29  30
ATOM     30  C   UNL A   1      45.111  18.788  24.963  1.00  0.00     0.261 C 
BRANCH  30  31
ATOM     31  O   UNL A   1      45.521  20.152  25.211  1.00  0.00    -0.460 OA
BRANCH  31  32
ATOM     32  C   UNL A   1      45.012  21.083  24.363  1.00  0.00     0.338 C 
ATOM     33  O   UNL A   1      44.575  20.872  23.242  1.00  0.00    -0.246 OA
BRANCH  32  34
ATOM     34  C   UNL A   1      44.712  22.292  25.175  1.00  0.00     0.060 A 
ATOM     35  C   UNL A   1      45.338  22.631  26.370  1.00  0.00     0.016 A 
ATOM     36  C   UNL A   1      43.607  23.031  24.756  1.00  0.00     0.016 A 
ATOM     37  C   UNL A   1      44.835  23.707  27.134  1.00  0.00     0.010 A 
ATOM     38  C   UNL A   1      43.072  24.048  25.544  1.00  0.00     0.010 A 
ATOM     39  C   UNL A   1      43.680  24.407  26.739  1.00  0.00    -0.014 A 
BRANCH  39  40
ATOM     40  C   UNL A   1      43.313  25.713  27.317  1.00  0.00     0.031 A 
ATOM     41  C   UNL A   1      44.232  26.792  26.912  1.00  0.00     0.074 A 
ATOM     42  C   UNL A   1      42.224  26.128  28.001  1.00  0.00     0.049 A 
ATOM     43  N   UNL A   1      45.264  27.168  27.585  1.00  0.00    -0.248 NA
ATOM     44  C   UNL A   1      44.073  27.450  25.616  1.00  0.00     0.031 C 
ATOM     45  C   UNL A   1      41.094  25.359  28.482  1.00  0.00     0.029 A 
ATOM     46  N   UNL A   1      41.898  27.403  28.395  1.00  0.00    -0.354 N 
ATOM     47  C   UNL A   1      45.750  28.274  26.916  1.00  0.00     0.074 A 
ATOM     48  C   UNL A   1      45.133  28.260  25.612  1.00  0.00     0.031 C 
ATOM     49  C   UNL A   1      40.097  26.183  28.897  1.00  0.00     0.029 A 
ATOM     50  C   UNL A   1      40.615  27.541  28.913  1.00  0.00     0.049 A 
ATOM     51  H   UNL A   1      42.524  28.160  28.319  1.00  0.00     0.167 HD
ATOM     52  C   UNL A   1      46.418  29.256  27.576  1.00  0.00     0.037 A 
ATOM     53  C   UNL A   1      40.077  28.610  29.551  1.00  0.00     0.037 A 
ATOM     54  C   UNL A   1      46.687  28.900  28.951  1.00  0.00     0.049 A 
ATOM     55  C   UNL A   1      41.200  29.296  30.226  1.00  0.00     0.074 A 
ATOM     56  C   UNL A   1      47.320  27.847  29.584  1.00  0.00     0.029 A 
ATOM     57  N   UNL A   1      45.917  29.502  29.919  1.00  0.00    -0.354 N 
ATOM     58  N   UNL A   1      41.865  28.786  31.226  1.00  0.00    -0.248 NA
ATOM     59  C   UNL A   1      41.827  30.437  29.577  1.00  0.00     0.031 C 
ATOM     60  C   UNL A   1      46.559  27.597  30.766  1.00  0.00     0.029 A 
ATOM     61  C   UNL A   1      45.525  28.533  30.811  1.00  0.00     0.049 A 
ATOM     62  H   UNL A   1      45.688  30.459  29.965  1.00  0.00     0.167 HD
ATOM     63  C   UNL A   1      43.159  29.241  31.052  1.00  0.00     0.074 A 
ATOM     64  C   UNL A   1      43.042  30.358  30.123  1.00  0.00     0.031 C 
ATOM     65  C   UNL A   1      44.229  28.497  31.461  1.00  0.00     0.037 A 
BRANCH  52  66
ATOM     66  C   UNL A   1      46.533  30.662  27.073  1.00  0.00     0.058 A 
ATOM     67  C   UNL A   1      47.804  31.249  26.949  1.00  0.00     0.135 A 
ATOM     68  C   UNL A   1      45.428  31.523  26.896  1.00  0.00     0.135 A 
ATOM     69  F   UNL A   1      48.912  30.519  27.147  1.00  0.00    -0.206 F 
ATOM     70  C   UNL A   1      47.968  32.604  26.676  1.00  0.00     0.059 A 
ATOM     71  C   UNL A   1      45.567  32.863  26.559  1.00  0.00     0.059 A 
ATOM     72  F   UNL A   1      44.172  31.118  27.133  1.00  0.00    -0.206 F 
ATOM     73  C   UNL A   1      46.843  33.403  26.484  1.00  0.00     0.060 A 
BRANCH  73  74
ATOM     74  S   UNL A   1      47.055  35.167  26.195  1.00  0.00     0.124 S 
ATOM     75  O   UNL A   1      45.763  35.518  25.615  1.00  0.00    -0.237 OA
ATOM     76  O   UNL A   1      47.311  35.669  27.541  1.00  0.00    -0.237 OA
ATOM     77  O   UNL A   1      48.195  35.220  25.285  1.00  0.00    -0.744 OA
ENDBRANCH  73  74
ENDBRANCH  52  66
BRANCH  53  78
ATOM     78  C   UNL A   1      38.717  29.201  29.463  1.00  0.00     0.058 A 
ATOM     79  C   UNL A   1      37.963  29.465  30.624  1.00  0.00     0.135 A 
ATOM     80  C   UNL A   1      38.261  29.806  28.276  1.00  0.00     0.135 A 
ATOM     81  F   UNL A   1      38.330  28.937  31.802  1.00  0.00    -0.206 F 
ATOM     82  C   UNL A   1      36.869  30.335  30.627  1.00  0.00     0.059 A 
ATOM     83  C   UNL A   1      37.168  30.679  28.254  1.00  0.00     0.059 A 
ATOM     84  F   UNL A   1      38.934  29.641  27.126  1.00  0.00    -0.206 F 
ATOM     85  C   UNL A   1      36.497  30.964  29.440  1.00  0.00     0.060 A 
BRANCH  85  86
ATOM     86  S   UNL A   1      35.221  32.249  29.494  1.00  0.00     0.124 S 
ATOM     87  O   UNL A   1      34.226  31.728  28.563  1.00  0.00    -0.237 OA
ATOM     88  O   UNL A   1      34.840  32.243  30.903  1.00  0.00    -0.237 OA
ATOM     89  O   UNL A   1      35.928  33.446  29.049  1.00  0.00    -0.744 OA
ENDBRANCH  85  86
ENDBRANCH  53  78
BRANCH  65  90
ATOM     90  C   UNL A   1      43.988  27.399  32.470  1.00  0.00     0.058 A 
ATOM     91  C   UNL A   1      43.936  26.027  32.164  1.00  0.00     0.135 A 
ATOM     92  C   UNL A   1      43.938  27.747  33.829  1.00  0.00     0.135 A 
ATOM     93  F   UNL A   1      44.067  25.597  30.904  1.00  0.00    -0.206 F 
ATOM     94  C   UNL A   1      43.813  25.051  33.157  1.00  0.00     0.059 A 
ATOM     95  C   UNL A   1      43.847  26.789  34.839  1.00  0.00     0.059 A 
ATOM     96  F   UNL A   1      44.029  29.036  34.196  1.00  0.00    -0.206 F 
ATOM     97  C   UNL A   1      43.779  25.441  34.494  1.00  0.00     0.060 A 
BRANCH  97  98
ATOM     98  S   UNL A   1      43.739  24.171  35.778  1.00  0.00     0.124 S 
ATOM     99  O   UNL A   1      45.101  24.215  36.300  1.00  0.00    -0.237 OA
ATOM    100  O   UNL A   1      42.700  24.663  36.678  1.00  0.00    -0.237 OA
ATOM    101  O   UNL A   1      43.390  22.956  35.046  1.00  0.00    -0.744 OA
ENDBRANCH  97  98
ENDBRANCH  65  90
ENDBRANCH  39  40
ENDBRANCH  32  34
ENDBRANCH  31  32
ENDBRANCH  30  31
ENDBRANCH  29  30
ENDBRANCH  28  29
ENDBRANCH   1  28
TORSDOF 23
ENDMDL
MODEL 2
REMARK VINA RESULT:     -10.6      3.873      7.312
REMARK SMILES CCc1cccc2c3c([nH]c12)[C@](CC)(CC(=O)OCCOCCOCCOC(=O)c1ccc(-c2c4nc(c(-c5c(F)cc(S(=O)(=O)[O-])cc5F)c5ccc([nH]5)c(-c5c(F)cc(S(=O)(=O)[O-])cc5F)c5nc(c(-c6c(F)cc(S(=O)(=O)[O-])cc6F)c6ccc2[nH]6)C=C5)C=C4)cc1)OCC3
REMARK SMILES IDX 23 1 22 2 21 3 20 4 19 5 18 6 16 7 17 8 15 9 12 10 3 11 4 12
REMARK SMILES IDX 11 13 5 14 7 15 10 16 6 17 8 18 9 19 98 21 97 22 96 23 2 24
REMARK SMILES IDX 1 25 13 26 14 27 24 28 25 29 26 30 27 31 28 32 29 33 30 34
REMARK SMILES IDX 31 35 95 36 32 37 94 38 33 39 34 40 35 41 88 42 36 43 93 44
REMARK SMILES IDX 87 45 89 46 37 47 92 48 86 49 85 50 38 52 72 53 51 54 71 55
REMARK SMILES IDX 52 56 55 57 70 58 90 59 53 60 54 61 69 63 91 64 56 65 39 66
REMARK SMILES IDX 40 67 49 68 41 69 42 70 48 71 50 72 43 73 44 74 45 75 46 76
REMARK SMILES IDX 47 77 73 78 74 79 83 80 75 81 76 82 82 83 84 84 77 85 78 86
REMARK SMILES IDX 79 87 80 88 81 89 57 90 58 91 67 92 59 93 60 94 66 95 68 96
REMARK SMILES IDX 61 97 62 98 63 99 64 100 65 101
REMARK H PARENT 10 20 89 51 55 62
REMARK Flexibility Score: inf
ROOT
ATOM      1  C   UNL A   1      43.077  18.505  25.779  1.00  0.00     0.188 C 
ENDROOT
BRANCH   1   2
ATOM      2  C   UNL A   1      44.617  18.465  25.880  1.00  0.00     0.188 C 
BRANCH   2   3
ATOM      3  O   UNL A   1      45.365  18.494  24.672  1.00  0.00    -0.376 OA
BRANCH   3   4
ATOM      4  C   UNL A   1      45.185  19.613  23.810  1.00  0.00     0.202 C 
BRANCH   4   5
ATOM      5  C   UNL A   1      44.954  20.969  24.498  1.00  0.00     0.261 C 
BRANCH   5   6
ATOM      6  O   UNL A   1      46.238  21.532  24.841  1.00  0.00    -0.463 OA
BRANCH   6   7
ATOM      7  C   UNL A   1      46.383  22.880  24.906  1.00  0.00     0.309 C 
ATOM      8  O   UNL A   1      46.539  23.590  23.924  1.00  0.00    -0.252 OA
BRANCH   7   9
ATOM      9  C   UNL A   1      46.074  23.390  26.317  1.00  0.00     0.164 C 
BRANCH   9  10
ATOM     10  C   UNL A   1      45.808  24.859  26.717  1.00  0.00     0.118 C 
ATOM     11  C   UNL A   1      45.740  25.257  31.836  1.00  0.00    -0.024 A 
ATOM     12  C   UNL A   1      46.794  25.509  32.746  1.00  0.00     0.006 A 
ATOM     13  C   UNL A   1      46.077  25.349  30.457  1.00  0.00     0.049 A 
ATOM     14  C   UNL A   1      48.063  25.894  32.332  1.00  0.00     0.001 A 
ATOM     15  C   UNL A   1      47.351  25.745  30.025  1.00  0.00     0.003 A 
ATOM     16  N   UNL A   1      45.356  25.070  29.301  1.00  0.00    -0.356 N 
ATOM     17  C   UNL A   1      48.341  26.052  30.977  1.00  0.00     0.010 A 
ATOM     18  C   UNL A   1      47.335  25.753  28.606  1.00  0.00    -0.014 A 
ATOM     19  C   UNL A   1      46.164  25.165  28.182  1.00  0.00     0.052 A 
ATOM     20  H   UNL A   1      44.399  24.838  29.281  1.00  0.00     0.166 HD
ATOM     21  C   UNL A   1      48.323  26.282  27.639  1.00  0.00     0.066 C 
ATOM     22  C   UNL A   1      47.982  25.845  26.209  1.00  0.00     0.166 C 
ATOM     23  O   UNL A   1      46.571  25.792  25.925  1.00  0.00    -0.368 OA
BRANCH  11  24
ATOM     24  C   UNL A   1      44.381  24.934  32.422  1.00  0.00     0.034 C 
ATOM     25  C   UNL A   1      44.414  24.096  33.683  1.00  0.00     0.009 C 
ENDBRANCH  11  24
BRANCH  10  26
ATOM     26  C   UNL A   1      44.291  25.173  26.534  1.00  0.00     0.039 C 
ATOM     27  C   UNL A   1      43.836  25.448  25.107  1.00  0.00     0.007 C 
ENDBRANCH  10  26
ENDBRANCH   9  10
ENDBRANCH   7   9
ENDBRANCH   6   7
ENDBRANCH   5   6
ENDBRANCH   4   5
ENDBRANCH   3   4
ENDBRANCH   2   3
ENDBRANCH   1   2
BRANCH   1  28
ATOM     28  O   UNL A   1      42.320  18.620  26.972  1.00  0.00    -0.376 OA
BRANCH  28  29
ATOM     29  C   UNL A   1      42.031  19.951  27.388  1.00  0.00     0.202 C 
BRANCH  29  30
ATOM     30  C   UNL A   1      41.797  20.963  26.252  1.00  0.00     0.261 C 
BRANCH  30  31
ATOM     31  O   UNL A   1      41.662  22.293  26.803  1.00  0.00    -0.460 OA
BRANCH  31  32
ATOM     32  C   UNL A   1      40.409  22.816  26.775  1.00  0.00     0.338 C 
ATOM     33  O   UNL A   1      39.366  22.182  26.754  1.00  0.00    -0.246 OA
BRANCH  32  34
ATOM     34  C   UNL A   1      40.525  24.242  27.179  1.00  0.00     0.060 A 
ATOM     35  C   UNL A   1      40.130  25.329  26.405  1.00  0.00     0.016 A 
ATOM     36  C   UNL A   1      41.230  24.472  28.359  1.00  0.00     0.016 A 
ATOM     37  C   UNL A   1      40.462  26.635  26.827  1.00  0.00     0.010 A 
ATOM     38  C   UNL A   1      41.614  25.757  28.738  1.00  0.00     0.010 A 
ATOM     39  C   UNL A   1      41.230  26.858  27.984  1.00  0.00    -0.014 A 
BRANCH  39  40
ATOM     40  C   UNL A   1      41.324  28.181  28.627  1.00  0.00     0.031 A 
ATOM     41  C   UNL A   1      42.498  28.949  28.176  1.00  0.00     0.074 A 
ATOM     42  C   UNL A   1      40.468  28.871  29.413  1.00  0.00     0.049 A 
ATOM     43  N   UNL A   1      43.642  28.959  28.770  1.00  0.00    -0.248 NA
ATOM     44  C   UNL A   1      42.456  29.691  26.917  1.00  0.00     0.031 C 
ATOM     45  C   UNL A   1      39.193  28.457  29.966  1.00  0.00     0.029 A 
ATOM     46  N   UNL A   1      40.578  30.162  29.868  1.00  0.00    -0.354 N 
ATOM     47  C   UNL A   1      44.394  29.898  28.094  1.00  0.00     0.074 A 
ATOM     48  C   UNL A   1      43.711  30.141  26.846  1.00  0.00     0.031 C 
ATOM     49  C   UNL A   1      38.530  29.522  30.486  1.00  0.00     0.029 A 
ATOM     50  C   UNL A   1      39.439  30.655  30.496  1.00  0.00     0.049 A 
ATOM     51  H   UNL A   1      41.398  30.696  29.761  1.00  0.00     0.167 HD
ATOM     52  C   UNL A   1      45.377  30.595  28.722  1.00  0.00     0.037 A 
ATOM     53  C   UNL A   1      39.303  31.803  31.207  1.00  0.00     0.037 A 
ATOM     54  C   UNL A   1      45.621  30.103  30.059  1.00  0.00     0.049 A 
ATOM     55  C   UNL A   1      40.628  32.079  31.803  1.00  0.00     0.074 A 
ATOM     56  C   UNL A   1      45.945  28.876  30.606  1.00  0.00     0.029 A 
ATOM     57  N   UNL A   1      45.145  30.859  31.105  1.00  0.00    -0.354 N 
ATOM     58  N   UNL A   1      41.174  31.340  32.730  1.00  0.00    -0.248 NA
ATOM     59  C   UNL A   1      41.526  33.008  31.136  1.00  0.00     0.031 C 
ATOM     60  C   UNL A   1      45.231  28.807  31.841  1.00  0.00     0.029 A 
ATOM     61  C   UNL A   1      44.540  30.008  32.000  1.00  0.00     0.049 A 
ATOM     62  H   UNL A   1      45.224  31.836  31.197  1.00  0.00     0.167 HD
ATOM     63  C   UNL A   1      42.529  31.388  32.459  1.00  0.00     0.074 A 
ATOM     64  C   UNL A   1      42.694  32.535  31.575  1.00  0.00     0.031 C 
ATOM     65  C   UNL A   1      43.345  30.334  32.756  1.00  0.00     0.037 A 
BRANCH  52  66
ATOM     66  C   UNL A   1      45.881  31.924  28.251  1.00  0.00     0.058 A 
ATOM     67  C   UNL A   1      47.255  32.095  28.010  1.00  0.00     0.135 A 
ATOM     68  C   UNL A   1      45.092  33.094  28.217  1.00  0.00     0.135 A 
ATOM     69  F   UNL A   1      48.091  31.047  28.068  1.00  0.00    -0.206 F 
ATOM     70  C   UNL A   1      47.812  33.346  27.761  1.00  0.00     0.059 A 
ATOM     71  C   UNL A   1      45.613  34.343  27.906  1.00  0.00     0.059 A 
ATOM     72  F   UNL A   1      43.800  33.084  28.573  1.00  0.00    -0.206 F 
ATOM     73  C   UNL A   1      46.981  34.465  27.712  1.00  0.00     0.060 A 
BRANCH  73  74
ATOM     74  S   UNL A   1      47.710  36.090  27.453  1.00  0.00     0.124 S 
ATOM     75  O   UNL A   1      47.740  36.161  25.996  1.00  0.00    -0.237 OA
ATOM     76  O   UNL A   1      46.749  36.965  28.118  1.00  0.00    -0.237 OA
ATOM     77  O   UNL A   1      49.008  35.981  28.110  1.00  0.00    -0.744 OA
ENDBRANCH  73  74
ENDBRANCH  52  66
BRANCH  53  78
ATOM     78  C   UNL A   1      38.187  32.783  31.250  1.00  0.00     0.058 A 
ATOM     79  C   UNL A   1      37.267  32.882  30.187  1.00  0.00     0.135 A 
ATOM     80  C   UNL A   1      37.815  33.411  32.454  1.00  0.00     0.135 A 
ATOM     81  F   UNL A   1      37.535  32.305  29.006  1.00  0.00    -0.206 F 
ATOM     82  C   UNL A   1      36.021  33.500  30.329  1.00  0.00     0.059 A 
ATOM     83  C   UNL A   1      36.575  34.038  32.619  1.00  0.00     0.059 A 
ATOM     84  F   UNL A   1      38.611  33.341  33.533  1.00  0.00    -0.206 F 
ATOM     85  C   UNL A   1      35.671  34.049  31.560  1.00  0.00     0.060 A 
BRANCH  85  86
ATOM     86  S   UNL A   1      33.979  34.655  31.798  1.00  0.00     0.124 S 
ATOM     87  O   UNL A   1      33.440  34.590  30.444  1.00  0.00    -0.237 OA
ATOM     88  O   UNL A   1      33.438  33.686  32.746  1.00  0.00    -0.237 OA
ATOM     89  O   UNL A   1      34.174  36.000  32.331  1.00  0.00    -0.744 OA
ENDBRANCH  85  86
ENDBRANCH  53  78
BRANCH  65  90
ATOM     90  C   UNL A   1      42.853  29.310  33.750  1.00  0.00     0.058 A 
ATOM     91  C   UNL A   1      42.172  28.126  33.411  1.00  0.00     0.135 A 
ATOM     92  C   UNL A   1      43.202  29.474  35.100  1.00  0.00     0.135 A 
ATOM     93  F   UNL A   1      41.879  27.842  32.137  1.00  0.00    -0.206 F 
ATOM     94  C   UNL A   1      41.833  27.167  34.369  1.00  0.00     0.059 A 
ATOM     95  C   UNL A   1      42.902  28.517  36.068  1.00  0.00     0.059 A 
ATOM     96  F   UNL A   1      43.893  30.560  35.487  1.00  0.00    -0.206 F 
ATOM     97  C   UNL A   1      42.210  27.366  35.695  1.00  0.00     0.060 A 
BRANCH  97  98
ATOM     98  S   UNL A   1      41.873  26.070  36.908  1.00  0.00     0.124 S 
ATOM     99  O   UNL A   1      42.943  26.269  37.880  1.00  0.00    -0.237 OA
ATOM    100  O   UNL A   1      40.529  26.407  37.367  1.00  0.00    -0.237 OA
ATOM    101  O   UNL A   1      41.962  24.839  36.126  1.00  0.00    -0.744 OA
ENDBRANCH  97  98
ENDBRANCH  65  90
ENDBRANCH  39  40
ENDBRANCH  32  34
ENDBRANCH  31  32
ENDBRANCH  30  31
ENDBRANCH  29  30
ENDBRANCH  28  29
ENDBRANCH   1  28
TORSDOF 23
ENDMDL
MODEL 3
REMARK VINA RESULT:     -10.6      2.479      9.781
REMARK SMILES CCc1cccc2c3c([nH]c12)[C@](CC)(CC(=O)OCCOCCOCCOC(=O)c1ccc(-c2c4nc(c(-c5c(F)cc(S(=O)(=O)[O-])cc5F)c5ccc([nH]5)c(-c5c(F)cc(S(=O)(=O)[O-])cc5F)c5nc(c(-c6c(F)cc(S(=O)(=O)[O-])cc6F)c6ccc2[nH]6)C=C5)C=C4)cc1)OCC3
REMARK SMILES IDX 23 1 22 2 21 3 20 4 19 5 18 6 16 7 17 8 15 9 12 10 3 11 4 12
REMARK SMILES IDX 11 13 5 14 7 15 10 16 6 17 8 18 9 19 98 21 97 22 96 23 2 24
REMARK SMILES IDX 1 25 13 26 14 27 24 28 25 29 26 30 27 31 28 32 29 33 30 34
REMARK SMILES IDX 31 35 95 36 32 37 94 38 33 39 34 40 35 41 88 42 36 43 93 44
REMARK SMILES IDX 87 45 89 46 37 47 92 48 86 49 85 50 38 52 72 53 51 54 71 55
REMARK SMILES IDX 52 56 55 57 70 58 90 59 53 60 54 61 69 63 91 64 56 65 39 66
REMARK SMILES IDX 40 67 49 68 41 69 42 70 48 71 50 72 43 73 44 74 45 75 46 76
REMARK SMILES IDX 47 77 73 78 74 79 83 80 75 81 76 82 82 83 84 84 77 85 78 86
REMARK SMILES IDX 79 87 80 88 81 89 57 90 58 91 67 92 59 93 60 94 66 95 68 96
REMARK SMILES IDX 61 97 62 98 63 99 64 100 65 101
REMARK H PARENT 10 20 89 51 55 62
REMARK Flexibility Score: inf
ROOT
ATOM      1  C   UNL A   1      32.179  28.533  25.522  1.00  0.00     0.188 C 
ENDROOT
BRANCH   1   2
ATOM      2  C   UNL A   1      31.106  28.419  24.418  1.00  0.00     0.188 C 
BRANCH   2   3
ATOM      3  O   UNL A   1      31.083  27.236  23.631  1.00  0.00    -0.376 OA
BRANCH   3   4
ATOM      4  C   UNL A   1      31.466  27.344  22.264  1.00  0.00     0.202 C 
BRANCH   4   5
ATOM      5  C   UNL A   1      32.666  26.488  21.825  1.00  0.00     0.261 C 
BRANCH   5   6
ATOM      6  O   UNL A   1      32.223  25.123  21.677  1.00  0.00    -0.463 OA
BRANCH   6   7
ATOM      7  C   UNL A   1      32.902  24.126  22.301  1.00  0.00     0.309 C 
ATOM      8  O   UNL A   1      33.084  23.022  21.809  1.00  0.00    -0.252 OA
BRANCH   7   9
ATOM      9  C   UNL A   1      33.605  24.654  23.555  1.00  0.00     0.164 C 
BRANCH   9  10
ATOM     10  C   UNL A   1      33.575  24.005  24.958  1.00  0.00     0.118 C 
ATOM     11  C   UNL A   1      34.072  18.915  24.504  1.00  0.00    -0.024 A 
ATOM     12  C   UNL A   1      35.235  18.110  24.480  1.00  0.00     0.006 A 
ATOM     13  C   UNL A   1      34.279  20.294  24.786  1.00  0.00     0.049 A 
ATOM     14  C   UNL A   1      36.497  18.610  24.783  1.00  0.00     0.001 A 
ATOM     15  C   UNL A   1      35.544  20.810  25.102  1.00  0.00     0.003 A 
ATOM     16  N   UNL A   1      33.415  21.384  24.786  1.00  0.00    -0.356 N 
ATOM     17  C   UNL A   1      36.655  19.948  25.132  1.00  0.00     0.010 A 
ATOM     18  C   UNL A   1      35.387  22.199  25.347  1.00  0.00    -0.014 A 
ATOM     19  C   UNL A   1      34.112  22.565  24.973  1.00  0.00     0.052 A 
ATOM     20  H   UNL A   1      32.439  21.324  24.670  1.00  0.00     0.166 HD
ATOM     21  C   UNL A   1      36.333  23.185  25.915  1.00  0.00     0.066 C 
ATOM     22  C   UNL A   1      35.796  24.614  25.763  1.00  0.00     0.166 C 
ATOM     23  O   UNL A   1      34.369  24.731  25.918  1.00  0.00    -0.368 OA
BRANCH  11  24
ATOM     24  C   UNL A   1      32.748  18.227  24.244  1.00  0.00     0.034 C 
ATOM     25  C   UNL A   1      32.138  18.512  22.888  1.00  0.00     0.009 C 
ENDBRANCH  11  24
BRANCH  10  26
ATOM     26  C   UNL A   1      32.100  23.955  25.467  1.00  0.00     0.039 C 
ATOM     27  C   UNL A   1      31.918  23.624  26.943  1.00  0.00     0.007 C 
ENDBRANCH  10  26
ENDBRANCH   9  10
ENDBRANCH   7   9
ENDBRANCH   6   7
ENDBRANCH   5   6
ENDBRANCH   4   5
ENDBRANCH   3   4
ENDBRANCH   2   3
ENDBRANCH   1   2
BRANCH   1  28
ATOM     28  O   UNL A   1      33.155  29.557  25.418  1.00  0.00    -0.376 OA
BRANCH  28  29
ATOM     29  C   UNL A   1      33.917  29.798  26.597  1.00  0.00     0.202 C 
BRANCH  29  30
ATOM     30  C   UNL A   1      33.467  31.005  27.439  1.00  0.00     0.261 C 
BRANCH  30  31
ATOM     31  O   UNL A   1      34.576  31.913  27.623  1.00  0.00    -0.460 OA
BRANCH  31  32
ATOM     32  C   UNL A   1      34.993  32.081  28.904  1.00  0.00     0.338 C 
ATOM     33  O   UNL A   1      34.367  32.629  29.798  1.00  0.00    -0.246 OA
BRANCH  32  34
ATOM     34  C   UNL A   1      36.130  31.147  29.118  1.00  0.00     0.060 A 
ATOM     35  C   UNL A   1      36.040  29.900  29.730  1.00  0.00     0.016 A 
ATOM     36  C   UNL A   1      37.388  31.661  28.811  1.00  0.00     0.016 A 
ATOM     37  C   UNL A   1      37.223  29.193  30.035  1.00  0.00     0.010 A 
ATOM     38  C   UNL A   1      38.556  30.991  29.174  1.00  0.00     0.010 A 
ATOM     39  C   UNL A   1      38.492  29.745  29.782  1.00  0.00    -0.014 A 
BRANCH  39  40
ATOM     40  C   UNL A   1      39.721  28.932  29.783  1.00  0.00     0.031 A 
ATOM     41  C   UNL A   1      40.231  28.673  31.142  1.00  0.00     0.074 A 
ATOM     42  C   UNL A   1      40.364  28.258  28.804  1.00  0.00     0.049 A 
ATOM     43  N   UNL A   1      41.114  29.392  31.744  1.00  0.00    -0.248 NA
ATOM     44  C   UNL A   1      39.658  27.601  31.954  1.00  0.00     0.031 C 
ATOM     45  C   UNL A   1      40.084  28.217  27.382  1.00  0.00     0.029 A 
ATOM     46  N   UNL A   1      41.441  27.412  28.914  1.00  0.00    -0.354 N 
ATOM     47  C   UNL A   1      41.386  28.724  32.921  1.00  0.00     0.074 A 
ATOM     48  C   UNL A   1      40.314  27.775  33.103  1.00  0.00     0.031 C 
ATOM     49  C   UNL A   1      40.799  27.230  26.783  1.00  0.00     0.029 A 
ATOM     50  C   UNL A   1      41.753  26.715  27.751  1.00  0.00     0.049 A 
ATOM     51  H   UNL A   1      41.952  27.307  29.748  1.00  0.00     0.167 HD
ATOM     52  C   UNL A   1      42.603  28.819  33.518  1.00  0.00     0.037 A 
ATOM     53  C   UNL A   1      42.854  25.966  27.491  1.00  0.00     0.037 A 
ATOM     54  C   UNL A   1      43.444  29.806  32.880  1.00  0.00     0.049 A 
ATOM     55  C   UNL A   1      43.950  26.550  28.295  1.00  0.00     0.074 A 
ATOM     56  C   UNL A   1      43.324  31.151  32.584  1.00  0.00     0.029 A 
ATOM     57  N   UNL A   1      44.462  29.343  32.079  1.00  0.00    -0.354 N 
ATOM     58  N   UNL A   1      44.461  27.729  28.074  1.00  0.00    -0.248 NA
ATOM     59  C   UNL A   1      44.277  25.959  29.582  1.00  0.00     0.031 C 
ATOM     60  C   UNL A   1      43.956  31.322  31.315  1.00  0.00     0.029 A 
ATOM     61  C   UNL A   1      44.459  30.082  30.920  1.00  0.00     0.049 A 
ATOM     62  H   UNL A   1      45.084  28.611  32.298  1.00  0.00     0.167 HD
ATOM     63  C   UNL A   1      44.790  28.206  29.329  1.00  0.00     0.074 A 
ATOM     64  C   UNL A   1      44.795  27.029  30.188  1.00  0.00     0.031 C 
ATOM     65  C   UNL A   1      44.758  29.543  29.607  1.00  0.00     0.037 A 
BRANCH  52  66
ATOM     66  C   UNL A   1      43.145  27.793  34.463  1.00  0.00     0.058 A 
ATOM     67  C   UNL A   1      43.426  28.157  35.791  1.00  0.00     0.135 A 
ATOM     68  C   UNL A   1      43.586  26.513  34.061  1.00  0.00     0.135 A 
ATOM     69  F   UNL A   1      43.086  29.371  36.249  1.00  0.00    -0.206 F 
ATOM     70  C   UNL A   1      44.108  27.310  36.661  1.00  0.00     0.059 A 
ATOM     71  C   UNL A   1      44.210  25.626  34.929  1.00  0.00     0.059 A 
ATOM     72  F   UNL A   1      43.509  26.109  32.785  1.00  0.00    -0.206 F 
ATOM     73  C   UNL A   1      44.496  26.047  36.219  1.00  0.00     0.060 A 
BRANCH  73  74
ATOM     74  S   UNL A   1      45.434  24.978  37.323  1.00  0.00     0.124 S 
ATOM     75  O   UNL A   1      46.704  25.691  37.399  1.00  0.00    -0.237 OA
ATOM     76  O   UNL A   1      44.616  24.994  38.532  1.00  0.00    -0.237 OA
ATOM     77  O   UNL A   1      45.462  23.705  36.609  1.00  0.00    -0.744 OA
ENDBRANCH  73  74
ENDBRANCH  52  66
BRANCH  53  78
ATOM     78  C   UNL A   1      42.992  24.675  26.769  1.00  0.00     0.058 A 
ATOM     79  C   UNL A   1      43.519  24.626  25.464  1.00  0.00     0.135 A 
ATOM     80  C   UNL A   1      42.909  23.446  27.452  1.00  0.00     0.135 A 
ATOM     81  F   UNL A   1      43.643  25.751  24.742  1.00  0.00    -0.206 F 
ATOM     82  C   UNL A   1      44.006  23.445  24.895  1.00  0.00     0.059 A 
ATOM     83  C   UNL A   1      43.388  22.252  26.903  1.00  0.00     0.059 A 
ATOM     84  F   UNL A   1      42.452  23.398  28.714  1.00  0.00    -0.206 F 
ATOM     85  C   UNL A   1      43.965  22.266  25.636  1.00  0.00     0.060 A 
BRANCH  85  86
ATOM     86  S   UNL A   1      44.789  20.792  24.980  1.00  0.00     0.124 S 
ATOM     87  O   UNL A   1      43.988  19.716  25.553  1.00  0.00    -0.237 OA
ATOM     88  O   UNL A   1      44.660  20.985  23.539  1.00  0.00    -0.237 OA
ATOM     89  O   UNL A   1      46.149  20.905  25.501  1.00  0.00    -0.744 OA
ENDBRANCH  85  86
ENDBRANCH  53  78
BRANCH  65  90
ATOM     90  C   UNL A   1      44.779  30.512  28.448  1.00  0.00     0.058 A 
ATOM     91  C   UNL A   1      43.649  30.895  27.703  1.00  0.00     0.135 A 
ATOM     92  C   UNL A   1      45.980  31.181  28.165  1.00  0.00     0.135 A 
ATOM     93  F   UNL A   1      42.443  30.376  27.965  1.00  0.00    -0.206 F 
ATOM     94  C   UNL A   1      43.715  31.873  26.708  1.00  0.00     0.059 A 
ATOM     95  C   UNL A   1      46.063  32.182  27.199  1.00  0.00     0.059 A 
ATOM     96  F   UNL A   1      47.089  30.897  28.870  1.00  0.00    -0.206 F 
ATOM     97  C   UNL A   1      44.926  32.520  26.469  1.00  0.00     0.060 A 
BRANCH  97  98
ATOM     98  S   UNL A   1      44.980  33.866  25.265  1.00  0.00     0.124 S 
ATOM     99  O   UNL A   1      44.119  34.869  25.883  1.00  0.00    -0.237 OA
ATOM    100  O   UNL A   1      46.402  34.193  25.218  1.00  0.00    -0.237 OA
ATOM    101  O   UNL A   1      44.452  33.257  24.047  1.00  0.00    -0.744 OA
ENDBRANCH  97  98
ENDBRANCH  65  90
ENDBRANCH  39  40
ENDBRANCH  32  34
ENDBRANCH  31  32
ENDBRANCH  30  31
ENDBRANCH  29  30
ENDBRANCH  28  29
ENDBRANCH   1  28
TORSDOF 23
ENDMDL
