MODEL 1
REMARK VINA RESULT:     -10.7      0.000      0.000
REMARK SMILES Cc1cc(S(=O)(=O)Nc2ccc(F)cc2C(=O)OCCOCCOCCOC(=O)c2ccc(-c3c4nc(c(-c5c(F)cc(S(=O)(=O)[O-])cc5F)c5ccc([nH]5)c(-c5c(F)cc(S(=O)(=O)[O-])cc5F)c5nc(c(-c6c(F)cc(S(=O)(=O)[O-])cc6F)c6ccc3[nH]6)C=C5)C=C4)cc2)c(C)s1
REMARK SMILES IDX 22 1 21 2 20 3 19 4 18 5 16 6 17 7 15 8 9 9 10 10 11 11
REMARK SMILES IDX 14 12 12 13 13 14 8 15 5 17 6 18 7 19 4 20 1 21 2 22 3 23
REMARK SMILES IDX 98 24 96 25 97 26 23 27 24 28 25 29 26 30 27 31 28 32 29 33
REMARK SMILES IDX 30 34 31 35 95 36 32 37 94 38 33 39 34 40 35 41 88 42 36 43
REMARK SMILES IDX 93 44 87 45 89 46 37 47 92 48 86 49 85 50 38 52 72 53 51 54
REMARK SMILES IDX 71 55 52 56 55 57 70 58 90 59 53 60 54 61 69 63 91 64 56 65
REMARK SMILES IDX 39 66 40 67 49 68 41 69 42 70 48 71 50 72 43 73 44 74 45 75
REMARK SMILES IDX 46 76 47 77 73 78 74 79 83 80 75 81 76 82 82 83 84 84 77 85
REMARK SMILES IDX 78 86 79 87 80 88 81 89 57 90 58 91 67 92 59 93 60 94 66 95
REMARK SMILES IDX 68 96 61 97 62 98 63 99 64 100 65 101
REMARK H PARENT 8 16 89 51 55 62
REMARK Flexibility Score: inf
ROOT
ATOM      1  C   UNL A   1      38.454  22.320  25.781  1.00  0.00     0.188 C 
ENDROOT
BRANCH   1   2
ATOM      2  O   UNL A   1      37.064  22.035  25.854  1.00  0.00    -0.376 OA
BRANCH   2   3
ATOM      3  C   UNL A   1      36.488  21.060  24.995  1.00  0.00     0.202 C 
BRANCH   3   4
ATOM      4  C   UNL A   1      34.963  20.930  24.972  1.00  0.00     0.261 C 
BRANCH   4   5
ATOM      5  O   UNL A   1      34.358  21.447  23.770  1.00  0.00    -0.460 OA
BRANCH   5   6
ATOM      6  C   UNL A   1      34.310  22.800  23.694  1.00  0.00     0.340 C 
ATOM      7  O   UNL A   1      35.143  23.516  23.157  1.00  0.00    -0.246 OA
BRANCH   6   8
ATOM      8  C   UNL A   1      33.060  23.370  24.259  1.00  0.00     0.087 A 
ATOM      9  C   UNL A   1      31.989  23.892  23.504  1.00  0.00     0.064 A 
ATOM     10  C   UNL A   1      30.756  24.065  24.147  1.00  0.00     0.030 A 
ATOM     11  C   UNL A   1      30.669  24.011  25.542  1.00  0.00     0.041 A 
ATOM     12  C   UNL A   1      32.969  23.323  25.660  1.00  0.00     0.057 A 
ATOM     13  C   UNL A   1      31.793  23.695  26.287  1.00  0.00     0.124 A 
ATOM     14  F   UNL A   1      31.734  23.730  27.623  1.00  0.00    -0.207 F 
BRANCH   9  15
ATOM     15  N   UNL A   1      32.188  24.291  22.144  1.00  0.00    -0.279 N 
ATOM     16  H   UNL A   1      32.243  23.573  21.472  1.00  0.00     0.180 HD
BRANCH  15  17
ATOM     17  S   UNL A   1      32.335  25.864  21.586  1.00  0.00     0.263 S 
ATOM     18  O   UNL A   1      31.498  25.996  20.411  1.00  0.00    -0.201 OA
ATOM     19  O   UNL A   1      33.752  26.150  21.534  1.00  0.00    -0.201 OA
BRANCH  17  20
ATOM     20  C   UNL A   1      31.703  27.096  22.653  1.00  0.00     0.101 A 
ATOM     21  C   UNL A   1      29.555  30.165  23.064  1.00  0.00     0.056 C 
ATOM     22  C   UNL A   1      30.462  28.988  23.199  1.00  0.00     0.003 A 
ATOM     23  C   UNL A   1      30.491  27.829  22.450  1.00  0.00     0.037 A 
ATOM     24  S   UNL A   1      31.678  28.982  24.396  1.00  0.00    -0.145 S 
ATOM     25  C   UNL A   1      32.375  27.540  23.781  1.00  0.00     0.022 A 
ATOM     26  C   UNL A   1      33.590  26.997  24.456  1.00  0.00     0.058 C 
ENDBRANCH  17  20
ENDBRANCH  15  17
ENDBRANCH   9  15
ENDBRANCH   6   8
ENDBRANCH   5   6
ENDBRANCH   4   5
ENDBRANCH   3   4
ENDBRANCH   2   3
ENDBRANCH   1   2
BRANCH   1  27
ATOM     27  C   UNL A   1      39.488  21.232  26.135  1.00  0.00     0.188 C 
BRANCH  27  28
ATOM     28  O   UNL A   1      40.452  21.615  27.099  1.00  0.00    -0.376 OA
BRANCH  28  29
ATOM     29  C   UNL A   1      41.786  21.741  26.617  1.00  0.00     0.202 C 
BRANCH  29  30
ATOM     30  C   UNL A   1      42.188  23.156  26.173  1.00  0.00     0.261 C 
BRANCH  30  31
ATOM     31  O   UNL A   1      41.260  24.198  26.522  1.00  0.00    -0.460 OA
BRANCH  31  32
ATOM     32  C   UNL A   1      41.570  25.458  26.141  1.00  0.00     0.338 C 
ATOM     33  O   UNL A   1      41.888  25.827  25.025  1.00  0.00    -0.246 OA
BRANCH  32  34
ATOM     34  C   UNL A   1      41.259  26.360  27.270  1.00  0.00     0.060 A 
ATOM     35  C   UNL A   1      41.944  27.579  27.374  1.00  0.00     0.016 A 
ATOM     36  C   UNL A   1      40.289  26.012  28.210  1.00  0.00     0.016 A 
ATOM     37  C   UNL A   1      41.669  28.443  28.436  1.00  0.00     0.010 A 
ATOM     38  C   UNL A   1      40.030  26.870  29.283  1.00  0.00     0.010 A 
ATOM     39  C   UNL A   1      40.734  28.079  29.415  1.00  0.00    -0.014 A 
BRANCH  39  40
ATOM     40  C   UNL A   1      40.605  28.877  30.659  1.00  0.00     0.031 A 
ATOM     41  C   UNL A   1      39.569  29.965  30.713  1.00  0.00     0.074 A 
ATOM     42  C   UNL A   1      41.391  28.643  31.726  1.00  0.00     0.049 A 
ATOM     43  N   UNL A   1      39.303  30.811  31.673  1.00  0.00    -0.248 NA
ATOM     44  C   UNL A   1      38.715  30.116  29.522  1.00  0.00     0.031 C 
ATOM     45  C   UNL A   1      42.407  27.596  31.814  1.00  0.00     0.029 A 
ATOM     46  N   UNL A   1      41.456  29.281  32.941  1.00  0.00    -0.354 N 
ATOM     47  C   UNL A   1      38.253  31.593  31.207  1.00  0.00     0.074 A 
ATOM     48  C   UNL A   1      37.949  31.140  29.867  1.00  0.00     0.031 C 
ATOM     49  C   UNL A   1      42.998  27.665  33.020  1.00  0.00     0.029 A 
ATOM     50  C   UNL A   1      42.425  28.779  33.777  1.00  0.00     0.049 A 
ATOM     51  H   UNL A   1      40.865  30.026  33.189  1.00  0.00     0.167 HD
ATOM     52  C   UNL A   1      37.597  32.593  31.840  1.00  0.00     0.037 A 
ATOM     53  C   UNL A   1      42.815  29.182  35.004  1.00  0.00     0.037 A 
ATOM     54  C   UNL A   1      37.908  33.053  33.167  1.00  0.00     0.049 A 
ATOM     55  C   UNL A   1      42.127  30.352  35.658  1.00  0.00     0.074 A 
ATOM     56  C   UNL A   1      37.290  34.054  33.896  1.00  0.00     0.029 A 
ATOM     57  N   UNL A   1      38.929  32.552  33.961  1.00  0.00    -0.354 N 
ATOM     58  N   UNL A   1      41.126  31.074  35.212  1.00  0.00    -0.248 NA
ATOM     59  C   UNL A   1      42.625  30.769  36.978  1.00  0.00     0.031 C 
ATOM     60  C   UNL A   1      37.967  34.190  35.112  1.00  0.00     0.029 A 
ATOM     61  C   UNL A   1      38.976  33.241  35.161  1.00  0.00     0.049 A 
ATOM     62  H   UNL A   1      39.532  31.817  33.708  1.00  0.00     0.167 HD
ATOM     63  C   UNL A   1      40.860  32.013  36.204  1.00  0.00     0.074 A 
ATOM     64  C   UNL A   1      41.802  31.767  37.276  1.00  0.00     0.031 C 
ATOM     65  C   UNL A   1      39.919  32.989  36.223  1.00  0.00     0.037 A 
BRANCH  52  66
ATOM     66  C   UNL A   1      36.485  33.273  31.094  1.00  0.00     0.058 A 
ATOM     67  C   UNL A   1      36.766  34.105  30.000  1.00  0.00     0.135 A 
ATOM     68  C   UNL A   1      35.143  33.123  31.479  1.00  0.00     0.135 A 
ATOM     69  F   UNL A   1      38.031  34.273  29.584  1.00  0.00    -0.206 F 
ATOM     70  C   UNL A   1      35.755  34.773  29.317  1.00  0.00     0.059 A 
ATOM     71  C   UNL A   1      34.114  33.764  30.797  1.00  0.00     0.059 A 
ATOM     72  F   UNL A   1      34.821  32.316  32.503  1.00  0.00    -0.206 F 
ATOM     73  C   UNL A   1      34.431  34.596  29.723  1.00  0.00     0.060 A 
BRANCH  73  74
ATOM     74  S   UNL A   1      33.126  35.427  28.794  1.00  0.00     0.124 S 
ATOM     75  O   UNL A   1      32.293  35.965  29.862  1.00  0.00    -0.237 OA
ATOM     76  O   UNL A   1      33.879  36.407  28.016  1.00  0.00    -0.237 OA
ATOM     77  O   UNL A   1      32.530  34.347  28.011  1.00  0.00    -0.744 OA
ENDBRANCH  73  74
ENDBRANCH  52  66
BRANCH  53  78
ATOM     78  C   UNL A   1      43.916  28.462  35.698  1.00  0.00     0.058 A 
ATOM     79  C   UNL A   1      43.653  27.380  36.552  1.00  0.00     0.135 A 
ATOM     80  C   UNL A   1      45.250  28.868  35.547  1.00  0.00     0.135 A 
ATOM     81  F   UNL A   1      42.394  26.951  36.728  1.00  0.00    -0.206 F 
ATOM     82  C   UNL A   1      44.670  26.749  37.260  1.00  0.00     0.059 A 
ATOM     83  C   UNL A   1      46.287  28.238  36.229  1.00  0.00     0.059 A 
ATOM     84  F   UNL A   1      45.551  29.884  34.725  1.00  0.00    -0.206 F 
ATOM     85  C   UNL A   1      45.984  27.192  37.100  1.00  0.00     0.060 A 
BRANCH  85  86
ATOM     86  S   UNL A   1      47.285  26.386  38.058  1.00  0.00     0.124 S 
ATOM     87  O   UNL A   1      48.101  25.798  37.002  1.00  0.00    -0.237 OA
ATOM     88  O   UNL A   1      47.882  27.511  38.771  1.00  0.00    -0.237 OA
ATOM     89  O   UNL A   1      46.553  25.436  38.890  1.00  0.00    -0.744 OA
ENDBRANCH  85  86
ENDBRANCH  53  78
BRANCH  65  90
ATOM     90  C   UNL A   1      39.834  33.865  37.443  1.00  0.00     0.058 A 
ATOM     91  C   UNL A   1      39.035  33.487  38.535  1.00  0.00     0.135 A 
ATOM     92  C   UNL A   1      40.463  35.117  37.493  1.00  0.00     0.135 A 
ATOM     93  F   UNL A   1      38.407  32.301  38.536  1.00  0.00    -0.206 F 
ATOM     94  C   UNL A   1      38.844  34.332  39.624  1.00  0.00     0.059 A 
ATOM     95  C   UNL A   1      40.304  35.970  38.583  1.00  0.00     0.059 A 
ATOM     96  F   UNL A   1      41.246  35.520  36.479  1.00  0.00    -0.206 F 
ATOM     97  C   UNL A   1      39.477  35.575  39.635  1.00  0.00     0.060 A 
BRANCH  97  98
ATOM     98  S   UNL A   1      39.216  36.662  41.053  1.00  0.00     0.124 S 
ATOM     99  O   UNL A   1      38.167  35.956  41.782  1.00  0.00    -0.237 OA
ATOM    100  O   UNL A   1      40.532  36.669  41.685  1.00  0.00    -0.237 OA
ATOM    101  O   UNL A   1      38.815  37.927  40.444  1.00  0.00    -0.744 OA
ENDBRANCH  97  98
ENDBRANCH  65  90
ENDBRANCH  39  40
ENDBRANCH  32  34
ENDBRANCH  31  32
ENDBRANCH  30  31
ENDBRANCH  29  30
ENDBRANCH  28  29
ENDBRANCH  27  28
ENDBRANCH   1  27
TORSDOF 23
ENDMDL
MODEL 2
REMARK VINA RESULT:     -10.4      6.557     11.522
REMARK SMILES Cc1cc(S(=O)(=O)Nc2ccc(F)cc2C(=O)OCCOCCOCCOC(=O)c2ccc(-c3c4nc(c(-c5c(F)cc(S(=O)(=O)[O-])cc5F)c5ccc([nH]5)c(-c5c(F)cc(S(=O)(=O)[O-])cc5F)c5nc(c(-c6c(F)cc(S(=O)(=O)[O-])cc6F)c6ccc3[nH]6)C=C5)C=C4)cc2)c(C)s1
REMARK SMILES IDX 22 1 21 2 20 3 19 4 18 5 16 6 17 7 15 8 9 9 10 10 11 11
REMARK SMILES IDX 14 12 12 13 13 14 8 15 5 17 6 18 7 19 4 20 1 21 2 22 3 23
REMARK SMILES IDX 98 24 96 25 97 26 23 27 24 28 25 29 26 30 27 31 28 32 29 33
REMARK SMILES IDX 30 34 31 35 95 36 32 37 94 38 33 39 34 40 35 41 88 42 36 43
REMARK SMILES IDX 93 44 87 45 89 46 37 47 92 48 86 49 85 50 38 52 72 53 51 54
REMARK SMILES IDX 71 55 52 56 55 57 70 58 90 59 53 60 54 61 69 63 91 64 56 65
REMARK SMILES IDX 39 66 40 67 49 68 41 69 42 70 48 71 50 72 43 73 44 74 45 75
REMARK SMILES IDX 46 76 47 77 73 78 74 79 83 80 75 81 76 82 82 83 84 84 77 85
REMARK SMILES IDX 78 86 79 87 80 88 81 89 57 90 58 91 67 92 59 93 60 94 66 95
REMARK SMILES IDX 68 96 61 97 62 98 63 99 64 100 65 101
REMARK H PARENT 8 16 89 51 55 62
REMARK Flexibility Score: inf
ROOT
ATOM      1  C   UNL A   1      32.120  29.249  24.228  1.00  0.00     0.188 C 
ENDROOT
BRANCH   1   2
ATOM      2  O   UNL A   1      33.425  29.601  23.787  1.00  0.00    -0.376 OA
BRANCH   2   3
ATOM      3  C   UNL A   1      34.244  28.637  23.139  1.00  0.00     0.202 C 
BRANCH   3   4
ATOM      4  C   UNL A   1      33.665  27.893  21.933  1.00  0.00     0.261 C 
BRANCH   4   5
ATOM      5  O   UNL A   1      33.227  26.554  22.237  1.00  0.00    -0.460 OA
BRANCH   5   6
ATOM      6  C   UNL A   1      31.922  26.307  21.962  1.00  0.00     0.340 C 
ATOM      7  O   UNL A   1      31.420  26.267  20.848  1.00  0.00    -0.246 OA
BRANCH   6   8
ATOM      8  C   UNL A   1      31.126  25.979  23.173  1.00  0.00     0.087 A 
ATOM      9  C   UNL A   1      31.578  25.201  24.259  1.00  0.00     0.064 A 
ATOM     10  C   UNL A   1      30.859  25.271  25.460  1.00  0.00     0.030 A 
ATOM     11  C   UNL A   1      29.584  25.843  25.491  1.00  0.00     0.041 A 
ATOM     12  C   UNL A   1      29.842  26.547  23.208  1.00  0.00     0.057 A 
ATOM     13  C   UNL A   1      29.066  26.426  24.347  1.00  0.00     0.124 A 
ATOM     14  F   UNL A   1      27.812  26.894  24.350  1.00  0.00    -0.207 F 
BRANCH   9  15
ATOM     15  N   UNL A   1      32.697  24.323  24.105  1.00  0.00    -0.279 N 
ATOM     16  H   UNL A   1      33.497  24.520  24.645  1.00  0.00     0.180 HD
BRANCH  15  17
ATOM     17  S   UNL A   1      32.776  22.989  23.095  1.00  0.00     0.263 S 
ATOM     18  O   UNL A   1      33.728  23.285  22.044  1.00  0.00    -0.201 OA
ATOM     19  O   UNL A   1      31.410  22.625  22.788  1.00  0.00    -0.201 OA
BRANCH  17  20
ATOM     20  C   UNL A   1      33.437  21.542  23.820  1.00  0.00     0.101 A 
ATOM     21  C   UNL A   1      32.789  18.269  25.572  1.00  0.00     0.056 C 
ATOM     22  C   UNL A   1      33.340  19.488  24.911  1.00  0.00     0.003 A 
ATOM     23  C   UNL A   1      32.752  20.294  23.957  1.00  0.00     0.037 A 
ATOM     24  S   UNL A   1      34.889  20.063  25.336  1.00  0.00    -0.145 S 
ATOM     25  C   UNL A   1      34.689  21.494  24.413  1.00  0.00     0.022 A 
ATOM     26  C   UNL A   1      35.798  22.493  24.405  1.00  0.00     0.058 C 
ENDBRANCH  17  20
ENDBRANCH  15  17
ENDBRANCH   9  15
ENDBRANCH   6   8
ENDBRANCH   5   6
ENDBRANCH   4   5
ENDBRANCH   3   4
ENDBRANCH   2   3
ENDBRANCH   1   2
BRANCH   1  27
ATOM     27  C   UNL A   1      31.694  29.526  25.684  1.00  0.00     0.188 C 
BRANCH  27  28
ATOM     28  O   UNL A   1      32.439  30.534  26.343  1.00  0.00    -0.376 OA
BRANCH  28  29
ATOM     29  C   UNL A   1      33.447  30.067  27.235  1.00  0.00     0.202 C 
BRANCH  29  30
ATOM     30  C   UNL A   1      34.188  31.165  28.013  1.00  0.00     0.261 C 
BRANCH  30  31
ATOM     31  O   UNL A   1      35.624  31.106  27.945  1.00  0.00    -0.460 OA
BRANCH  31  32
ATOM     32  C   UNL A   1      36.302  31.149  29.115  1.00  0.00     0.338 C 
ATOM     33  O   UNL A   1      35.877  31.517  30.194  1.00  0.00    -0.246 OA
BRANCH  32  34
ATOM     34  C   UNL A   1      37.601  30.475  28.907  1.00  0.00     0.060 A 
ATOM     35  C   UNL A   1      38.474  30.333  29.995  1.00  0.00     0.016 A 
ATOM     36  C   UNL A   1      37.949  29.974  27.652  1.00  0.00     0.016 A 
ATOM     37  C   UNL A   1      39.709  29.704  29.819  1.00  0.00     0.010 A 
ATOM     38  C   UNL A   1      39.194  29.362  27.474  1.00  0.00     0.010 A 
ATOM     39  C   UNL A   1      40.089  29.244  28.550  1.00  0.00    -0.014 A 
BRANCH  39  40
ATOM     40  C   UNL A   1      41.480  28.789  28.307  1.00  0.00     0.031 A 
ATOM     41  C   UNL A   1      42.591  29.800  28.372  1.00  0.00     0.074 A 
ATOM     42  C   UNL A   1      41.758  27.501  28.035  1.00  0.00     0.049 A 
ATOM     43  N   UNL A   1      43.871  29.641  28.157  1.00  0.00    -0.248 NA
ATOM     44  C   UNL A   1      42.206  31.175  28.730  1.00  0.00     0.031 C 
ATOM     45  C   UNL A   1      40.778  26.418  27.978  1.00  0.00     0.029 A 
ATOM     46  N   UNL A   1      42.954  26.888  27.748  1.00  0.00    -0.354 N 
ATOM     47  C   UNL A   1      44.445  30.891  28.355  1.00  0.00     0.074 A 
ATOM     48  C   UNL A   1      43.370  31.804  28.680  1.00  0.00     0.031 C 
ATOM     49  C   UNL A   1      41.412  25.272  27.673  1.00  0.00     0.029 A 
ATOM     50  C   UNL A   1      42.837  25.545  27.482  1.00  0.00     0.049 A 
ATOM     51  H   UNL A   1      43.813  27.367  27.736  1.00  0.00     0.167 HD
ATOM     52  C   UNL A   1      45.748  31.246  28.281  1.00  0.00     0.037 A 
ATOM     53  C   UNL A   1      43.769  24.644  27.110  1.00  0.00     0.037 A 
ATOM     54  C   UNL A   1      46.815  30.341  27.945  1.00  0.00     0.049 A 
ATOM     55  C   UNL A   1      45.204  25.076  26.950  1.00  0.00     0.074 A 
ATOM     56  C   UNL A   1      48.171  30.607  27.856  1.00  0.00     0.029 A 
ATOM     57  N   UNL A   1      46.649  29.000  27.633  1.00  0.00    -0.354 N 
ATOM     58  N   UNL A   1      45.735  26.259  27.155  1.00  0.00    -0.248 NA
ATOM     59  C   UNL A   1      46.165  24.057  26.504  1.00  0.00     0.031 C 
ATOM     60  C   UNL A   1      48.819  29.438  27.445  1.00  0.00     0.029 A 
ATOM     61  C   UNL A   1      47.874  28.432  27.324  1.00  0.00     0.049 A 
ATOM     62  H   UNL A   1      45.789  28.523  27.630  1.00  0.00     0.167 HD
ATOM     63  C   UNL A   1      47.093  26.120  26.884  1.00  0.00     0.074 A 
ATOM     64  C   UNL A   1      47.305  24.739  26.504  1.00  0.00     0.031 C 
ATOM     65  C   UNL A   1      48.074  27.054  26.947  1.00  0.00     0.037 A 
BRANCH  52  66
ATOM     66  C   UNL A   1      46.092  32.682  28.551  1.00  0.00     0.058 A 
ATOM     67  C   UNL A   1      46.121  33.616  27.505  1.00  0.00     0.135 A 
ATOM     68  C   UNL A   1      46.420  33.129  29.841  1.00  0.00     0.135 A 
ATOM     69  F   UNL A   1      45.804  33.243  26.255  1.00  0.00    -0.206 F 
ATOM     70  C   UNL A   1      46.472  34.944  27.725  1.00  0.00     0.059 A 
ATOM     71  C   UNL A   1      46.753  34.457  30.089  1.00  0.00     0.059 A 
ATOM     72  F   UNL A   1      46.381  32.279  30.880  1.00  0.00    -0.206 F 
ATOM     73  C   UNL A   1      46.785  35.355  29.022  1.00  0.00     0.060 A 
BRANCH  73  74
ATOM     74  S   UNL A   1      47.187  37.093  29.302  1.00  0.00     0.124 S 
ATOM     75  O   UNL A   1      45.907  37.629  29.746  1.00  0.00    -0.237 OA
ATOM     76  O   UNL A   1      48.230  37.006  30.320  1.00  0.00    -0.237 OA
ATOM     77  O   UNL A   1      47.643  37.548  27.991  1.00  0.00    -0.744 OA
ENDBRANCH  73  74
ENDBRANCH  52  66
BRANCH  53  78
ATOM     78  C   UNL A   1      43.370  23.232  26.866  1.00  0.00     0.058 A 
ATOM     79  C   UNL A   1      43.218  22.325  27.927  1.00  0.00     0.135 A 
ATOM     80  C   UNL A   1      43.169  22.754  25.563  1.00  0.00     0.135 A 
ATOM     81  F   UNL A   1      43.396  22.733  29.192  1.00  0.00    -0.206 F 
ATOM     82  C   UNL A   1      42.916  20.987  27.702  1.00  0.00     0.059 A 
ATOM     83  C   UNL A   1      42.844  21.424  25.314  1.00  0.00     0.059 A 
ATOM     84  F   UNL A   1      43.282  23.589  24.519  1.00  0.00    -0.206 F 
ATOM     85  C   UNL A   1      42.741  20.542  26.390  1.00  0.00     0.060 A 
BRANCH  85  86
ATOM     86  S   UNL A   1      42.388  18.793  26.116  1.00  0.00     0.124 S 
ATOM     87  O   UNL A   1      40.998  18.842  25.679  1.00  0.00    -0.237 OA
ATOM     88  O   UNL A   1      43.365  18.441  25.090  1.00  0.00    -0.237 OA
ATOM     89  O   UNL A   1      42.615  18.193  27.427  1.00  0.00    -0.744 OA
ENDBRANCH  85  86
ENDBRANCH  53  78
BRANCH  65  90
ATOM     90  C   UNL A   1      49.478  26.627  26.617  1.00  0.00     0.058 A 
ATOM     91  C   UNL A   1      49.966  26.741  25.305  1.00  0.00     0.135 A 
ATOM     92  C   UNL A   1      50.304  26.018  27.573  1.00  0.00     0.135 A 
ATOM     93  F   UNL A   1      49.214  27.311  24.351  1.00  0.00    -0.206 F 
ATOM     94  C   UNL A   1      51.216  26.244  24.947  1.00  0.00     0.059 A 
ATOM     95  C   UNL A   1      51.568  25.534  27.243  1.00  0.00     0.059 A 
ATOM     96  F   UNL A   1      49.888  25.894  28.844  1.00  0.00    -0.206 F 
ATOM     97  C   UNL A   1      52.006  25.635  25.922  1.00  0.00     0.060 A 
BRANCH  97  98
ATOM     98  S   UNL A   1      53.624  24.993  25.442  1.00  0.00     0.124 S 
ATOM     99  O   UNL A   1      54.433  25.314  26.613  1.00  0.00    -0.237 OA
ATOM    100  O   UNL A   1      53.345  23.575  25.232  1.00  0.00    -0.237 OA
ATOM    101  O   UNL A   1      53.943  25.746  24.232  1.00  0.00    -0.744 OA
ENDBRANCH  97  98
ENDBRANCH  65  90
ENDBRANCH  39  40
ENDBRANCH  32  34
ENDBRANCH  31  32
ENDBRANCH  30  31
ENDBRANCH  29  30
ENDBRANCH  28  29
ENDBRANCH  27  28
ENDBRANCH   1  27
TORSDOF 23
ENDMDL
MODEL 3
REMARK VINA RESULT:     -10.4      6.428     10.762
REMARK SMILES Cc1cc(S(=O)(=O)Nc2ccc(F)cc2C(=O)OCCOCCOCCOC(=O)c2ccc(-c3c4nc(c(-c5c(F)cc(S(=O)(=O)[O-])cc5F)c5ccc([nH]5)c(-c5c(F)cc(S(=O)(=O)[O-])cc5F)c5nc(c(-c6c(F)cc(S(=O)(=O)[O-])cc6F)c6ccc3[nH]6)C=C5)C=C4)cc2)c(C)s1
REMARK SMILES IDX 22 1 21 2 20 3 19 4 18 5 16 6 17 7 15 8 9 9 10 10 11 11
REMARK SMILES IDX 14 12 12 13 13 14 8 15 5 17 6 18 7 19 4 20 1 21 2 22 3 23
REMARK SMILES IDX 98 24 96 25 97 26 23 27 24 28 25 29 26 30 27 31 28 32 29 33
REMARK SMILES IDX 30 34 31 35 95 36 32 37 94 38 33 39 34 40 35 41 88 42 36 43
REMARK SMILES IDX 93 44 87 45 89 46 37 47 92 48 86 49 85 50 38 52 72 53 51 54
REMARK SMILES IDX 71 55 52 56 55 57 70 58 90 59 53 60 54 61 69 63 91 64 56 65
REMARK SMILES IDX 39 66 40 67 49 68 41 69 42 70 48 71 50 72 43 73 44 74 45 75
REMARK SMILES IDX 46 76 47 77 73 78 74 79 83 80 75 81 76 82 82 83 84 84 77 85
REMARK SMILES IDX 78 86 79 87 80 88 81 89 57 90 58 91 67 92 59 93 60 94 66 95
REMARK SMILES IDX 68 96 61 97 62 98 63 99 64 100 65 101
REMARK H PARENT 8 16 89 51 55 62
REMARK Flexibility Score: inf
ROOT
ATOM      1  C   UNL A   1      39.506  21.594  26.264  1.00  0.00     0.188 C 
ENDROOT
BRANCH   1   2
ATOM      2  O   UNL A   1      38.205  21.909  25.785  1.00  0.00    -0.376 OA
BRANCH   2   3
ATOM      3  C   UNL A   1      37.476  20.958  25.020  1.00  0.00     0.202 C 
BRANCH   3   4
ATOM      4  C   UNL A   1      36.069  21.337  24.551  1.00  0.00     0.261 C 
BRANCH   4   5
ATOM      5  O   UNL A   1      35.725  22.713  24.807  1.00  0.00    -0.460 OA
BRANCH   5   6
ATOM      6  C   UNL A   1      34.907  23.276  23.883  1.00  0.00     0.340 C 
ATOM      7  O   UNL A   1      35.221  23.581  22.741  1.00  0.00    -0.246 OA
BRANCH   6   8
ATOM      8  C   UNL A   1      33.507  23.417  24.357  1.00  0.00     0.087 A 
ATOM      9  C   UNL A   1      32.395  23.702  23.537  1.00  0.00     0.064 A 
ATOM     10  C   UNL A   1      31.116  23.460  24.059  1.00  0.00     0.030 A 
ATOM     11  C   UNL A   1      30.939  23.236  25.427  1.00  0.00     0.041 A 
ATOM     12  C   UNL A   1      33.323  23.198  25.732  1.00  0.00     0.057 A 
ATOM     13  C   UNL A   1      32.044  23.163  26.259  1.00  0.00     0.124 A 
ATOM     14  F   UNL A   1      31.872  23.038  27.580  1.00  0.00    -0.207 F 
BRANCH   9  15
ATOM     15  N   UNL A   1      32.579  24.284  22.243  1.00  0.00    -0.279 N 
ATOM     16  H   UNL A   1      32.768  23.666  21.499  1.00  0.00     0.180 HD
BRANCH  15  17
ATOM     17  S   UNL A   1      32.501  25.915  21.871  1.00  0.00     0.263 S 
ATOM     18  O   UNL A   1      31.257  26.150  21.167  1.00  0.00    -0.201 OA
ATOM     19  O   UNL A   1      33.775  26.263  21.279  1.00  0.00    -0.201 OA
BRANCH  17  20
ATOM     20  C   UNL A   1      32.377  26.989  23.245  1.00  0.00     0.101 A 
ATOM     21  C   UNL A   1      34.090  28.646  26.165  1.00  0.00     0.056 C 
ATOM     22  C   UNL A   1      33.163  28.136  25.111  1.00  0.00     0.003 A 
ATOM     23  C   UNL A   1      33.459  27.719  23.829  1.00  0.00     0.037 A 
ATOM     24  S   UNL A   1      31.496  27.988  25.441  1.00  0.00    -0.145 S 
ATOM     25  C   UNL A   1      31.203  27.174  23.960  1.00  0.00     0.022 A 
ATOM     26  C   UNL A   1      29.811  26.731  23.658  1.00  0.00     0.058 C 
ENDBRANCH  17  20
ENDBRANCH  15  17
ENDBRANCH   9  15
ENDBRANCH   6   8
ENDBRANCH   5   6
ENDBRANCH   4   5
ENDBRANCH   3   4
ENDBRANCH   2   3
ENDBRANCH   1   2
BRANCH   1  27
ATOM     27  C   UNL A   1      40.132  20.218  25.960  1.00  0.00     0.188 C 
BRANCH  27  28
ATOM     28  O   UNL A   1      41.540  20.223  25.808  1.00  0.00    -0.376 OA
BRANCH  28  29
ATOM     29  C   UNL A   1      42.231  19.161  26.461  1.00  0.00     0.202 C 
BRANCH  29  30
ATOM     30  C   UNL A   1      43.369  18.528  25.648  1.00  0.00     0.261 C 
BRANCH  30  31
ATOM     31  O   UNL A   1      43.687  19.192  24.411  1.00  0.00    -0.460 OA
BRANCH  31  32
ATOM     32  C   UNL A   1      44.940  19.684  24.276  1.00  0.00     0.338 C 
ATOM     33  O   UNL A   1      45.872  19.163  23.692  1.00  0.00    -0.246 OA
BRANCH  32  34
ATOM     34  C   UNL A   1      44.937  21.071  24.788  1.00  0.00     0.060 A 
ATOM     35  C   UNL A   1      44.564  22.111  23.926  1.00  0.00     0.016 A 
ATOM     36  C   UNL A   1      45.286  21.340  26.112  1.00  0.00     0.016 A 
ATOM     37  C   UNL A   1      44.559  23.429  24.387  1.00  0.00     0.010 A 
ATOM     38  C   UNL A   1      45.299  22.663  26.565  1.00  0.00     0.010 A 
ATOM     39  C   UNL A   1      44.958  23.716  25.700  1.00  0.00    -0.014 A 
BRANCH  39  40
ATOM     40  C   UNL A   1      45.177  25.121  26.125  1.00  0.00     0.031 A 
ATOM     41  C   UNL A   1      46.556  25.708  25.989  1.00  0.00     0.074 A 
ATOM     42  C   UNL A   1      44.174  25.868  26.620  1.00  0.00     0.049 A 
ATOM     43  N   UNL A   1      46.990  26.892  26.329  1.00  0.00    -0.248 NA
ATOM     44  C   UNL A   1      47.581  24.840  25.387  1.00  0.00     0.031 C 
ATOM     45  C   UNL A   1      42.787  25.430  26.768  1.00  0.00     0.029 A 
ATOM     46  N   UNL A   1      44.174  27.156  27.096  1.00  0.00    -0.354 N 
ATOM     47  C   UNL A   1      48.335  26.916  25.982  1.00  0.00     0.074 A 
ATOM     48  C   UNL A   1      48.652  25.616  25.430  1.00  0.00     0.031 C 
ATOM     49  C   UNL A   1      42.069  26.434  27.302  1.00  0.00     0.029 A 
ATOM     50  C   UNL A   1      42.950  27.573  27.562  1.00  0.00     0.049 A 
ATOM     51  H   UNL A   1      44.974  27.728  27.101  1.00  0.00     0.167 HD
ATOM     52  C   UNL A   1      49.223  27.929  26.103  1.00  0.00     0.037 A 
ATOM     53  C   UNL A   1      42.586  28.733  28.147  1.00  0.00     0.037 A 
ATOM     54  C   UNL A   1      48.910  29.217  26.664  1.00  0.00     0.049 A 
ATOM     55  C   UNL A   1      43.611  29.819  28.351  1.00  0.00     0.074 A 
ATOM     56  C   UNL A   1      49.744  30.311  26.819  1.00  0.00     0.029 A 
ATOM     57  N   UNL A   1      47.673  29.581  27.172  1.00  0.00    -0.354 N 
ATOM     58  N   UNL A   1      44.876  29.833  28.004  1.00  0.00    -0.248 NA
ATOM     59  C   UNL A   1      43.162  31.044  29.030  1.00  0.00     0.031 C 
ATOM     60  C   UNL A   1      49.022  31.321  27.462  1.00  0.00     0.029 A 
ATOM     61  C   UNL A   1      47.727  30.874  27.665  1.00  0.00     0.049 A 
ATOM     62  H   UNL A   1      46.875  29.006  27.181  1.00  0.00     0.167 HD
ATOM     63  C   UNL A   1      45.368  31.073  28.403  1.00  0.00     0.074 A 
ATOM     64  C   UNL A   1      44.264  31.784  29.014  1.00  0.00     0.031 C 
ATOM     65  C   UNL A   1      46.621  31.574  28.272  1.00  0.00     0.037 A 
BRANCH  52  66
ATOM     66  C   UNL A   1      50.628  27.678  25.637  1.00  0.00     0.058 A 
ATOM     67  C   UNL A   1      51.628  27.312  26.551  1.00  0.00     0.135 A 
ATOM     68  C   UNL A   1      50.992  27.827  24.289  1.00  0.00     0.135 A 
ATOM     69  F   UNL A   1      51.330  27.145  27.849  1.00  0.00    -0.206 F 
ATOM     70  C   UNL A   1      52.943  27.110  26.147  1.00  0.00     0.059 A 
ATOM     71  C   UNL A   1      52.297  27.609  23.859  1.00  0.00     0.059 A 
ATOM     72  F   UNL A   1      50.067  28.151  23.372  1.00  0.00    -0.206 F 
ATOM     73  C   UNL A   1      53.268  27.260  24.798  1.00  0.00     0.060 A 
BRANCH  73  74
ATOM     74  S   UNL A   1      54.968  26.943  24.280  1.00  0.00     0.124 S 
ATOM     75  O   UNL A   1      54.789  26.542  22.890  1.00  0.00    -0.237 OA
ATOM     76  O   UNL A   1      55.601  28.241  24.494  1.00  0.00    -0.237 OA
ATOM     77  O   UNL A   1      55.405  25.888  25.191  1.00  0.00    -0.744 OA
ENDBRANCH  73  74
ENDBRANCH  52  66
BRANCH  53  78
ATOM     78  C   UNL A   1      41.176  28.927  28.579  1.00  0.00     0.058 A 
ATOM     79  C   UNL A   1      40.171  29.255  27.657  1.00  0.00     0.135 A 
ATOM     80  C   UNL A   1      40.816  28.824  29.931  1.00  0.00     0.135 A 
ATOM     81  F   UNL A   1      40.464  29.362  26.352  1.00  0.00    -0.206 F 
ATOM     82  C   UNL A   1      38.865  29.509  28.063  1.00  0.00     0.059 A 
ATOM     83  C   UNL A   1      39.511  29.053  30.359  1.00  0.00     0.059 A 
ATOM     84  F   UNL A   1      41.739  28.492  30.846  1.00  0.00    -0.206 F 
ATOM     85  C   UNL A   1      38.547  29.416  29.419  1.00  0.00     0.060 A 
BRANCH  85  86
ATOM     86  S   UNL A   1      36.856  29.789  29.931  1.00  0.00     0.124 S 
ATOM     87  O   UNL A   1      36.099  29.372  28.756  1.00  0.00    -0.237 OA
ATOM     88  O   UNL A   1      36.703  28.949  31.115  1.00  0.00    -0.237 OA
ATOM     89  O   UNL A   1      36.888  31.225  30.183  1.00  0.00    -0.744 OA
ENDBRANCH  85  86
ENDBRANCH  53  78
BRANCH  65  90
ATOM     90  C   UNL A   1      46.881  32.967  28.778  1.00  0.00     0.058 A 
ATOM     91  C   UNL A   1      47.255  33.179  30.114  1.00  0.00     0.135 A 
ATOM     92  C   UNL A   1      46.667  34.093  27.970  1.00  0.00     0.135 A 
ATOM     93  F   UNL A   1      47.468  32.136  30.931  1.00  0.00    -0.206 F 
ATOM     94  C   UNL A   1      47.385  34.461  30.639  1.00  0.00     0.059 A 
ATOM     95  C   UNL A   1      46.813  35.386  28.468  1.00  0.00     0.059 A 
ATOM     96  F   UNL A   1      46.317  33.944  26.682  1.00  0.00    -0.206 F 
ATOM     97  C   UNL A   1      47.154  35.558  29.810  1.00  0.00     0.060 A 
BRANCH  97  98
ATOM     98  S   UNL A   1      47.324  37.216  30.507  1.00  0.00     0.124 S 
ATOM     99  O   UNL A   1      48.288  37.826  29.597  1.00  0.00    -0.237 OA
ATOM    100  O   UNL A   1      45.959  37.729  30.422  1.00  0.00    -0.237 OA
ATOM    101  O   UNL A   1      47.808  36.967  31.861  1.00  0.00    -0.744 OA
ENDBRANCH  97  98
ENDBRANCH  65  90
ENDBRANCH  39  40
ENDBRANCH  32  34
ENDBRANCH  31  32
ENDBRANCH  30  31
ENDBRANCH  29  30
ENDBRANCH  28  29
ENDBRANCH  27  28
ENDBRANCH   1  27
TORSDOF 23
ENDMDL
