MODEL 1
REMARK VINA RESULT:     -11.6      0.000      0.000
REMARK SMILES O=C(OCCOCCOCCOC(=O)c1ccc(-c2c3nc(c(-c4c(F)cc(S(=O)(=O)[O-])cc4F)c4ccc([nH]4)c(-c4c(F)cc(S(=O)(=O)[O-])cc4F)c4nc(c(-c5c(F)cc(S(=O)(=O)[O-])cc5F)c5ccc2[nH]5)C=C4)C=C3)cc1)c1ccc(NC(=O)[C@@H]2CC=CC[C@H]2C(=O)Nc2cccc([N+](=O)[O-])c2)cc1
REMARK SMILES IDX 7 1 6 2 5 3 4 4 3 5 2 6 1 7 81 8 82 9 107 10 83 11 106 12
REMARK SMILES IDX 84 13 85 14 86 15 87 17 88 18 89 19 93 20 90 21 92 22 91 23
REMARK SMILES IDX 94 24 95 25 96 26 97 28 98 29 105 30 99 31 101 32 100 33
REMARK SMILES IDX 102 34 103 35 104 36 8 37 9 38 10 39 11 40 12 41 13 42 14 43
REMARK SMILES IDX 15 44 16 45 80 46 17 47 79 48 18 49 19 50 20 51 73 52 21 53
REMARK SMILES IDX 78 54 72 55 74 56 22 57 77 58 71 59 70 60 23 62 57 63 36 64
REMARK SMILES IDX 56 65 37 66 40 67 55 68 75 69 38 70 39 71 54 73 76 74 41 75
REMARK SMILES IDX 24 76 25 77 34 78 26 79 27 80 33 81 35 82 28 83 29 84 30 85
REMARK SMILES IDX 31 86 32 87 58 88 59 89 68 90 60 91 61 92 67 93 69 94 62 95
REMARK SMILES IDX 63 96 64 97 65 98 66 99 42 100 43 101 52 102 44 103 45 104
REMARK SMILES IDX 51 105 53 106 46 107 47 108 48 109 49 110 50 111
REMARK H PARENT 85 16 96 27 74 61 40 72
REMARK Flexibility Score: inf
ROOT
ATOM      1  C   UNL A   1      41.958  20.817  27.213  1.00  0.00     0.188 C 
ENDROOT
BRANCH   1   2
ATOM      2  O   UNL A   1      40.642  20.668  26.667  1.00  0.00    -0.376 OA
BRANCH   2   3
ATOM      3  C   UNL A   1      39.866  21.876  26.740  1.00  0.00     0.202 C 
BRANCH   3   4
ATOM      4  C   UNL A   1      38.896  22.078  25.556  1.00  0.00     0.261 C 
BRANCH   4   5
ATOM      5  O   UNL A   1      37.678  22.786  25.909  1.00  0.00    -0.460 OA
BRANCH   5   6
ATOM      6  C   UNL A   1      36.424  22.342  25.616  1.00  0.00     0.338 C 
ATOM      7  O   UNL A   1      36.084  21.187  25.832  1.00  0.00    -0.246 OA
BRANCH   6   8
ATOM      8  C   UNL A   1      35.545  23.261  24.849  1.00  0.00     0.060 A 
ATOM      9  C   UNL A   1      35.254  24.506  25.368  1.00  0.00     0.018 A 
ATOM     10  C   UNL A   1      35.073  22.969  23.571  1.00  0.00     0.018 A 
ATOM     11  C   UNL A   1      34.379  25.377  24.748  1.00  0.00     0.027 A 
ATOM     12  C   UNL A   1      34.222  23.880  22.910  1.00  0.00     0.027 A 
ATOM     13  C   UNL A   1      33.819  25.076  23.528  1.00  0.00     0.041 A 
BRANCH  13  14
ATOM     14  N   UNL A   1      32.928  25.925  22.862  1.00  0.00    -0.326 N 
ATOM     15  C   UNL A   1      32.239  27.051  23.192  1.00  0.00     0.228 C 
ATOM     16  H   UNL A   1      32.759  25.641  21.934  1.00  0.00     0.169 HD
ATOM     17  O   UNL A   1      31.587  27.579  22.282  1.00  0.00    -0.274 OA
BRANCH  15  18
ATOM     18  C   UNL A   1      32.117  27.661  24.587  1.00  0.00     0.095 C 
ATOM     19  C   UNL A   1      33.235  28.621  25.005  1.00  0.00     0.041 C 
ATOM     20  C   UNL A   1      31.576  26.696  25.651  1.00  0.00     0.095 C 
ATOM     21  C   UNL A   1      33.195  28.975  26.467  1.00  0.00    -0.030 C 
ATOM     22  C   UNL A   1      31.376  27.339  27.032  1.00  0.00     0.041 C 
ATOM     23  C   UNL A   1      32.364  28.417  27.359  1.00  0.00    -0.030 C 
BRANCH  20  24
ATOM     24  C   UNL A   1      30.359  25.860  25.214  1.00  0.00     0.228 C 
ATOM     25  O   UNL A   1      29.402  26.449  24.691  1.00  0.00    -0.274 OA
ATOM     26  N   UNL A   1      30.299  24.492  25.237  1.00  0.00    -0.326 N 
ATOM     27  H   UNL A   1      29.453  24.108  24.912  1.00  0.00     0.169 HD
BRANCH  26  28
ATOM     28  C   UNL A   1      31.254  23.556  25.649  1.00  0.00     0.048 A 
ATOM     29  C   UNL A   1      31.825  23.707  26.915  1.00  0.00     0.026 A 
ATOM     30  C   UNL A   1      31.620  22.474  24.859  1.00  0.00     0.111 A 
ATOM     31  C   UNL A   1      32.611  22.685  27.454  1.00  0.00     0.009 A 
ATOM     32  C   UNL A   1      32.331  21.414  25.427  1.00  0.00     0.271 A 
ATOM     33  C   UNL A   1      32.829  21.512  26.728  1.00  0.00     0.086 A 
BRANCH  32  34
ATOM     34  N   UNL A   1      32.455  20.149  24.693  1.00  0.00     0.062 N 
ATOM     35  O   UNL A   1      32.758  19.139  25.343  1.00  0.00    -0.258 OA
ATOM     36  O   UNL A   1      32.184  20.154  23.484  1.00  0.00    -0.258 OA
ENDBRANCH  32  34
ENDBRANCH  26  28
ENDBRANCH  20  24
ENDBRANCH  15  18
ENDBRANCH  13  14
ENDBRANCH   6   8
ENDBRANCH   5   6
ENDBRANCH   4   5
ENDBRANCH   3   4
ENDBRANCH   2   3
ENDBRANCH   1   2
BRANCH   1  37
ATOM     37  C   UNL A   1      43.083  20.969  26.185  1.00  0.00     0.188 C 
BRANCH  37  38
ATOM     38  O   UNL A   1      42.872  21.747  25.010  1.00  0.00    -0.376 OA
BRANCH  38  39
ATOM     39  C   UNL A   1      43.494  23.015  24.911  1.00  0.00     0.202 C 
BRANCH  39  40
ATOM     40  C   UNL A   1      43.135  24.058  25.974  1.00  0.00     0.261 C 
BRANCH  40  41
ATOM     41  O   UNL A   1      41.879  24.731  25.782  1.00  0.00    -0.460 OA
BRANCH  41  42
ATOM     42  C   UNL A   1      41.958  26.083  25.762  1.00  0.00     0.338 C 
ATOM     43  O   UNL A   1      42.303  26.790  24.823  1.00  0.00    -0.246 OA
BRANCH  42  44
ATOM     44  C   UNL A   1      41.721  26.629  27.107  1.00  0.00     0.060 A 
ATOM     45  C   UNL A   1      40.740  26.104  27.951  1.00  0.00     0.016 A 
ATOM     46  C   UNL A   1      42.428  27.776  27.480  1.00  0.00     0.016 A 
ATOM     47  C   UNL A   1      40.450  26.750  29.163  1.00  0.00     0.010 A 
ATOM     48  C   UNL A   1      42.168  28.389  28.708  1.00  0.00     0.010 A 
ATOM     49  C   UNL A   1      41.156  27.902  29.553  1.00  0.00    -0.014 A 
BRANCH  49  50
ATOM     50  C   UNL A   1      40.834  28.658  30.800  1.00  0.00     0.031 A 
ATOM     51  C   UNL A   1      39.748  29.705  30.783  1.00  0.00     0.074 A 
ATOM     52  C   UNL A   1      41.549  28.477  31.929  1.00  0.00     0.049 A 
ATOM     53  N   UNL A   1      39.437  30.590  31.696  1.00  0.00    -0.248 NA
ATOM     54  C   UNL A   1      38.899  29.762  29.581  1.00  0.00     0.031 C 
ATOM     55  C   UNL A   1      42.595  27.475  32.112  1.00  0.00     0.029 A 
ATOM     56  N   UNL A   1      41.530  29.158  33.125  1.00  0.00    -0.354 N 
ATOM     57  C   UNL A   1      38.373  31.318  31.178  1.00  0.00     0.074 A 
ATOM     58  C   UNL A   1      38.102  30.786  29.859  1.00  0.00     0.031 C 
ATOM     59  C   UNL A   1      43.150  27.635  33.324  1.00  0.00     0.029 A 
ATOM     60  C   UNL A   1      42.539  28.783  33.985  1.00  0.00     0.049 A 
ATOM     61  H   UNL A   1      40.860  29.844  33.346  1.00  0.00     0.167 HD
ATOM     62  C   UNL A   1      37.680  32.330  31.751  1.00  0.00     0.037 A 
ATOM     63  C   UNL A   1      42.963  29.324  35.146  1.00  0.00     0.037 A 
ATOM     64  C   UNL A   1      37.926  32.842  33.075  1.00  0.00     0.049 A 
ATOM     65  C   UNL A   1      42.240  30.516  35.717  1.00  0.00     0.074 A 
ATOM     66  C   UNL A   1      37.213  33.806  33.768  1.00  0.00     0.029 A 
ATOM     67  N   UNL A   1      38.970  32.452  33.898  1.00  0.00    -0.354 N 
ATOM     68  N   UNL A   1      41.190  31.143  35.246  1.00  0.00    -0.248 NA
ATOM     69  C   UNL A   1      42.751  31.068  36.981  1.00  0.00     0.031 C 
ATOM     70  C   UNL A   1      37.860  34.042  34.985  1.00  0.00     0.029 A 
ATOM     71  C   UNL A   1      38.947  33.187  35.073  1.00  0.00     0.049 A 
ATOM     72  H   UNL A   1      39.631  31.754  33.681  1.00  0.00     0.167 HD
ATOM     73  C   UNL A   1      40.900  32.143  36.170  1.00  0.00     0.074 A 
ATOM     74  C   UNL A   1      41.874  32.029  37.233  1.00  0.00     0.031 C 
ATOM     75  C   UNL A   1      39.911  33.068  36.136  1.00  0.00     0.037 A 
BRANCH  62  76
ATOM     76  C   UNL A   1      36.579  32.977  30.960  1.00  0.00     0.058 A 
ATOM     77  C   UNL A   1      35.227  32.776  31.274  1.00  0.00     0.135 A 
ATOM     78  C   UNL A   1      36.886  33.896  29.942  1.00  0.00     0.135 A 
ATOM     79  F   UNL A   1      34.878  31.899  32.229  1.00  0.00    -0.206 F 
ATOM     80  C   UNL A   1      34.217  33.464  30.609  1.00  0.00     0.059 A 
ATOM     81  C   UNL A   1      35.895  34.612  29.279  1.00  0.00     0.059 A 
ATOM     82  F   UNL A   1      38.166  34.122  29.602  1.00  0.00    -0.206 F 
ATOM     83  C   UNL A   1      34.562  34.387  29.619  1.00  0.00     0.060 A 
BRANCH  83  84
ATOM     84  S   UNL A   1      33.242  35.313  28.807  1.00  0.00     0.124 S 
ATOM     85  O   UNL A   1      32.596  34.270  28.018  1.00  0.00    -0.237 OA
ATOM     86  O   UNL A   1      32.473  35.818  29.941  1.00  0.00    -0.237 OA
ATOM     87  O   UNL A   1      33.958  36.326  28.039  1.00  0.00    -0.744 OA
ENDBRANCH  83  84
ENDBRANCH  62  76
BRANCH  63  88
ATOM     88  C   UNL A   1      44.177  28.792  35.826  1.00  0.00     0.058 A 
ATOM     89  C   UNL A   1      45.457  29.281  35.530  1.00  0.00     0.135 A 
ATOM     90  C   UNL A   1      44.081  27.742  36.753  1.00  0.00     0.135 A 
ATOM     91  F   UNL A   1      45.605  30.277  34.643  1.00  0.00    -0.206 F 
ATOM     92  C   UNL A   1      46.599  28.730  36.104  1.00  0.00     0.059 A 
ATOM     93  C   UNL A   1      45.205  27.192  37.361  1.00  0.00     0.059 A 
ATOM     94  F   UNL A   1      42.880  27.247  37.083  1.00  0.00    -0.206 F 
ATOM     95  C   UNL A   1      46.462  27.681  37.016  1.00  0.00     0.060 A 
BRANCH  95  96
ATOM     96  S   UNL A   1      47.950  26.982  37.764  1.00  0.00     0.124 S 
ATOM     97  O   UNL A   1      48.960  27.960  37.378  1.00  0.00    -0.237 OA
ATOM     98  O   UNL A   1      47.594  26.954  39.179  1.00  0.00    -0.237 OA
ATOM     99  O   UNL A   1      48.060  25.673  37.128  1.00  0.00    -0.744 OA
ENDBRANCH  95  96
ENDBRANCH  63  88
BRANCH  75 100
ATOM    100  C   UNL A   1      39.801  34.019  37.296  1.00  0.00     0.058 A 
ATOM    101  C   UNL A   1      40.361  35.305  37.248  1.00  0.00     0.135 A 
ATOM    102  C   UNL A   1      39.070  33.665  38.442  1.00  0.00     0.135 A 
ATOM    103  F   UNL A   1      41.079  35.689  36.181  1.00  0.00    -0.206 F 
ATOM    104  C   UNL A   1      40.211  36.202  38.302  1.00  0.00     0.059 A 
ATOM    105  C   UNL A   1      38.886  34.556  39.495  1.00  0.00     0.059 A 
ATOM    106  F   UNL A   1      38.508  32.449  38.537  1.00  0.00    -0.206 F 
ATOM    107  C   UNL A   1      39.466  35.820  39.419  1.00  0.00     0.060 A 
BRANCH 107 108
ATOM    108  S   UNL A   1      39.235  37.014  40.753  1.00  0.00     0.124 S 
ATOM    109  O   UNL A   1      40.609  37.426  41.022  1.00  0.00    -0.237 OA
ATOM    110  O   UNL A   1      38.381  38.020  40.131  1.00  0.00    -0.237 OA
ATOM    111  O   UNL A   1      38.600  36.228  41.807  1.00  0.00    -0.744 OA
ENDBRANCH 107 108
ENDBRANCH  75 100
ENDBRANCH  49  50
ENDBRANCH  42  44
ENDBRANCH  41  42
ENDBRANCH  40  41
ENDBRANCH  39  40
ENDBRANCH  38  39
ENDBRANCH  37  38
ENDBRANCH   1  37
TORSDOF 25
ENDMDL
MODEL 2
REMARK VINA RESULT:     -10.7      1.428      2.105
REMARK SMILES O=C(OCCOCCOCCOC(=O)c1ccc(-c2c3nc(c(-c4c(F)cc(S(=O)(=O)[O-])cc4F)c4ccc([nH]4)c(-c4c(F)cc(S(=O)(=O)[O-])cc4F)c4nc(c(-c5c(F)cc(S(=O)(=O)[O-])cc5F)c5ccc2[nH]5)C=C4)C=C3)cc1)c1ccc(NC(=O)[C@@H]2CC=CC[C@H]2C(=O)Nc2cccc([N+](=O)[O-])c2)cc1
REMARK SMILES IDX 7 1 6 2 5 3 4 4 3 5 2 6 1 7 81 8 82 9 107 10 83 11 106 12
REMARK SMILES IDX 84 13 85 14 86 15 87 17 88 18 89 19 93 20 90 21 92 22 91 23
REMARK SMILES IDX 94 24 95 25 96 26 97 28 98 29 105 30 99 31 101 32 100 33
REMARK SMILES IDX 102 34 103 35 104 36 8 37 9 38 10 39 11 40 12 41 13 42 14 43
REMARK SMILES IDX 15 44 16 45 80 46 17 47 79 48 18 49 19 50 20 51 73 52 21 53
REMARK SMILES IDX 78 54 72 55 74 56 22 57 77 58 71 59 70 60 23 62 57 63 36 64
REMARK SMILES IDX 56 65 37 66 40 67 55 68 75 69 38 70 39 71 54 73 76 74 41 75
REMARK SMILES IDX 24 76 25 77 34 78 26 79 27 80 33 81 35 82 28 83 29 84 30 85
REMARK SMILES IDX 31 86 32 87 58 88 59 89 68 90 60 91 61 92 67 93 69 94 62 95
REMARK SMILES IDX 63 96 64 97 65 98 66 99 42 100 43 101 52 102 44 103 45 104
REMARK SMILES IDX 51 105 53 106 46 107 47 108 48 109 49 110 50 111
REMARK H PARENT 85 16 96 27 74 61 40 72
REMARK Flexibility Score: inf
ROOT
ATOM      1  C   UNL A   1      40.863  24.726  27.340  1.00  0.00     0.188 C 
ENDROOT
BRANCH   1   2
ATOM      2  O   UNL A   1      39.769  23.802  27.312  1.00  0.00    -0.376 OA
BRANCH   2   3
ATOM      3  C   UNL A   1      40.118  22.539  26.717  1.00  0.00     0.202 C 
BRANCH   3   4
ATOM      4  C   UNL A   1      38.927  21.785  26.087  1.00  0.00     0.261 C 
BRANCH   4   5
ATOM      5  O   UNL A   1      37.838  22.652  25.673  1.00  0.00    -0.460 OA
BRANCH   5   6
ATOM      6  C   UNL A   1      36.545  22.242  25.539  1.00  0.00     0.338 C 
ATOM      7  O   UNL A   1      36.183  21.128  25.891  1.00  0.00    -0.246 OA
BRANCH   6   8
ATOM      8  C   UNL A   1      35.632  23.131  24.776  1.00  0.00     0.060 A 
ATOM      9  C   UNL A   1      35.298  24.364  25.297  1.00  0.00     0.018 A 
ATOM     10  C   UNL A   1      35.168  22.824  23.498  1.00  0.00     0.018 A 
ATOM     11  C   UNL A   1      34.391  25.204  24.680  1.00  0.00     0.027 A 
ATOM     12  C   UNL A   1      34.283  23.705  22.841  1.00  0.00     0.027 A 
ATOM     13  C   UNL A   1      33.839  24.885  23.461  1.00  0.00     0.041 A 
BRANCH  13  14
ATOM     14  N   UNL A   1      32.916  25.703  22.798  1.00  0.00    -0.326 N 
ATOM     15  C   UNL A   1      32.274  26.866  23.091  1.00  0.00     0.228 C 
ATOM     16  H   UNL A   1      32.675  25.354  21.910  1.00  0.00     0.169 HD
ATOM     17  O   UNL A   1      31.566  27.340  22.193  1.00  0.00    -0.274 OA
BRANCH  15  18
ATOM     18  C   UNL A   1      32.265  27.580  24.441  1.00  0.00     0.095 C 
ATOM     19  C   UNL A   1      33.472  28.476  24.740  1.00  0.00     0.041 C 
ATOM     20  C   UNL A   1      31.704  26.738  25.596  1.00  0.00     0.095 C 
ATOM     21  C   UNL A   1      33.528  28.934  26.172  1.00  0.00    -0.030 C 
ATOM     22  C   UNL A   1      31.620  27.491  26.932  1.00  0.00     0.041 C 
ATOM     23  C   UNL A   1      32.702  28.508  27.137  1.00  0.00    -0.030 C 
BRANCH  20  24
ATOM     24  C   UNL A   1      30.409  25.972  25.273  1.00  0.00     0.228 C 
ATOM     25  O   UNL A   1      29.439  26.615  24.847  1.00  0.00    -0.274 OA
ATOM     26  N   UNL A   1      30.278  24.609  25.296  1.00  0.00    -0.326 N 
ATOM     27  H   UNL A   1      29.385  24.273  25.053  1.00  0.00     0.169 HD
BRANCH  26  28
ATOM     28  C   UNL A   1      31.216  23.620  25.611  1.00  0.00     0.048 A 
ATOM     29  C   UNL A   1      31.877  23.703  26.839  1.00  0.00     0.026 A 
ATOM     30  C   UNL A   1      31.480  22.552  24.763  1.00  0.00     0.111 A 
ATOM     31  C   UNL A   1      32.653  22.630  27.289  1.00  0.00     0.009 A 
ATOM     32  C   UNL A   1      32.180  21.444  25.247  1.00  0.00     0.271 A 
ATOM     33  C   UNL A   1      32.769  21.475  26.513  1.00  0.00     0.086 A 
BRANCH  32  34
ATOM     34  N   UNL A   1      32.198  20.201  24.466  1.00  0.00     0.062 N 
ATOM     35  O   UNL A   1      32.259  20.302  23.233  1.00  0.00    -0.258 OA
ATOM     36  O   UNL A   1      32.221  19.130  25.087  1.00  0.00    -0.258 OA
ENDBRANCH  32  34
ENDBRANCH  26  28
ENDBRANCH  20  24
ENDBRANCH  15  18
ENDBRANCH  13  14
ENDBRANCH   6   8
ENDBRANCH   5   6
ENDBRANCH   4   5
ENDBRANCH   3   4
ENDBRANCH   2   3
ENDBRANCH   1   2
BRANCH   1  37
ATOM     37  C   UNL A   1      40.869  25.772  26.221  1.00  0.00     0.188 C 
BRANCH  37  38
ATOM     38  O   UNL A   1      41.784  25.646  25.136  1.00  0.00    -0.376 OA
BRANCH  38  39
ATOM     39  C   UNL A   1      42.692  24.560  25.132  1.00  0.00     0.202 C 
BRANCH  39  40
ATOM     40  C   UNL A   1      44.182  24.890  25.003  1.00  0.00     0.261 C 
BRANCH  40  41
ATOM     41  O   UNL A   1      44.682  25.868  25.931  1.00  0.00    -0.460 OA
BRANCH  41  42
ATOM     42  C   UNL A   1      44.858  25.412  27.194  1.00  0.00     0.338 C 
ATOM     43  O   UNL A   1      45.359  24.348  27.533  1.00  0.00    -0.246 OA
BRANCH  42  44
ATOM     44  C   UNL A   1      44.209  26.315  28.158  1.00  0.00     0.060 A 
ATOM     45  C   UNL A   1      44.345  27.702  28.073  1.00  0.00     0.016 A 
ATOM     46  C   UNL A   1      43.543  25.739  29.244  1.00  0.00     0.016 A 
ATOM     47  C   UNL A   1      43.833  28.513  29.098  1.00  0.00     0.010 A 
ATOM     48  C   UNL A   1      42.995  26.554  30.238  1.00  0.00     0.010 A 
ATOM     49  C   UNL A   1      43.157  27.949  30.194  1.00  0.00    -0.014 A 
BRANCH  49  50
ATOM     50  C   UNL A   1      42.656  28.768  31.338  1.00  0.00     0.031 A 
ATOM     51  C   UNL A   1      41.411  29.604  31.172  1.00  0.00     0.074 A 
ATOM     52  C   UNL A   1      43.339  28.836  32.498  1.00  0.00     0.049 A 
ATOM     53  N   UNL A   1      40.913  30.514  31.970  1.00  0.00    -0.248 NA
ATOM     54  C   UNL A   1      40.620  29.383  29.950  1.00  0.00     0.031 C 
ATOM     55  C   UNL A   1      44.529  28.055  32.823  1.00  0.00     0.029 A 
ATOM     56  N   UNL A   1      43.150  29.628  33.609  1.00  0.00    -0.354 N 
ATOM     57  C   UNL A   1      39.766  30.988  31.343  1.00  0.00     0.074 A 
ATOM     58  C   UNL A   1      39.650  30.277  30.087  1.00  0.00     0.031 C 
ATOM     59  C   UNL A   1      44.993  28.439  34.023  1.00  0.00     0.029 A 
ATOM     60  C   UNL A   1      44.167  29.528  34.532  1.00  0.00     0.049 A 
ATOM     61  H   UNL A   1      42.365  30.208  33.731  1.00  0.00     0.167 HD
ATOM     62  C   UNL A   1      38.887  31.921  31.779  1.00  0.00     0.037 A 
ATOM     63  C   UNL A   1      44.441  30.257  35.634  1.00  0.00     0.037 A 
ATOM     64  C   UNL A   1      38.983  32.607  33.042  1.00  0.00     0.049 A 
ATOM     65  C   UNL A   1      43.501  31.360  36.047  1.00  0.00     0.074 A 
ATOM     66  C   UNL A   1      38.086  33.503  33.600  1.00  0.00     0.029 A 
ATOM     67  N   UNL A   1      40.039  32.494  33.932  1.00  0.00    -0.354 N 
ATOM     68  N   UNL A   1      42.384  31.742  35.479  1.00  0.00    -0.248 NA
ATOM     69  C   UNL A   1      43.853  32.125  37.252  1.00  0.00     0.031 C 
ATOM     70  C   UNL A   1      38.628  33.976  34.799  1.00  0.00     0.029 A 
ATOM     71  C   UNL A   1      39.838  33.337  35.013  1.00  0.00     0.049 A 
ATOM     72  H   UNL A   1      40.817  31.902  33.814  1.00  0.00     0.167 HD
ATOM     73  C   UNL A   1      41.886  32.770  36.275  1.00  0.00     0.074 A 
ATOM     74  C   UNL A   1      42.816  32.942  37.369  1.00  0.00     0.031 C 
ATOM     75  C   UNL A   1      40.758  33.502  36.109  1.00  0.00     0.037 A 
BRANCH  62  76
ATOM     76  C   UNL A   1      37.730  32.278  30.890  1.00  0.00     0.058 A 
ATOM     77  C   UNL A   1      36.473  31.673  31.034  1.00  0.00     0.135 A 
ATOM     78  C   UNL A   1      37.854  33.319  29.953  1.00  0.00     0.135 A 
ATOM     79  F   UNL A   1      36.304  30.666  31.906  1.00  0.00    -0.206 F 
ATOM     80  C   UNL A   1      35.378  32.087  30.283  1.00  0.00     0.059 A 
ATOM     81  C   UNL A   1      36.768  33.764  29.207  1.00  0.00     0.059 A 
ATOM     82  F   UNL A   1      39.037  33.929  29.776  1.00  0.00    -0.206 F 
ATOM     83  C   UNL A   1      35.533  33.140  29.379  1.00  0.00     0.060 A 
BRANCH  83  84
ATOM     84  S   UNL A   1      34.088  33.703  28.454  1.00  0.00     0.124 S 
ATOM     85  O   UNL A   1      34.689  34.649  27.520  1.00  0.00    -0.237 OA
ATOM     86  O   UNL A   1      33.591  32.461  27.868  1.00  0.00    -0.237 OA
ATOM     87  O   UNL A   1      33.234  34.292  29.481  1.00  0.00    -0.744 OA
ENDBRANCH  83  84
ENDBRANCH  62  76
BRANCH  63  88
ATOM     88  C   UNL A   1      45.695  30.019  36.403  1.00  0.00     0.058 A 
ATOM     89  C   UNL A   1      45.747  29.091  37.452  1.00  0.00     0.135 A 
ATOM     90  C   UNL A   1      46.857  30.758  36.131  1.00  0.00     0.135 A 
ATOM     91  F   UNL A   1      44.661  28.366  37.760  1.00  0.00    -0.206 F 
ATOM     92  C   UNL A   1      46.893  28.926  38.223  1.00  0.00     0.059 A 
ATOM     93  C   UNL A   1      48.024  30.593  36.869  1.00  0.00     0.059 A 
ATOM     94  F   UNL A   1      46.866  31.649  35.128  1.00  0.00    -0.206 F 
ATOM     95  C   UNL A   1      48.027  29.686  37.926  1.00  0.00     0.060 A 
BRANCH  95  96
ATOM     96  S   UNL A   1      49.514  29.455  38.925  1.00  0.00     0.124 S 
ATOM     97  O   UNL A   1      50.564  29.793  37.971  1.00  0.00    -0.237 OA
ATOM     98  O   UNL A   1      49.303  30.408  40.009  1.00  0.00    -0.237 OA
ATOM     99  O   UNL A   1      49.439  28.050  39.314  1.00  0.00    -0.744 OA
ENDBRANCH  95  96
ENDBRANCH  63  88
BRANCH  75 100
ATOM    100  C   UNL A   1      40.436  34.539  37.149  1.00  0.00     0.058 A 
ATOM    101  C   UNL A   1      40.871  35.867  37.022  1.00  0.00     0.135 A 
ATOM    102  C   UNL A   1      39.629  34.216  38.252  1.00  0.00     0.135 A 
ATOM    103  F   UNL A   1      41.654  36.226  35.993  1.00  0.00    -0.206 F 
ATOM    104  C   UNL A   1      40.525  36.837  37.959  1.00  0.00     0.059 A 
ATOM    105  C   UNL A   1      39.250  35.176  39.186  1.00  0.00     0.059 A 
ATOM    106  F   UNL A   1      39.181  32.961  38.420  1.00  0.00    -0.206 F 
ATOM    107  C   UNL A   1      39.709  36.482  39.035  1.00  0.00     0.060 A 
BRANCH 107 108
ATOM    108  S   UNL A   1      39.226  37.763  40.212  1.00  0.00     0.124 S 
ATOM    109  O   UNL A   1      38.867  36.970  41.382  1.00  0.00    -0.237 OA
ATOM    110  O   UNL A   1      40.446  38.555  40.333  1.00  0.00    -0.237 OA
ATOM    111  O   UNL A   1      38.114  38.436  39.546  1.00  0.00    -0.744 OA
ENDBRANCH 107 108
ENDBRANCH  75 100
ENDBRANCH  49  50
ENDBRANCH  42  44
ENDBRANCH  41  42
ENDBRANCH  40  41
ENDBRANCH  39  40
ENDBRANCH  38  39
ENDBRANCH  37  38
ENDBRANCH   1  37
TORSDOF 25
ENDMDL
MODEL 3
REMARK VINA RESULT:     -10.0      5.593     11.084
REMARK SMILES O=C(OCCOCCOCCOC(=O)c1ccc(-c2c3nc(c(-c4c(F)cc(S(=O)(=O)[O-])cc4F)c4ccc([nH]4)c(-c4c(F)cc(S(=O)(=O)[O-])cc4F)c4nc(c(-c5c(F)cc(S(=O)(=O)[O-])cc5F)c5ccc2[nH]5)C=C4)C=C3)cc1)c1ccc(NC(=O)[C@@H]2CC=CC[C@H]2C(=O)Nc2cccc([N+](=O)[O-])c2)cc1
REMARK SMILES IDX 7 1 6 2 5 3 4 4 3 5 2 6 1 7 81 8 82 9 107 10 83 11 106 12
REMARK SMILES IDX 84 13 85 14 86 15 87 17 88 18 89 19 93 20 90 21 92 22 91 23
REMARK SMILES IDX 94 24 95 25 96 26 97 28 98 29 105 30 99 31 101 32 100 33
REMARK SMILES IDX 102 34 103 35 104 36 8 37 9 38 10 39 11 40 12 41 13 42 14 43
REMARK SMILES IDX 15 44 16 45 80 46 17 47 79 48 18 49 19 50 20 51 73 52 21 53
REMARK SMILES IDX 78 54 72 55 74 56 22 57 77 58 71 59 70 60 23 62 57 63 36 64
REMARK SMILES IDX 56 65 37 66 40 67 55 68 75 69 38 70 39 71 54 73 76 74 41 75
REMARK SMILES IDX 24 76 25 77 34 78 26 79 27 80 33 81 35 82 28 83 29 84 30 85
REMARK SMILES IDX 31 86 32 87 58 88 59 89 68 90 60 91 61 92 67 93 69 94 62 95
REMARK SMILES IDX 63 96 64 97 65 98 66 99 42 100 43 101 52 102 44 103 45 104
REMARK SMILES IDX 51 105 53 106 46 107 47 108 48 109 49 110 50 111
REMARK H PARENT 85 16 96 27 74 61 40 72
REMARK Flexibility Score: inf
ROOT
ATOM      1  C   UNL A   1      34.440  34.230  28.199  1.00  0.00     0.188 C 
ENDROOT
BRANCH   1   2
ATOM      2  O   UNL A   1      35.112  32.966  28.239  1.00  0.00    -0.376 OA
BRANCH   2   3
ATOM      3  C   UNL A   1      34.497  31.979  27.393  1.00  0.00     0.202 C 
BRANCH   3   4
ATOM      4  C   UNL A   1      34.615  30.532  27.919  1.00  0.00     0.261 C 
BRANCH   4   5
ATOM      5  O   UNL A   1      34.268  29.521  26.936  1.00  0.00    -0.460 OA
BRANCH   5   6
ATOM      6  C   UNL A   1      33.031  28.961  26.820  1.00  0.00     0.338 C 
ATOM      7  O   UNL A   1      32.099  29.307  27.531  1.00  0.00    -0.246 OA
BRANCH   6   8
ATOM      8  C   UNL A   1      32.907  27.780  25.927  1.00  0.00     0.060 A 
ATOM      9  C   UNL A   1      32.065  26.747  26.285  1.00  0.00     0.018 A 
ATOM     10  C   UNL A   1      33.527  27.703  24.681  1.00  0.00     0.018 A 
ATOM     11  C   UNL A   1      31.965  25.586  25.544  1.00  0.00     0.027 A 
ATOM     12  C   UNL A   1      33.384  26.539  23.895  1.00  0.00     0.027 A 
ATOM     13  C   UNL A   1      32.641  25.439  24.356  1.00  0.00     0.041 A 
BRANCH  13  14
ATOM     14  N   UNL A   1      32.573  24.282  23.571  1.00  0.00    -0.326 N 
ATOM     15  C   UNL A   1      33.286  23.126  23.493  1.00  0.00     0.228 C 
ATOM     16  H   UNL A   1      31.833  24.311  22.921  1.00  0.00     0.169 HD
ATOM     17  O   UNL A   1      32.863  22.276  22.699  1.00  0.00    -0.274 OA
BRANCH  15  18
ATOM     18  C   UNL A   1      34.598  22.821  24.214  1.00  0.00     0.095 C 
ATOM     19  C   UNL A   1      35.882  23.189  23.463  1.00  0.00     0.041 C 
ATOM     20  C   UNL A   1      34.590  21.507  25.006  1.00  0.00     0.095 C 
ATOM     21  C   UNL A   1      37.122  22.629  24.105  1.00  0.00    -0.030 C 
ATOM     22  C   UNL A   1      35.882  21.249  25.796  1.00  0.00     0.041 C 
ATOM     23  C   UNL A   1      37.122  21.782  25.144  1.00  0.00    -0.030 C 
BRANCH  20  24
ATOM     24  C   UNL A   1      33.328  21.264  25.853  1.00  0.00     0.228 C 
ATOM     25  O   UNL A   1      32.891  22.202  26.535  1.00  0.00    -0.274 OA
ATOM     26  N   UNL A   1      32.567  20.126  25.817  1.00  0.00    -0.326 N 
ATOM     27  H   UNL A   1      31.783  20.132  26.412  1.00  0.00     0.169 HD
BRANCH  26  28
ATOM     28  C   UNL A   1      32.730  18.958  25.065  1.00  0.00     0.048 A 
ATOM     29  C   UNL A   1      32.309  18.965  23.732  1.00  0.00     0.026 A 
ATOM     30  C   UNL A   1      33.323  17.816  25.588  1.00  0.00     0.111 A 
ATOM     31  C   UNL A   1      32.648  17.905  22.886  1.00  0.00     0.009 A 
ATOM     32  C   UNL A   1      33.740  16.798  24.727  1.00  0.00     0.271 A 
ATOM     33  C   UNL A   1      33.407  16.838  23.370  1.00  0.00     0.086 A 
BRANCH  32  34
ATOM     34  N   UNL A   1      34.629  15.743  25.228  1.00  0.00     0.062 N 
ATOM     35  O   UNL A   1      35.760  16.081  25.604  1.00  0.00    -0.258 OA
ATOM     36  O   UNL A   1      34.172  14.595  25.309  1.00  0.00    -0.258 OA
ENDBRANCH  32  34
ENDBRANCH  26  28
ENDBRANCH  20  24
ENDBRANCH  15  18
ENDBRANCH  13  14
ENDBRANCH   6   8
ENDBRANCH   5   6
ENDBRANCH   4   5
ENDBRANCH   3   4
ENDBRANCH   2   3
ENDBRANCH   1   2
BRANCH   1  37
ATOM     37  C   UNL A   1      33.608  34.573  29.438  1.00  0.00     0.188 C 
BRANCH  37  38
ATOM     38  O   UNL A   1      34.162  35.395  30.461  1.00  0.00    -0.376 OA
BRANCH  38  39
ATOM     39  C   UNL A   1      34.150  34.924  31.796  1.00  0.00     0.202 C 
BRANCH  39  40
ATOM     40  C   UNL A   1      35.407  34.208  32.299  1.00  0.00     0.261 C 
BRANCH  40  41
ATOM     41  O   UNL A   1      36.232  33.617  31.281  1.00  0.00    -0.460 OA
BRANCH  41  42
ATOM     42  C   UNL A   1      36.027  32.292  31.085  1.00  0.00     0.338 C 
ATOM     43  O   UNL A   1      34.993  31.667  31.279  1.00  0.00    -0.246 OA
BRANCH  42  44
ATOM     44  C   UNL A   1      37.293  31.624  30.742  1.00  0.00     0.060 A 
ATOM     45  C   UNL A   1      37.679  30.426  31.348  1.00  0.00     0.016 A 
ATOM     46  C   UNL A   1      38.165  32.286  29.874  1.00  0.00     0.016 A 
ATOM     47  C   UNL A   1      38.959  29.905  31.100  1.00  0.00     0.010 A 
ATOM     48  C   UNL A   1      39.421  31.739  29.594  1.00  0.00     0.010 A 
ATOM     49  C   UNL A   1      39.846  30.557  30.225  1.00  0.00    -0.014 A 
BRANCH  49  50
ATOM     50  C   UNL A   1      41.239  30.074  29.985  1.00  0.00     0.031 A 
ATOM     51  C   UNL A   1      42.380  31.060  29.965  1.00  0.00     0.074 A 
ATOM     52  C   UNL A   1      41.489  28.779  29.709  1.00  0.00     0.049 A 
ATOM     53  N   UNL A   1      43.625  30.878  29.601  1.00  0.00    -0.248 NA
ATOM     54  C   UNL A   1      42.084  32.430  30.418  1.00  0.00     0.031 C 
ATOM     55  C   UNL A   1      40.500  27.705  29.735  1.00  0.00     0.029 A 
ATOM     56  N   UNL A   1      42.648  28.151  29.313  1.00  0.00    -0.354 N 
ATOM     57  C   UNL A   1      44.255  32.106  29.762  1.00  0.00     0.074 A 
ATOM     58  C   UNL A   1      43.251  33.034  30.240  1.00  0.00     0.031 C 
ATOM     59  C   UNL A   1      41.078  26.564  29.326  1.00  0.00     0.029 A 
ATOM     60  C   UNL A   1      42.464  26.833  28.957  1.00  0.00     0.049 A 
ATOM     61  H   UNL A   1      43.524  28.599  29.288  1.00  0.00     0.167 HD
ATOM     62  C   UNL A   1      45.551  32.428  29.541  1.00  0.00     0.037 A 
ATOM     63  C   UNL A   1      43.290  25.951  28.357  1.00  0.00     0.037 A 
ATOM     64  C   UNL A   1      46.559  31.500  29.096  1.00  0.00     0.049 A 
ATOM     65  C   UNL A   1      44.701  26.362  28.027  1.00  0.00     0.074 A 
ATOM     66  C   UNL A   1      47.917  31.723  28.933  1.00  0.00     0.029 A 
ATOM     67  N   UNL A   1      46.324  30.186  28.725  1.00  0.00    -0.354 N 
ATOM     68  N   UNL A   1      45.298  27.506  28.255  1.00  0.00    -0.248 NA
ATOM     69  C   UNL A   1      45.554  25.362  27.367  1.00  0.00     0.031 C 
ATOM     70  C   UNL A   1      48.491  30.562  28.406  1.00  0.00     0.029 A 
ATOM     71  C   UNL A   1      47.502  29.599  28.291  1.00  0.00     0.049 A 
ATOM     72  H   UNL A   1      45.449  29.736  28.765  1.00  0.00     0.167 HD
ATOM     73  C   UNL A   1      46.602  27.352  27.793  1.00  0.00     0.074 A 
ATOM     74  C   UNL A   1      46.712  26.002  27.286  1.00  0.00     0.031 C 
ATOM     75  C   UNL A   1      47.615  28.252  27.794  1.00  0.00     0.037 A 
BRANCH  62  76
ATOM     76  C   UNL A   1      45.980  33.850  29.768  1.00  0.00     0.058 A 
ATOM     77  C   UNL A   1      46.479  34.284  31.005  1.00  0.00     0.135 A 
ATOM     78  C   UNL A   1      45.993  34.763  28.699  1.00  0.00     0.135 A 
ATOM     79  F   UNL A   1      46.477  33.455  32.062  1.00  0.00    -0.206 F 
ATOM     80  C   UNL A   1      46.977  35.571  31.176  1.00  0.00     0.059 A 
ATOM     81  C   UNL A   1      46.507  36.047  28.841  1.00  0.00     0.059 A 
ATOM     82  F   UNL A   1      45.524  34.397  27.495  1.00  0.00    -0.206 F 
ATOM     83  C   UNL A   1      46.996  36.443  30.085  1.00  0.00     0.060 A 
BRANCH  83  84
ATOM     84  S   UNL A   1      47.699  38.090  30.310  1.00  0.00     0.124 S 
ATOM     85  O   UNL A   1      46.541  38.841  30.784  1.00  0.00    -0.237 OA
ATOM     86  O   UNL A   1      48.746  37.849  31.299  1.00  0.00    -0.237 OA
ATOM     87  O   UNL A   1      48.173  38.445  28.975  1.00  0.00    -0.744 OA
ENDBRANCH  83  84
ENDBRANCH  62  76
BRANCH  63  88
ATOM     88  C   UNL A   1      42.794  24.603  27.962  1.00  0.00     0.058 A 
ATOM     89  C   UNL A   1      42.769  23.536  28.871  1.00  0.00     0.135 A 
ATOM     90  C   UNL A   1      42.380  24.345  26.645  1.00  0.00     0.135 A 
ATOM     91  F   UNL A   1      43.164  23.726  30.138  1.00  0.00    -0.206 F 
ATOM     92  C   UNL A   1      42.383  22.256  28.483  1.00  0.00     0.059 A 
ATOM     93  C   UNL A   1      41.964  23.081  26.239  1.00  0.00     0.059 A 
ATOM     94  F   UNL A   1      42.370  25.334  25.740  1.00  0.00    -0.206 F 
ATOM     95  C   UNL A   1      41.986  22.038  27.161  1.00  0.00     0.060 A 
BRANCH  95  96
ATOM     96  S   UNL A   1      41.475  20.376  26.671  1.00  0.00     0.124 S 
ATOM     97  O   UNL A   1      40.025  20.521  26.614  1.00  0.00    -0.237 OA
ATOM     98  O   UNL A   1      42.153  20.215  25.390  1.00  0.00    -0.237 OA
ATOM     99  O   UNL A   1      41.986  19.538  27.751  1.00  0.00    -0.744 OA
ENDBRANCH  95  96
ENDBRANCH  63  88
BRANCH  75 100
ATOM    100  C   UNL A   1      48.948  27.807  27.262  1.00  0.00     0.058 A 
ATOM    101  C   UNL A   1      49.977  27.384  28.118  1.00  0.00     0.135 A 
ATOM    102  C   UNL A   1      49.178  27.739  25.878  1.00  0.00     0.135 A 
ATOM    103  F   UNL A   1      49.814  27.439  29.449  1.00  0.00    -0.206 F 
ATOM    104  C   UNL A   1      51.192  26.921  27.620  1.00  0.00     0.059 A 
ATOM    105  C   UNL A   1      50.375  27.255  25.359  1.00  0.00     0.059 A 
ATOM    106  F   UNL A   1      48.225  28.126  25.014  1.00  0.00    -0.206 F 
ATOM    107  C   UNL A   1      51.379  26.855  26.238  1.00  0.00     0.060 A 
BRANCH 107 108
ATOM    108  S   UNL A   1      52.939  26.202  25.607  1.00  0.00     0.124 S 
ATOM    109  O   UNL A   1      53.893  26.723  26.580  1.00  0.00    -0.237 OA
ATOM    110  O   UNL A   1      52.716  24.760  25.647  1.00  0.00    -0.237 OA
ATOM    111  O   UNL A   1      53.033  26.777  24.268  1.00  0.00    -0.744 OA
ENDBRANCH 107 108
ENDBRANCH  75 100
ENDBRANCH  49  50
ENDBRANCH  42  44
ENDBRANCH  41  42
ENDBRANCH  40  41
ENDBRANCH  39  40
ENDBRANCH  38  39
ENDBRANCH  37  38
ENDBRANCH   1  37
TORSDOF 25
ENDMDL
