MODEL 1
REMARK VINA RESULT:     -10.7      0.000      0.000
REMARK SMILES Cc1ccc(-c2cncc(C#N)c2)cc1C(=O)OCCOCCOCCOC(=O)c1ccc(-c2c3nc(c(-c4c(F)cc(S(=O)(=O)[O-])cc4F)c4ccc([nH]4)c(-c4c(F)cc(S(=O)(=O)[O-])cc4F)c4nc(c(-c5c(F)cc(S(=O)(=O)[O-])cc5F)c5ccc2[nH]5)C=C4)C=C3)cc1
REMARK SMILES IDX 23 1 22 2 21 3 20 4 19 5 18 6 16 7 17 8 15 9 1 10 2 11 3 12
REMARK SMILES IDX 4 13 14 14 5 15 6 16 7 17 13 18 8 19 10 20 9 21 11 22 12 23
REMARK SMILES IDX 24 24 25 25 26 26 27 27 28 28 29 29 30 30 31 31 95 32 32 33
REMARK SMILES IDX 94 34 33 35 34 36 35 37 88 38 36 39 93 40 87 41 89 42 37 43
REMARK SMILES IDX 92 44 86 45 85 46 38 48 72 49 51 50 71 51 52 52 55 53 70 54
REMARK SMILES IDX 90 55 53 56 54 57 69 59 91 60 56 61 39 62 40 63 49 64 41 65
REMARK SMILES IDX 42 66 48 67 50 68 43 69 44 70 45 71 46 72 47 73 73 74 74 75
REMARK SMILES IDX 83 76 75 77 76 78 82 79 84 80 77 81 78 82 79 83 80 84 81 85
REMARK SMILES IDX 57 86 58 87 67 88 59 89 60 90 66 91 68 92 61 93 62 94 63 95
REMARK SMILES IDX 64 96 65 97
REMARK H PARENT 89 47 55 58
REMARK Flexibility Score: inf
ROOT
ATOM      1  C   UNL A   1      38.922  29.824  30.015  1.00  0.00     0.188 C 
ENDROOT
BRANCH   1   2
ATOM      2  C   UNL A   1      38.114  29.104  28.977  1.00  0.00     0.188 C 
BRANCH   2   3
ATOM      3  O   UNL A   1      36.675  29.274  28.893  1.00  0.00    -0.376 OA
BRANCH   3   4
ATOM      4  C   UNL A   1      35.892  30.070  27.960  1.00  0.00     0.202 C 
BRANCH   4   5
ATOM      5  C   UNL A   1      34.322  29.924  27.138  1.00  0.00     0.261 C 
BRANCH   5   6
ATOM      6  O   UNL A   1      33.821  29.052  25.606  1.00  0.00    -0.460 OA
BRANCH   6   7
ATOM      7  C   UNL A   1      33.667  27.667  25.013  1.00  0.00     0.338 C 
ATOM      8  O   UNL A   1      33.853  27.296  23.846  1.00  0.00    -0.246 OA
BRANCH   7   9
ATOM      9  C   UNL A   1      33.372  26.404  25.706  1.00  0.00     0.063 A 
ATOM     10  C   UNL A   1      31.290  27.403  26.636  1.00  0.00     0.045 C 
ATOM     11  C   UNL A   1      32.152  26.228  26.316  1.00  0.00    -0.037 A 
ATOM     12  C   UNL A   1      31.716  24.904  26.494  1.00  0.00     0.005 A 
ATOM     13  C   UNL A   1      32.516  23.785  26.150  1.00  0.00     0.009 A 
ATOM     14  C   UNL A   1      34.167  25.254  25.329  1.00  0.00     0.024 A 
ATOM     15  C   UNL A   1      33.789  23.938  25.599  1.00  0.00    -0.016 A 
BRANCH  15  16
ATOM     16  C   UNL A   1      34.711  22.802  25.381  1.00  0.00     0.001 A 
ATOM     17  C   UNL A   1      34.306  21.518  25.005  1.00  0.00     0.119 A 
ATOM     18  C   UNL A   1      36.091  22.969  25.606  1.00  0.00     0.031 A 
ATOM     19  N   UNL A   1      35.135  20.440  24.898  1.00  0.00    -0.263 NA
ATOM     20  C   UNL A   1      36.972  21.886  25.505  1.00  0.00     0.071 A 
ATOM     21  C   UNL A   1      36.447  20.652  25.155  1.00  0.00     0.130 A 
BRANCH  20  22
ATOM     22  C   UNL A   1      38.359  21.998  25.809  1.00  0.00     0.101 C 
ATOM     23  N   UNL A   1      39.489  22.005  26.114  1.00  0.00    -0.192 NA
ENDBRANCH  20  22
ENDBRANCH  15  16
ENDBRANCH   7   9
ENDBRANCH   6   7
ENDBRANCH   5   6
ENDBRANCH   4   5
ENDBRANCH   3   4
ENDBRANCH   2   3
ENDBRANCH   1   2
BRANCH   1  24
ATOM     24  O   UNL A   1      38.094  29.948  31.138  1.00  0.00    -0.376 OA
BRANCH  24  25
ATOM     25  C   UNL A   1      38.183  31.102  31.912  1.00  0.00     0.202 C 
BRANCH  25  26
ATOM     26  C   UNL A   1      37.997  30.888  33.419  1.00  0.00     0.261 C 
BRANCH  26  27
ATOM     27  O   UNL A   1      38.657  29.710  33.999  1.00  0.00    -0.460 OA
BRANCH  27  28
ATOM     28  C   UNL A   1      39.892  29.703  34.651  1.00  0.00     0.338 C 
ATOM     29  O   UNL A   1      39.964  29.699  35.869  1.00  0.00    -0.246 OA
BRANCH  28  30
ATOM     30  C   UNL A   1      41.033  29.295  33.765  1.00  0.00     0.060 A 
ATOM     31  C   UNL A   1      42.361  29.734  33.613  1.00  0.00     0.016 A 
ATOM     32  C   UNL A   1      40.686  28.332  32.912  1.00  0.00     0.016 A 
ATOM     33  C   UNL A   1      43.172  29.473  32.400  1.00  0.00     0.010 A 
ATOM     34  C   UNL A   1      41.334  28.370  31.697  1.00  0.00     0.010 A 
ATOM     35  C   UNL A   1      42.647  28.823  31.286  1.00  0.00    -0.014 A 
BRANCH  35  36
ATOM     36  C   UNL A   1      43.422  28.416  29.733  1.00  0.00     0.031 A 
ATOM     37  C   UNL A   1      43.966  26.805  29.054  1.00  0.00     0.074 A 
ATOM     38  C   UNL A   1      43.474  29.430  28.841  1.00  0.00     0.049 A 
ATOM     39  N   UNL A   1      45.010  26.594  28.292  1.00  0.00    -0.248 NA
ATOM     40  C   UNL A   1      43.521  25.291  29.449  1.00  0.00     0.031 C 
ATOM     41  C   UNL A   1      43.640  29.410  27.389  1.00  0.00     0.029 A 
ATOM     42  N   UNL A   1      43.281  30.790  29.085  1.00  0.00    -0.354 N 
ATOM     43  C   UNL A   1      45.073  25.187  28.087  1.00  0.00     0.074 A 
ATOM     44  C   UNL A   1      44.593  24.554  29.232  1.00  0.00     0.031 C 
ATOM     45  C   UNL A   1      43.934  30.662  26.970  1.00  0.00     0.029 A 
ATOM     46  C   UNL A   1      44.057  31.491  28.165  1.00  0.00     0.049 A 
ATOM     47  H   UNL A   1      42.702  31.182  29.780  1.00  0.00     0.167 HD
ATOM     48  C   UNL A   1      45.050  24.624  26.841  1.00  0.00     0.037 A 
ATOM     49  C   UNL A   1      45.166  32.098  28.668  1.00  0.00     0.037 A 
ATOM     50  C   UNL A   1      45.388  25.697  25.940  1.00  0.00     0.049 A 
ATOM     51  C   UNL A   1      46.349  31.298  28.148  1.00  0.00     0.074 A 
ATOM     52  C   UNL A   1      44.667  26.583  25.170  1.00  0.00     0.029 A 
ATOM     53  N   UNL A   1      46.571  26.332  26.258  1.00  0.00    -0.354 N 
ATOM     54  N   UNL A   1      46.326  30.013  27.870  1.00  0.00    -0.248 NA
ATOM     55  C   UNL A   1      47.541  31.960  27.634  1.00  0.00     0.031 C 
ATOM     56  C   UNL A   1      45.403  27.827  25.188  1.00  0.00     0.029 A 
ATOM     57  C   UNL A   1      46.540  27.678  25.979  1.00  0.00     0.049 A 
ATOM     58  H   UNL A   1      47.352  25.871  26.641  1.00  0.00     0.167 HD
ATOM     59  C   UNL A   1      47.403  29.695  27.085  1.00  0.00     0.074 A 
ATOM     60  C   UNL A   1      48.134  30.949  26.980  1.00  0.00     0.031 C 
ATOM     61  C   UNL A   1      47.656  28.490  26.477  1.00  0.00     0.037 A 
BRANCH  48  62
ATOM     62  C   UNL A   1      44.619  23.189  26.465  1.00  0.00     0.058 A 
ATOM     63  C   UNL A   1      45.548  22.368  25.795  1.00  0.00     0.135 A 
ATOM     64  C   UNL A   1      43.352  22.555  26.657  1.00  0.00     0.135 A 
ATOM     65  F   UNL A   1      46.773  22.827  25.508  1.00  0.00    -0.206 F 
ATOM     66  C   UNL A   1      45.266  21.056  25.375  1.00  0.00     0.059 A 
ATOM     67  C   UNL A   1      43.064  21.229  26.288  1.00  0.00     0.059 A 
ATOM     68  F   UNL A   1      42.278  23.188  27.146  1.00  0.00    -0.206 F 
ATOM     69  C   UNL A   1      44.025  20.486  25.633  1.00  0.00     0.060 A 
BRANCH  69  70
ATOM     70  S   UNL A   1      43.680  18.803  25.077  1.00  0.00     0.124 S 
ATOM     71  O   UNL A   1      44.697  18.034  25.789  1.00  0.00    -0.237 OA
ATOM     72  O   UNL A   1      42.305  18.605  25.524  1.00  0.00    -0.237 OA
ATOM     73  O   UNL A   1      43.858  18.872  23.628  1.00  0.00    -0.744 OA
ENDBRANCH  69  70
ENDBRANCH  48  62
BRANCH  49  74
ATOM     74  C   UNL A   1      44.863  32.743  30.014  1.00  0.00     0.058 A 
ATOM     75  C   UNL A   1      43.900  33.794  30.015  1.00  0.00     0.135 A 
ATOM     76  C   UNL A   1      45.112  32.168  31.268  1.00  0.00     0.135 A 
ATOM     77  F   UNL A   1      43.608  34.430  28.867  1.00  0.00    -0.206 F 
ATOM     78  C   UNL A   1      43.118  34.125  31.128  1.00  0.00     0.059 A 
ATOM     79  C   UNL A   1      44.370  32.530  32.422  1.00  0.00     0.059 A 
ATOM     80  F   UNL A   1      45.979  31.152  31.386  1.00  0.00    -0.206 F 
ATOM     81  C   UNL A   1      43.327  33.455  32.323  1.00  0.00     0.060 A 
BRANCH  81  82
ATOM     82  S   UNL A   1      42.115  33.709  33.658  1.00  0.00     0.124 S 
ATOM     83  O   UNL A   1      42.795  33.129  34.809  1.00  0.00    -0.237 OA
ATOM     84  O   UNL A   1      41.984  35.168  33.670  1.00  0.00    -0.237 OA
ATOM     85  O   UNL A   1      40.942  32.979  33.196  1.00  0.00    -0.744 OA
ENDBRANCH  81  82
ENDBRANCH  49  74
BRANCH  61  86
ATOM     86  C   UNL A   1      49.092  27.970  26.357  1.00  0.00     0.058 A 
ATOM     87  C   UNL A   1      49.674  27.584  25.135  1.00  0.00     0.135 A 
ATOM     88  C   UNL A   1      49.999  27.964  27.453  1.00  0.00     0.135 A 
ATOM     89  F   UNL A   1      49.046  27.736  23.961  1.00  0.00    -0.206 F 
ATOM     90  C   UNL A   1      50.949  27.035  25.049  1.00  0.00     0.059 A 
ATOM     91  C   UNL A   1      51.318  27.554  27.360  1.00  0.00     0.059 A 
ATOM     92  F   UNL A   1      49.666  28.361  28.688  1.00  0.00    -0.206 F 
ATOM     93  C   UNL A   1      51.753  27.000  26.176  1.00  0.00     0.060 A 
BRANCH  93  94
ATOM     94  S   UNL A   1      53.339  26.176  26.115  1.00  0.00     0.124 S 
ATOM     95  O   UNL A   1      52.933  24.781  26.264  1.00  0.00    -0.237 OA
ATOM     96  O   UNL A   1      53.843  26.555  24.799  1.00  0.00    -0.237 OA
ATOM     97  O   UNL A   1      54.061  26.746  27.248  1.00  0.00    -0.744 OA
ENDBRANCH  93  94
ENDBRANCH  61  86
ENDBRANCH  35  36
ENDBRANCH  28  30
ENDBRANCH  27  28
ENDBRANCH  26  27
ENDBRANCH  25  26
ENDBRANCH  24  25
ENDBRANCH   1  24
TORSDOF 22
ENDMDL
MODEL 2
REMARK VINA RESULT:     -10.0      4.686      7.352
REMARK SMILES Cc1ccc(-c2cncc(C#N)c2)cc1C(=O)OCCOCCOCCOC(=O)c1ccc(-c2c3nc(c(-c4c(F)cc(S(=O)(=O)[O-])cc4F)c4ccc([nH]4)c(-c4c(F)cc(S(=O)(=O)[O-])cc4F)c4nc(c(-c5c(F)cc(S(=O)(=O)[O-])cc5F)c5ccc2[nH]5)C=C4)C=C3)cc1
REMARK SMILES IDX 23 1 22 2 21 3 20 4 19 5 18 6 16 7 17 8 15 9 1 10 2 11 3 12
REMARK SMILES IDX 4 13 14 14 5 15 6 16 7 17 13 18 8 19 10 20 9 21 11 22 12 23
REMARK SMILES IDX 24 24 25 25 26 26 27 27 28 28 29 29 30 30 31 31 95 32 32 33
REMARK SMILES IDX 94 34 33 35 34 36 35 37 88 38 36 39 93 40 87 41 89 42 37 43
REMARK SMILES IDX 92 44 86 45 85 46 38 48 72 49 51 50 71 51 52 52 55 53 70 54
REMARK SMILES IDX 90 55 53 56 54 57 69 59 91 60 56 61 39 62 40 63 49 64 41 65
REMARK SMILES IDX 42 66 48 67 50 68 43 69 44 70 45 71 46 72 47 73 73 74 74 75
REMARK SMILES IDX 83 76 75 77 76 78 82 79 84 80 77 81 78 82 79 83 80 84 81 85
REMARK SMILES IDX 57 86 58 87 67 88 59 89 60 90 66 91 68 92 61 93 62 94 63 95
REMARK SMILES IDX 64 96 65 97
REMARK H PARENT 89 47 55 58
REMARK Flexibility Score: inf
ROOT
ATOM      1  C   UNL A   1      37.714  31.453  34.596  1.00  0.00     0.188 C 
ENDROOT
BRANCH   1   2
ATOM      2  C   UNL A   1      36.952  32.453  33.778  1.00  0.00     0.188 C 
BRANCH   2   3
ATOM      3  O   UNL A   1      35.525  32.642  33.961  1.00  0.00    -0.376 OA
BRANCH   3   4
ATOM      4  C   UNL A   1      34.557  33.276  33.078  1.00  0.00     0.202 C 
BRANCH   4   5
ATOM      5  C   UNL A   1      34.332  33.452  31.322  1.00  0.00     0.261 C 
BRANCH   5   6
ATOM      6  O   UNL A   1      34.993  32.499  29.904  1.00  0.00    -0.460 OA
BRANCH   6   7
ATOM      7  C   UNL A   1      36.073  32.526  28.843  1.00  0.00     0.338 C 
ATOM      8  O   UNL A   1      36.016  32.961  27.685  1.00  0.00    -0.246 OA
BRANCH   7   9
ATOM      9  C   UNL A   1      37.489  32.146  28.972  1.00  0.00     0.063 A 
ATOM     10  C   UNL A   1      37.884  34.122  30.433  1.00  0.00     0.045 C 
ATOM     11  C   UNL A   1      38.292  32.799  29.878  1.00  0.00    -0.037 A 
ATOM     12  C   UNL A   1      39.423  32.105  30.339  1.00  0.00     0.005 A 
ATOM     13  C   UNL A   1      39.789  30.828  29.845  1.00  0.00     0.009 A 
ATOM     14  C   UNL A   1      37.854  30.828  28.498  1.00  0.00     0.024 A 
ATOM     15  C   UNL A   1      39.031  30.177  28.871  1.00  0.00    -0.016 A 
BRANCH  15  16
ATOM     16  C   UNL A   1      39.470  28.924  28.217  1.00  0.00     0.001 A 
ATOM     17  C   UNL A   1      39.126  27.643  28.657  1.00  0.00     0.119 A 
ATOM     18  C   UNL A   1      40.332  28.981  27.105  1.00  0.00     0.031 A 
ATOM     19  N   UNL A   1      39.604  26.482  28.123  1.00  0.00    -0.263 NA
ATOM     20  C   UNL A   1      40.842  27.811  26.531  1.00  0.00     0.071 A 
ATOM     21  C   UNL A   1      40.453  26.596  27.075  1.00  0.00     0.130 A 
BRANCH  20  22
ATOM     22  C   UNL A   1      41.782  27.832  25.462  1.00  0.00     0.101 C 
ATOM     23  N   UNL A   1      42.625  27.884  24.650  1.00  0.00    -0.192 NA
ENDBRANCH  20  22
ENDBRANCH  15  16
ENDBRANCH   7   9
ENDBRANCH   6   7
ENDBRANCH   5   6
ENDBRANCH   4   5
ENDBRANCH   3   4
ENDBRANCH   2   3
ENDBRANCH   1   2
BRANCH   1  24
ATOM     24  O   UNL A   1      37.568  31.848  35.932  1.00  0.00    -0.376 OA
BRANCH  24  25
ATOM     25  C   UNL A   1      37.491  33.208  36.224  1.00  0.00     0.202 C 
BRANCH  25  26
ATOM     26  C   UNL A   1      38.837  33.941  36.258  1.00  0.00     0.261 C 
BRANCH  26  27
ATOM     27  O   UNL A   1      39.116  34.852  35.139  1.00  0.00    -0.460 OA
BRANCH  27  28
ATOM     28  C   UNL A   1      40.056  35.883  35.139  1.00  0.00     0.338 C 
ATOM     29  O   UNL A   1      40.096  36.704  36.042  1.00  0.00    -0.246 OA
BRANCH  28  30
ATOM     30  C   UNL A   1      41.208  35.643  34.206  1.00  0.00     0.060 A 
ATOM     31  C   UNL A   1      42.362  36.372  33.866  1.00  0.00     0.016 A 
ATOM     32  C   UNL A   1      41.072  34.505  33.527  1.00  0.00     0.016 A 
ATOM     33  C   UNL A   1      43.136  36.139  32.623  1.00  0.00     0.010 A 
ATOM     34  C   UNL A   1      41.612  34.517  32.259  1.00  0.00     0.010 A 
ATOM     35  C   UNL A   1      42.732  35.216  31.662  1.00  0.00    -0.014 A 
BRANCH  35  36
ATOM     36  C   UNL A   1      43.488  34.782  30.108  1.00  0.00     0.031 A 
ATOM     37  C   UNL A   1      44.401  33.279  29.600  1.00  0.00     0.074 A 
ATOM     38  C   UNL A   1      43.209  35.623  29.086  1.00  0.00     0.049 A 
ATOM     39  N   UNL A   1      45.414  33.226  28.771  1.00  0.00    -0.248 NA
ATOM     40  C   UNL A   1      44.406  31.783  30.239  1.00  0.00     0.031 C 
ATOM     41  C   UNL A   1      43.282  35.418  27.641  1.00  0.00     0.029 A 
ATOM     42  N   UNL A   1      42.672  36.908  29.164  1.00  0.00    -0.354 N 
ATOM     43  C   UNL A   1      45.840  31.869  28.752  1.00  0.00     0.074 A 
ATOM     44  C   UNL A   1      45.622  31.322  30.015  1.00  0.00     0.031 C 
ATOM     45  C   UNL A   1      43.201  36.622  27.030  1.00  0.00     0.029 A 
ATOM     46  C   UNL A   1      43.171  37.632  28.083  1.00  0.00     0.049 A 
ATOM     47  H   UNL A   1      42.055  37.243  29.855  1.00  0.00     0.167 HD
ATOM     48  C   UNL A   1      45.891  31.130  27.602  1.00  0.00     0.037 A 
ATOM     49  C   UNL A   1      44.106  38.574  28.383  1.00  0.00     0.037 A 
ATOM     50  C   UNL A   1      45.870  32.098  26.535  1.00  0.00     0.049 A 
ATOM     51  C   UNL A   1      45.425  38.034  27.857  1.00  0.00     0.074 A 
ATOM     52  C   UNL A   1      44.890  32.637  25.730  1.00  0.00     0.029 A 
ATOM     53  N   UNL A   1      46.856  33.058  26.642  1.00  0.00    -0.354 N 
ATOM     54  N   UNL A   1      45.732  36.759  27.759  1.00  0.00    -0.248 NA
ATOM     55  C   UNL A   1      46.360  38.890  27.140  1.00  0.00     0.031 C 
ATOM     56  C   UNL A   1      45.264  34.015  25.505  1.00  0.00     0.029 A 
ATOM     57  C   UNL A   1      46.447  34.290  26.188  1.00  0.00     0.049 A 
ATOM     58  H   UNL A   1      47.755  32.879  27.001  1.00  0.00     0.167 HD
ATOM     59  C   UNL A   1      46.803  36.608  26.918  1.00  0.00     0.074 A 
ATOM     60  C   UNL A   1      47.161  37.975  26.570  1.00  0.00     0.031 C 
ATOM     61  C   UNL A   1      47.331  35.429  26.455  1.00  0.00     0.037 A 
BRANCH  48  62
ATOM     62  C   UNL A   1      45.840  29.592  27.470  1.00  0.00     0.058 A 
ATOM     63  C   UNL A   1      46.994  28.923  27.017  1.00  0.00     0.135 A 
ATOM     64  C   UNL A   1      44.738  28.709  27.698  1.00  0.00     0.135 A 
ATOM     65  F   UNL A   1      48.105  29.613  26.724  1.00  0.00    -0.206 F 
ATOM     66  C   UNL A   1      47.063  27.532  26.827  1.00  0.00     0.059 A 
ATOM     67  C   UNL A   1      44.799  27.311  27.561  1.00  0.00     0.059 A 
ATOM     68  F   UNL A   1      43.505  29.134  27.998  1.00  0.00    -0.206 F 
ATOM     69  C   UNL A   1      45.967  26.728  27.111  1.00  0.00     0.060 A 
BRANCH  69  70
ATOM     70  S   UNL A   1      46.073  24.943  26.851  1.00  0.00     0.124 S 
ATOM     71  O   UNL A   1      45.524  24.800  25.506  1.00  0.00    -0.237 OA
ATOM     72  O   UNL A   1      47.505  24.696  26.983  1.00  0.00    -0.237 OA
ATOM     73  O   UNL A   1      45.246  24.387  27.919  1.00  0.00    -0.744 OA
ENDBRANCH  69  70
ENDBRANCH  48  62
BRANCH  49  74
ATOM     74  C   UNL A   1      43.725  39.323  29.654  1.00  0.00     0.058 A 
ATOM     75  C   UNL A   1      44.697  39.345  30.697  1.00  0.00     0.135 A 
ATOM     76  C   UNL A   1      42.726  40.300  29.756  1.00  0.00     0.135 A 
ATOM     77  F   UNL A   1      45.683  38.432  30.707  1.00  0.00    -0.206 F 
ATOM     78  C   UNL A   1      44.778  40.361  31.657  1.00  0.00     0.059 A 
ATOM     79  C   UNL A   1      42.757  41.306  30.755  1.00  0.00     0.059 A 
ATOM     80  F   UNL A   1      41.774  40.393  28.817  1.00  0.00    -0.206 F 
ATOM     81  C   UNL A   1      43.826  41.369  31.653  1.00  0.00     0.060 A 
BRANCH  81  82
ATOM     82  S   UNL A   1      44.121  42.811  32.725  1.00  0.00     0.124 S 
ATOM     83  O   UNL A   1      44.427  43.858  31.758  1.00  0.00    -0.237 OA
ATOM     84  O   UNL A   1      42.834  42.943  33.412  1.00  0.00    -0.237 OA
ATOM     85  O   UNL A   1      45.238  42.391  33.561  1.00  0.00    -0.744 OA
ENDBRANCH  81  82
ENDBRANCH  49  74
BRANCH  61  86
ATOM     86  C   UNL A   1      48.844  35.283  26.260  1.00  0.00     0.058 A 
ATOM     87  C   UNL A   1      49.699  34.730  27.232  1.00  0.00     0.135 A 
ATOM     88  C   UNL A   1      49.489  35.571  25.025  1.00  0.00     0.135 A 
ATOM     89  F   UNL A   1      49.238  34.194  28.371  1.00  0.00    -0.206 F 
ATOM     90  C   UNL A   1      51.080  34.680  27.078  1.00  0.00     0.059 A 
ATOM     91  C   UNL A   1      50.844  35.395  24.802  1.00  0.00     0.059 A 
ATOM     92  F   UNL A   1      48.844  36.039  23.948  1.00  0.00    -0.206 F 
ATOM     93  C   UNL A   1      51.645  35.041  25.866  1.00  0.00     0.060 A 
BRANCH  93  94
ATOM     94  S   UNL A   1      53.423  35.112  25.697  1.00  0.00     0.124 S 
ATOM     95  O   UNL A   1      53.685  36.494  26.087  1.00  0.00    -0.237 OA
ATOM     96  O   UNL A   1      53.872  34.090  26.636  1.00  0.00    -0.237 OA
ATOM     97  O   UNL A   1      53.642  34.803  24.287  1.00  0.00    -0.744 OA
ENDBRANCH  93  94
ENDBRANCH  61  86
ENDBRANCH  35  36
ENDBRANCH  28  30
ENDBRANCH  27  28
ENDBRANCH  26  27
ENDBRANCH  25  26
ENDBRANCH  24  25
ENDBRANCH   1  24
TORSDOF 22
ENDMDL
MODEL 3
REMARK VINA RESULT:     -10.0      3.615      8.181
REMARK SMILES Cc1ccc(-c2cncc(C#N)c2)cc1C(=O)OCCOCCOCCOC(=O)c1ccc(-c2c3nc(c(-c4c(F)cc(S(=O)(=O)[O-])cc4F)c4ccc([nH]4)c(-c4c(F)cc(S(=O)(=O)[O-])cc4F)c4nc(c(-c5c(F)cc(S(=O)(=O)[O-])cc5F)c5ccc2[nH]5)C=C4)C=C3)cc1
REMARK SMILES IDX 23 1 22 2 21 3 20 4 19 5 18 6 16 7 17 8 15 9 1 10 2 11 3 12
REMARK SMILES IDX 4 13 14 14 5 15 6 16 7 17 13 18 8 19 10 20 9 21 11 22 12 23
REMARK SMILES IDX 24 24 25 25 26 26 27 27 28 28 29 29 30 30 31 31 95 32 32 33
REMARK SMILES IDX 94 34 33 35 34 36 35 37 88 38 36 39 93 40 87 41 89 42 37 43
REMARK SMILES IDX 92 44 86 45 85 46 38 48 72 49 51 50 71 51 52 52 55 53 70 54
REMARK SMILES IDX 90 55 53 56 54 57 69 59 91 60 56 61 39 62 40 63 49 64 41 65
REMARK SMILES IDX 42 66 48 67 50 68 43 69 44 70 45 71 46 72 47 73 73 74 74 75
REMARK SMILES IDX 83 76 75 77 76 78 82 79 84 80 77 81 78 82 79 83 80 84 81 85
REMARK SMILES IDX 57 86 58 87 67 88 59 89 60 90 66 91 68 92 61 93 62 94 63 95
REMARK SMILES IDX 64 96 65 97
REMARK H PARENT 89 47 55 58
REMARK Flexibility Score: inf
ROOT
ATOM      1  C   UNL A   1      34.911  32.698  29.937  1.00  0.00     0.188 C 
ENDROOT
BRANCH   1   2
ATOM      2  C   UNL A   1      34.258  32.666  28.587  1.00  0.00     0.188 C 
BRANCH   2   3
ATOM      3  O   UNL A   1      34.449  31.545  27.685  1.00  0.00    -0.376 OA
BRANCH   3   4
ATOM      4  C   UNL A   1      33.485  30.559  27.220  1.00  0.00     0.202 C 
BRANCH   4   5
ATOM      5  C   UNL A   1      33.147  29.701  25.700  1.00  0.00     0.261 C 
BRANCH   5   6
ATOM      6  O   UNL A   1      32.527  28.010  25.363  1.00  0.00    -0.460 OA
BRANCH   6   7
ATOM      7  C   UNL A   1      31.581  26.954  25.895  1.00  0.00     0.338 C 
ATOM      8  O   UNL A   1      30.991  26.915  26.983  1.00  0.00    -0.246 OA
BRANCH   7   9
ATOM      9  C   UNL A   1      31.044  25.775  25.198  1.00  0.00     0.063 A 
ATOM     10  C   UNL A   1      29.557  27.251  23.853  1.00  0.00     0.045 C 
ATOM     11  C   UNL A   1      30.227  25.941  24.104  1.00  0.00    -0.037 A 
ATOM     12  C   UNL A   1      30.168  24.877  23.188  1.00  0.00     0.005 A 
ATOM     13  C   UNL A   1      30.839  23.647  23.403  1.00  0.00     0.009 A 
ATOM     14  C   UNL A   1      31.751  24.527  25.391  1.00  0.00     0.024 A 
ATOM     15  C   UNL A   1      31.614  23.428  24.542  1.00  0.00    -0.016 A 
BRANCH  15  16
ATOM     16  C   UNL A   1      32.192  22.107  24.877  1.00  0.00     0.001 A 
ATOM     17  C   UNL A   1      32.953  21.846  26.020  1.00  0.00     0.119 A 
ATOM     18  C   UNL A   1      32.030  21.027  23.988  1.00  0.00     0.031 A 
ATOM     19  N   UNL A   1      33.573  20.661  26.289  1.00  0.00    -0.263 NA
ATOM     20  C   UNL A   1      32.650  19.797  24.232  1.00  0.00     0.071 A 
ATOM     21  C   UNL A   1      33.408  19.667  25.385  1.00  0.00     0.130 A 
BRANCH  20  22
ATOM     22  C   UNL A   1      32.579  18.711  23.313  1.00  0.00     0.101 C 
ATOM     23  N   UNL A   1      32.562  17.880  22.487  1.00  0.00    -0.192 NA
ENDBRANCH  20  22
ENDBRANCH  15  16
ENDBRANCH   7   9
ENDBRANCH   6   7
ENDBRANCH   5   6
ENDBRANCH   4   5
ENDBRANCH   3   4
ENDBRANCH   2   3
ENDBRANCH   1   2
BRANCH   1  24
ATOM     24  O   UNL A   1      36.014  31.838  29.858  1.00  0.00    -0.376 OA
BRANCH  24  25
ATOM     25  C   UNL A   1      36.135  30.815  30.795  1.00  0.00     0.202 C 
BRANCH  25  26
ATOM     26  C   UNL A   1      37.554  30.594  31.333  1.00  0.00     0.261 C 
BRANCH  26  27
ATOM     27  O   UNL A   1      38.647  30.684  30.354  1.00  0.00    -0.460 OA
BRANCH  27  28
ATOM     28  C   UNL A   1      39.058  29.666  29.492  1.00  0.00     0.338 C 
ATOM     29  O   UNL A   1      38.426  29.397  28.483  1.00  0.00    -0.246 OA
BRANCH  28  30
ATOM     30  C   UNL A   1      40.489  29.256  29.691  1.00  0.00     0.060 A 
ATOM     31  C   UNL A   1      41.366  29.266  30.791  1.00  0.00     0.016 A 
ATOM     32  C   UNL A   1      41.048  28.827  28.562  1.00  0.00     0.016 A 
ATOM     33  C   UNL A   1      42.842  29.209  30.655  1.00  0.00     0.010 A 
ATOM     34  C   UNL A   1      42.398  29.084  28.448  1.00  0.00     0.010 A 
ATOM     35  C   UNL A   1      43.471  29.204  29.413  1.00  0.00    -0.014 A 
BRANCH  35  36
ATOM     36  C   UNL A   1      45.207  29.150  29.013  1.00  0.00     0.031 A 
ATOM     37  C   UNL A   1      46.302  30.413  28.266  1.00  0.00     0.074 A 
ATOM     38  C   UNL A   1      45.864  28.065  29.480  1.00  0.00     0.049 A 
ATOM     39  N   UNL A   1      47.305  30.191  27.454  1.00  0.00    -0.248 NA
ATOM     40  C   UNL A   1      46.132  32.028  28.164  1.00  0.00     0.031 C 
ATOM     41  C   UNL A   1      47.289  27.848  29.719  1.00  0.00     0.029 A 
ATOM     42  N   UNL A   1      45.312  26.875  29.955  1.00  0.00    -0.354 N 
ATOM     43  C   UNL A   1      47.799  31.471  27.075  1.00  0.00     0.074 A 
ATOM     44  C   UNL A   1      46.728  32.362  27.036  1.00  0.00     0.031 C 
ATOM     45  C   UNL A   1      47.501  26.524  29.896  1.00  0.00     0.029 A 
ATOM     46  C   UNL A   1      46.222  25.856  29.678  1.00  0.00     0.049 A 
ATOM     47  H   UNL A   1      44.441  26.773  30.404  1.00  0.00     0.167 HD
ATOM     48  C   UNL A   1      49.095  31.850  27.288  1.00  0.00     0.037 A 
ATOM     49  C   UNL A   1      45.868  25.005  28.677  1.00  0.00     0.037 A 
ATOM     50  C   UNL A   1      49.813  30.620  27.508  1.00  0.00     0.049 A 
ATOM     51  C   UNL A   1      46.791  25.325  27.513  1.00  0.00     0.074 A 
ATOM     52  C   UNL A   1      50.207  29.911  28.622  1.00  0.00     0.029 A 
ATOM     53  N   UNL A   1      49.646  29.695  26.498  1.00  0.00    -0.354 N 
ATOM     54  N   UNL A   1      47.311  26.508  27.267  1.00  0.00    -0.248 NA
ATOM     55  C   UNL A   1      47.413  24.267  26.729  1.00  0.00     0.031 C 
ATOM     56  C   UNL A   1      50.103  28.513  28.270  1.00  0.00     0.029 A 
ATOM     57  C   UNL A   1      49.633  28.401  26.963  1.00  0.00     0.049 A 
ATOM     58  H   UNL A   1      49.549  29.936  25.548  1.00  0.00     0.167 HD
ATOM     59  C   UNL A   1      48.364  26.374  26.401  1.00  0.00     0.074 A 
ATOM     60  C   UNL A   1      48.375  24.952  26.090  1.00  0.00     0.031 C 
ATOM     61  C   UNL A   1      49.244  27.353  26.013  1.00  0.00     0.037 A 
BRANCH  48  62
ATOM     62  C   UNL A   1      49.648  33.288  27.405  1.00  0.00     0.058 A 
ATOM     63  C   UNL A   1      49.666  33.894  28.677  1.00  0.00     0.135 A 
ATOM     64  C   UNL A   1      50.116  34.155  26.368  1.00  0.00     0.135 A 
ATOM     65  F   UNL A   1      49.225  33.225  29.751  1.00  0.00    -0.206 F 
ATOM     66  C   UNL A   1      50.116  35.206  28.908  1.00  0.00     0.059 A 
ATOM     67  C   UNL A   1      50.615  35.452  26.583  1.00  0.00     0.059 A 
ATOM     68  F   UNL A   1      50.061  33.844  25.067  1.00  0.00    -0.206 F 
ATOM     69  C   UNL A   1      50.600  35.978  27.859  1.00  0.00     0.060 A 
BRANCH  69  70
ATOM     70  S   UNL A   1      51.165  37.665  28.176  1.00  0.00     0.124 S 
ATOM     71  O   UNL A   1      50.799  38.343  26.936  1.00  0.00    -0.237 OA
ATOM     72  O   UNL A   1      50.389  38.035  29.355  1.00  0.00    -0.237 OA
ATOM     73  O   UNL A   1      52.601  37.514  28.399  1.00  0.00    -0.744 OA
ENDBRANCH  69  70
ENDBRANCH  48  62
BRANCH  49  74
ATOM     74  C   UNL A   1      44.386  24.663  28.761  1.00  0.00     0.058 A 
ATOM     75  C   UNL A   1      43.551  25.184  27.731  1.00  0.00     0.135 A 
ATOM     76  C   UNL A   1      43.836  23.595  29.485  1.00  0.00     0.135 A 
ATOM     77  F   UNL A   1      43.974  26.227  26.995  1.00  0.00    -0.206 F 
ATOM     78  C   UNL A   1      42.351  24.585  27.330  1.00  0.00     0.059 A 
ATOM     79  C   UNL A   1      42.594  23.009  29.132  1.00  0.00     0.059 A 
ATOM     80  F   UNL A   1      44.541  23.006  30.461  1.00  0.00    -0.206 F 
ATOM     81  C   UNL A   1      41.898  23.464  28.009  1.00  0.00     0.060 A 
BRANCH  81  82
ATOM     82  S   UNL A   1      40.496  22.551  27.290  1.00  0.00     0.124 S 
ATOM     83  O   UNL A   1      39.388  23.477  27.489  1.00  0.00    -0.237 OA
ATOM     84  O   UNL A   1      40.931  22.375  25.903  1.00  0.00    -0.237 OA
ATOM     85  O   UNL A   1      40.438  21.333  28.088  1.00  0.00    -0.744 OA
ENDBRANCH  81  82
ENDBRANCH  49  74
BRANCH  61  86
ATOM     86  C   UNL A   1      49.785  27.382  24.579  1.00  0.00     0.058 A 
ATOM     87  C   UNL A   1      48.962  27.514  23.445  1.00  0.00     0.135 A 
ATOM     88  C   UNL A   1      51.177  27.415  24.286  1.00  0.00     0.135 A 
ATOM     89  F   UNL A   1      47.642  27.725  23.538  1.00  0.00    -0.206 F 
ATOM     90  C   UNL A   1      49.456  27.455  22.147  1.00  0.00     0.059 A 
ATOM     91  C   UNL A   1      51.694  27.499  23.005  1.00  0.00     0.059 A 
ATOM     92  F   UNL A   1      52.130  27.373  25.227  1.00  0.00    -0.206 F 
ATOM     93  C   UNL A   1      50.825  27.420  21.939  1.00  0.00     0.060 A 
BRANCH  93  94
ATOM     94  S   UNL A   1      51.471  27.207  20.285  1.00  0.00     0.124 S 
ATOM     95  O   UNL A   1      51.896  28.569  19.975  1.00  0.00    -0.237 OA
ATOM     96  O   UNL A   1      52.542  26.237  20.485  1.00  0.00    -0.237 OA
ATOM     97  O   UNL A   1      50.320  26.720  19.531  1.00  0.00    -0.744 OA
ENDBRANCH  93  94
ENDBRANCH  61  86
ENDBRANCH  35  36
ENDBRANCH  28  30
ENDBRANCH  27  28
ENDBRANCH  26  27
ENDBRANCH  25  26
ENDBRANCH  24  25
ENDBRANCH   1  24
TORSDOF 22
ENDMDL
