MODEL 1
REMARK VINA RESULT:      -9.6      0.000      0.000
REMARK SMILES O=C(CCC(=O)c1c[nH]c2ccccc12)OCCOCCOCCOC(=O)c1ccc(-c2c3nc(c(-c4c(F)cc(S(=O)(=O)[O-])cc4F)c4ccc([nH]4)c(-c4c(F)cc(S(=O)(=O)[O-])cc4F)c4nc(c(-c5c(F)cc(S(=O)(=O)[O-])cc5F)c5ccc2[nH]5)C=C4)C=C3)cc1
REMARK SMILES IDX 20 1 19 2 18 3 17 4 16 5 2 6 1 7 3 8 4 9 5 10 6 11 7 12 8 13
REMARK SMILES IDX 15 14 9 15 10 16 14 17 11 19 13 20 12 21 21 22 22 23 23 24
REMARK SMILES IDX 24 25 25 26 26 27 27 28 28 29 29 30 93 31 30 32 92 33 31 34
REMARK SMILES IDX 32 35 33 36 86 37 34 38 91 39 85 40 87 41 35 42 90 43 84 44
REMARK SMILES IDX 83 45 36 47 70 48 49 49 69 50 50 51 53 52 68 53 88 54 51 55
REMARK SMILES IDX 52 56 67 58 89 59 54 60 37 61 38 62 47 63 39 64 40 65 46 66
REMARK SMILES IDX 48 67 41 68 42 69 43 70 44 71 45 72 71 73 72 74 81 75 73 76
REMARK SMILES IDX 74 77 80 78 82 79 75 80 76 81 77 82 78 83 79 84 55 85 56 86
REMARK SMILES IDX 65 87 57 88 58 89 64 90 66 91 59 92 60 93 61 94 62 95 63 96
REMARK H PARENT 9 18 87 46 53 57
REMARK Flexibility Score: inf
ROOT
ATOM      1  C   UNL A   1      31.574  27.413  25.682  1.00  0.00     0.188 C 
ENDROOT
BRANCH   1   2
ATOM      2  O   UNL A   1      31.793  26.926  24.371  1.00  0.00    -0.376 OA
BRANCH   2   3
ATOM      3  C   UNL A   1      32.988  26.195  24.145  1.00  0.00     0.202 C 
BRANCH   3   4
ATOM      4  C   UNL A   1      33.798  25.838  25.376  1.00  0.00     0.261 C 
BRANCH   4   5
ATOM      5  O   UNL A   1      33.541  24.450  25.674  1.00  0.00    -0.463 OA
BRANCH   5   6
ATOM      6  C   UNL A   1      34.442  23.627  26.256  1.00  0.00     0.306 C 
ATOM      7  O   UNL A   1      34.412  23.146  27.374  1.00  0.00    -0.252 OA
BRANCH   6   8
ATOM      8  C   UNL A   1      35.509  23.321  25.266  1.00  0.00     0.131 C 
BRANCH   8   9
ATOM      9  C   UNL A   1      35.079  22.242  24.279  1.00  0.00     0.093 C 
BRANCH   9  10
ATOM     10  C   UNL A   1      35.353  20.784  24.638  1.00  0.00     0.165 C 
ATOM     11  O   UNL A   1      36.493  20.493  25.022  1.00  0.00    -0.294 OA
BRANCH  10  12
ATOM     12  C   UNL A   1      34.311  19.734  24.691  1.00  0.00     0.043 A 
ATOM     13  C   UNL A   1      32.998  20.143  24.867  1.00  0.00     0.095 A 
ATOM     14  C   UNL A   1      34.281  18.280  24.792  1.00  0.00     0.010 A 
ATOM     15  N   UNL A   1      32.200  19.058  25.043  1.00  0.00    -0.360 N 
ATOM     16  C   UNL A   1      32.951  17.912  25.047  1.00  0.00     0.046 A 
ATOM     17  C   UNL A   1      35.201  17.205  24.785  1.00  0.00     0.011 A 
ATOM     18  H   UNL A   1      31.222  19.090  25.154  1.00  0.00     0.166 HD
ATOM     19  C   UNL A   1      32.531  16.593  25.291  1.00  0.00     0.027 A 
ATOM     20  C   UNL A   1      34.815  15.885  25.083  1.00  0.00     0.001 A 
ATOM     21  C   UNL A   1      33.488  15.582  25.327  1.00  0.00     0.002 A 
ENDBRANCH  10  12
ENDBRANCH   9  10
ENDBRANCH   8   9
ENDBRANCH   6   8
ENDBRANCH   5   6
ENDBRANCH   4   5
ENDBRANCH   3   4
ENDBRANCH   2   3
ENDBRANCH   1   2
BRANCH   1  22
ATOM     22  C   UNL A   1      31.447  28.952  25.835  1.00  0.00     0.188 C 
BRANCH  22  23
ATOM     23  O   UNL A   1      32.032  29.627  26.943  1.00  0.00    -0.376 OA
BRANCH  23  24
ATOM     24  C   UNL A   1      32.390  30.992  26.818  1.00  0.00     0.202 C 
BRANCH  24  25
ATOM     25  C   UNL A   1      33.365  31.641  27.825  1.00  0.00     0.261 C 
BRANCH  25  26
ATOM     26  O   UNL A   1      34.633  30.984  28.019  1.00  0.00    -0.460 OA
BRANCH  26  27
ATOM     27  C   UNL A   1      35.347  31.324  29.129  1.00  0.00     0.338 C 
ATOM     28  O   UNL A   1      34.920  31.892  30.113  1.00  0.00    -0.246 OA
BRANCH  27  29
ATOM     29  C   UNL A   1      36.697  30.683  29.073  1.00  0.00     0.060 A 
ATOM     30  C   UNL A   1      37.349  30.405  30.288  1.00  0.00     0.016 A 
ATOM     31  C   UNL A   1      37.274  30.263  27.873  1.00  0.00     0.016 A 
ATOM     32  C   UNL A   1      38.571  29.719  30.306  1.00  0.00     0.010 A 
ATOM     33  C   UNL A   1      38.521  29.615  27.890  1.00  0.00     0.010 A 
ATOM     34  C   UNL A   1      39.187  29.354  29.103  1.00  0.00    -0.014 A 
BRANCH  34  35
ATOM     35  C   UNL A   1      40.608  28.903  29.091  1.00  0.00     0.031 A 
ATOM     36  C   UNL A   1      41.673  29.936  29.356  1.00  0.00     0.074 A 
ATOM     37  C   UNL A   1      40.964  27.628  28.837  1.00  0.00     0.049 A 
ATOM     38  N   UNL A   1      42.973  29.833  29.271  1.00  0.00    -0.248 NA
ATOM     39  C   UNL A   1      41.201  31.269  29.771  1.00  0.00     0.031 C 
ATOM     40  C   UNL A   1      40.044  26.514  28.623  1.00  0.00     0.029 A 
ATOM     41  N   UNL A   1      42.212  27.062  28.693  1.00  0.00    -0.354 N 
ATOM     42  C   UNL A   1      43.474  31.088  29.599  1.00  0.00     0.074 A 
ATOM     43  C   UNL A   1      42.340  31.939  29.880  1.00  0.00     0.031 C 
ATOM     44  C   UNL A   1      40.755  25.407  28.335  1.00  0.00     0.029 A 
ATOM     45  C   UNL A   1      42.181  25.740  28.307  1.00  0.00     0.049 A 
ATOM     46  H   UNL A   1      43.049  27.555  28.853  1.00  0.00     0.167 HD
ATOM     47  C   UNL A   1      44.762  31.498  29.654  1.00  0.00     0.037 A 
ATOM     48  C   UNL A   1      43.179  24.911  27.931  1.00  0.00     0.037 A 
ATOM     49  C   UNL A   1      45.894  30.652  29.381  1.00  0.00     0.049 A 
ATOM     50  C   UNL A   1      44.605  25.417  27.922  1.00  0.00     0.074 A 
ATOM     51  C   UNL A   1      47.239  30.971  29.451  1.00  0.00     0.029 A 
ATOM     52  N   UNL A   1      45.817  29.330  28.971  1.00  0.00    -0.354 N 
ATOM     53  N   UNL A   1      45.068  26.593  28.273  1.00  0.00    -0.248 NA
ATOM     54  C   UNL A   1      45.645  24.485  27.456  1.00  0.00     0.031 C 
ATOM     55  C   UNL A   1      47.973  29.862  29.022  1.00  0.00     0.029 A 
ATOM     56  C   UNL A   1      47.089  28.833  28.743  1.00  0.00     0.049 A 
ATOM     57  H   UNL A   1      44.982  28.821  28.859  1.00  0.00     0.167 HD
ATOM     58  C   UNL A   1      46.447  26.534  28.090  1.00  0.00     0.074 A 
ATOM     59  C   UNL A   1      46.750  25.200  27.621  1.00  0.00     0.031 C 
ATOM     60  C   UNL A   1      47.381  27.499  28.286  1.00  0.00     0.037 A 
BRANCH  47  61
ATOM     61  C   UNL A   1      45.034  32.936  29.992  1.00  0.00     0.058 A 
ATOM     62  C   UNL A   1      45.109  33.930  29.005  1.00  0.00     0.135 A 
ATOM     63  C   UNL A   1      45.135  33.336  31.336  1.00  0.00     0.135 A 
ATOM     64  F   UNL A   1      45.044  33.599  27.706  1.00  0.00    -0.206 F 
ATOM     65  C   UNL A   1      45.271  35.271  29.338  1.00  0.00     0.059 A 
ATOM     66  C   UNL A   1      45.270  34.674  31.693  1.00  0.00     0.059 A 
ATOM     67  F   UNL A   1      45.077  32.422  32.318  1.00  0.00    -0.206 F 
ATOM     68  C   UNL A   1      45.339  35.634  30.685  1.00  0.00     0.060 A 
BRANCH  68  69
ATOM     69  S   UNL A   1      45.487  37.385  31.099  1.00  0.00     0.124 S 
ATOM     70  O   UNL A   1      46.793  37.422  31.750  1.00  0.00    -0.237 OA
ATOM     71  O   UNL A   1      45.415  38.020  29.787  1.00  0.00    -0.237 OA
ATOM     72  O   UNL A   1      44.344  37.627  31.973  1.00  0.00    -0.744 OA
ENDBRANCH  68  69
ENDBRANCH  47  61
BRANCH  48  73
ATOM     73  C   UNL A   1      42.883  23.524  27.464  1.00  0.00     0.058 A 
ATOM     74  C   UNL A   1      42.814  22.447  28.362  1.00  0.00     0.135 A 
ATOM     75  C   UNL A   1      42.731  23.237  26.098  1.00  0.00     0.135 A 
ATOM     76  F   UNL A   1      42.973  22.660  29.677  1.00  0.00    -0.206 F 
ATOM     77  C   UNL A   1      42.633  21.137  27.924  1.00  0.00     0.059 A 
ATOM     78  C   UNL A   1      42.516  21.941  25.637  1.00  0.00     0.059 A 
ATOM     79  F   UNL A   1      42.787  24.226  25.192  1.00  0.00    -0.206 F 
ATOM     80  C   UNL A   1      42.487  20.894  26.557  1.00  0.00     0.060 A 
BRANCH  80  81
ATOM     81  S   UNL A   1      42.231  19.195  25.998  1.00  0.00     0.124 S 
ATOM     82  O   UNL A   1      40.811  19.203  25.670  1.00  0.00    -0.237 OA
ATOM     83  O   UNL A   1      43.149  19.105  24.866  1.00  0.00    -0.237 OA
ATOM     84  O   UNL A   1      42.607  18.400  27.164  1.00  0.00    -0.744 OA
ENDBRANCH  80  81
ENDBRANCH  48  73
BRANCH  60  85
ATOM     85  C   UNL A   1      48.822  27.152  28.020  1.00  0.00     0.058 A 
ATOM     86  C   UNL A   1      49.365  27.199  26.726  1.00  0.00     0.135 A 
ATOM     87  C   UNL A   1      49.690  26.842  29.080  1.00  0.00     0.135 A 
ATOM     88  F   UNL A   1      48.580  27.485  25.674  1.00  0.00    -0.206 F 
ATOM     89  C   UNL A   1      50.710  26.933  26.489  1.00  0.00     0.059 A 
ATOM     90  C   UNL A   1      51.046  26.603  28.872  1.00  0.00     0.059 A 
ATOM     91  F   UNL A   1      49.229  26.796  30.340  1.00  0.00    -0.206 F 
ATOM     92  C   UNL A   1      51.545  26.641  27.570  1.00  0.00     0.060 A 
BRANCH  92  93
ATOM     93  S   UNL A   1      53.297  26.342  27.254  1.00  0.00     0.124 S 
ATOM     94  O   UNL A   1      53.800  26.087  28.599  1.00  0.00    -0.237 OA
ATOM     95  O   UNL A   1      53.260  25.187  26.362  1.00  0.00    -0.237 OA
ATOM     96  O   UNL A   1      53.751  27.587  26.640  1.00  0.00    -0.744 OA
ENDBRANCH  92  93
ENDBRANCH  60  85
ENDBRANCH  34  35
ENDBRANCH  27  29
ENDBRANCH  26  27
ENDBRANCH  25  26
ENDBRANCH  24  25
ENDBRANCH  23  24
ENDBRANCH  22  23
ENDBRANCH   1  22
TORSDOF 23
ENDMDL
MODEL 2
REMARK VINA RESULT:      -9.5      1.534      2.360
REMARK SMILES O=C(CCC(=O)c1c[nH]c2ccccc12)OCCOCCOCCOC(=O)c1ccc(-c2c3nc(c(-c4c(F)cc(S(=O)(=O)[O-])cc4F)c4ccc([nH]4)c(-c4c(F)cc(S(=O)(=O)[O-])cc4F)c4nc(c(-c5c(F)cc(S(=O)(=O)[O-])cc5F)c5ccc2[nH]5)C=C4)C=C3)cc1
REMARK SMILES IDX 20 1 19 2 18 3 17 4 16 5 2 6 1 7 3 8 4 9 5 10 6 11 7 12 8 13
REMARK SMILES IDX 15 14 9 15 10 16 14 17 11 19 13 20 12 21 21 22 22 23 23 24
REMARK SMILES IDX 24 25 25 26 26 27 27 28 28 29 29 30 93 31 30 32 92 33 31 34
REMARK SMILES IDX 32 35 33 36 86 37 34 38 91 39 85 40 87 41 35 42 90 43 84 44
REMARK SMILES IDX 83 45 36 47 70 48 49 49 69 50 50 51 53 52 68 53 88 54 51 55
REMARK SMILES IDX 52 56 67 58 89 59 54 60 37 61 38 62 47 63 39 64 40 65 46 66
REMARK SMILES IDX 48 67 41 68 42 69 43 70 44 71 45 72 71 73 72 74 81 75 73 76
REMARK SMILES IDX 74 77 80 78 82 79 75 80 76 81 77 82 78 83 79 84 55 85 56 86
REMARK SMILES IDX 65 87 57 88 58 89 64 90 66 91 59 92 60 93 61 94 62 95 63 96
REMARK H PARENT 9 18 87 46 53 57
REMARK Flexibility Score: inf
ROOT
ATOM      1  C   UNL A   1      31.615  27.178  25.726  1.00  0.00     0.188 C 
ENDROOT
BRANCH   1   2
ATOM      2  O   UNL A   1      31.250  26.859  24.398  1.00  0.00    -0.376 OA
BRANCH   2   3
ATOM      3  C   UNL A   1      32.275  26.375  23.544  1.00  0.00     0.202 C 
BRANCH   3   4
ATOM      4  C   UNL A   1      33.599  26.046  24.206  1.00  0.00     0.261 C 
BRANCH   4   5
ATOM      5  O   UNL A   1      33.803  24.623  24.079  1.00  0.00    -0.463 OA
BRANCH   5   6
ATOM      6  C   UNL A   1      32.901  23.782  23.526  1.00  0.00     0.306 C 
ATOM      7  O   UNL A   1      32.895  23.315  22.401  1.00  0.00    -0.252 OA
BRANCH   6   8
ATOM      8  C   UNL A   1      31.887  23.433  24.556  1.00  0.00     0.131 C 
BRANCH   8   9
ATOM      9  C   UNL A   1      32.462  22.531  25.641  1.00  0.00     0.093 C 
BRANCH   9  10
ATOM     10  C   UNL A   1      32.775  21.080  25.282  1.00  0.00     0.165 C 
ATOM     11  O   UNL A   1      31.819  20.317  25.097  1.00  0.00    -0.294 OA
BRANCH  10  12
ATOM     12  C   UNL A   1      34.137  20.570  25.007  1.00  0.00     0.043 A 
ATOM     13  C   UNL A   1      34.282  19.205  24.810  1.00  0.00     0.095 A 
ATOM     14  C   UNL A   1      35.494  21.100  25.057  1.00  0.00     0.010 A 
ATOM     15  N   UNL A   1      35.601  18.893  24.722  1.00  0.00    -0.360 N 
ATOM     16  C   UNL A   1      36.368  20.012  24.911  1.00  0.00     0.046 A 
ATOM     17  C   UNL A   1      36.131  22.344  25.287  1.00  0.00     0.011 A 
ATOM     18  H   UNL A   1      35.956  17.991  24.548  1.00  0.00     0.166 HD
ATOM     19  C   UNL A   1      37.768  20.109  24.990  1.00  0.00     0.027 A 
ATOM     20  C   UNL A   1      37.527  22.457  25.427  1.00  0.00     0.001 A 
ATOM     21  C   UNL A   1      38.337  21.348  25.273  1.00  0.00     0.002 A 
ENDBRANCH  10  12
ENDBRANCH   9  10
ENDBRANCH   8   9
ENDBRANCH   6   8
ENDBRANCH   5   6
ENDBRANCH   4   5
ENDBRANCH   3   4
ENDBRANCH   2   3
ENDBRANCH   1   2
BRANCH   1  22
ATOM     22  C   UNL A   1      31.553  28.678  26.119  1.00  0.00     0.188 C 
BRANCH  22  23
ATOM     23  O   UNL A   1      32.488  29.232  27.038  1.00  0.00    -0.376 OA
BRANCH  23  24
ATOM     24  C   UNL A   1      32.782  30.617  26.983  1.00  0.00     0.202 C 
BRANCH  24  25
ATOM     25  C   UNL A   1      33.810  31.238  27.955  1.00  0.00     0.261 C 
BRANCH  25  26
ATOM     26  O   UNL A   1      35.124  30.645  27.979  1.00  0.00    -0.460 OA
BRANCH  26  27
ATOM     27  C   UNL A   1      35.966  31.040  28.974  1.00  0.00     0.338 C 
ATOM     28  O   UNL A   1      35.661  31.662  29.971  1.00  0.00    -0.246 OA
BRANCH  27  29
ATOM     29  C   UNL A   1      37.300  30.389  28.789  1.00  0.00     0.060 A 
ATOM     30  C   UNL A   1      38.064  30.106  29.937  1.00  0.00     0.016 A 
ATOM     31  C   UNL A   1      37.757  29.966  27.540  1.00  0.00     0.016 A 
ATOM     32  C   UNL A   1      39.277  29.412  29.837  1.00  0.00     0.010 A 
ATOM     33  C   UNL A   1      38.996  29.309  27.438  1.00  0.00     0.010 A 
ATOM     34  C   UNL A   1      39.772  29.043  28.582  1.00  0.00    -0.014 A 
BRANCH  34  35
ATOM     35  C   UNL A   1      41.182  28.582  28.434  1.00  0.00     0.031 A 
ATOM     36  C   UNL A   1      42.268  29.627  28.463  1.00  0.00     0.074 A 
ATOM     37  C   UNL A   1      41.509  27.286  28.259  1.00  0.00     0.049 A 
ATOM     38  N   UNL A   1      43.547  29.506  28.225  1.00  0.00    -0.248 NA
ATOM     39  C   UNL A   1      41.847  30.997  28.806  1.00  0.00     0.031 C 
ATOM     40  C   UNL A   1      40.574  26.163  28.269  1.00  0.00     0.029 A 
ATOM     41  N   UNL A   1      42.731  26.698  28.014  1.00  0.00    -0.354 N 
ATOM     42  C   UNL A   1      44.080  30.783  28.366  1.00  0.00     0.074 A 
ATOM     43  C   UNL A   1      42.987  31.665  28.707  1.00  0.00     0.031 C 
ATOM     44  C   UNL A   1      41.248  25.029  28.001  1.00  0.00     0.029 A 
ATOM     45  C   UNL A   1      42.657  25.346  27.762  1.00  0.00     0.049 A 
ATOM     46  H   UNL A   1      43.579  27.198  28.019  1.00  0.00     0.167 HD
ATOM     47  C   UNL A   1      45.363  31.186  28.220  1.00  0.00     0.037 A 
ATOM     48  C   UNL A   1      43.603  24.478  27.344  1.00  0.00     0.037 A 
ATOM     49  C   UNL A   1      46.455  30.309  27.889  1.00  0.00     0.049 A 
ATOM     50  C   UNL A   1      45.015  24.969  27.107  1.00  0.00     0.074 A 
ATOM     51  C   UNL A   1      47.797  30.623  27.758  1.00  0.00     0.029 A 
ATOM     52  N   UNL A   1      46.333  28.955  27.619  1.00  0.00    -0.354 N 
ATOM     53  N   UNL A   1      45.513  26.170  27.284  1.00  0.00    -0.248 NA
ATOM     54  C   UNL A   1      45.992  23.990  26.605  1.00  0.00     0.031 C 
ATOM     55  C   UNL A   1      48.476  29.473  27.348  1.00  0.00     0.029 A 
ATOM     56  C   UNL A   1      47.569  28.429  27.281  1.00  0.00     0.049 A 
ATOM     57  H   UNL A   1      45.493  28.444  27.661  1.00  0.00     0.167 HD
ATOM     58  C   UNL A   1      46.859  26.083  26.935  1.00  0.00     0.074 A 
ATOM     59  C   UNL A   1      47.106  24.708  26.561  1.00  0.00     0.031 C 
ATOM     60  C   UNL A   1      47.806  27.055  26.919  1.00  0.00     0.037 A 
BRANCH  47  61
ATOM     61  C   UNL A   1      45.670  32.648  28.383  1.00  0.00     0.058 A 
ATOM     62  C   UNL A   1      45.789  33.509  27.283  1.00  0.00     0.135 A 
ATOM     63  C   UNL A   1      45.758  33.208  29.669  1.00  0.00     0.135 A 
ATOM     64  F   UNL A   1      45.737  33.021  26.033  1.00  0.00    -0.206 F 
ATOM     65  C   UNL A   1      45.983  34.876  27.450  1.00  0.00     0.059 A 
ATOM     66  C   UNL A   1      45.926  34.576  29.860  1.00  0.00     0.059 A 
ATOM     67  F   UNL A   1      45.659  32.426  30.755  1.00  0.00    -0.206 F 
ATOM     68  C   UNL A   1      46.038  35.401  28.743  1.00  0.00     0.060 A 
BRANCH  68  69
ATOM     69  S   UNL A   1      46.228  37.186  28.940  1.00  0.00     0.124 S 
ATOM     70  O   UNL A   1      45.150  37.690  28.094  1.00  0.00    -0.237 OA
ATOM     71  O   UNL A   1      46.039  37.360  30.377  1.00  0.00    -0.237 OA
ATOM     72  O   UNL A   1      47.579  37.442  28.453  1.00  0.00    -0.744 OA
ENDBRANCH  68  69
ENDBRANCH  47  61
BRANCH  48  73
ATOM     73  C   UNL A   1      43.257  23.055  27.051  1.00  0.00     0.058 A 
ATOM     74  C   UNL A   1      43.093  22.114  28.080  1.00  0.00     0.135 A 
ATOM     75  C   UNL A   1      43.150  22.593  25.729  1.00  0.00     0.135 A 
ATOM     76  F   UNL A   1      43.206  22.496  29.361  1.00  0.00    -0.206 F 
ATOM     77  C   UNL A   1      42.864  20.766  27.812  1.00  0.00     0.059 A 
ATOM     78  C   UNL A   1      42.889  21.257  25.436  1.00  0.00     0.059 A 
ATOM     79  F   UNL A   1      43.297  23.446  24.704  1.00  0.00    -0.206 F 
ATOM     80  C   UNL A   1      42.765  20.347  26.484  1.00  0.00     0.060 A 
BRANCH  80  81
ATOM     81  S   UNL A   1      42.447  18.601  26.145  1.00  0.00     0.124 S 
ATOM     82  O   UNL A   1      43.387  18.336  25.063  1.00  0.00    -0.237 OA
ATOM     83  O   UNL A   1      42.758  17.980  27.428  1.00  0.00    -0.237 OA
ATOM     84  O   UNL A   1      41.035  18.584  25.775  1.00  0.00    -0.744 OA
ENDBRANCH  80  81
ENDBRANCH  48  73
BRANCH  60  85
ATOM     85  C   UNL A   1      49.204  26.673  26.508  1.00  0.00     0.058 A 
ATOM     86  C   UNL A   1      49.647  26.816  25.183  1.00  0.00     0.135 A 
ATOM     87  C   UNL A   1      50.134  26.231  27.463  1.00  0.00     0.135 A 
ATOM     88  F   UNL A   1      48.799  27.230  24.228  1.00  0.00    -0.206 F 
ATOM     89  C   UNL A   1      50.956  26.516  24.817  1.00  0.00     0.059 A 
ATOM     90  C   UNL A   1      51.456  25.955  27.126  1.00  0.00     0.059 A 
ATOM     91  F   UNL A   1      49.769  26.089  28.747  1.00  0.00    -0.206 F 
ATOM     92  C   UNL A   1      51.855  26.091  25.797  1.00  0.00     0.060 A 
BRANCH  92  93
ATOM     93  S   UNL A   1      53.561  25.749  25.315  1.00  0.00     0.124 S 
ATOM     94  O   UNL A   1      53.428  25.559  23.875  1.00  0.00    -0.237 OA
ATOM     95  O   UNL A   1      54.252  26.965  25.732  1.00  0.00    -0.237 OA
ATOM     96  O   UNL A   1      53.898  24.550  26.078  1.00  0.00    -0.744 OA
ENDBRANCH  92  93
ENDBRANCH  60  85
ENDBRANCH  34  35
ENDBRANCH  27  29
ENDBRANCH  26  27
ENDBRANCH  25  26
ENDBRANCH  24  25
ENDBRANCH  23  24
ENDBRANCH  22  23
ENDBRANCH   1  22
TORSDOF 23
ENDMDL
MODEL 3
REMARK VINA RESULT:      -9.4      2.885      8.675
REMARK SMILES O=C(CCC(=O)c1c[nH]c2ccccc12)OCCOCCOCCOC(=O)c1ccc(-c2c3nc(c(-c4c(F)cc(S(=O)(=O)[O-])cc4F)c4ccc([nH]4)c(-c4c(F)cc(S(=O)(=O)[O-])cc4F)c4nc(c(-c5c(F)cc(S(=O)(=O)[O-])cc5F)c5ccc2[nH]5)C=C4)C=C3)cc1
REMARK SMILES IDX 20 1 19 2 18 3 17 4 16 5 2 6 1 7 3 8 4 9 5 10 6 11 7 12 8 13
REMARK SMILES IDX 15 14 9 15 10 16 14 17 11 19 13 20 12 21 21 22 22 23 23 24
REMARK SMILES IDX 24 25 25 26 26 27 27 28 28 29 29 30 93 31 30 32 92 33 31 34
REMARK SMILES IDX 32 35 33 36 86 37 34 38 91 39 85 40 87 41 35 42 90 43 84 44
REMARK SMILES IDX 83 45 36 47 70 48 49 49 69 50 50 51 53 52 68 53 88 54 51 55
REMARK SMILES IDX 52 56 67 58 89 59 54 60 37 61 38 62 47 63 39 64 40 65 46 66
REMARK SMILES IDX 48 67 41 68 42 69 43 70 44 71 45 72 71 73 72 74 81 75 73 76
REMARK SMILES IDX 74 77 80 78 82 79 75 80 76 81 77 82 78 83 79 84 55 85 56 86
REMARK SMILES IDX 65 87 57 88 58 89 64 90 66 91 59 92 60 93 61 94 62 95 63 96
REMARK H PARENT 9 18 87 46 53 57
REMARK Flexibility Score: inf
ROOT
ATOM      1  C   UNL A   1      36.225  21.308  25.768  1.00  0.00     0.188 C 
ENDROOT
BRANCH   1   2
ATOM      2  O   UNL A   1      35.363  20.482  25.009  1.00  0.00    -0.376 OA
BRANCH   2   3
ATOM      3  C   UNL A   1      34.020  20.366  25.454  1.00  0.00     0.202 C 
BRANCH   3   4
ATOM      4  C   UNL A   1      33.200  21.642  25.448  1.00  0.00     0.261 C 
BRANCH   4   5
ATOM      5  O   UNL A   1      32.460  21.672  24.211  1.00  0.00    -0.463 OA
BRANCH   5   6
ATOM      6  C   UNL A   1      32.057  22.811  23.604  1.00  0.00     0.306 C 
ATOM      7  O   UNL A   1      30.948  23.313  23.602  1.00  0.00    -0.252 OA
BRANCH   6   8
ATOM      8  C   UNL A   1      33.236  23.439  22.951  1.00  0.00     0.131 C 
BRANCH   8   9
ATOM      9  C   UNL A   1      32.853  24.181  21.675  1.00  0.00     0.093 C 
BRANCH   9  10
ATOM     10  C   UNL A   1      32.873  25.707  21.694  1.00  0.00     0.165 C 
ATOM     11  O   UNL A   1      33.362  26.286  20.715  1.00  0.00    -0.294 OA
BRANCH  10  12
ATOM     12  C   UNL A   1      32.223  26.532  22.737  1.00  0.00     0.043 A 
ATOM     13  C   UNL A   1      31.184  27.361  22.343  1.00  0.00     0.095 A 
ATOM     14  C   UNL A   1      32.490  26.880  24.127  1.00  0.00     0.010 A 
ATOM     15  N   UNL A   1      30.807  28.149  23.383  1.00  0.00    -0.360 N 
ATOM     16  C   UNL A   1      31.607  27.915  24.470  1.00  0.00     0.046 A 
ATOM     17  C   UNL A   1      33.411  26.527  25.143  1.00  0.00     0.011 A 
ATOM     18  H   UNL A   1      30.066  28.797  23.359  1.00  0.00     0.166 HD
ATOM     19  C   UNL A   1      31.614  28.580  25.709  1.00  0.00     0.027 A 
ATOM     20  C   UNL A   1      33.475  27.216  26.369  1.00  0.00     0.001 A 
ATOM     21  C   UNL A   1      32.578  28.229  26.650  1.00  0.00     0.002 A 
ENDBRANCH  10  12
ENDBRANCH   9  10
ENDBRANCH   8   9
ENDBRANCH   6   8
ENDBRANCH   5   6
ENDBRANCH   4   5
ENDBRANCH   3   4
ENDBRANCH   2   3
ENDBRANCH   1   2
BRANCH   1  22
ATOM     22  C   UNL A   1      37.248  22.158  24.969  1.00  0.00     0.188 C 
BRANCH  22  23
ATOM     23  O   UNL A   1      38.645  21.902  25.065  1.00  0.00    -0.376 OA
BRANCH  23  24
ATOM     24  C   UNL A   1      39.137  21.105  26.129  1.00  0.00     0.202 C 
BRANCH  24  25
ATOM     25  C   UNL A   1      39.680  19.685  25.856  1.00  0.00     0.261 C 
BRANCH  25  26
ATOM     26  O   UNL A   1      41.028  19.589  25.356  1.00  0.00    -0.460 OA
BRANCH  26  27
ATOM     27  C   UNL A   1      42.029  19.511  26.277  1.00  0.00     0.338 C 
ATOM     28  O   UNL A   1      42.609  18.503  26.627  1.00  0.00    -0.246 OA
BRANCH  27  29
ATOM     29  C   UNL A   1      42.489  20.888  26.635  1.00  0.00     0.060 A 
ATOM     30  C   UNL A   1      42.752  21.792  25.588  1.00  0.00     0.016 A 
ATOM     31  C   UNL A   1      42.564  21.330  27.957  1.00  0.00     0.016 A 
ATOM     32  C   UNL A   1      43.092  23.124  25.860  1.00  0.00     0.010 A 
ATOM     33  C   UNL A   1      42.949  22.654  28.228  1.00  0.00     0.010 A 
ATOM     34  C   UNL A   1      43.233  23.555  27.183  1.00  0.00    -0.014 A 
BRANCH  34  35
ATOM     35  C   UNL A   1      43.881  24.864  27.484  1.00  0.00     0.031 A 
ATOM     36  C   UNL A   1      43.004  25.977  27.997  1.00  0.00     0.074 A 
ATOM     37  C   UNL A   1      45.198  25.084  27.299  1.00  0.00     0.049 A 
ATOM     38  N   UNL A   1      43.292  27.236  28.204  1.00  0.00    -0.248 NA
ATOM     39  C   UNL A   1      41.611  25.619  28.314  1.00  0.00     0.031 C 
ATOM     40  C   UNL A   1      46.175  24.087  26.867  1.00  0.00     0.029 A 
ATOM     41  N   UNL A   1      45.938  26.238  27.431  1.00  0.00    -0.354 N 
ATOM     42  C   UNL A   1      42.114  27.823  28.654  1.00  0.00     0.074 A 
ATOM     43  C   UNL A   1      41.107  26.787  28.686  1.00  0.00     0.031 C 
ATOM     44  C   UNL A   1      47.376  24.680  26.731  1.00  0.00     0.029 A 
ATOM     45  C   UNL A   1      47.248  26.108  27.028  1.00  0.00     0.049 A 
ATOM     46  H   UNL A   1      45.565  27.079  27.781  1.00  0.00     0.167 HD
ATOM     47  C   UNL A   1      41.890  29.111  29.003  1.00  0.00     0.037 A 
ATOM     48  C   UNL A   1      48.217  27.036  26.875  1.00  0.00     0.037 A 
ATOM     49  C   UNL A   1      42.893  30.143  28.980  1.00  0.00     0.049 A 
ATOM     50  C   UNL A   1      47.918  28.486  27.194  1.00  0.00     0.074 A 
ATOM     51  C   UNL A   1      42.765  31.469  29.355  1.00  0.00     0.029 A 
ATOM     52  N   UNL A   1      44.197  29.974  28.544  1.00  0.00    -0.354 N 
ATOM     53  N   UNL A   1      46.812  29.020  27.656  1.00  0.00    -0.248 NA
ATOM     54  C   UNL A   1      48.995  29.461  26.960  1.00  0.00     0.031 C 
ATOM     55  C   UNL A   1      43.974  32.116  29.086  1.00  0.00     0.029 A 
ATOM     56  C   UNL A   1      44.873  31.181  28.601  1.00  0.00     0.049 A 
ATOM     57  H   UNL A   1      44.585  29.122  28.240  1.00  0.00     0.167 HD
ATOM     58  C   UNL A   1      47.070  30.383  27.787  1.00  0.00     0.074 A 
ATOM     59  C   UNL A   1      48.441  30.590  27.379  1.00  0.00     0.031 C 
ATOM     60  C   UNL A   1      46.243  31.375  28.202  1.00  0.00     0.037 A 
BRANCH  47  61
ATOM     61  C   UNL A   1      40.498  29.501  29.415  1.00  0.00     0.058 A 
ATOM     62  C   UNL A   1      40.170  29.782  30.750  1.00  0.00     0.135 A 
ATOM     63  C   UNL A   1      39.501  29.680  28.442  1.00  0.00     0.135 A 
ATOM     64  F   UNL A   1      41.079  29.604  31.721  1.00  0.00    -0.206 F 
ATOM     65  C   UNL A   1      38.902  30.230  31.105  1.00  0.00     0.059 A 
ATOM     66  C   UNL A   1      38.234  30.151  28.770  1.00  0.00     0.059 A 
ATOM     67  F   UNL A   1      39.762  29.417  27.151  1.00  0.00    -0.206 F 
ATOM     68  C   UNL A   1      37.945  30.422  30.107  1.00  0.00     0.060 A 
BRANCH  68  69
ATOM     69  S   UNL A   1      36.324  31.063  30.580  1.00  0.00     0.124 S 
ATOM     70  O   UNL A   1      35.843  30.012  31.470  1.00  0.00    -0.237 OA
ATOM     71  O   UNL A   1      36.668  32.329  31.220  1.00  0.00    -0.237 OA
ATOM     72  O   UNL A   1      35.618  31.179  29.308  1.00  0.00    -0.744 OA
ENDBRANCH  68  69
ENDBRANCH  47  61
BRANCH  48  73
ATOM     73  C   UNL A   1      49.557  26.660  26.333  1.00  0.00     0.058 A 
ATOM     74  C   UNL A   1      49.870  26.826  24.974  1.00  0.00     0.135 A 
ATOM     75  C   UNL A   1      50.528  26.063  27.152  1.00  0.00     0.135 A 
ATOM     76  F   UNL A   1      48.971  27.371  24.141  1.00  0.00    -0.206 F 
ATOM     77  C   UNL A   1      51.082  26.390  24.443  1.00  0.00     0.059 A 
ATOM     78  C   UNL A   1      51.760  25.650  26.652  1.00  0.00     0.059 A 
ATOM     79  F   UNL A   1      50.286  25.880  28.460  1.00  0.00    -0.206 F 
ATOM     80  C   UNL A   1      52.021  25.802  25.292  1.00  0.00     0.060 A 
BRANCH  80  81
ATOM     81  S   UNL A   1      53.599  25.259  24.598  1.00  0.00     0.124 S 
ATOM     82  O   UNL A   1      53.532  23.817  24.808  1.00  0.00    -0.237 OA
ATOM     83  O   UNL A   1      53.494  25.709  23.214  1.00  0.00    -0.237 OA
ATOM     84  O   UNL A   1      54.583  25.971  25.408  1.00  0.00    -0.744 OA
ENDBRANCH  80  81
ENDBRANCH  48  73
BRANCH  60  85
ATOM     85  C   UNL A   1      46.795  32.776  28.261  1.00  0.00     0.058 A 
ATOM     86  C   UNL A   1      47.515  33.237  29.375  1.00  0.00     0.135 A 
ATOM     87  C   UNL A   1      46.669  33.641  27.162  1.00  0.00     0.135 A 
ATOM     88  F   UNL A   1      47.663  32.454  30.456  1.00  0.00    -0.206 F 
ATOM     89  C   UNL A   1      48.073  34.512  29.405  1.00  0.00     0.059 A 
ATOM     90  C   UNL A   1      47.245  34.909  27.157  1.00  0.00     0.059 A 
ATOM     91  F   UNL A   1      46.003  33.248  26.065  1.00  0.00    -0.206 F 
ATOM     92  C   UNL A   1      47.937  35.339  28.288  1.00  0.00     0.060 A 
BRANCH  92  93
ATOM     93  S   UNL A   1      48.704  36.973  28.324  1.00  0.00     0.124 S 
ATOM     94  O   UNL A   1      48.961  37.147  29.749  1.00  0.00    -0.237 OA
ATOM     95  O   UNL A   1      49.885  36.781  27.486  1.00  0.00    -0.237 OA
ATOM     96  O   UNL A   1      47.678  37.845  27.760  1.00  0.00    -0.744 OA
ENDBRANCH  92  93
ENDBRANCH  60  85
ENDBRANCH  34  35
ENDBRANCH  27  29
ENDBRANCH  26  27
ENDBRANCH  25  26
ENDBRANCH  24  25
ENDBRANCH  23  24
ENDBRANCH  22  23
ENDBRANCH   1  22
TORSDOF 23
ENDMDL
