MODEL 1
REMARK VINA RESULT:     -10.4      0.000      0.000
REMARK SMILES CC[C@H]1CC(=O)N(CCn2cc(C(=O)OCCOCCOCCOC(=O)c3ccc(-c4c5nc(c(-c6c(F)cc(S(=O)(=O)[O-])cc6F)c6ccc([nH]6)c(-c6c(F)cc(S(=O)(=O)[O-])cc6F)c6nc(c(-c7c(F)cc(S(=O)(=O)[O-])cc7F)c7ccc4[nH]7)C=C6)C=C5)cc3)nn2)C1
REMARK SMILES IDX 19 1 18 2 17 3 16 4 15 5 13 6 14 7 12 8 10 9 11 10 94 11
REMARK SMILES IDX 93 12 9 13 8 14 7 15 3 16 4 17 95 18 5 19 6 20 2 21 1 22
REMARK SMILES IDX 20 23 21 24 22 25 23 26 24 27 25 28 26 29 27 30 28 31 92 32
REMARK SMILES IDX 29 33 91 34 30 35 31 36 32 37 85 38 33 39 90 40 84 41 86 42
REMARK SMILES IDX 34 43 89 44 83 45 82 46 35 48 69 49 48 50 68 51 49 52 52 53
REMARK SMILES IDX 67 54 87 55 50 56 51 57 66 59 88 60 53 61 36 62 37 63 46 64
REMARK SMILES IDX 38 65 39 66 45 67 47 68 40 69 41 70 42 71 43 72 44 73 70 74
REMARK SMILES IDX 71 75 80 76 72 77 73 78 79 79 81 80 74 81 75 82 76 83 77 84
REMARK SMILES IDX 78 85 54 86 55 87 64 88 56 89 57 90 63 91 65 92 58 93 59 94
REMARK SMILES IDX 60 95 61 96 62 97
REMARK H PARENT 86 47 52 58
REMARK Flexibility Score: inf
ROOT
ATOM      1  C   UNL A   1      40.308  21.655  26.573  1.00  0.00     0.188 C 
ENDROOT
BRANCH   1   2
ATOM      2  O   UNL A   1      39.079  22.225  26.146  1.00  0.00    -0.376 OA
BRANCH   2   3
ATOM      3  C   UNL A   1      38.179  21.448  25.370  1.00  0.00     0.202 C 
BRANCH   3   4
ATOM      4  C   UNL A   1      37.153  22.139  24.452  1.00  0.00     0.261 C 
BRANCH   4   5
ATOM      5  O   UNL A   1      36.787  23.475  24.845  1.00  0.00    -0.458 OA
BRANCH   5   6
ATOM      6  C   UNL A   1      35.587  23.619  25.499  1.00  0.00     0.360 C 
ATOM      7  O   UNL A   1      35.269  22.977  26.481  1.00  0.00    -0.244 OA
BRANCH   6   8
ATOM      8  C   UNL A   1      34.715  24.615  24.868  1.00  0.00     0.190 A 
ATOM      9  N   UNL A   1      33.152  25.595  23.721  1.00  0.00    -0.250 N 
ATOM     10  C   UNL A   1      34.038  24.565  23.665  1.00  0.00     0.147 A 
ATOM     11  N   UNL A   1      33.477  26.419  24.735  1.00  0.00    -0.066 NA
ATOM     12  N   UNL A   1      34.410  25.815  25.463  1.00  0.00    -0.123 NA
BRANCH   9  13
ATOM     13  C   UNL A   1      31.918  25.826  23.000  1.00  0.00     0.167 C 
BRANCH  13  14
ATOM     14  C   UNL A   1      30.684  26.369  23.746  1.00  0.00     0.143 C 
BRANCH  14  15
ATOM     15  N   UNL A   1      30.142  27.650  23.286  1.00  0.00    -0.341 N 
ATOM     16  C   UNL A   1      28.552  29.175  22.442  1.00  0.00     0.017 C 
ATOM     17  C   UNL A   1      29.901  29.883  22.600  1.00  0.00     0.105 C 
ATOM     18  C   UNL A   1      28.736  27.919  23.266  1.00  0.00     0.123 C 
ATOM     19  C   UNL A   1      30.875  28.757  22.896  1.00  0.00     0.222 C 
ATOM     20  O   UNL A   1      32.091  28.842  22.847  1.00  0.00    -0.275 OA
BRANCH  16  21
ATOM     21  C   UNL A   1      27.347  29.980  22.949  1.00  0.00     0.002 C 
ATOM     22  C   UNL A   1      27.759  31.311  23.573  1.00  0.00     0.004 C 
ENDBRANCH  16  21
ENDBRANCH  14  15
ENDBRANCH  13  14
ENDBRANCH   9  13
ENDBRANCH   6   8
ENDBRANCH   5   6
ENDBRANCH   4   5
ENDBRANCH   3   4
ENDBRANCH   2   3
ENDBRANCH   1   2
BRANCH   1  23
ATOM     23  C   UNL A   1      40.712  20.241  26.105  1.00  0.00     0.188 C 
BRANCH  23  24
ATOM     24  O   UNL A   1      41.660  19.569  26.908  1.00  0.00    -0.376 OA
BRANCH  24  25
ATOM     25  C   UNL A   1      42.455  18.517  26.372  1.00  0.00     0.202 C 
BRANCH  25  26
ATOM     26  C   UNL A   1      43.674  18.731  25.470  1.00  0.00     0.261 C 
BRANCH  26  27
ATOM     27  O   UNL A   1      44.301  19.991  25.562  1.00  0.00    -0.460 OA
BRANCH  27  28
ATOM     28  C   UNL A   1      44.580  20.555  24.371  1.00  0.00     0.338 C 
ATOM     29  O   UNL A   1      44.584  20.005  23.278  1.00  0.00    -0.246 OA
BRANCH  28  30
ATOM     30  C   UNL A   1      44.891  21.963  24.588  1.00  0.00     0.060 A 
ATOM     31  C   UNL A   1      45.938  22.263  25.460  1.00  0.00     0.016 A 
ATOM     32  C   UNL A   1      43.941  22.908  24.183  1.00  0.00     0.016 A 
ATOM     33  C   UNL A   1      45.875  23.452  26.144  1.00  0.00     0.010 A 
ATOM     34  C   UNL A   1      43.863  24.077  24.886  1.00  0.00     0.010 A 
ATOM     35  C   UNL A   1      44.768  24.277  25.926  1.00  0.00    -0.014 A 
BRANCH  35  36
ATOM     36  C   UNL A   1      44.574  25.412  26.797  1.00  0.00     0.031 A 
ATOM     37  C   UNL A   1      45.636  26.423  26.632  1.00  0.00     0.074 A 
ATOM     38  C   UNL A   1      43.462  25.529  27.546  1.00  0.00     0.049 A 
ATOM     39  N   UNL A   1      46.561  26.733  27.475  1.00  0.00    -0.248 NA
ATOM     40  C   UNL A   1      45.833  26.994  25.287  1.00  0.00     0.031 C 
ATOM     41  C   UNL A   1      42.271  24.672  27.537  1.00  0.00     0.029 A 
ATOM     42  N   UNL A   1      43.109  26.516  28.409  1.00  0.00    -0.354 N 
ATOM     43  C   UNL A   1      47.280  27.748  26.857  1.00  0.00     0.074 A 
ATOM     44  C   UNL A   1      46.964  27.678  25.457  1.00  0.00     0.031 C 
ATOM     45  C   UNL A   1      41.255  25.310  28.164  1.00  0.00     0.029 A 
ATOM     46  C   UNL A   1      41.753  26.556  28.719  1.00  0.00     0.049 A 
ATOM     47  H   UNL A   1      43.760  27.153  28.784  1.00  0.00     0.167 HD
ATOM     48  C   UNL A   1      47.811  28.765  27.587  1.00  0.00     0.037 A 
ATOM     49  C   UNL A   1      41.101  27.594  29.309  1.00  0.00     0.037 A 
ATOM     50  C   UNL A   1      47.915  28.405  28.980  1.00  0.00     0.049 A 
ATOM     51  C   UNL A   1      42.138  28.439  29.967  1.00  0.00     0.074 A 
ATOM     52  C   UNL A   1      48.541  27.381  29.666  1.00  0.00     0.029 A 
ATOM     53  N   UNL A   1      46.974  28.916  29.842  1.00  0.00    -0.354 N 
ATOM     54  N   UNL A   1      42.843  28.046  30.994  1.00  0.00    -0.248 NA
ATOM     55  C   UNL A   1      42.737  29.506  29.179  1.00  0.00     0.031 C 
ATOM     56  C   UNL A   1      47.638  27.023  30.708  1.00  0.00     0.029 A 
ATOM     57  C   UNL A   1      46.549  27.894  30.655  1.00  0.00     0.049 A 
ATOM     58  H   UNL A   1      46.660  29.848  29.871  1.00  0.00     0.167 HD
ATOM     59  C   UNL A   1      44.133  28.486  30.732  1.00  0.00     0.074 A 
ATOM     60  C   UNL A   1      43.992  29.443  29.636  1.00  0.00     0.031 C 
ATOM     61  C   UNL A   1      45.220  27.816  31.220  1.00  0.00     0.037 A 
BRANCH  48  62
ATOM     62  C   UNL A   1      47.840  30.195  27.106  1.00  0.00     0.058 A 
ATOM     63  C   UNL A   1      49.045  30.917  27.179  1.00  0.00     0.135 A 
ATOM     64  C   UNL A   1      46.684  30.963  26.827  1.00  0.00     0.135 A 
ATOM     65  F   UNL A   1      50.198  30.292  27.461  1.00  0.00    -0.206 F 
ATOM     66  C   UNL A   1      49.089  32.305  27.043  1.00  0.00     0.059 A 
ATOM     67  C   UNL A   1      46.716  32.335  26.626  1.00  0.00     0.059 A 
ATOM     68  F   UNL A   1      45.450  30.445  26.833  1.00  0.00    -0.206 F 
ATOM     69  C   UNL A   1      47.916  33.003  26.775  1.00  0.00     0.060 A 
BRANCH  69  70
ATOM     70  S   UNL A   1      47.952  34.800  26.681  1.00  0.00     0.124 S 
ATOM     71  O   UNL A   1      49.064  35.113  27.570  1.00  0.00    -0.237 OA
ATOM     72  O   UNL A   1      48.185  35.020  25.258  1.00  0.00    -0.237 OA
ATOM     73  O   UNL A   1      46.629  35.188  27.161  1.00  0.00    -0.744 OA
ENDBRANCH  69  70
ENDBRANCH  48  62
BRANCH  49  74
ATOM     74  C   UNL A   1      39.729  28.102  29.021  1.00  0.00     0.058 A 
ATOM     75  C   UNL A   1      38.737  28.132  30.021  1.00  0.00     0.135 A 
ATOM     76  C   UNL A   1      39.444  28.830  27.849  1.00  0.00     0.135 A 
ATOM     77  F   UNL A   1      38.928  27.484  31.180  1.00  0.00    -0.206 F 
ATOM     78  C   UNL A   1      37.561  28.882  29.887  1.00  0.00     0.059 A 
ATOM     79  C   UNL A   1      38.275  29.575  27.689  1.00  0.00     0.059 A 
ATOM     80  F   UNL A   1      40.336  28.921  26.854  1.00  0.00    -0.206 F 
ATOM     81  C   UNL A   1      37.349  29.620  28.724  1.00  0.00     0.060 A 
BRANCH  81  82
ATOM     82  S   UNL A   1      35.929  30.736  28.614  1.00  0.00     0.124 S 
ATOM     83  O   UNL A   1      34.943  29.905  27.931  1.00  0.00    -0.237 OA
ATOM     84  O   UNL A   1      35.654  31.027  30.018  1.00  0.00    -0.237 OA
ATOM     85  O   UNL A   1      36.441  31.862  27.838  1.00  0.00    -0.744 OA
ENDBRANCH  81  82
ENDBRANCH  49  74
BRANCH  61  86
ATOM     86  C   UNL A   1      44.990  26.778  32.292  1.00  0.00     0.058 A 
ATOM     87  C   UNL A   1      44.888  27.049  33.670  1.00  0.00     0.135 A 
ATOM     88  C   UNL A   1      44.748  25.458  31.884  1.00  0.00     0.135 A 
ATOM     89  F   UNL A   1      44.986  28.303  34.137  1.00  0.00    -0.206 F 
ATOM     90  C   UNL A   1      44.625  26.041  34.601  1.00  0.00     0.059 A 
ATOM     91  C   UNL A   1      44.449  24.445  32.790  1.00  0.00     0.059 A 
ATOM     92  F   UNL A   1      44.762  25.145  30.579  1.00  0.00    -0.206 F 
ATOM     93  C   UNL A   1      44.415  24.738  34.150  1.00  0.00     0.060 A 
BRANCH  93  94
ATOM     94  S   UNL A   1      44.054  23.435  35.347  1.00  0.00     0.124 S 
ATOM     95  O   UNL A   1      42.600  23.504  35.445  1.00  0.00    -0.237 OA
ATOM     96  O   UNL A   1      44.591  22.245  34.694  1.00  0.00    -0.237 OA
ATOM     97  O   UNL A   1      44.780  23.859  36.543  1.00  0.00    -0.744 OA
ENDBRANCH  93  94
ENDBRANCH  61  86
ENDBRANCH  35  36
ENDBRANCH  28  30
ENDBRANCH  27  28
ENDBRANCH  26  27
ENDBRANCH  25  26
ENDBRANCH  24  25
ENDBRANCH  23  24
ENDBRANCH   1  23
TORSDOF 24
ENDMDL
MODEL 2
REMARK VINA RESULT:     -10.3      1.441      1.981
REMARK SMILES CC[C@H]1CC(=O)N(CCn2cc(C(=O)OCCOCCOCCOC(=O)c3ccc(-c4c5nc(c(-c6c(F)cc(S(=O)(=O)[O-])cc6F)c6ccc([nH]6)c(-c6c(F)cc(S(=O)(=O)[O-])cc6F)c6nc(c(-c7c(F)cc(S(=O)(=O)[O-])cc7F)c7ccc4[nH]7)C=C6)C=C5)cc3)nn2)C1
REMARK SMILES IDX 19 1 18 2 17 3 16 4 15 5 13 6 14 7 12 8 10 9 11 10 94 11
REMARK SMILES IDX 93 12 9 13 8 14 7 15 3 16 4 17 95 18 5 19 6 20 2 21 1 22
REMARK SMILES IDX 20 23 21 24 22 25 23 26 24 27 25 28 26 29 27 30 28 31 92 32
REMARK SMILES IDX 29 33 91 34 30 35 31 36 32 37 85 38 33 39 90 40 84 41 86 42
REMARK SMILES IDX 34 43 89 44 83 45 82 46 35 48 69 49 48 50 68 51 49 52 52 53
REMARK SMILES IDX 67 54 87 55 50 56 51 57 66 59 88 60 53 61 36 62 37 63 46 64
REMARK SMILES IDX 38 65 39 66 45 67 47 68 40 69 41 70 42 71 43 72 44 73 70 74
REMARK SMILES IDX 71 75 80 76 72 77 73 78 79 79 81 80 74 81 75 82 76 83 77 84
REMARK SMILES IDX 78 85 54 86 55 87 64 88 56 89 57 90 63 91 65 92 58 93 59 94
REMARK SMILES IDX 60 95 61 96 62 97
REMARK H PARENT 86 47 52 58
REMARK Flexibility Score: inf
ROOT
ATOM      1  C   UNL A   1      37.418  23.051  25.520  1.00  0.00     0.188 C 
ENDROOT
BRANCH   1   2
ATOM      2  O   UNL A   1      36.035  22.747  25.408  1.00  0.00    -0.376 OA
BRANCH   2   3
ATOM      3  C   UNL A   1      35.504  21.631  26.106  1.00  0.00     0.202 C 
BRANCH   3   4
ATOM      4  C   UNL A   1      34.415  21.834  27.176  1.00  0.00     0.261 C 
BRANCH   4   5
ATOM      5  O   UNL A   1      33.064  21.649  26.714  1.00  0.00    -0.458 OA
BRANCH   5   6
ATOM      6  C   UNL A   1      32.254  22.759  26.716  1.00  0.00     0.360 C 
ATOM      7  O   UNL A   1      31.485  23.034  27.616  1.00  0.00    -0.244 OA
BRANCH   6   8
ATOM      8  C   UNL A   1      32.397  23.565  25.500  1.00  0.00     0.190 A 
ATOM      9  N   UNL A   1      32.866  25.145  24.086  1.00  0.00    -0.250 N 
ATOM     10  C   UNL A   1      32.383  24.936  25.340  1.00  0.00     0.147 A 
ATOM     11  N   UNL A   1      32.871  23.985  23.402  1.00  0.00    -0.066 NA
ATOM     12  N   UNL A   1      32.617  23.007  24.264  1.00  0.00    -0.123 NA
BRANCH   9  13
ATOM     13  C   UNL A   1      33.473  26.315  23.485  1.00  0.00     0.167 C 
BRANCH  13  14
ATOM     14  C   UNL A   1      32.719  27.089  22.386  1.00  0.00     0.143 C 
BRANCH  14  15
ATOM     15  N   UNL A   1      31.719  28.063  22.829  1.00  0.00    -0.341 N 
ATOM     16  C   UNL A   1      29.804  29.438  22.715  1.00  0.00     0.017 C 
ATOM     17  C   UNL A   1      30.537  29.697  24.035  1.00  0.00     0.105 C 
ATOM     18  C   UNL A   1      30.414  28.135  22.245  1.00  0.00     0.123 C 
ATOM     19  C   UNL A   1      31.856  28.961  23.874  1.00  0.00     0.222 C 
ATOM     20  O   UNL A   1      32.839  29.107  24.582  1.00  0.00    -0.275 OA
BRANCH  16  21
ATOM     21  C   UNL A   1      28.281  29.303  22.850  1.00  0.00     0.002 C 
ATOM     22  C   UNL A   1      27.636  30.554  23.443  1.00  0.00     0.004 C 
ENDBRANCH  16  21
ENDBRANCH  14  15
ENDBRANCH  13  14
ENDBRANCH   9  13
ENDBRANCH   6   8
ENDBRANCH   5   6
ENDBRANCH   4   5
ENDBRANCH   3   4
ENDBRANCH   2   3
ENDBRANCH   1   2
BRANCH   1  23
ATOM     23  C   UNL A   1      38.439  21.929  25.800  1.00  0.00     0.188 C 
BRANCH  23  24
ATOM     24  O   UNL A   1      39.707  22.345  26.262  1.00  0.00    -0.376 OA
BRANCH  24  25
ATOM     25  C   UNL A   1      40.405  21.597  27.253  1.00  0.00     0.202 C 
BRANCH  25  26
ATOM     26  C   UNL A   1      41.592  20.675  26.958  1.00  0.00     0.261 C 
BRANCH  26  27
ATOM     27  O   UNL A   1      42.061  20.672  25.628  1.00  0.00    -0.460 OA
BRANCH  27  28
ATOM     28  C   UNL A   1      43.403  20.715  25.518  1.00  0.00     0.338 C 
ATOM     29  O   UNL A   1      44.160  19.767  25.358  1.00  0.00    -0.246 OA
BRANCH  28  30
ATOM     30  C   UNL A   1      43.831  22.104  25.626  1.00  0.00     0.060 A 
ATOM     31  C   UNL A   1      44.785  22.410  26.597  1.00  0.00     0.016 A 
ATOM     32  C   UNL A   1      43.045  23.077  24.997  1.00  0.00     0.016 A 
ATOM     33  C   UNL A   1      44.763  23.672  27.137  1.00  0.00     0.010 A 
ATOM     34  C   UNL A   1      43.002  24.323  25.556  1.00  0.00     0.010 A 
ATOM     35  C   UNL A   1      43.785  24.562  26.683  1.00  0.00    -0.014 A 
BRANCH  35  36
ATOM     36  C   UNL A   1      43.604  25.804  27.394  1.00  0.00     0.031 A 
ATOM     37  C   UNL A   1      44.695  26.761  27.124  1.00  0.00     0.074 A 
ATOM     38  C   UNL A   1      42.480  26.045  28.097  1.00  0.00     0.049 A 
ATOM     39  N   UNL A   1      45.611  27.156  27.941  1.00  0.00    -0.248 NA
ATOM     40  C   UNL A   1      44.934  27.146  25.722  1.00  0.00     0.031 C 
ATOM     41  C   UNL A   1      41.268  25.222  28.171  1.00  0.00     0.029 A 
ATOM     42  N   UNL A   1      42.137  27.144  28.815  1.00  0.00    -0.354 N 
ATOM     43  C   UNL A   1      46.368  28.065  27.213  1.00  0.00     0.074 A 
ATOM     44  C   UNL A   1      46.079  27.820  25.827  1.00  0.00     0.031 C 
ATOM     45  C   UNL A   1      40.257  25.960  28.687  1.00  0.00     0.029 A 
ATOM     46  C   UNL A   1      40.776  27.255  29.087  1.00  0.00     0.049 A 
ATOM     47  H   UNL A   1      42.796  27.808  29.120  1.00  0.00     0.167 HD
ATOM     48  C   UNL A   1      46.911  29.155  27.817  1.00  0.00     0.037 A 
ATOM     49  C   UNL A   1      40.140  28.376  29.521  1.00  0.00     0.037 A 
ATOM     50  C   UNL A   1      46.978  28.977  29.247  1.00  0.00     0.049 A 
ATOM     51  C   UNL A   1      41.186  29.275  30.088  1.00  0.00     0.074 A 
ATOM     52  C   UNL A   1      47.563  28.038  30.075  1.00  0.00     0.029 A 
ATOM     53  N   UNL A   1      46.033  29.618  30.014  1.00  0.00    -0.354 N 
ATOM     54  N   UNL A   1      41.859  29.003  31.174  1.00  0.00    -0.248 NA
ATOM     55  C   UNL A   1      41.828  30.217  29.182  1.00  0.00     0.031 C 
ATOM     56  C   UNL A   1      46.631  27.840  31.133  1.00  0.00     0.029 A 
ATOM     57  C   UNL A   1      45.567  28.722  30.943  1.00  0.00     0.049 A 
ATOM     58  H   UNL A   1      45.744  30.553  29.915  1.00  0.00     0.167 HD
ATOM     59  C   UNL A   1      43.166  29.375  30.887  1.00  0.00     0.074 A 
ATOM     60  C   UNL A   1      43.071  30.184  29.673  1.00  0.00     0.031 C 
ATOM     61  C   UNL A   1      44.225  28.749  31.482  1.00  0.00     0.037 A 
BRANCH  48  62
ATOM     62  C   UNL A   1      46.987  30.509  27.155  1.00  0.00     0.058 A 
ATOM     63  C   UNL A   1      48.211  31.204  27.157  1.00  0.00     0.135 A 
ATOM     64  C   UNL A   1      45.857  31.264  26.759  1.00  0.00     0.135 A 
ATOM     65  F   UNL A   1      49.342  30.591  27.538  1.00  0.00    -0.206 F 
ATOM     66  C   UNL A   1      48.296  32.561  26.843  1.00  0.00     0.059 A 
ATOM     67  C   UNL A   1      45.930  32.597  26.382  1.00  0.00     0.059 A 
ATOM     68  F   UNL A   1      44.609  30.783  26.810  1.00  0.00    -0.206 F 
ATOM     69  C   UNL A   1      47.146  33.248  26.465  1.00  0.00     0.060 A 
BRANCH  69  70
ATOM     70  S   UNL A   1      47.234  35.016  26.140  1.00  0.00     0.124 S 
ATOM     71  O   UNL A   1      48.333  35.080  25.185  1.00  0.00    -0.237 OA
ATOM     72  O   UNL A   1      45.903  35.288  25.607  1.00  0.00    -0.237 OA
ATOM     73  O   UNL A   1      47.504  35.587  27.456  1.00  0.00    -0.744 OA
ENDBRANCH  69  70
ENDBRANCH  48  62
BRANCH  49  74
ATOM     74  C   UNL A   1      38.788  28.874  29.139  1.00  0.00     0.058 A 
ATOM     75  C   UNL A   1      37.809  29.153  30.113  1.00  0.00     0.135 A 
ATOM     76  C   UNL A   1      38.520  29.357  27.843  1.00  0.00     0.135 A 
ATOM     77  F   UNL A   1      37.986  28.750  31.381  1.00  0.00    -0.206 F 
ATOM     78  C   UNL A   1      36.665  29.911  29.831  1.00  0.00     0.059 A 
ATOM     79  C   UNL A   1      37.383  30.105  27.536  1.00  0.00     0.059 A 
ATOM     80  F   UNL A   1      39.404  29.202  26.847  1.00  0.00    -0.206 F 
ATOM     81  C   UNL A   1      36.471  30.402  28.541  1.00  0.00     0.060 A 
BRANCH  81  82
ATOM     82  S   UNL A   1      35.099  31.534  28.207  1.00  0.00     0.124 S 
ATOM     83  O   UNL A   1      35.780  32.657  27.573  1.00  0.00    -0.237 OA
ATOM     84  O   UNL A   1      34.243  30.733  27.338  1.00  0.00    -0.237 OA
ATOM     85  O   UNL A   1      34.552  31.804  29.535  1.00  0.00    -0.744 OA
ENDBRANCH  81  82
ENDBRANCH  49  74
BRANCH  61  86
ATOM     86  C   UNL A   1      43.947  27.865  32.675  1.00  0.00     0.058 A 
ATOM     87  C   UNL A   1      43.719  28.326  33.985  1.00  0.00     0.135 A 
ATOM     88  C   UNL A   1      43.791  26.490  32.448  1.00  0.00     0.135 A 
ATOM     89  F   UNL A   1      43.728  29.636  34.268  1.00  0.00    -0.206 F 
ATOM     90  C   UNL A   1      43.418  27.449  35.031  1.00  0.00     0.059 A 
ATOM     91  C   UNL A   1      43.458  25.603  33.466  1.00  0.00     0.059 A 
ATOM     92  F   UNL A   1      43.927  25.994  31.207  1.00  0.00    -0.206 F 
ATOM     93  C   UNL A   1      43.298  26.086  34.762  1.00  0.00     0.060 A 
BRANCH  93  94
ATOM     94  S   UNL A   1      42.890  24.952  36.106  1.00  0.00     0.124 S 
ATOM     95  O   UNL A   1      43.286  25.717  37.283  1.00  0.00    -0.237 OA
ATOM     96  O   UNL A   1      41.454  24.753  35.931  1.00  0.00    -0.237 OA
ATOM     97  O   UNL A   1      43.711  23.776  35.822  1.00  0.00    -0.744 OA
ENDBRANCH  93  94
ENDBRANCH  61  86
ENDBRANCH  35  36
ENDBRANCH  28  30
ENDBRANCH  27  28
ENDBRANCH  26  27
ENDBRANCH  25  26
ENDBRANCH  24  25
ENDBRANCH  23  24
ENDBRANCH   1  23
TORSDOF 24
ENDMDL
MODEL 3
REMARK VINA RESULT:      -9.9      2.254      2.910
REMARK SMILES CC[C@H]1CC(=O)N(CCn2cc(C(=O)OCCOCCOCCOC(=O)c3ccc(-c4c5nc(c(-c6c(F)cc(S(=O)(=O)[O-])cc6F)c6ccc([nH]6)c(-c6c(F)cc(S(=O)(=O)[O-])cc6F)c6nc(c(-c7c(F)cc(S(=O)(=O)[O-])cc7F)c7ccc4[nH]7)C=C6)C=C5)cc3)nn2)C1
REMARK SMILES IDX 19 1 18 2 17 3 16 4 15 5 13 6 14 7 12 8 10 9 11 10 94 11
REMARK SMILES IDX 93 12 9 13 8 14 7 15 3 16 4 17 95 18 5 19 6 20 2 21 1 22
REMARK SMILES IDX 20 23 21 24 22 25 23 26 24 27 25 28 26 29 27 30 28 31 92 32
REMARK SMILES IDX 29 33 91 34 30 35 31 36 32 37 85 38 33 39 90 40 84 41 86 42
REMARK SMILES IDX 34 43 89 44 83 45 82 46 35 48 69 49 48 50 68 51 49 52 52 53
REMARK SMILES IDX 67 54 87 55 50 56 51 57 66 59 88 60 53 61 36 62 37 63 46 64
REMARK SMILES IDX 38 65 39 66 45 67 47 68 40 69 41 70 42 71 43 72 44 73 70 74
REMARK SMILES IDX 71 75 80 76 72 77 73 78 79 79 81 80 74 81 75 82 76 83 77 84
REMARK SMILES IDX 78 85 54 86 55 87 64 88 56 89 57 90 63 91 65 92 58 93 59 94
REMARK SMILES IDX 60 95 61 96 62 97
REMARK H PARENT 86 47 52 58
REMARK Flexibility Score: inf
ROOT
ATOM      1  C   UNL A   1      40.414  21.084  26.136  1.00  0.00     0.188 C 
ENDROOT
BRANCH   1   2
ATOM      2  O   UNL A   1      39.138  21.682  26.316  1.00  0.00    -0.376 OA
BRANCH   2   3
ATOM      3  C   UNL A   1      38.114  21.450  25.361  1.00  0.00     0.202 C 
BRANCH   3   4
ATOM      4  C   UNL A   1      36.769  22.192  25.472  1.00  0.00     0.261 C 
BRANCH   4   5
ATOM      5  O   UNL A   1      35.772  21.528  26.270  1.00  0.00    -0.458 OA
BRANCH   5   6
ATOM      6  C   UNL A   1      34.656  21.072  25.609  1.00  0.00     0.360 C 
ATOM      7  O   UNL A   1      34.626  20.044  24.963  1.00  0.00    -0.244 OA
BRANCH   6   8
ATOM      8  C   UNL A   1      33.509  21.975  25.747  1.00  0.00     0.190 A 
ATOM      9  N   UNL A   1      32.237  23.731  25.856  1.00  0.00    -0.250 N 
ATOM     10  C   UNL A   1      33.449  23.260  26.251  1.00  0.00     0.147 A 
ATOM     11  N   UNL A   1      31.470  22.711  25.425  1.00  0.00    -0.066 NA
ATOM     12  N   UNL A   1      32.247  21.639  25.324  1.00  0.00    -0.123 NA
BRANCH   9  13
ATOM     13  C   UNL A   1      31.750  25.086  25.702  1.00  0.00     0.167 C 
BRANCH  13  14
ATOM     14  C   UNL A   1      32.706  26.193  25.215  1.00  0.00     0.143 C 
BRANCH  14  15
ATOM     15  N   UNL A   1      32.138  27.534  25.050  1.00  0.00    -0.341 N 
ATOM     16  C   UNL A   1      31.126  29.360  23.952  1.00  0.00     0.017 C 
ATOM     17  C   UNL A   1      31.474  29.761  25.389  1.00  0.00     0.105 C 
ATOM     18  C   UNL A   1      31.226  27.851  23.993  1.00  0.00     0.123 C 
ATOM     19  C   UNL A   1      32.333  28.615  25.893  1.00  0.00     0.222 C 
ATOM     20  O   UNL A   1      33.026  28.638  26.896  1.00  0.00    -0.275 OA
BRANCH  16  21
ATOM     21  C   UNL A   1      29.727  29.794  23.492  1.00  0.00     0.002 C 
ATOM     22  C   UNL A   1      29.641  29.970  21.978  1.00  0.00     0.004 C 
ENDBRANCH  16  21
ENDBRANCH  14  15
ENDBRANCH  13  14
ENDBRANCH   9  13
ENDBRANCH   6   8
ENDBRANCH   5   6
ENDBRANCH   4   5
ENDBRANCH   3   4
ENDBRANCH   2   3
ENDBRANCH   1   2
BRANCH   1  23
ATOM     23  C   UNL A   1      40.555  19.547  26.117  1.00  0.00     0.188 C 
BRANCH  23  24
ATOM     24  O   UNL A   1      41.807  19.045  25.699  1.00  0.00    -0.376 OA
BRANCH  24  25
ATOM     25  C   UNL A   1      43.020  19.639  26.150  1.00  0.00     0.202 C 
BRANCH  25  26
ATOM     26  C   UNL A   1      44.051  20.298  25.229  1.00  0.00     0.261 C 
BRANCH  26  27
ATOM     27  O   UNL A   1      43.762  21.615  24.815  1.00  0.00    -0.460 OA
BRANCH  27  28
ATOM     28  C   UNL A   1      44.501  22.559  25.430  1.00  0.00     0.338 C 
ATOM     29  O   UNL A   1      45.704  22.748  25.309  1.00  0.00    -0.246 OA
BRANCH  28  30
ATOM     30  C   UNL A   1      43.625  23.342  26.292  1.00  0.00     0.060 A 
ATOM     31  C   UNL A   1      42.778  24.267  25.680  1.00  0.00     0.016 A 
ATOM     32  C   UNL A   1      43.910  23.360  27.663  1.00  0.00     0.016 A 
ATOM     33  C   UNL A   1      42.426  25.382  26.400  1.00  0.00     0.010 A 
ATOM     34  C   UNL A   1      43.584  24.484  28.369  1.00  0.00     0.010 A 
ATOM     35  C   UNL A   1      42.942  25.518  27.692  1.00  0.00    -0.014 A 
BRANCH  35  36
ATOM     36  C   UNL A   1      42.768  26.780  28.371  1.00  0.00     0.031 A 
ATOM     37  C   UNL A   1      43.891  27.704  28.119  1.00  0.00     0.074 A 
ATOM     38  C   UNL A   1      41.628  27.062  29.029  1.00  0.00     0.049 A 
ATOM     39  N   UNL A   1      44.788  28.095  28.958  1.00  0.00    -0.248 NA
ATOM     40  C   UNL A   1      44.186  28.054  26.717  1.00  0.00     0.031 C 
ATOM     41  C   UNL A   1      40.393  26.270  29.079  1.00  0.00     0.029 A 
ATOM     42  N   UNL A   1      41.287  28.184  29.713  1.00  0.00    -0.354 N 
ATOM     43  C   UNL A   1      45.592  28.970  28.238  1.00  0.00     0.074 A 
ATOM     44  C   UNL A   1      45.343  28.702  26.848  1.00  0.00     0.031 C 
ATOM     45  C   UNL A   1      39.384  27.043  29.544  1.00  0.00     0.029 A 
ATOM     46  C   UNL A   1      39.921  28.334  29.935  1.00  0.00     0.049 A 
ATOM     47  H   UNL A   1      41.952  28.839  30.026  1.00  0.00     0.167 HD
ATOM     48  C   UNL A   1      46.140  30.060  28.838  1.00  0.00     0.037 A 
ATOM     49  C   UNL A   1      39.298  29.479  30.324  1.00  0.00     0.037 A 
ATOM     50  C   UNL A   1      46.154  29.911  30.272  1.00  0.00     0.049 A 
ATOM     51  C   UNL A   1      40.346  30.364  30.907  1.00  0.00     0.074 A 
ATOM     52  C   UNL A   1      46.688  28.976  31.139  1.00  0.00     0.029 A 
ATOM     53  N   UNL A   1      45.200  30.591  30.993  1.00  0.00    -0.354 N 
ATOM     54  N   UNL A   1      40.976  30.100  32.021  1.00  0.00    -0.248 NA
ATOM     55  C   UNL A   1      41.042  31.271  30.005  1.00  0.00     0.031 C 
ATOM     56  C   UNL A   1      45.716  28.823  32.168  1.00  0.00     0.029 A 
ATOM     57  C   UNL A   1      44.681  29.726  31.923  1.00  0.00     0.049 A 
ATOM     58  H   UNL A   1      44.937  31.530  30.864  1.00  0.00     0.167 HD
ATOM     59  C   UNL A   1      42.300  30.434  31.772  1.00  0.00     0.074 A 
ATOM     60  C   UNL A   1      42.266  31.219  30.539  1.00  0.00     0.031 C 
ATOM     61  C   UNL A   1      43.322  29.796  32.416  1.00  0.00     0.037 A 
BRANCH  48  62
ATOM     62  C   UNL A   1      46.272  31.397  28.151  1.00  0.00     0.058 A 
ATOM     63  C   UNL A   1      47.505  32.073  28.200  1.00  0.00     0.135 A 
ATOM     64  C   UNL A   1      45.176  32.159  27.680  1.00  0.00     0.135 A 
ATOM     65  F   UNL A   1      48.605  31.452  28.652  1.00  0.00    -0.206 F 
ATOM     66  C   UNL A   1      47.627  33.421  27.861  1.00  0.00     0.059 A 
ATOM     67  C   UNL A   1      45.289  33.482  27.278  1.00  0.00     0.059 A 
ATOM     68  F   UNL A   1      43.919  31.698  27.677  1.00  0.00    -0.206 F 
ATOM     69  C   UNL A   1      46.510  34.117  27.409  1.00  0.00     0.060 A 
BRANCH  69  70
ATOM     70  S   UNL A   1      46.642  35.875  27.050  1.00  0.00     0.124 S 
ATOM     71  O   UNL A   1      46.497  35.885  25.600  1.00  0.00    -0.237 OA
ATOM     72  O   UNL A   1      45.524  36.420  27.812  1.00  0.00    -0.237 OA
ATOM     73  O   UNL A   1      47.967  36.222  27.556  1.00  0.00    -0.744 OA
ENDBRANCH  69  70
ENDBRANCH  48  62
BRANCH  49  74
ATOM     74  C   UNL A   1      37.972  30.000  29.885  1.00  0.00     0.058 A 
ATOM     75  C   UNL A   1      37.095  30.623  30.795  1.00  0.00     0.135 A 
ATOM     76  C   UNL A   1      37.657  30.157  28.521  1.00  0.00     0.135 A 
ATOM     77  F   UNL A   1      37.325  30.545  32.114  1.00  0.00    -0.206 F 
ATOM     78  C   UNL A   1      36.006  31.398  30.374  1.00  0.00     0.059 A 
ATOM     79  C   UNL A   1      36.573  30.915  28.079  1.00  0.00     0.059 A 
ATOM     80  F   UNL A   1      38.451  29.658  27.563  1.00  0.00    -0.206 F 
ATOM     81  C   UNL A   1      35.766  31.557  29.010  1.00  0.00     0.060 A 
BRANCH  81  82
ATOM     82  S   UNL A   1      34.480  32.701  28.451  1.00  0.00     0.124 S 
ATOM     83  O   UNL A   1      33.997  33.252  29.713  1.00  0.00    -0.237 OA
ATOM     84  O   UNL A   1      35.231  33.618  27.600  1.00  0.00    -0.237 OA
ATOM     85  O   UNL A   1      33.538  31.835  27.747  1.00  0.00    -0.744 OA
ENDBRANCH  81  82
ENDBRANCH  49  74
BRANCH  61  86
ATOM     86  C   UNL A   1      42.983  28.945  33.616  1.00  0.00     0.058 A 
ATOM     87  C   UNL A   1      42.778  29.434  34.920  1.00  0.00     0.135 A 
ATOM     88  C   UNL A   1      42.741  27.580  33.403  1.00  0.00     0.135 A 
ATOM     89  F   UNL A   1      42.870  30.744  35.190  1.00  0.00    -0.206 F 
ATOM     90  C   UNL A   1      42.418  28.590  35.974  1.00  0.00     0.059 A 
ATOM     91  C   UNL A   1      42.346  26.728  34.429  1.00  0.00     0.059 A 
ATOM     92  F   UNL A   1      42.850  27.063  32.168  1.00  0.00    -0.206 F 
ATOM     93  C   UNL A   1      42.211  27.235  35.719  1.00  0.00     0.060 A 
BRANCH  93  94
ATOM     94  S   UNL A   1      41.725  26.143  37.072  1.00  0.00     0.124 S 
ATOM     95  O   UNL A   1      41.683  24.841  36.415  1.00  0.00    -0.237 OA
ATOM     96  O   UNL A   1      42.802  26.333  38.038  1.00  0.00    -0.237 OA
ATOM     97  O   UNL A   1      40.427  26.672  37.488  1.00  0.00    -0.744 OA
ENDBRANCH  93  94
ENDBRANCH  61  86
ENDBRANCH  35  36
ENDBRANCH  28  30
ENDBRANCH  27  28
ENDBRANCH  26  27
ENDBRANCH  25  26
ENDBRANCH  24  25
ENDBRANCH  23  24
ENDBRANCH   1  23
TORSDOF 24
ENDMDL
