MODEL 1
REMARK VINA RESULT:     -10.6      0.000      0.000
REMARK SMILES Cc1c(/C=C/C(=O)OCCOCCOCCOC(=O)c2ccc(-c3c4nc(c(-c5c(F)cc(S(=O)(=O)[O-])cc5F)c5ccc([nH]5)c(-c5c(F)cc(S(=O)(=O)[O-])cc5F)c5nc(c(-c6c(F)cc(S(=O)(=O)[O-])cc6F)c6ccc3[nH]6)C=C5)C=C4)cc2)cccc1C(=O)N1C[C@@H](C)[C@@H](C)C1
REMARK SMILES IDX 12 1 11 2 10 3 9 4 8 5 6 6 7 7 5 8 4 9 3 10 1 11 2 12 89 13
REMARK SMILES IDX 86 14 88 15 87 16 90 17 91 18 92 19 93 20 98 21 94 22 96 23
REMARK SMILES IDX 95 24 97 25 13 26 14 27 15 28 16 29 17 30 18 31 19 32 20 33
REMARK SMILES IDX 21 34 85 35 22 36 84 37 23 38 24 39 25 40 78 41 26 42 83 43
REMARK SMILES IDX 77 44 79 45 27 46 82 47 76 48 75 49 28 51 62 52 41 53 61 54
REMARK SMILES IDX 42 55 45 56 60 57 80 58 43 59 44 60 59 62 81 63 46 64 29 65
REMARK SMILES IDX 30 66 39 67 31 68 32 69 38 70 40 71 33 72 34 73 35 74 36 75
REMARK SMILES IDX 37 76 63 77 64 78 73 79 65 80 66 81 72 82 74 83 67 84 68 85
REMARK SMILES IDX 69 86 70 87 71 88 47 89 48 90 57 91 49 92 50 93 56 94 58 95
REMARK SMILES IDX 51 96 52 97 53 98 54 99 55 100
REMARK H PARENT 79 50 45 61
REMARK Flexibility Score: inf
ROOT
ATOM      1  C   UNL A   1      36.189  33.129  29.618  1.00  0.00     0.188 C 
ENDROOT
BRANCH   1   2
ATOM      2  O   UNL A   1      35.958  31.811  29.070  1.00  0.00    -0.376 OA
BRANCH   2   3
ATOM      3  C   UNL A   1      35.364  31.562  27.787  1.00  0.00     0.202 C 
BRANCH   3   4
ATOM      4  C   UNL A   1      34.048  30.635  27.607  1.00  0.00     0.261 C 
BRANCH   4   5
ATOM      5  O   UNL A   1      33.185  30.086  26.236  1.00  0.00    -0.460 OA
BRANCH   5   6
ATOM      6  C   UNL A   1      31.868  30.114  25.710  1.00  0.00     0.330 C 
ATOM      7  O   UNL A   1      31.069  31.026  25.509  1.00  0.00    -0.247 OA
BRANCH   6   8
ATOM      8  C   UNL A   1      31.214  28.898  25.329  1.00  0.00     0.094 C 
ATOM      9  C   UNL A   1      31.972  27.778  25.359  1.00  0.00     0.016 C 
BRANCH   9  10
ATOM     10  C   UNL A   1      31.593  26.635  24.523  1.00  0.00    -0.022 A 
ATOM     11  C   UNL A   1      34.042  26.208  24.187  1.00  0.00     0.046 C 
ATOM     12  C   UNL A   1      32.601  25.786  24.035  1.00  0.00    -0.031 A 
ATOM     13  C   UNL A   1      32.226  24.574  23.436  1.00  0.00     0.043 A 
ATOM     14  C   UNL A   1      30.244  26.372  24.237  1.00  0.00     0.008 A 
ATOM     15  C   UNL A   1      30.879  24.312  23.147  1.00  0.00     0.014 A 
ATOM     16  C   UNL A   1      29.890  25.222  23.527  1.00  0.00     0.001 A 
BRANCH  13  17
ATOM     17  C   UNL A   1      33.262  23.649  22.926  1.00  0.00     0.254 C 
ATOM     18  O   UNL A   1      33.684  23.832  21.785  1.00  0.00    -0.269 OA
BRANCH  17  19
ATOM     19  N   UNL A   1      33.826  22.736  23.801  1.00  0.00    -0.338 N 
ATOM     20  C   UNL A   1      35.258  22.570  23.812  1.00  0.00     0.123 C 
ATOM     21  C   UNL A   1      33.163  21.864  24.768  1.00  0.00     0.123 C 
ATOM     22  C   UNL A   1      35.536  21.355  24.685  1.00  0.00     0.010 C 
ATOM     23  C   UNL A   1      34.292  21.224  25.596  1.00  0.00     0.010 C 
ATOM     24  C   UNL A   1      36.884  21.484  25.382  1.00  0.00     0.010 C 
ATOM     25  C   UNL A   1      34.429  21.836  26.990  1.00  0.00     0.010 C 
ENDBRANCH  17  19
ENDBRANCH  13  17
ENDBRANCH   9  10
ENDBRANCH   6   8
ENDBRANCH   5   6
ENDBRANCH   4   5
ENDBRANCH   3   4
ENDBRANCH   2   3
ENDBRANCH   1   2
BRANCH   1  26
ATOM     26  C   UNL A   1      35.137  33.852  30.457  1.00  0.00     0.188 C 
BRANCH  26  27
ATOM     27  O   UNL A   1      35.501  33.790  31.821  1.00  0.00    -0.376 OA
BRANCH  27  28
ATOM     28  C   UNL A   1      36.841  33.481  32.118  1.00  0.00     0.202 C 
BRANCH  28  29
ATOM     29  C   UNL A   1      37.447  34.480  33.110  1.00  0.00     0.261 C 
BRANCH  29  30
ATOM     30  O   UNL A   1      37.413  33.976  34.469  1.00  0.00    -0.460 OA
BRANCH  30  31
ATOM     31  C   UNL A   1      38.515  33.277  34.925  1.00  0.00     0.338 C 
ATOM     32  O   UNL A   1      38.467  32.079  35.161  1.00  0.00    -0.246 OA
BRANCH  31  33
ATOM     33  C   UNL A   1      39.747  34.144  34.925  1.00  0.00     0.060 A 
ATOM     34  C   UNL A   1      39.889  35.517  35.176  1.00  0.00     0.016 A 
ATOM     35  C   UNL A   1      40.861  33.548  34.453  1.00  0.00     0.016 A 
ATOM     36  C   UNL A   1      41.081  36.289  34.766  1.00  0.00     0.010 A 
ATOM     37  C   UNL A   1      41.822  34.370  33.863  1.00  0.00     0.010 A 
ATOM     38  C   UNL A   1      42.114  35.751  33.986  1.00  0.00    -0.014 A 
BRANCH  38  39
ATOM     39  C   UNL A   1      43.385  36.588  33.219  1.00  0.00     0.031 A 
ATOM     40  C   UNL A   1      43.864  38.254  33.195  1.00  0.00     0.074 A 
ATOM     41  C   UNL A   1      44.074  35.924  32.268  1.00  0.00     0.049 A 
ATOM     42  N   UNL A   1      43.936  39.019  32.114  1.00  0.00    -0.248 NA
ATOM     43  C   UNL A   1      44.192  39.164  34.357  1.00  0.00     0.031 C 
ATOM     44  C   UNL A   1      45.249  36.403  31.544  1.00  0.00     0.029 A 
ATOM     45  N   UNL A   1      43.760  34.709  31.659  1.00  0.00    -0.354 N 
ATOM     46  C   UNL A   1      44.284  40.326  32.522  1.00  0.00     0.074 A 
ATOM     47  C   UNL A   1      44.124  40.402  33.918  1.00  0.00     0.031 C 
ATOM     48  C   UNL A   1      45.397  35.661  30.438  1.00  0.00     0.029 A 
ATOM     49  C   UNL A   1      44.258  34.766  30.348  1.00  0.00     0.049 A 
ATOM     50  H   UNL A   1      43.281  33.955  32.071  1.00  0.00     0.167 HD
ATOM     51  C   UNL A   1      45.016  41.259  31.851  1.00  0.00     0.037 A 
ATOM     52  C   UNL A   1      43.415  34.628  29.285  1.00  0.00     0.037 A 
ATOM     53  C   UNL A   1      45.505  40.710  30.629  1.00  0.00     0.049 A 
ATOM     54  C   UNL A   1      43.358  35.852  28.393  1.00  0.00     0.074 A 
ATOM     55  C   UNL A   1      46.640  40.006  30.280  1.00  0.00     0.029 A 
ATOM     56  N   UNL A   1      44.570  40.465  29.665  1.00  0.00    -0.354 N 
ATOM     57  N   UNL A   1      44.090  36.924  28.551  1.00  0.00    -0.248 NA
ATOM     58  C   UNL A   1      42.416  35.990  27.279  1.00  0.00     0.031 C 
ATOM     59  C   UNL A   1      46.330  39.265  29.101  1.00  0.00     0.029 A 
ATOM     60  C   UNL A   1      45.033  39.572  28.732  1.00  0.00     0.049 A 
ATOM     61  H   UNL A   1      43.676  40.878  29.640  1.00  0.00     0.167 HD
ATOM     62  C   UNL A   1      43.659  37.892  27.683  1.00  0.00     0.074 A 
ATOM     63  C   UNL A   1      42.643  37.251  26.876  1.00  0.00     0.031 C 
ATOM     64  C   UNL A   1      44.097  39.180  27.705  1.00  0.00     0.037 A 
BRANCH  51  65
ATOM     65  C   UNL A   1      45.516  42.504  32.573  1.00  0.00     0.058 A 
ATOM     66  C   UNL A   1      46.825  42.589  33.075  1.00  0.00     0.135 A 
ATOM     67  C   UNL A   1      44.656  43.573  32.939  1.00  0.00     0.135 A 
ATOM     68  F   UNL A   1      47.733  41.647  32.786  1.00  0.00    -0.206 F 
ATOM     69  C   UNL A   1      47.230  43.604  33.952  1.00  0.00     0.059 A 
ATOM     70  C   UNL A   1      45.025  44.571  33.852  1.00  0.00     0.059 A 
ATOM     71  F   UNL A   1      43.383  43.595  32.506  1.00  0.00    -0.206 F 
ATOM     72  C   UNL A   1      46.316  44.573  34.363  1.00  0.00     0.060 A 
BRANCH  72  73
ATOM     73  S   UNL A   1      46.803  45.757  35.646  1.00  0.00     0.124 S 
ATOM     74  O   UNL A   1      48.245  45.867  35.447  1.00  0.00    -0.237 OA
ATOM     75  O   UNL A   1      46.021  46.933  35.284  1.00  0.00    -0.237 OA
ATOM     76  O   UNL A   1      46.405  45.092  36.885  1.00  0.00    -0.744 OA
ENDBRANCH  72  73
ENDBRANCH  51  65
BRANCH  52  77
ATOM     77  C   UNL A   1      42.327  33.632  29.533  1.00  0.00     0.058 A 
ATOM     78  C   UNL A   1      42.657  32.264  29.401  1.00  0.00     0.135 A 
ATOM     79  C   UNL A   1      41.141  33.935  30.216  1.00  0.00     0.135 A 
ATOM     80  F   UNL A   1      43.769  31.903  28.739  1.00  0.00    -0.206 F 
ATOM     81  C   UNL A   1      41.945  31.262  30.049  1.00  0.00     0.059 A 
ATOM     82  C   UNL A   1      40.394  32.937  30.859  1.00  0.00     0.059 A 
ATOM     83  F   UNL A   1      40.767  35.209  30.392  1.00  0.00    -0.206 F 
ATOM     84  C   UNL A   1      40.845  31.615  30.824  1.00  0.00     0.060 A 
BRANCH  84  85
ATOM     85  S   UNL A   1      40.152  30.340  31.908  1.00  0.00     0.124 S 
ATOM     86  O   UNL A   1      38.759  30.758  32.020  1.00  0.00    -0.237 OA
ATOM     87  O   UNL A   1      40.387  29.133  31.116  1.00  0.00    -0.237 OA
ATOM     88  O   UNL A   1      40.949  30.468  33.121  1.00  0.00    -0.744 OA
ENDBRANCH  84  85
ENDBRANCH  52  77
BRANCH  64  89
ATOM     89  C   UNL A   1      43.628  40.222  26.741  1.00  0.00     0.058 A 
ATOM     90  C   UNL A   1      42.266  40.524  26.639  1.00  0.00     0.135 A 
ATOM     91  C   UNL A   1      44.484  40.785  25.769  1.00  0.00     0.135 A 
ATOM     92  F   UNL A   1      41.391  40.018  27.522  1.00  0.00    -0.206 F 
ATOM     93  C   UNL A   1      41.772  41.327  25.615  1.00  0.00     0.059 A 
ATOM     94  C   UNL A   1      44.008  41.542  24.708  1.00  0.00     0.059 A 
ATOM     95  F   UNL A   1      45.814  40.610  25.828  1.00  0.00    -0.206 F 
ATOM     96  C   UNL A   1      42.649  41.818  24.647  1.00  0.00     0.060 A 
BRANCH  96  97
ATOM     97  S   UNL A   1      42.007  42.802  23.281  1.00  0.00     0.124 S 
ATOM     98  O   UNL A   1      40.566  42.770  23.508  1.00  0.00    -0.237 OA
ATOM     99  O   UNL A   1      42.657  44.086  23.523  1.00  0.00    -0.237 OA
ATOM    100  O   UNL A   1      42.464  42.074  22.101  1.00  0.00    -0.744 OA
ENDBRANCH  96  97
ENDBRANCH  64  89
ENDBRANCH  38  39
ENDBRANCH  31  33
ENDBRANCH  30  31
ENDBRANCH  29  30
ENDBRANCH  28  29
ENDBRANCH  27  28
ENDBRANCH  26  27
ENDBRANCH   1  26
TORSDOF 23
ENDMDL
MODEL 2
REMARK VINA RESULT:     -10.6      4.306      8.072
REMARK SMILES Cc1c(/C=C/C(=O)OCCOCCOCCOC(=O)c2ccc(-c3c4nc(c(-c5c(F)cc(S(=O)(=O)[O-])cc5F)c5ccc([nH]5)c(-c5c(F)cc(S(=O)(=O)[O-])cc5F)c5nc(c(-c6c(F)cc(S(=O)(=O)[O-])cc6F)c6ccc3[nH]6)C=C5)C=C4)cc2)cccc1C(=O)N1C[C@@H](C)[C@@H](C)C1
REMARK SMILES IDX 12 1 11 2 10 3 9 4 8 5 6 6 7 7 5 8 4 9 3 10 1 11 2 12 89 13
REMARK SMILES IDX 86 14 88 15 87 16 90 17 91 18 92 19 93 20 98 21 94 22 96 23
REMARK SMILES IDX 95 24 97 25 13 26 14 27 15 28 16 29 17 30 18 31 19 32 20 33
REMARK SMILES IDX 21 34 85 35 22 36 84 37 23 38 24 39 25 40 78 41 26 42 83 43
REMARK SMILES IDX 77 44 79 45 27 46 82 47 76 48 75 49 28 51 62 52 41 53 61 54
REMARK SMILES IDX 42 55 45 56 60 57 80 58 43 59 44 60 59 62 81 63 46 64 29 65
REMARK SMILES IDX 30 66 39 67 31 68 32 69 38 70 40 71 33 72 34 73 35 74 36 75
REMARK SMILES IDX 37 76 63 77 64 78 73 79 65 80 66 81 72 82 74 83 67 84 68 85
REMARK SMILES IDX 69 86 70 87 71 88 47 89 48 90 57 91 49 92 50 93 56 94 58 95
REMARK SMILES IDX 51 96 52 97 53 98 54 99 55 100
REMARK H PARENT 79 50 45 61
REMARK Flexibility Score: inf
ROOT
ATOM      1  C   UNL A   1      38.858  27.345  29.190  1.00  0.00     0.188 C 
ENDROOT
BRANCH   1   2
ATOM      2  O   UNL A   1      38.189  28.594  29.477  1.00  0.00    -0.376 OA
BRANCH   2   3
ATOM      3  C   UNL A   1      38.147  29.713  28.579  1.00  0.00     0.202 C 
BRANCH   3   4
ATOM      4  C   UNL A   1      36.847  30.047  27.672  1.00  0.00     0.261 C 
BRANCH   4   5
ATOM      5  O   UNL A   1      35.255  29.424  27.638  1.00  0.00    -0.460 OA
BRANCH   5   6
ATOM      6  C   UNL A   1      33.954  29.815  27.230  1.00  0.00     0.330 C 
ATOM      7  O   UNL A   1      33.454  30.906  26.968  1.00  0.00    -0.247 OA
BRANCH   6   8
ATOM      8  C   UNL A   1      32.915  28.838  27.091  1.00  0.00     0.094 C 
ATOM      9  C   UNL A   1      33.219  27.742  26.360  1.00  0.00     0.016 C 
BRANCH   9  10
ATOM     10  C   UNL A   1      32.138  26.979  25.729  1.00  0.00    -0.022 A 
ATOM     11  C   UNL A   1      33.311  24.896  26.488  1.00  0.00     0.046 C 
ATOM     12  C   UNL A   1      32.110  25.583  25.885  1.00  0.00    -0.031 A 
ATOM     13  C   UNL A   1      30.961  24.885  25.483  1.00  0.00     0.043 A 
ATOM     14  C   UNL A   1      31.126  27.633  25.007  1.00  0.00     0.008 A 
ATOM     15  C   UNL A   1      29.952  25.537  24.758  1.00  0.00     0.014 A 
ATOM     16  C   UNL A   1      30.046  26.906  24.501  1.00  0.00     0.001 A 
BRANCH  13  17
ATOM     17  C   UNL A   1      30.892  23.416  25.647  1.00  0.00     0.254 C 
ATOM     18  O   UNL A   1      30.053  22.965  26.425  1.00  0.00    -0.269 OA
BRANCH  17  19
ATOM     19  N   UNL A   1      31.646  22.617  24.805  1.00  0.00    -0.338 N 
ATOM     20  C   UNL A   1      32.073  21.320  25.267  1.00  0.00     0.123 C 
ATOM     21  C   UNL A   1      32.104  22.897  23.446  1.00  0.00     0.123 C 
ATOM     22  C   UNL A   1      33.060  20.807  24.230  1.00  0.00     0.010 C 
ATOM     23  C   UNL A   1      32.719  21.581  22.935  1.00  0.00     0.010 C 
ATOM     24  C   UNL A   1      33.019  19.286  24.148  1.00  0.00     0.010 C 
ATOM     25  C   UNL A   1      31.814  20.846  21.946  1.00  0.00     0.010 C 
ENDBRANCH  17  19
ENDBRANCH  13  17
ENDBRANCH   9  10
ENDBRANCH   6   8
ENDBRANCH   5   6
ENDBRANCH   4   5
ENDBRANCH   3   4
ENDBRANCH   2   3
ENDBRANCH   1   2
BRANCH   1  26
ATOM     26  C   UNL A   1      40.103  27.278  28.307  1.00  0.00     0.188 C 
BRANCH  26  27
ATOM     27  O   UNL A   1      39.780  26.640  27.089  1.00  0.00    -0.376 OA
BRANCH  27  28
ATOM     28  C   UNL A   1      39.711  25.234  27.093  1.00  0.00     0.202 C 
BRANCH  28  29
ATOM     29  C   UNL A   1      40.898  24.611  27.835  1.00  0.00     0.261 C 
BRANCH  29  30
ATOM     30  O   UNL A   1      41.837  23.990  26.920  1.00  0.00    -0.460 OA
BRANCH  30  31
ATOM     31  C   UNL A   1      42.665  24.819  26.186  1.00  0.00     0.338 C 
ATOM     32  O   UNL A   1      42.691  24.788  24.965  1.00  0.00    -0.246 OA
BRANCH  31  33
ATOM     33  C   UNL A   1      43.363  25.816  27.075  1.00  0.00     0.060 A 
ATOM     34  C   UNL A   1      43.788  25.700  28.407  1.00  0.00     0.016 A 
ATOM     35  C   UNL A   1      43.448  27.064  26.571  1.00  0.00     0.016 A 
ATOM     36  C   UNL A   1      44.102  26.872  29.253  1.00  0.00     0.010 A 
ATOM     37  C   UNL A   1      43.497  28.118  27.485  1.00  0.00     0.010 A 
ATOM     38  C   UNL A   1      43.887  28.195  28.845  1.00  0.00    -0.014 A 
BRANCH  38  39
ATOM     39  C   UNL A   1      43.939  29.603  29.803  1.00  0.00     0.031 A 
ATOM     40  C   UNL A   1      42.720  30.701  30.364  1.00  0.00     0.074 A 
ATOM     41  C   UNL A   1      45.153  30.142  30.042  1.00  0.00     0.049 A 
ATOM     42  N   UNL A   1      42.667  31.998  30.090  1.00  0.00    -0.248 NA
ATOM     43  C   UNL A   1      41.472  30.406  31.165  1.00  0.00     0.031 C 
ATOM     44  C   UNL A   1      45.447  31.287  30.899  1.00  0.00     0.029 A 
ATOM     45  N   UNL A   1      46.371  29.838  29.434  1.00  0.00    -0.354 N 
ATOM     46  C   UNL A   1      41.485  32.520  30.662  1.00  0.00     0.074 A 
ATOM     47  C   UNL A   1      40.667  31.437  31.033  1.00  0.00     0.031 C 
ATOM     48  C   UNL A   1      46.658  31.760  30.573  1.00  0.00     0.029 A 
ATOM     49  C   UNL A   1      47.127  31.019  29.416  1.00  0.00     0.049 A 
ATOM     50  H   UNL A   1      46.647  28.960  29.085  1.00  0.00     0.167 HD
ATOM     51  C   UNL A   1      41.263  33.767  31.163  1.00  0.00     0.037 A 
ATOM     52  C   UNL A   1      47.556  31.545  28.234  1.00  0.00     0.037 A 
ATOM     53  C   UNL A   1      42.467  34.530  31.125  1.00  0.00     0.049 A 
ATOM     54  C   UNL A   1      46.996  32.924  27.945  1.00  0.00     0.074 A 
ATOM     55  C   UNL A   1      43.527  34.697  31.995  1.00  0.00     0.029 A 
ATOM     56  N   UNL A   1      42.907  34.895  29.885  1.00  0.00    -0.354 N 
ATOM     57  N   UNL A   1      46.238  33.607  28.762  1.00  0.00    -0.248 NA
ATOM     58  C   UNL A   1      47.199  33.621  26.672  1.00  0.00     0.031 C 
ATOM     59  C   UNL A   1      44.650  35.107  31.217  1.00  0.00     0.029 A 
ATOM     60  C   UNL A   1      44.238  35.229  29.903  1.00  0.00     0.049 A 
ATOM     61  H   UNL A   1      42.342  34.915  29.079  1.00  0.00     0.167 HD
ATOM     62  C   UNL A   1      45.775  34.722  28.116  1.00  0.00     0.074 A 
ATOM     63  C   UNL A   1      46.436  34.716  26.829  1.00  0.00     0.031 C 
ATOM     64  C   UNL A   1      44.830  35.557  28.627  1.00  0.00     0.037 A 
BRANCH  51  65
ATOM     65  C   UNL A   1      40.013  34.050  31.987  1.00  0.00     0.058 A 
ATOM     66  C   UNL A   1      39.940  33.724  33.351  1.00  0.00     0.135 A 
ATOM     67  C   UNL A   1      38.796  34.490  31.402  1.00  0.00     0.135 A 
ATOM     68  F   UNL A   1      41.026  33.310  34.017  1.00  0.00    -0.206 F 
ATOM     69  C   UNL A   1      38.734  33.739  34.064  1.00  0.00     0.059 A 
ATOM     70  C   UNL A   1      37.570  34.466  32.083  1.00  0.00     0.059 A 
ATOM     71  F   UNL A   1      38.755  34.835  30.103  1.00  0.00    -0.206 F 
ATOM     72  C   UNL A   1      37.547  34.079  33.417  1.00  0.00     0.060 A 
BRANCH  72  73
ATOM     73  S   UNL A   1      35.976  33.901  34.302  1.00  0.00     0.124 S 
ATOM     74  O   UNL A   1      35.323  35.183  34.051  1.00  0.00    -0.237 OA
ATOM     75  O   UNL A   1      35.383  32.747  33.639  1.00  0.00    -0.237 OA
ATOM     76  O   UNL A   1      36.392  33.689  35.687  1.00  0.00    -0.744 OA
ENDBRANCH  72  73
ENDBRANCH  51  65
BRANCH  52  77
ATOM     77  C   UNL A   1      47.949  30.497  27.241  1.00  0.00     0.058 A 
ATOM     78  C   UNL A   1      49.246  29.948  27.358  1.00  0.00     0.135 A 
ATOM     79  C   UNL A   1      47.028  29.788  26.459  1.00  0.00     0.135 A 
ATOM     80  F   UNL A   1      50.184  30.587  28.077  1.00  0.00    -0.206 F 
ATOM     81  C   UNL A   1      49.566  28.688  26.868  1.00  0.00     0.059 A 
ATOM     82  C   UNL A   1      47.337  28.524  25.934  1.00  0.00     0.059 A 
ATOM     83  F   UNL A   1      45.776  30.240  26.310  1.00  0.00    -0.206 F 
ATOM     84  C   UNL A   1      48.585  27.958  26.204  1.00  0.00     0.060 A 
BRANCH  84  85
ATOM     85  S   UNL A   1      48.932  26.211  25.877  1.00  0.00     0.124 S 
ATOM     86  O   UNL A   1      48.009  25.539  26.785  1.00  0.00    -0.237 OA
ATOM     87  O   UNL A   1      48.600  26.114  24.456  1.00  0.00    -0.237 OA
ATOM     88  O   UNL A   1      50.346  26.086  26.208  1.00  0.00    -0.744 OA
ENDBRANCH  84  85
ENDBRANCH  52  77
BRANCH  64  89
ATOM     89  C   UNL A   1      44.345  36.780  27.916  1.00  0.00     0.058 A 
ATOM     90  C   UNL A   1      45.070  37.973  27.994  1.00  0.00     0.135 A 
ATOM     91  C   UNL A   1      43.064  36.845  27.324  1.00  0.00     0.135 A 
ATOM     92  F   UNL A   1      46.291  37.989  28.552  1.00  0.00    -0.206 F 
ATOM     93  C   UNL A   1      44.547  39.175  27.527  1.00  0.00     0.059 A 
ATOM     94  C   UNL A   1      42.500  38.041  26.903  1.00  0.00     0.059 A 
ATOM     95  F   UNL A   1      42.325  35.739  27.140  1.00  0.00    -0.206 F 
ATOM     96  C   UNL A   1      43.256  39.201  26.998  1.00  0.00     0.060 A 
BRANCH  96  97
ATOM     97  S   UNL A   1      42.548  40.765  26.454  1.00  0.00     0.124 S 
ATOM     98  O   UNL A   1      43.344  41.751  27.179  1.00  0.00    -0.237 OA
ATOM     99  O   UNL A   1      42.780  40.700  25.015  1.00  0.00    -0.237 OA
ATOM    100  O   UNL A   1      41.154  40.665  26.875  1.00  0.00    -0.744 OA
ENDBRANCH  96  97
ENDBRANCH  64  89
ENDBRANCH  38  39
ENDBRANCH  31  33
ENDBRANCH  30  31
ENDBRANCH  29  30
ENDBRANCH  28  29
ENDBRANCH  27  28
ENDBRANCH  26  27
ENDBRANCH   1  26
TORSDOF 23
ENDMDL
MODEL 3
REMARK VINA RESULT:     -10.4      8.978     13.995
REMARK SMILES Cc1c(/C=C/C(=O)OCCOCCOCCOC(=O)c2ccc(-c3c4nc(c(-c5c(F)cc(S(=O)(=O)[O-])cc5F)c5ccc([nH]5)c(-c5c(F)cc(S(=O)(=O)[O-])cc5F)c5nc(c(-c6c(F)cc(S(=O)(=O)[O-])cc6F)c6ccc3[nH]6)C=C5)C=C4)cc2)cccc1C(=O)N1C[C@@H](C)[C@@H](C)C1
REMARK SMILES IDX 12 1 11 2 10 3 9 4 8 5 6 6 7 7 5 8 4 9 3 10 1 11 2 12 89 13
REMARK SMILES IDX 86 14 88 15 87 16 90 17 91 18 92 19 93 20 98 21 94 22 96 23
REMARK SMILES IDX 95 24 97 25 13 26 14 27 15 28 16 29 17 30 18 31 19 32 20 33
REMARK SMILES IDX 21 34 85 35 22 36 84 37 23 38 24 39 25 40 78 41 26 42 83 43
REMARK SMILES IDX 77 44 79 45 27 46 82 47 76 48 75 49 28 51 62 52 41 53 61 54
REMARK SMILES IDX 42 55 45 56 60 57 80 58 43 59 44 60 59 62 81 63 46 64 29 65
REMARK SMILES IDX 30 66 39 67 31 68 32 69 38 70 40 71 33 72 34 73 35 74 36 75
REMARK SMILES IDX 37 76 63 77 64 78 73 79 65 80 66 81 72 82 74 83 67 84 68 85
REMARK SMILES IDX 69 86 70 87 71 88 47 89 48 90 57 91 49 92 50 93 56 94 58 95
REMARK SMILES IDX 51 96 52 97 53 98 54 99 55 100
REMARK H PARENT 79 50 45 61
REMARK Flexibility Score: inf
ROOT
ATOM      1  C   UNL A   1      44.536  24.051  32.105  1.00  0.00     0.188 C 
ENDROOT
BRANCH   1   2
ATOM      2  O   UNL A   1      44.115  23.109  33.118  1.00  0.00    -0.376 OA
BRANCH   2   3
ATOM      3  C   UNL A   1      45.015  22.339  33.929  1.00  0.00     0.202 C 
BRANCH   3   4
ATOM      4  C   UNL A   1      46.160  23.027  34.846  1.00  0.00     0.261 C 
BRANCH   4   5
ATOM      5  O   UNL A   1      47.662  22.474  35.448  1.00  0.00    -0.460 OA
BRANCH   5   6
ATOM      6  C   UNL A   1      48.578  21.409  35.248  1.00  0.00     0.330 C 
ATOM      7  O   UNL A   1      49.263  21.068  34.288  1.00  0.00    -0.247 OA
BRANCH   6   8
ATOM      8  C   UNL A   1      48.812  20.451  36.287  1.00  0.00     0.094 C 
ATOM      9  C   UNL A   1      47.721  20.028  36.966  1.00  0.00     0.016 C 
BRANCH   9  10
ATOM     10  C   UNL A   1      47.884  19.497  38.323  1.00  0.00    -0.022 A 
ATOM     11  C   UNL A   1      45.595  18.497  38.090  1.00  0.00     0.046 C 
ATOM     12  C   UNL A   1      46.895  18.646  38.843  1.00  0.00    -0.031 A 
ATOM     13  C   UNL A   1      47.159  17.960  40.038  1.00  0.00     0.043 A 
ATOM     14  C   UNL A   1      49.024  19.808  39.082  1.00  0.00     0.008 A 
ATOM     15  C   UNL A   1      48.296  18.273  40.799  1.00  0.00     0.014 A 
ATOM     16  C   UNL A   1      49.216  19.213  40.331  1.00  0.00     0.001 A 
BRANCH  13  17
ATOM     17  C   UNL A   1      46.146  17.043  40.606  1.00  0.00     0.254 C 
ATOM     18  O   UNL A   1      46.097  15.897  40.162  1.00  0.00    -0.269 OA
BRANCH  17  19
ATOM     19  N   UNL A   1      45.423  17.455  41.712  1.00  0.00    -0.338 N 
ATOM     20  C   UNL A   1      45.422  16.630  42.894  1.00  0.00     0.123 C 
ATOM     21  C   UNL A   1      44.614  18.661  41.881  1.00  0.00     0.123 C 
ATOM     22  C   UNL A   1      44.368  17.220  43.820  1.00  0.00     0.010 C 
ATOM     23  C   UNL A   1      44.217  18.691  43.368  1.00  0.00     0.010 C 
ATOM     24  C   UNL A   1      44.736  16.987  45.280  1.00  0.00     0.010 C 
ATOM     25  C   UNL A   1      45.015  19.714  44.176  1.00  0.00     0.010 C 
ENDBRANCH  17  19
ENDBRANCH  13  17
ENDBRANCH   9  10
ENDBRANCH   6   8
ENDBRANCH   5   6
ENDBRANCH   4   5
ENDBRANCH   3   4
ENDBRANCH   2   3
ENDBRANCH   1   2
BRANCH   1  26
ATOM     26  C   UNL A   1      43.832  24.154  30.753  1.00  0.00     0.188 C 
BRANCH  26  27
ATOM     27  O   UNL A   1      44.055  22.968  30.018  1.00  0.00    -0.376 OA
BRANCH  27  28
ATOM     28  C   UNL A   1      43.550  22.917  28.705  1.00  0.00     0.202 C 
BRANCH  28  29
ATOM     29  C   UNL A   1      42.108  23.429  28.632  1.00  0.00     0.261 C 
BRANCH  29  30
ATOM     30  O   UNL A   1      41.280  22.583  27.794  1.00  0.00    -0.460 OA
BRANCH  30  31
ATOM     31  C   UNL A   1      40.441  23.199  26.884  1.00  0.00     0.338 C 
ATOM     32  O   UNL A   1      39.959  22.595  25.938  1.00  0.00    -0.246 OA
BRANCH  31  33
ATOM     33  C   UNL A   1      40.109  24.604  27.316  1.00  0.00     0.060 A 
ATOM     34  C   UNL A   1      40.768  25.813  27.052  1.00  0.00     0.016 A 
ATOM     35  C   UNL A   1      39.122  24.698  28.230  1.00  0.00     0.016 A 
ATOM     36  C   UNL A   1      40.548  27.039  27.850  1.00  0.00     0.010 A 
ATOM     37  C   UNL A   1      39.159  25.790  29.098  1.00  0.00     0.010 A 
ATOM     38  C   UNL A   1      39.762  27.069  29.010  1.00  0.00    -0.014 A 
BRANCH  38  39
ATOM     39  C   UNL A   1      39.652  28.320  30.162  1.00  0.00     0.031 A 
ATOM     40  C   UNL A   1      38.576  29.666  30.353  1.00  0.00     0.074 A 
ATOM     41  C   UNL A   1      40.693  28.472  31.007  1.00  0.00     0.049 A 
ATOM     42  N   UNL A   1      38.934  30.943  30.355  1.00  0.00    -0.248 NA
ATOM     43  C   UNL A   1      37.068  29.668  30.455  1.00  0.00     0.031 C 
ATOM     44  C   UNL A   1      40.783  29.411  32.122  1.00  0.00     0.029 A 
ATOM     45  N   UNL A   1      41.958  27.889  30.939  1.00  0.00    -0.354 N 
ATOM     46  C   UNL A   1      37.762  31.727  30.454  1.00  0.00     0.074 A 
ATOM     47  C   UNL A   1      36.658  30.892  30.203  1.00  0.00     0.031 C 
ATOM     48  C   UNL A   1      42.074  29.549  32.457  1.00  0.00     0.029 A 
ATOM     49  C   UNL A   1      42.864  28.806  31.493  1.00  0.00     0.049 A 
ATOM     50  H   UNL A   1      42.174  27.002  30.571  1.00  0.00     0.167 HD
ATOM     51  C   UNL A   1      37.600  32.940  31.053  1.00  0.00     0.037 A 
ATOM     52  C   UNL A   1      43.899  29.287  30.748  1.00  0.00     0.037 A 
ATOM     53  C   UNL A   1      38.810  33.333  31.698  1.00  0.00     0.049 A 
ATOM     54  C   UNL A   1      43.847  30.787  30.535  1.00  0.00     0.074 A 
ATOM     55  C   UNL A   1      39.342  33.119  32.954  1.00  0.00     0.029 A 
ATOM     56  N   UNL A   1      39.848  33.661  30.874  1.00  0.00    -0.354 N 
ATOM     57  N   UNL A   1      42.957  31.585  31.065  1.00  0.00    -0.248 NA
ATOM     58  C   UNL A   1      44.768  31.504  29.649  1.00  0.00     0.031 C 
ATOM     59  C   UNL A   1      40.757  33.260  32.841  1.00  0.00     0.029 A 
ATOM     60  C   UNL A   1      41.050  33.604  31.534  1.00  0.00     0.049 A 
ATOM     61  H   UNL A   1      39.748  33.908  29.926  1.00  0.00     0.167 HD
ATOM     62  C   UNL A   1      43.101  32.836  30.526  1.00  0.00     0.074 A 
ATOM     63  C   UNL A   1      44.272  32.752  29.681  1.00  0.00     0.031 C 
ATOM     64  C   UNL A   1      42.227  33.857  30.737  1.00  0.00     0.037 A 
BRANCH  51  65
ATOM     65  C   UNL A   1      36.200  33.493  31.294  1.00  0.00     0.058 A 
ATOM     66  C   UNL A   1      35.481  34.143  30.279  1.00  0.00     0.135 A 
ATOM     67  C   UNL A   1      35.611  33.545  32.584  1.00  0.00     0.135 A 
ATOM     68  F   UNL A   1      35.929  34.151  29.016  1.00  0.00    -0.206 F 
ATOM     69  C   UNL A   1      34.313  34.875  30.535  1.00  0.00     0.059 A 
ATOM     70  C   UNL A   1      34.471  34.309  32.872  1.00  0.00     0.059 A 
ATOM     71  F   UNL A   1      36.212  32.947  33.628  1.00  0.00    -0.206 F 
ATOM     72  C   UNL A   1      33.831  34.982  31.838  1.00  0.00     0.060 A 
BRANCH  72  73
ATOM     73  S   UNL A   1      32.438  36.090  32.177  1.00  0.00     0.124 S 
ATOM     74  O   UNL A   1      32.940  36.905  33.279  1.00  0.00    -0.237 OA
ATOM     75  O   UNL A   1      32.280  36.777  30.900  1.00  0.00    -0.237 OA
ATOM     76  O   UNL A   1      31.358  35.173  32.537  1.00  0.00    -0.744 OA
ENDBRANCH  72  73
ENDBRANCH  51  65
BRANCH  52  77
ATOM     77  C   UNL A   1      44.483  28.259  29.832  1.00  0.00     0.058 A 
ATOM     78  C   UNL A   1      44.123  28.328  28.467  1.00  0.00     0.135 A 
ATOM     79  C   UNL A   1      45.604  27.482  30.154  1.00  0.00     0.135 A 
ATOM     80  F   UNL A   1      43.047  29.038  28.091  1.00  0.00    -0.206 F 
ATOM     81  C   UNL A   1      44.922  27.797  27.461  1.00  0.00     0.059 A 
ATOM     82  C   UNL A   1      46.412  26.918  29.156  1.00  0.00     0.059 A 
ATOM     83  F   UNL A   1      46.013  27.378  31.426  1.00  0.00    -0.206 F 
ATOM     84  C   UNL A   1      46.097  27.141  27.814  1.00  0.00     0.060 A 
BRANCH  84  85
ATOM     85  S   UNL A   1      47.264  26.760  26.482  1.00  0.00     0.124 S 
ATOM     86  O   UNL A   1      48.507  27.332  26.991  1.00  0.00    -0.237 OA
ATOM     87  O   UNL A   1      47.206  25.300  26.460  1.00  0.00    -0.237 OA
ATOM     88  O   UNL A   1      46.684  27.437  25.329  1.00  0.00    -0.744 OA
ENDBRANCH  84  85
ENDBRANCH  52  77
BRANCH  64  89
ATOM     89  C   UNL A   1      42.405  35.223  30.154  1.00  0.00     0.058 A 
ATOM     90  C   UNL A   1      41.816  35.546  28.928  1.00  0.00     0.135 A 
ATOM     91  C   UNL A   1      43.320  36.155  30.691  1.00  0.00     0.135 A 
ATOM     92  F   UNL A   1      40.944  34.704  28.352  1.00  0.00    -0.206 F 
ATOM     93  C   UNL A   1      42.130  36.724  28.256  1.00  0.00     0.059 A 
ATOM     94  C   UNL A   1      43.690  37.308  30.014  1.00  0.00     0.059 A 
ATOM     95  F   UNL A   1      43.880  35.965  31.897  1.00  0.00    -0.206 F 
ATOM     96  C   UNL A   1      43.079  37.591  28.800  1.00  0.00     0.060 A 
BRANCH  96  97
ATOM     97  S   UNL A   1      43.540  39.083  27.904  1.00  0.00     0.124 S 
ATOM     98  O   UNL A   1      44.955  39.232  28.229  1.00  0.00    -0.237 OA
ATOM     99  O   UNL A   1      43.244  38.695  26.529  1.00  0.00    -0.237 OA
ATOM    100  O   UNL A   1      42.663  40.101  28.477  1.00  0.00    -0.744 OA
ENDBRANCH  96  97
ENDBRANCH  64  89
ENDBRANCH  38  39
ENDBRANCH  31  33
ENDBRANCH  30  31
ENDBRANCH  29  30
ENDBRANCH  28  29
ENDBRANCH  27  28
ENDBRANCH  26  27
ENDBRANCH   1  26
TORSDOF 23
ENDMDL
