MODEL 1
REMARK VINA RESULT:     -10.9      0.000      0.000
REMARK SMILES O=C(CCCN1C(=O)c2ccc3c4c(ccc(c24)C1=O)C(=O)NC3=O)OCCOCCOCCOC(=O)c1ccc(-c2c3nc(c(-c4c(F)cc(S(=O)(=O)[O-])cc4F)c4ccc([nH]4)c(-c4c(F)cc(S(=O)(=O)[O-])cc4F)c4nc(c(-c5c(F)cc(S(=O)(=O)[O-])cc5F)c5ccc2[nH]5)C=C4)C=C3)cc1
REMARK SMILES IDX 30 1 29 2 28 3 27 4 26 5 2 6 1 7 3 8 4 9 5 10 6 11 19 12
REMARK SMILES IDX 7 13 20 14 17 15 9 16 8 17 16 18 18 19 10 20 15 21 13 22
REMARK SMILES IDX 11 23 14 24 12 25 21 26 24 27 23 28 22 29 25 30 31 32 32 33
REMARK SMILES IDX 33 34 34 35 35 36 36 37 37 38 38 39 39 40 103 41 40 42
REMARK SMILES IDX 102 43 41 44 42 45 43 46 96 47 44 48 101 49 95 50 97 51
REMARK SMILES IDX 45 52 100 53 94 54 93 55 46 57 80 58 59 59 79 60 60 61 63 62
REMARK SMILES IDX 78 63 98 64 61 65 62 66 77 68 99 69 64 70 47 71 48 72 57 73
REMARK SMILES IDX 49 74 50 75 56 76 58 77 51 78 52 79 53 80 54 81 55 82 81 83
REMARK SMILES IDX 82 84 91 85 83 86 84 87 90 88 92 89 85 90 86 91 87 92 88 93
REMARK SMILES IDX 89 94 65 95 66 96 75 97 67 98 68 99 74 100 76 101 69 102
REMARK SMILES IDX 70 103 71 104 72 105 73 106
REMARK H PARENT 23 31 97 56 63 67
REMARK Flexibility Score: inf
ROOT
ATOM      1  C   UNL A   1      38.201  21.255  25.387  1.00  0.00     0.188 C 
ENDROOT
BRANCH   1   2
ATOM      2  O   UNL A   1      38.245  22.625  25.751  1.00  0.00    -0.376 OA
BRANCH   2   3
ATOM      3  C   UNL A   1      37.269  23.471  25.160  1.00  0.00     0.202 C 
BRANCH   3   4
ATOM      4  C   UNL A   1      36.092  23.915  26.019  1.00  0.00     0.261 C 
BRANCH   4   5
ATOM      5  O   UNL A   1      34.864  23.167  25.955  1.00  0.00    -0.463 OA
BRANCH   5   6
ATOM      6  C   UNL A   1      34.540  22.083  25.233  1.00  0.00     0.305 C 
ATOM      7  O   UNL A   1      34.783  20.973  25.703  1.00  0.00    -0.252 OA
BRANCH   6   8
ATOM      8  C   UNL A   1      33.812  22.217  23.916  1.00  0.00     0.124 C 
BRANCH   8   9
ATOM      9  C   UNL A   1      32.336  21.830  23.921  1.00  0.00     0.034 C 
BRANCH   9  10
ATOM     10  C   UNL A   1      31.403  22.443  24.985  1.00  0.00     0.130 C 
BRANCH  10  11
ATOM     11  N   UNL A   1      31.232  23.906  25.009  1.00  0.00    -0.274 N 
ATOM     12  C   UNL A   1      30.556  24.533  23.962  1.00  0.00     0.261 C 
ATOM     13  C   UNL A   1      31.518  24.567  26.207  1.00  0.00     0.261 C 
ATOM     14  O   UNL A   1      30.018  23.935  23.037  1.00  0.00    -0.269 OA
ATOM     15  C   UNL A   1      30.461  26.018  24.003  1.00  0.00     0.049 A 
ATOM     16  C   UNL A   1      31.559  26.048  26.171  1.00  0.00     0.049 A 
ATOM     17  O   UNL A   1      31.771  24.007  27.271  1.00  0.00    -0.269 OA
ATOM     18  C   UNL A   1      29.851  26.711  22.949  1.00  0.00     0.015 A 
ATOM     19  C   UNL A   1      31.015  26.721  25.077  1.00  0.00     0.009 A 
ATOM     20  C   UNL A   1      32.164  26.754  27.222  1.00  0.00     0.015 A 
ATOM     21  C   UNL A   1      29.798  28.107  22.963  1.00  0.00     0.015 A 
ATOM     22  C   UNL A   1      31.020  28.139  25.067  1.00  0.00     0.009 A 
ATOM     23  C   UNL A   1      32.232  28.146  27.181  1.00  0.00     0.015 A 
ATOM     24  C   UNL A   1      30.391  28.816  24.010  1.00  0.00     0.048 A 
ATOM     25  C   UNL A   1      31.653  28.833  26.111  1.00  0.00     0.048 A 
ATOM     26  C   UNL A   1      30.346  30.297  24.025  1.00  0.00     0.258 C 
ATOM     27  C   UNL A   1      31.719  30.312  26.067  1.00  0.00     0.258 C 
ATOM     28  N   UNL A   1      31.044  30.917  25.035  1.00  0.00    -0.288 N 
ATOM     29  O   UNL A   1      29.714  30.932  23.191  1.00  0.00    -0.269 OA
ATOM     30  O   UNL A   1      32.341  30.948  26.907  1.00  0.00    -0.269 OA
ATOM     31  H   UNL A   1      31.063  31.902  25.016  1.00  0.00     0.173 HD
ENDBRANCH  10  11
ENDBRANCH   9  10
ENDBRANCH   8   9
ENDBRANCH   6   8
ENDBRANCH   5   6
ENDBRANCH   4   5
ENDBRANCH   3   4
ENDBRANCH   2   3
ENDBRANCH   1   2
BRANCH   1  32
ATOM     32  C   UNL A   1      39.446  20.448  25.771  1.00  0.00     0.188 C 
BRANCH  32  33
ATOM     33  O   UNL A   1      40.257  21.133  26.705  1.00  0.00    -0.376 OA
BRANCH  33  34
ATOM     34  C   UNL A   1      41.554  21.592  26.339  1.00  0.00     0.202 C 
BRANCH  34  35
ATOM     35  C   UNL A   1      42.109  23.024  26.498  1.00  0.00     0.261 C 
BRANCH  35  36
ATOM     36  O   UNL A   1      41.188  24.109  26.594  1.00  0.00    -0.460 OA
BRANCH  36  37
ATOM     37  C   UNL A   1      41.740  25.329  26.361  1.00  0.00     0.338 C 
ATOM     38  O   UNL A   1      42.418  25.664  25.406  1.00  0.00    -0.246 OA
BRANCH  37  39
ATOM     39  C   UNL A   1      41.348  26.264  27.420  1.00  0.00     0.060 A 
ATOM     40  C   UNL A   1      42.112  27.416  27.630  1.00  0.00     0.016 A 
ATOM     41  C   UNL A   1      40.298  25.929  28.276  1.00  0.00     0.016 A 
ATOM     42  C   UNL A   1      41.813  28.257  28.700  1.00  0.00     0.010 A 
ATOM     43  C   UNL A   1      40.012  26.764  29.356  1.00  0.00     0.010 A 
ATOM     44  C   UNL A   1      40.777  27.922  29.580  1.00  0.00    -0.014 A 
BRANCH  44  45
ATOM     45  C   UNL A   1      40.545  28.722  30.802  1.00  0.00     0.031 A 
ATOM     46  C   UNL A   1      39.489  29.789  30.783  1.00  0.00     0.074 A 
ATOM     47  C   UNL A   1      41.306  28.518  31.893  1.00  0.00     0.049 A 
ATOM     48  N   UNL A   1      39.202  30.682  31.690  1.00  0.00    -0.248 NA
ATOM     49  C   UNL A   1      38.645  29.861  29.577  1.00  0.00     0.031 C 
ATOM     50  C   UNL A   1      42.334  27.485  32.022  1.00  0.00     0.029 A 
ATOM     51  N   UNL A   1      41.349  29.188  33.088  1.00  0.00    -0.354 N 
ATOM     52  C   UNL A   1      38.155  31.431  31.166  1.00  0.00     0.074 A 
ATOM     53  C   UNL A   1      37.862  30.894  29.856  1.00  0.00     0.031 C 
ATOM     54  C   UNL A   1      42.936  27.616  33.217  1.00  0.00     0.029 A 
ATOM     55  C   UNL A   1      42.361  28.762  33.918  1.00  0.00     0.049 A 
ATOM     56  H   UNL A   1      40.719  29.904  33.329  1.00  0.00     0.167 HD
ATOM     57  C   UNL A   1      37.506  32.474  31.733  1.00  0.00     0.037 A 
ATOM     58  C   UNL A   1      42.796  29.270  35.088  1.00  0.00     0.037 A 
ATOM     59  C   UNL A   1      37.814  32.995  33.039  1.00  0.00     0.049 A 
ATOM     60  C   UNL A   1      42.099  30.480  35.661  1.00  0.00     0.074 A 
ATOM     61  C   UNL A   1      37.185  34.020  33.724  1.00  0.00     0.029 A 
ATOM     62  N   UNL A   1      38.848  32.548  33.847  1.00  0.00    -0.354 N 
ATOM     63  N   UNL A   1      41.070  31.143  35.184  1.00  0.00    -0.248 NA
ATOM     64  C   UNL A   1      42.621  31.015  36.926  1.00  0.00     0.031 C 
ATOM     65  C   UNL A   1      37.878  34.233  34.919  1.00  0.00     0.029 A 
ATOM     66  C   UNL A   1      38.904  33.304  35.005  1.00  0.00     0.049 A 
ATOM     67  H   UNL A   1      39.454  31.802  33.629  1.00  0.00     0.167 HD
ATOM     68  C   UNL A   1      40.814  32.159  36.099  1.00  0.00     0.074 A 
ATOM     69  C   UNL A   1      41.780  32.010  37.169  1.00  0.00     0.031 C 
ATOM     70  C   UNL A   1      39.871  33.132  36.059  1.00  0.00     0.037 A 
BRANCH  57  71
ATOM     71  C   UNL A   1      36.417  33.146  30.946  1.00  0.00     0.058 A 
ATOM     72  C   UNL A   1      35.065  33.020  31.297  1.00  0.00     0.135 A 
ATOM     73  C   UNL A   1      36.742  34.001  29.880  1.00  0.00     0.135 A 
ATOM     74  F   UNL A   1      34.698  32.199  32.294  1.00  0.00    -0.206 F 
ATOM     75  C   UNL A   1      34.071  33.722  30.622  1.00  0.00     0.059 A 
ATOM     76  C   UNL A   1      35.768  34.730  29.205  1.00  0.00     0.059 A 
ATOM     77  F   UNL A   1      38.020  34.148  29.497  1.00  0.00    -0.206 F 
ATOM     78  C   UNL A   1      34.434  34.584  29.584  1.00  0.00     0.060 A 
BRANCH  78  79
ATOM     79  S   UNL A   1      33.138  35.532  28.758  1.00  0.00     0.124 S 
ATOM     80  O   UNL A   1      33.924  36.494  27.991  1.00  0.00    -0.237 OA
ATOM     81  O   UNL A   1      32.454  34.508  27.977  1.00  0.00    -0.237 OA
ATOM     82  O   UNL A   1      32.368  36.093  29.864  1.00  0.00    -0.744 OA
ENDBRANCH  78  79
ENDBRANCH  57  71
BRANCH  58  83
ATOM     83  C   UNL A   1      43.980  28.683  35.773  1.00  0.00     0.058 A 
ATOM     84  C   UNL A   1      43.840  27.663  36.725  1.00  0.00     0.135 A 
ATOM     85  C   UNL A   1      45.275  29.164  35.519  1.00  0.00     0.135 A 
ATOM     86  F   UNL A   1      42.623  27.176  37.012  1.00  0.00    -0.206 F 
ATOM     87  C   UNL A   1      44.934  27.163  37.427  1.00  0.00     0.059 A 
ATOM     88  C   UNL A   1      46.389  28.659  36.185  1.00  0.00     0.059 A 
ATOM     89  F   UNL A   1      45.470  30.132  34.611  1.00  0.00    -0.206 F 
ATOM     90  C   UNL A   1      46.205  27.672  37.152  1.00  0.00     0.060 A 
BRANCH  90  91
ATOM     91  S   UNL A   1      47.617  27.019  38.068  1.00  0.00     0.124 S 
ATOM     92  O   UNL A   1      48.733  27.666  37.386  1.00  0.00    -0.237 OA
ATOM     93  O   UNL A   1      47.344  27.482  39.425  1.00  0.00    -0.237 OA
ATOM     94  O   UNL A   1      47.508  25.577  37.871  1.00  0.00    -0.744 OA
ENDBRANCH  90  91
ENDBRANCH  58  83
BRANCH  70  95
ATOM     95  C   UNL A   1      39.823  34.103  37.208  1.00  0.00     0.058 A 
ATOM     96  C   UNL A   1      40.527  35.316  37.173  1.00  0.00     0.135 A 
ATOM     97  C   UNL A   1      39.009  33.849  38.323  1.00  0.00     0.135 A 
ATOM     98  F   UNL A   1      41.326  35.605  36.133  1.00  0.00    -0.206 F 
ATOM     99  C   UNL A   1      40.437  36.238  38.211  1.00  0.00     0.059 A 
ATOM    100  C   UNL A   1      38.880  34.769  39.358  1.00  0.00     0.059 A 
ATOM    101  F   UNL A   1      38.305  32.707  38.401  1.00  0.00    -0.206 F 
ATOM    102  C   UNL A   1      39.606  35.958  39.297  1.00  0.00     0.060 A 
BRANCH 102 103
ATOM    103  S   UNL A   1      39.460  37.186  40.611  1.00  0.00     0.124 S 
ATOM    104  O   UNL A   1      40.756  37.853  40.536  1.00  0.00    -0.237 OA
ATOM    105  O   UNL A   1      38.314  37.976  40.174  1.00  0.00    -0.237 OA
ATOM    106  O   UNL A   1      39.239  36.380  41.808  1.00  0.00    -0.744 OA
ENDBRANCH 102 103
ENDBRANCH  70  95
ENDBRANCH  44  45
ENDBRANCH  37  39
ENDBRANCH  36  37
ENDBRANCH  35  36
ENDBRANCH  34  35
ENDBRANCH  33  34
ENDBRANCH  32  33
ENDBRANCH   1  32
TORSDOF 23
ENDMDL
MODEL 2
REMARK VINA RESULT:     -10.0      6.198     10.550
REMARK SMILES O=C(CCCN1C(=O)c2ccc3c4c(ccc(c24)C1=O)C(=O)NC3=O)OCCOCCOCCOC(=O)c1ccc(-c2c3nc(c(-c4c(F)cc(S(=O)(=O)[O-])cc4F)c4ccc([nH]4)c(-c4c(F)cc(S(=O)(=O)[O-])cc4F)c4nc(c(-c5c(F)cc(S(=O)(=O)[O-])cc5F)c5ccc2[nH]5)C=C4)C=C3)cc1
REMARK SMILES IDX 30 1 29 2 28 3 27 4 26 5 2 6 1 7 3 8 4 9 5 10 6 11 19 12
REMARK SMILES IDX 7 13 20 14 17 15 9 16 8 17 16 18 18 19 10 20 15 21 13 22
REMARK SMILES IDX 11 23 14 24 12 25 21 26 24 27 23 28 22 29 25 30 31 32 32 33
REMARK SMILES IDX 33 34 34 35 35 36 36 37 37 38 38 39 39 40 103 41 40 42
REMARK SMILES IDX 102 43 41 44 42 45 43 46 96 47 44 48 101 49 95 50 97 51
REMARK SMILES IDX 45 52 100 53 94 54 93 55 46 57 80 58 59 59 79 60 60 61 63 62
REMARK SMILES IDX 78 63 98 64 61 65 62 66 77 68 99 69 64 70 47 71 48 72 57 73
REMARK SMILES IDX 49 74 50 75 56 76 58 77 51 78 52 79 53 80 54 81 55 82 81 83
REMARK SMILES IDX 82 84 91 85 83 86 84 87 90 88 92 89 85 90 86 91 87 92 88 93
REMARK SMILES IDX 89 94 65 95 66 96 75 97 67 98 68 99 74 100 76 101 69 102
REMARK SMILES IDX 70 103 71 104 72 105 73 106
REMARK H PARENT 23 31 97 56 63 67
REMARK Flexibility Score: inf
ROOT
ATOM      1  C   UNL A   1      37.709  21.408  24.663  1.00  0.00     0.188 C 
ENDROOT
BRANCH   1   2
ATOM      2  O   UNL A   1      37.496  22.480  25.567  1.00  0.00    -0.376 OA
BRANCH   2   3
ATOM      3  C   UNL A   1      36.684  23.549  25.105  1.00  0.00     0.202 C 
BRANCH   3   4
ATOM      4  C   UNL A   1      35.558  24.035  26.008  1.00  0.00     0.261 C 
BRANCH   4   5
ATOM      5  O   UNL A   1      34.431  23.170  26.240  1.00  0.00    -0.463 OA
BRANCH   5   6
ATOM      6  C   UNL A   1      34.384  21.876  26.592  1.00  0.00     0.305 C 
ATOM      7  O   UNL A   1      34.381  21.594  27.789  1.00  0.00    -0.252 OA
BRANCH   6   8
ATOM      8  C   UNL A   1      34.246  20.793  25.548  1.00  0.00     0.124 C 
BRANCH   8   9
ATOM      9  C   UNL A   1      32.840  20.235  25.339  1.00  0.00     0.034 C 
BRANCH   9  10
ATOM     10  C   UNL A   1      31.891  20.945  24.351  1.00  0.00     0.130 C 
BRANCH  10  11
ATOM     11  N   UNL A   1      31.936  22.416  24.269  1.00  0.00    -0.274 N 
ATOM     12  C   UNL A   1      32.525  23.020  23.158  1.00  0.00     0.261 C 
ATOM     13  C   UNL A   1      31.150  23.134  25.174  1.00  0.00     0.261 C 
ATOM     14  O   UNL A   1      32.955  22.405  22.189  1.00  0.00    -0.269 OA
ATOM     15  C   UNL A   1      32.599  24.507  23.149  1.00  0.00     0.049 A 
ATOM     16  C   UNL A   1      31.360  24.600  25.238  1.00  0.00     0.049 A 
ATOM     17  O   UNL A   1      30.331  22.633  25.939  1.00  0.00    -0.269 OA
ATOM     18  C   UNL A   1      33.235  25.172  22.092  1.00  0.00     0.015 A 
ATOM     19  C   UNL A   1      32.063  25.236  24.215  1.00  0.00     0.009 A 
ATOM     20  C   UNL A   1      30.872  25.326  26.336  1.00  0.00     0.015 A 
ATOM     21  C   UNL A   1      33.344  26.565  22.101  1.00  0.00     0.015 A 
ATOM     22  C   UNL A   1      32.226  26.645  24.261  1.00  0.00     0.009 A 
ATOM     23  C   UNL A   1      31.091  26.700  26.417  1.00  0.00     0.015 A 
ATOM     24  C   UNL A   1      32.853  27.294  23.187  1.00  0.00     0.048 A 
ATOM     25  C   UNL A   1      31.757  27.355  25.378  1.00  0.00     0.048 A 
ATOM     26  C   UNL A   1      32.974  28.771  23.206  1.00  0.00     0.258 C 
ATOM     27  C   UNL A   1      31.986  28.816  25.459  1.00  0.00     0.258 C 
ATOM     28  N   UNL A   1      32.561  29.401  24.357  1.00  0.00    -0.288 N 
ATOM     29  O   UNL A   1      33.408  29.396  22.247  1.00  0.00    -0.269 OA
ATOM     30  O   UNL A   1      31.677  29.457  26.455  1.00  0.00    -0.269 OA
ATOM     31  H   UNL A   1      32.692  30.376  24.396  1.00  0.00     0.173 HD
ENDBRANCH  10  11
ENDBRANCH   9  10
ENDBRANCH   8   9
ENDBRANCH   6   8
ENDBRANCH   5   6
ENDBRANCH   4   5
ENDBRANCH   3   4
ENDBRANCH   2   3
ENDBRANCH   1   2
BRANCH   1  32
ATOM     32  C   UNL A   1      38.393  20.179  25.272  1.00  0.00     0.188 C 
BRANCH  32  33
ATOM     33  O   UNL A   1      39.680  20.481  25.773  1.00  0.00    -0.376 OA
BRANCH  33  34
ATOM     34  C   UNL A   1      40.544  19.443  26.224  1.00  0.00     0.202 C 
BRANCH  34  35
ATOM     35  C   UNL A   1      42.086  19.424  26.150  1.00  0.00     0.261 C 
BRANCH  35  36
ATOM     36  O   UNL A   1      42.715  19.686  24.897  1.00  0.00    -0.460 OA
BRANCH  36  37
ATOM     37  C   UNL A   1      44.073  19.726  24.953  1.00  0.00     0.338 C 
ATOM     38  O   UNL A   1      44.848  18.800  24.790  1.00  0.00    -0.246 OA
BRANCH  37  39
ATOM     39  C   UNL A   1      44.521  21.103  25.182  1.00  0.00     0.060 A 
ATOM     40  C   UNL A   1      44.957  21.475  26.457  1.00  0.00     0.016 A 
ATOM     41  C   UNL A   1      44.389  22.046  24.162  1.00  0.00     0.016 A 
ATOM     42  C   UNL A   1      45.286  22.804  26.714  1.00  0.00     0.010 A 
ATOM     43  C   UNL A   1      44.702  23.379  24.426  1.00  0.00     0.010 A 
ATOM     44  C   UNL A   1      45.138  23.765  25.706  1.00  0.00    -0.014 A 
BRANCH  44  45
ATOM     45  C   UNL A   1      45.336  25.199  26.005  1.00  0.00     0.031 A 
ATOM     46  C   UNL A   1      46.723  25.770  25.937  1.00  0.00     0.074 A 
ATOM     47  C   UNL A   1      44.290  25.961  26.374  1.00  0.00     0.049 A 
ATOM     48  N   UNL A   1      47.144  26.959  26.274  1.00  0.00    -0.248 NA
ATOM     49  C   UNL A   1      47.780  24.879  25.425  1.00  0.00     0.031 C 
ATOM     50  C   UNL A   1      42.900  25.508  26.438  1.00  0.00     0.029 A 
ATOM     51  N   UNL A   1      44.239  27.266  26.791  1.00  0.00    -0.354 N 
ATOM     52  C   UNL A   1      48.511  26.961  26.027  1.00  0.00     0.074 A 
ATOM     53  C   UNL A   1      48.854  25.651  25.520  1.00  0.00     0.031 C 
ATOM     54  C   UNL A   1      42.137  26.510  26.908  1.00  0.00     0.029 A 
ATOM     55  C   UNL A   1      42.990  27.658  27.211  1.00  0.00     0.049 A 
ATOM     56  H   UNL A   1      45.021  27.864  26.790  1.00  0.00     0.167 HD
ATOM     57  C   UNL A   1      49.395  27.968  26.214  1.00  0.00     0.037 A 
ATOM     58  C   UNL A   1      42.594  28.798  27.812  1.00  0.00     0.037 A 
ATOM     59  C   UNL A   1      49.034  29.266  26.722  1.00  0.00     0.049 A 
ATOM     60  C   UNL A   1      43.616  29.876  28.075  1.00  0.00     0.074 A 
ATOM     61  C   UNL A   1      49.846  30.372  26.905  1.00  0.00     0.029 A 
ATOM     62  N   UNL A   1      47.764  29.626  27.146  1.00  0.00    -0.354 N 
ATOM     63  N   UNL A   1      44.896  29.889  27.781  1.00  0.00    -0.248 NA
ATOM     64  C   UNL A   1      43.145  31.092  28.752  1.00  0.00     0.031 C 
ATOM     65  C   UNL A   1      49.080  31.380  27.497  1.00  0.00     0.029 A 
ATOM     66  C   UNL A   1      47.778  30.922  27.631  1.00  0.00     0.049 A 
ATOM     67  H   UNL A   1      46.970  29.045  27.107  1.00  0.00     0.167 HD
ATOM     68  C   UNL A   1      45.376  31.118  28.223  1.00  0.00     0.074 A 
ATOM     69  C   UNL A   1      44.245  31.830  28.782  1.00  0.00     0.031 C 
ATOM     70  C   UNL A   1      46.637  31.613  28.177  1.00  0.00     0.037 A 
BRANCH  57  71
ATOM     71  C   UNL A   1      50.842  27.713  25.898  1.00  0.00     0.058 A 
ATOM     72  C   UNL A   1      51.368  27.926  24.616  1.00  0.00     0.135 A 
ATOM     73  C   UNL A   1      51.730  27.338  26.920  1.00  0.00     0.135 A 
ATOM     74  F   UNL A   1      50.558  28.264  23.599  1.00  0.00    -0.206 F 
ATOM     75  C   UNL A   1      52.727  27.779  24.356  1.00  0.00     0.059 A 
ATOM     76  C   UNL A   1      53.096  27.208  26.688  1.00  0.00     0.059 A 
ATOM     77  F   UNL A   1      51.276  27.112  28.162  1.00  0.00    -0.206 F 
ATOM     78  C   UNL A   1      53.585  27.430  25.401  1.00  0.00     0.060 A 
BRANCH  78  79
ATOM     79  S   UNL A   1      55.353  27.304  25.059  1.00  0.00     0.124 S 
ATOM     80  O   UNL A   1      55.446  25.960  24.496  1.00  0.00    -0.237 OA
ATOM     81  O   UNL A   1      55.566  28.399  24.119  1.00  0.00    -0.237 OA
ATOM     82  O   UNL A   1      55.969  27.478  26.371  1.00  0.00    -0.744 OA
ENDBRANCH  78  79
ENDBRANCH  57  71
BRANCH  58  83
ATOM     83  C   UNL A   1      41.184  28.965  28.260  1.00  0.00     0.058 A 
ATOM     84  C   UNL A   1      40.159  29.255  27.348  1.00  0.00     0.135 A 
ATOM     85  C   UNL A   1      40.841  28.880  29.620  1.00  0.00     0.135 A 
ATOM     86  F   UNL A   1      40.434  29.358  26.039  1.00  0.00    -0.206 F 
ATOM     87  C   UNL A   1      38.852  29.491  27.769  1.00  0.00     0.059 A 
ATOM     88  C   UNL A   1      39.537  29.081  30.062  1.00  0.00     0.059 A 
ATOM     89  F   UNL A   1      41.780  28.595  30.535  1.00  0.00    -0.206 F 
ATOM     90  C   UNL A   1      38.553  29.405  29.130  1.00  0.00     0.060 A 
BRANCH  90  91
ATOM     91  S   UNL A   1      36.856  29.714  29.666  1.00  0.00     0.124 S 
ATOM     92  O   UNL A   1      36.863  31.163  29.839  1.00  0.00    -0.237 OA
ATOM     93  O   UNL A   1      36.081  29.209  28.538  1.00  0.00    -0.237 OA
ATOM     94  O   UNL A   1      36.745  28.933  30.895  1.00  0.00    -0.744 OA
ENDBRANCH  90  91
ENDBRANCH  58  83
BRANCH  70  95
ATOM     95  C   UNL A   1      46.863  32.994  28.730  1.00  0.00     0.058 A 
ATOM     96  C   UNL A   1      46.702  34.138  27.934  1.00  0.00     0.135 A 
ATOM     97  C   UNL A   1      47.173  33.178  30.087  1.00  0.00     0.135 A 
ATOM     98  F   UNL A   1      46.412  34.018  26.628  1.00  0.00    -0.206 F 
ATOM     99  C   UNL A   1      46.856  35.417  28.460  1.00  0.00     0.059 A 
ATOM    100  C   UNL A   1      47.302  34.447  30.642  1.00  0.00     0.059 A 
ATOM    101  F   UNL A   1      47.327  32.116  30.895  1.00  0.00    -0.206 F 
ATOM    102  C   UNL A   1      47.150  35.561  29.817  1.00  0.00     0.060 A 
BRANCH 102 103
ATOM    103  S   UNL A   1      47.296  37.226  30.496  1.00  0.00     0.124 S 
ATOM    104  O   UNL A   1      46.086  37.322  31.306  1.00  0.00    -0.237 OA
ATOM    105  O   UNL A   1      48.551  37.151  31.238  1.00  0.00    -0.237 OA
ATOM    106  O   UNL A   1      47.327  38.077  29.310  1.00  0.00    -0.744 OA
ENDBRANCH 102 103
ENDBRANCH  70  95
ENDBRANCH  44  45
ENDBRANCH  37  39
ENDBRANCH  36  37
ENDBRANCH  35  36
ENDBRANCH  34  35
ENDBRANCH  33  34
ENDBRANCH  32  33
ENDBRANCH   1  32
TORSDOF 23
ENDMDL
MODEL 3
REMARK VINA RESULT:      -9.5      6.533     14.872
REMARK SMILES O=C(CCCN1C(=O)c2ccc3c4c(ccc(c24)C1=O)C(=O)NC3=O)OCCOCCOCCOC(=O)c1ccc(-c2c3nc(c(-c4c(F)cc(S(=O)(=O)[O-])cc4F)c4ccc([nH]4)c(-c4c(F)cc(S(=O)(=O)[O-])cc4F)c4nc(c(-c5c(F)cc(S(=O)(=O)[O-])cc5F)c5ccc2[nH]5)C=C4)C=C3)cc1
REMARK SMILES IDX 30 1 29 2 28 3 27 4 26 5 2 6 1 7 3 8 4 9 5 10 6 11 19 12
REMARK SMILES IDX 7 13 20 14 17 15 9 16 8 17 16 18 18 19 10 20 15 21 13 22
REMARK SMILES IDX 11 23 14 24 12 25 21 26 24 27 23 28 22 29 25 30 31 32 32 33
REMARK SMILES IDX 33 34 34 35 35 36 36 37 37 38 38 39 39 40 103 41 40 42
REMARK SMILES IDX 102 43 41 44 42 45 43 46 96 47 44 48 101 49 95 50 97 51
REMARK SMILES IDX 45 52 100 53 94 54 93 55 46 57 80 58 59 59 79 60 60 61 63 62
REMARK SMILES IDX 78 63 98 64 61 65 62 66 77 68 99 69 64 70 47 71 48 72 57 73
REMARK SMILES IDX 49 74 50 75 56 76 58 77 51 78 52 79 53 80 54 81 55 82 81 83
REMARK SMILES IDX 82 84 91 85 83 86 84 87 90 88 92 89 85 90 86 91 87 92 88 93
REMARK SMILES IDX 89 94 65 95 66 96 75 97 67 98 68 99 74 100 76 101 69 102
REMARK SMILES IDX 70 103 71 104 72 105 73 106
REMARK H PARENT 23 31 97 56 63 67
REMARK Flexibility Score: inf
ROOT
ATOM      1  C   UNL A   1      51.588  21.912  36.330  1.00  0.00     0.188 C 
ENDROOT
BRANCH   1   2
ATOM      2  O   UNL A   1      50.669  20.841  36.189  1.00  0.00    -0.376 OA
BRANCH   2   3
ATOM      3  C   UNL A   1      49.676  20.718  37.198  1.00  0.00     0.202 C 
BRANCH   3   4
ATOM      4  C   UNL A   1      50.081  20.101  38.529  1.00  0.00     0.261 C 
BRANCH   4   5
ATOM      5  O   UNL A   1      49.279  20.373  39.693  1.00  0.00    -0.463 OA
BRANCH   5   6
ATOM      6  C   UNL A   1      48.285  21.255  39.880  1.00  0.00     0.305 C 
ATOM      7  O   UNL A   1      48.571  22.447  39.986  1.00  0.00    -0.252 OA
BRANCH   6   8
ATOM      8  C   UNL A   1      46.841  20.810  39.869  1.00  0.00     0.124 C 
BRANCH   8   9
ATOM      9  C   UNL A   1      46.491  19.685  38.899  1.00  0.00     0.034 C 
BRANCH   9  10
ATOM     10  C   UNL A   1      46.819  18.229  39.290  1.00  0.00     0.130 C 
BRANCH  10  11
ATOM     11  N   UNL A   1      45.847  17.488  40.115  1.00  0.00    -0.274 N 
ATOM     12  C   UNL A   1      45.954  17.536  41.505  1.00  0.00     0.261 C 
ATOM     13  C   UNL A   1      44.708  16.993  39.475  1.00  0.00     0.261 C 
ATOM     14  O   UNL A   1      46.772  18.221  42.108  1.00  0.00    -0.269 OA
ATOM     15  C   UNL A   1      44.986  16.723  42.292  1.00  0.00     0.049 A 
ATOM     16  C   UNL A   1      43.846  16.067  40.248  1.00  0.00     0.049 A 
ATOM     17  O   UNL A   1      44.393  17.242  38.314  1.00  0.00    -0.269 OA
ATOM     18  C   UNL A   1      45.081  16.678  43.689  1.00  0.00     0.015 A 
ATOM     19  C   UNL A   1      44.005  15.977  41.631  1.00  0.00     0.009 A 
ATOM     20  C   UNL A   1      42.898  15.276  39.580  1.00  0.00     0.015 A 
ATOM     21  C   UNL A   1      44.202  15.883  44.429  1.00  0.00     0.015 A 
ATOM     22  C   UNL A   1      43.151  15.120  42.371  1.00  0.00     0.009 A 
ATOM     23  C   UNL A   1      42.104  14.382  40.297  1.00  0.00     0.015 A 
ATOM     24  C   UNL A   1      43.251  15.100  43.770  1.00  0.00     0.048 A 
ATOM     25  C   UNL A   1      42.226  14.314  41.687  1.00  0.00     0.048 A 
ATOM     26  C   UNL A   1      42.322  14.247  44.549  1.00  0.00     0.258 C 
ATOM     27  C   UNL A   1      41.380  13.369  42.452  1.00  0.00     0.258 C 
ATOM     28  N   UNL A   1      41.489  13.430  43.820  1.00  0.00    -0.288 N 
ATOM     29  O   UNL A   1      42.289  14.278  45.772  1.00  0.00    -0.269 OA
ATOM     30  O   UNL A   1      40.630  12.584  41.888  1.00  0.00    -0.269 OA
ATOM     31  H   UNL A   1      40.910  12.821  44.334  1.00  0.00     0.173 HD
ENDBRANCH  10  11
ENDBRANCH   9  10
ENDBRANCH   8   9
ENDBRANCH   6   8
ENDBRANCH   5   6
ENDBRANCH   4   5
ENDBRANCH   3   4
ENDBRANCH   2   3
ENDBRANCH   1   2
BRANCH   1  32
ATOM     32  C   UNL A   1      51.408  23.051  35.321  1.00  0.00     0.188 C 
BRANCH  32  33
ATOM     33  O   UNL A   1      50.150  23.682  35.450  1.00  0.00    -0.376 OA
BRANCH  33  34
ATOM     34  C   UNL A   1      49.960  24.735  36.390  1.00  0.00     0.202 C 
BRANCH  34  35
ATOM     35  C   UNL A   1      48.719  24.974  37.276  1.00  0.00     0.261 C 
BRANCH  35  36
ATOM     36  O   UNL A   1      47.669  25.799  36.775  1.00  0.00    -0.460 OA
BRANCH  36  37
ATOM     37  C   UNL A   1      46.687  26.060  37.678  1.00  0.00     0.338 C 
ATOM     38  O   UNL A   1      46.612  25.659  38.826  1.00  0.00    -0.246 OA
BRANCH  37  39
ATOM     39  C   UNL A   1      45.707  26.983  37.097  1.00  0.00     0.060 A 
ATOM     40  C   UNL A   1      44.349  26.654  37.144  1.00  0.00     0.016 A 
ATOM     41  C   UNL A   1      46.153  28.108  36.401  1.00  0.00     0.016 A 
ATOM     42  C   UNL A   1      43.418  27.470  36.503  1.00  0.00     0.010 A 
ATOM     43  C   UNL A   1      45.221  28.913  35.747  1.00  0.00     0.010 A 
ATOM     44  C   UNL A   1      43.853  28.590  35.784  1.00  0.00    -0.014 A 
BRANCH  44  45
ATOM     45  C   UNL A   1      42.898  29.377  34.975  1.00  0.00     0.031 A 
ATOM     46  C   UNL A   1      42.241  30.578  35.592  1.00  0.00     0.074 A 
ATOM     47  C   UNL A   1      42.596  28.988  33.723  1.00  0.00     0.049 A 
ATOM     48  N   UNL A   1      41.290  31.335  35.116  1.00  0.00    -0.248 NA
ATOM     49  C   UNL A   1      42.718  30.977  36.929  1.00  0.00     0.031 C 
ATOM     50  C   UNL A   1      43.203  27.856  33.023  1.00  0.00     0.029 A 
ATOM     51  N   UNL A   1      41.682  29.485  32.830  1.00  0.00    -0.354 N 
ATOM     52  C   UNL A   1      41.044  32.292  36.092  1.00  0.00     0.074 A 
ATOM     53  C   UNL A   1      41.938  32.017  37.194  1.00  0.00     0.031 C 
ATOM     54  C   UNL A   1      42.616  27.721  31.822  1.00  0.00     0.029 A 
ATOM     55  C   UNL A   1      41.569  28.731  31.686  1.00  0.00     0.049 A 
ATOM     56  H   UNL A   1      41.157  30.302  32.993  1.00  0.00     0.167 HD
ATOM     57  C   UNL A   1      40.147  33.304  36.065  1.00  0.00     0.037 A 
ATOM     58  C   UNL A   1      40.691  28.824  30.667  1.00  0.00     0.037 A 
ATOM     59  C   UNL A   1      39.263  33.561  34.958  1.00  0.00     0.049 A 
ATOM     60  C   UNL A   1      39.653  29.919  30.699  1.00  0.00     0.074 A 
ATOM     61  C   UNL A   1      38.348  34.590  34.811  1.00  0.00     0.029 A 
ATOM     62  N   UNL A   1      39.168  32.775  33.820  1.00  0.00    -0.354 N 
ATOM     63  N   UNL A   1      39.468  30.856  31.600  1.00  0.00    -0.248 NA
ATOM     64  C   UNL A   1      38.700  29.969  29.580  1.00  0.00     0.031 C 
ATOM     65  C   UNL A   1      37.657  34.388  33.613  1.00  0.00     0.029 A 
ATOM     66  C   UNL A   1      38.180  33.268  32.986  1.00  0.00     0.049 A 
ATOM     67  H   UNL A   1      39.723  31.982  33.634  1.00  0.00     0.167 HD
ATOM     68  C   UNL A   1      38.393  31.614  31.148  1.00  0.00     0.074 A 
ATOM     69  C   UNL A   1      37.983  31.042  29.882  1.00  0.00     0.031 C 
ATOM     70  C   UNL A   1      37.793  32.684  31.727  1.00  0.00     0.037 A 
BRANCH  57  71
ATOM     71  C   UNL A   1      40.046  34.198  37.268  1.00  0.00     0.058 A 
ATOM     72  C   UNL A   1      40.730  35.420  37.342  1.00  0.00     0.135 A 
ATOM     73  C   UNL A   1      39.179  33.866  38.323  1.00  0.00     0.135 A 
ATOM     74  F   UNL A   1      41.587  35.776  36.371  1.00  0.00    -0.206 F 
ATOM     75  C   UNL A   1      40.556  36.286  38.417  1.00  0.00     0.059 A 
ATOM     76  C   UNL A   1      38.973  34.726  39.397  1.00  0.00     0.059 A 
ATOM     77  F   UNL A   1      38.510  32.703  38.306  1.00  0.00    -0.206 F 
ATOM     78  C   UNL A   1      39.666  35.934  39.435  1.00  0.00     0.060 A 
BRANCH  78  79
ATOM     79  S   UNL A   1      39.407  37.096  40.793  1.00  0.00     0.124 S 
ATOM     80  O   UNL A   1      39.071  36.194  41.889  1.00  0.00    -0.237 OA
ATOM     81  O   UNL A   1      40.707  37.753  40.890  1.00  0.00    -0.237 OA
ATOM     82  O   UNL A   1      38.315  37.940  40.317  1.00  0.00    -0.744 OA
ENDBRANCH  78  79
ENDBRANCH  57  71
BRANCH  58  83
ATOM     83  C   UNL A   1      40.708  27.829  29.561  1.00  0.00     0.058 A 
ATOM     84  C   UNL A   1      39.759  26.799  29.492  1.00  0.00     0.135 A 
ATOM     85  C   UNL A   1      41.704  27.864  28.571  1.00  0.00     0.135 A 
ATOM     86  F   UNL A   1      38.792  26.714  30.419  1.00  0.00    -0.206 F 
ATOM     87  C   UNL A   1      39.815  25.818  28.505  1.00  0.00     0.059 A 
ATOM     88  C   UNL A   1      41.763  26.913  27.556  1.00  0.00     0.059 A 
ATOM     89  F   UNL A   1      42.631  28.833  28.581  1.00  0.00    -0.206 F 
ATOM     90  C   UNL A   1      40.825  25.882  27.543  1.00  0.00     0.060 A 
BRANCH  90  91
ATOM     91  S   UNL A   1      40.891  24.605  26.268  1.00  0.00     0.124 S 
ATOM     92  O   UNL A   1      41.769  23.619  26.887  1.00  0.00    -0.237 OA
ATOM     93  O   UNL A   1      39.488  24.223  26.143  1.00  0.00    -0.237 OA
ATOM     94  O   UNL A   1      41.447  25.310  25.116  1.00  0.00    -0.744 OA
ENDBRANCH  90  91
ENDBRANCH  58  83
BRANCH  70  95
ATOM     95  C   UNL A   1      36.641  33.317  30.994  1.00  0.00     0.058 A 
ATOM     96  C   UNL A   1      35.313  33.105  31.394  1.00  0.00     0.135 A 
ATOM     97  C   UNL A   1      36.873  34.200  29.928  1.00  0.00     0.135 A 
ATOM     98  F   UNL A   1      35.037  32.264  32.404  1.00  0.00    -0.206 F 
ATOM     99  C   UNL A   1      34.253  33.736  30.752  1.00  0.00     0.059 A 
ATOM    100  C   UNL A   1      35.830  34.864  29.290  1.00  0.00     0.059 A 
ATOM    101  F   UNL A   1      38.126  34.445  29.513  1.00  0.00    -0.206 F 
ATOM    102  C   UNL A   1      34.522  34.618  29.704  1.00  0.00     0.060 A 
BRANCH 102 103
ATOM    103  S   UNL A   1      33.139  35.467  28.914  1.00  0.00     0.124 S 
ATOM    104  O   UNL A   1      32.512  34.379  28.170  1.00  0.00    -0.237 OA
ATOM    105  O   UNL A   1      32.385  35.968  30.059  1.00  0.00    -0.237 OA
ATOM    106  O   UNL A   1      33.787  36.492  28.101  1.00  0.00    -0.744 OA
ENDBRANCH 102 103
ENDBRANCH  70  95
ENDBRANCH  44  45
ENDBRANCH  37  39
ENDBRANCH  36  37
ENDBRANCH  35  36
ENDBRANCH  34  35
ENDBRANCH  33  34
ENDBRANCH  32  33
ENDBRANCH   1  32
TORSDOF 23
ENDMDL
