MODEL 1
REMARK VINA RESULT:     -10.0      0.000      0.000
REMARK SMILES CC(C)Cc1ccc([C@@H]2CC[NH2+][C@H]2C(=O)OCCOCCOCCOC(=O)c2ccc(-c3c4nc(c(-c5c(F)cc(S(=O)(=O)[O-])cc5F)c5ccc([nH]5)c(-c5c(F)cc(S(=O)(=O)[O-])cc5F)c5nc(c(-c6c(F)cc(S(=O)(=O)[O-])cc6F)c6ccc3[nH]6)C=C5)C=C4)cc2)cc1
REMARK SMILES IDX 20 1 19 2 18 3 17 4 16 5 14 6 15 7 13 8 9 9 10 10 11 11
REMARK SMILES IDX 12 12 8 15 5 16 6 17 95 18 7 19 94 20 4 21 2 22 1 23 3 24
REMARK SMILES IDX 21 25 22 26 23 27 24 28 25 29 26 30 27 31 28 32 29 33 93 34
REMARK SMILES IDX 30 35 92 36 31 37 32 38 33 39 86 40 34 41 91 42 85 43 87 44
REMARK SMILES IDX 35 45 90 46 84 47 83 48 36 50 70 51 49 52 69 53 50 54 53 55
REMARK SMILES IDX 68 56 88 57 51 58 52 59 67 61 89 62 54 63 37 64 38 65 47 66
REMARK SMILES IDX 39 67 40 68 46 69 48 70 41 71 42 72 43 73 44 74 45 75 71 76
REMARK SMILES IDX 72 77 81 78 73 79 74 80 80 81 82 82 75 83 76 84 77 85 78 86
REMARK SMILES IDX 79 87 55 88 56 89 65 90 57 91 58 92 64 93 66 94 59 95 60 96
REMARK SMILES IDX 61 97 62 98 63 99
REMARK H PARENT 12 13 12 14 87 49 53 60
REMARK Flexibility Score: inf
ROOT
ATOM      1  C   UNL A   1      33.632  33.914  28.355  1.00  0.00     0.188 C 
ENDROOT
BRANCH   1   2
ATOM      2  O   UNL A   1      33.589  32.497  28.301  1.00  0.00    -0.376 OA
BRANCH   2   3
ATOM      3  C   UNL A   1      34.714  31.805  27.764  1.00  0.00     0.202 C 
BRANCH   3   4
ATOM      4  C   UNL A   1      34.621  30.292  27.483  1.00  0.00     0.261 C 
BRANCH   4   5
ATOM      5  O   UNL A   1      33.274  29.771  27.359  1.00  0.00    -0.459 OA
BRANCH   5   6
ATOM      6  C   UNL A   1      32.757  29.759  26.107  1.00  0.00     0.365 C 
ATOM      7  O   UNL A   1      31.901  30.559  25.727  1.00  0.00    -0.245 OA
BRANCH   6   8
ATOM      8  C   UNL A   1      33.326  28.682  25.140  1.00  0.00     0.301 C 
ATOM      9  C   UNL A   1      32.488  27.462  24.704  1.00  0.00     0.095 C 
ATOM     10  C   UNL A   1      31.893  27.900  23.370  1.00  0.00     0.076 C 
ATOM     11  C   UNL A   1      32.918  28.841  22.775  1.00  0.00     0.262 C 
ATOM     12  N   UNL A   1      33.709  29.383  23.874  1.00  0.00    -0.334 N 
ATOM     13  H   UNL A   1      33.525  30.382  23.968  1.00  0.00     0.347 HD
ATOM     14  H   UNL A   1      34.701  29.243  23.689  1.00  0.00     0.347 HD
BRANCH   9  15
ATOM     15  C   UNL A   1      33.297  26.162  24.539  1.00  0.00    -0.038 A 
ATOM     16  C   UNL A   1      35.002  23.926  24.085  1.00  0.00    -0.048 A 
ATOM     17  C   UNL A   1      34.027  24.285  23.147  1.00  0.00     0.004 A 
ATOM     18  C   UNL A   1      35.058  24.635  25.287  1.00  0.00     0.004 A 
ATOM     19  C   UNL A   1      33.193  25.395  23.365  1.00  0.00     0.004 A 
ATOM     20  C   UNL A   1      34.216  25.730  25.510  1.00  0.00     0.004 A 
BRANCH  16  21
ATOM     21  C   UNL A   1      36.036  22.860  23.790  1.00  0.00     0.038 C 
BRANCH  21  22
ATOM     22  C   UNL A   1      36.100  21.750  24.866  1.00  0.00    -0.013 C 
ATOM     23  C   UNL A   1      34.885  20.817  24.828  1.00  0.00     0.008 C 
ATOM     24  C   UNL A   1      37.375  20.918  24.705  1.00  0.00     0.008 C 
ENDBRANCH  21  22
ENDBRANCH  16  21
ENDBRANCH   9  15
ENDBRANCH   6   8
ENDBRANCH   5   6
ENDBRANCH   4   5
ENDBRANCH   3   4
ENDBRANCH   2   3
ENDBRANCH   1   2
BRANCH   1  25
ATOM     25  C   UNL A   1      34.596  34.569  29.350  1.00  0.00     0.188 C 
BRANCH  25  26
ATOM     26  O   UNL A   1      34.322  34.349  30.713  1.00  0.00    -0.376 OA
BRANCH  26  27
ATOM     27  C   UNL A   1      35.344  33.906  31.590  1.00  0.00     0.202 C 
BRANCH  27  28
ATOM     28  C   UNL A   1      35.779  32.434  31.742  1.00  0.00     0.261 C 
BRANCH  28  29
ATOM     29  O   UNL A   1      36.395  31.790  30.623  1.00  0.00    -0.460 OA
BRANCH  29  30
ATOM     30  C   UNL A   1      36.605  30.455  30.714  1.00  0.00     0.338 C 
ATOM     31  O   UNL A   1      35.755  29.587  30.843  1.00  0.00    -0.246 OA
BRANCH  30  32
ATOM     32  C   UNL A   1      38.020  30.221  30.342  1.00  0.00     0.060 A 
ATOM     33  C   UNL A   1      38.372  30.152  28.984  1.00  0.00     0.016 A 
ATOM     34  C   UNL A   1      39.000  30.135  31.331  1.00  0.00     0.016 A 
ATOM     35  C   UNL A   1      39.705  29.976  28.610  1.00  0.00     0.010 A 
ATOM     36  C   UNL A   1      40.328  29.925  30.956  1.00  0.00     0.010 A 
ATOM     37  C   UNL A   1      40.681  29.815  29.599  1.00  0.00    -0.014 A 
BRANCH  37  38
ATOM     38  C   UNL A   1      42.021  29.286  29.251  1.00  0.00     0.031 A 
ATOM     39  C   UNL A   1      43.164  30.263  29.230  1.00  0.00     0.074 A 
ATOM     40  C   UNL A   1      42.219  27.996  28.927  1.00  0.00     0.049 A 
ATOM     41  N   UNL A   1      44.383  30.108  28.790  1.00  0.00    -0.248 NA
ATOM     42  C   UNL A   1      42.881  31.605  29.767  1.00  0.00     0.031 C 
ATOM     43  C   UNL A   1      41.205  26.944  28.971  1.00  0.00     0.029 A 
ATOM     44  N   UNL A   1      43.347  27.361  28.470  1.00  0.00    -0.354 N 
ATOM     45  C   UNL A   1      45.006  31.338  28.973  1.00  0.00     0.074 A 
ATOM     46  C   UNL A   1      44.025  32.233  29.542  1.00  0.00     0.031 C 
ATOM     47  C   UNL A   1      41.751  25.798  28.528  1.00  0.00     0.029 A 
ATOM     48  C   UNL A   1      43.135  26.047  28.125  1.00  0.00     0.049 A 
ATOM     49  H   UNL A   1      44.223  27.804  28.394  1.00  0.00     0.167 HD
ATOM     50  C   UNL A   1      46.283  31.685  28.690  1.00  0.00     0.037 A 
ATOM     51  C   UNL A   1      43.956  25.164  27.518  1.00  0.00     0.037 A 
ATOM     52  C   UNL A   1      47.249  30.783  28.124  1.00  0.00     0.049 A 
ATOM     53  C   UNL A   1      45.352  25.595  27.137  1.00  0.00     0.074 A 
ATOM     54  C   UNL A   1      48.572  31.032  27.808  1.00  0.00     0.029 A 
ATOM     55  N   UNL A   1      46.995  29.463  27.783  1.00  0.00    -0.354 N 
ATOM     56  N   UNL A   1      45.936  26.757  27.313  1.00  0.00    -0.248 NA
ATOM     57  C   UNL A   1      46.203  24.596  26.470  1.00  0.00     0.031 C 
ATOM     58  C   UNL A   1      49.102  29.879  27.221  1.00  0.00     0.029 A 
ATOM     59  C   UNL A   1      48.131  28.890  27.238  1.00  0.00     0.049 A 
ATOM     60  H   UNL A   1      46.134  29.002  27.909  1.00  0.00     0.167 HD
ATOM     61  C   UNL A   1      47.232  26.615  26.823  1.00  0.00     0.074 A 
ATOM     62  C   UNL A   1      47.346  25.256  26.338  1.00  0.00     0.031 C 
ATOM     63  C   UNL A   1      48.238  27.524  26.787  1.00  0.00     0.037 A 
BRANCH  50  64
ATOM     64  C   UNL A   1      46.693  33.107  28.954  1.00  0.00     0.058 A 
ATOM     65  C   UNL A   1      46.542  34.115  27.989  1.00  0.00     0.135 A 
ATOM     66  C   UNL A   1      47.220  33.471  30.204  1.00  0.00     0.135 A 
ATOM     67  F   UNL A   1      46.067  33.819  26.769  1.00  0.00    -0.206 F 
ATOM     68  C   UNL A   1      46.923  35.428  28.245  1.00  0.00     0.059 A 
ATOM     69  C   UNL A   1      47.576  34.784  30.493  1.00  0.00     0.059 A 
ATOM     70  F   UNL A   1      47.392  32.545  31.161  1.00  0.00    -0.206 F 
ATOM     71  C   UNL A   1      47.436  35.753  29.503  1.00  0.00     0.060 A 
BRANCH  71  72
ATOM     72  S   UNL A   1      47.913  37.464  29.821  1.00  0.00     0.124 S 
ATOM     73  O   UNL A   1      48.802  37.733  28.695  1.00  0.00    -0.237 OA
ATOM     74  O   UNL A   1      46.627  38.155  29.792  1.00  0.00    -0.237 OA
ATOM     75  O   UNL A   1      48.558  37.401  31.128  1.00  0.00    -0.744 OA
ENDBRANCH  71  72
ENDBRANCH  50  64
BRANCH  51  76
ATOM     76  C   UNL A   1      43.477  23.788  27.209  1.00  0.00     0.058 A 
ATOM     77  C   UNL A   1      43.027  23.450  25.924  1.00  0.00     0.135 A 
ATOM     78  C   UNL A   1      43.448  22.787  28.192  1.00  0.00     0.135 A 
ATOM     79  F   UNL A   1      43.019  24.374  24.951  1.00  0.00    -0.206 F 
ATOM     80  C   UNL A   1      42.550  22.176  25.628  1.00  0.00     0.059 A 
ATOM     81  C   UNL A   1      43.003  21.497  27.914  1.00  0.00     0.059 A 
ATOM     82  F   UNL A   1      43.871  23.054  29.438  1.00  0.00    -0.206 F 
ATOM     83  C   UNL A   1      42.546  21.204  26.631  1.00  0.00     0.060 A 
BRANCH  83  84
ATOM     84  S   UNL A   1      41.963  19.544  26.224  1.00  0.00     0.124 S 
ATOM     85  O   UNL A   1      40.540  19.776  26.005  1.00  0.00    -0.237 OA
ATOM     86  O   UNL A   1      42.748  19.229  25.034  1.00  0.00    -0.237 OA
ATOM     87  O   UNL A   1      42.301  18.768  27.413  1.00  0.00    -0.744 OA
ENDBRANCH  83  84
ENDBRANCH  51  76
BRANCH  63  88
ATOM     88  C   UNL A   1      49.580  27.077  26.273  1.00  0.00     0.058 A 
ATOM     89  C   UNL A   1      50.508  26.410  27.085  1.00  0.00     0.135 A 
ATOM     90  C   UNL A   1      49.893  27.231  24.910  1.00  0.00     0.135 A 
ATOM     91  F   UNL A   1      50.264  26.241  28.393  1.00  0.00    -0.206 F 
ATOM     92  C   UNL A   1      51.704  25.918  26.568  1.00  0.00     0.059 A 
ATOM     93  C   UNL A   1      51.066  26.720  24.365  1.00  0.00     0.059 A 
ATOM     94  F   UNL A   1      49.034  27.851  24.085  1.00  0.00    -0.206 F 
ATOM     95  C   UNL A   1      51.968  26.068  25.204  1.00  0.00     0.060 A 
BRANCH  95  96
ATOM     96  S   UNL A   1      53.489  25.361  24.534  1.00  0.00     0.124 S 
ATOM     97  O   UNL A   1      53.424  23.993  25.035  1.00  0.00    -0.237 OA
ATOM     98  O   UNL A   1      53.300  25.520  23.097  1.00  0.00    -0.237 OA
ATOM     99  O   UNL A   1      54.538  26.192  25.119  1.00  0.00    -0.744 OA
ENDBRANCH  95  96
ENDBRANCH  63  88
ENDBRANCH  37  38
ENDBRANCH  30  32
ENDBRANCH  29  30
ENDBRANCH  28  29
ENDBRANCH  27  28
ENDBRANCH  26  27
ENDBRANCH  25  26
ENDBRANCH   1  25
TORSDOF 23
ENDMDL
MODEL 2
REMARK VINA RESULT:      -9.6      2.234      8.951
REMARK SMILES CC(C)Cc1ccc([C@@H]2CC[NH2+][C@H]2C(=O)OCCOCCOCCOC(=O)c2ccc(-c3c4nc(c(-c5c(F)cc(S(=O)(=O)[O-])cc5F)c5ccc([nH]5)c(-c5c(F)cc(S(=O)(=O)[O-])cc5F)c5nc(c(-c6c(F)cc(S(=O)(=O)[O-])cc6F)c6ccc3[nH]6)C=C5)C=C4)cc2)cc1
REMARK SMILES IDX 20 1 19 2 18 3 17 4 16 5 14 6 15 7 13 8 9 9 10 10 11 11
REMARK SMILES IDX 12 12 8 15 5 16 6 17 95 18 7 19 94 20 4 21 2 22 1 23 3 24
REMARK SMILES IDX 21 25 22 26 23 27 24 28 25 29 26 30 27 31 28 32 29 33 93 34
REMARK SMILES IDX 30 35 92 36 31 37 32 38 33 39 86 40 34 41 91 42 85 43 87 44
REMARK SMILES IDX 35 45 90 46 84 47 83 48 36 50 70 51 49 52 69 53 50 54 53 55
REMARK SMILES IDX 68 56 88 57 51 58 52 59 67 61 89 62 54 63 37 64 38 65 47 66
REMARK SMILES IDX 39 67 40 68 46 69 48 70 41 71 42 72 43 73 44 74 45 75 71 76
REMARK SMILES IDX 72 77 81 78 73 79 74 80 80 81 82 82 75 83 76 84 77 85 78 86
REMARK SMILES IDX 79 87 55 88 56 89 65 90 57 91 58 92 64 93 66 94 59 95 60 96
REMARK SMILES IDX 61 97 62 98 63 99
REMARK H PARENT 12 13 12 14 87 49 53 60
REMARK Flexibility Score: inf
ROOT
ATOM      1  C   UNL A   1      38.504  34.188  34.809  1.00  0.00     0.188 C 
ENDROOT
BRANCH   1   2
ATOM      2  O   UNL A   1      37.850  34.915  33.781  1.00  0.00    -0.376 OA
BRANCH   2   3
ATOM      3  C   UNL A   1      38.218  34.657  32.429  1.00  0.00     0.202 C 
BRANCH   3   4
ATOM      4  C   UNL A   1      37.124  34.435  31.365  1.00  0.00     0.261 C 
BRANCH   4   5
ATOM      5  O   UNL A   1      37.596  34.403  29.995  1.00  0.00    -0.459 OA
BRANCH   5   6
ATOM      6  C   UNL A   1      37.674  33.178  29.423  1.00  0.00     0.365 C 
ATOM      7  O   UNL A   1      38.608  32.401  29.625  1.00  0.00    -0.245 OA
BRANCH   6   8
ATOM      8  C   UNL A   1      36.488  32.775  28.501  1.00  0.00     0.301 C 
ATOM      9  C   UNL A   1      35.280  31.978  29.037  1.00  0.00     0.095 C 
ATOM     10  C   UNL A   1      34.256  33.061  29.360  1.00  0.00     0.076 C 
ATOM     11  C   UNL A   1      34.532  34.168  28.366  1.00  0.00     0.262 C 
ATOM     12  N   UNL A   1      35.920  34.039  27.935  1.00  0.00    -0.334 N 
ATOM     13  H   UNL A   1      36.458  34.837  28.273  1.00  0.00     0.347 HD
ATOM     14  H   UNL A   1      35.965  34.013  26.917  1.00  0.00     0.347 HD
BRANCH   9  15
ATOM     15  C   UNL A   1      34.698  30.959  28.039  1.00  0.00    -0.038 A 
ATOM     16  C   UNL A   1      33.544  28.907  26.437  1.00  0.00    -0.048 A 
ATOM     17  C   UNL A   1      34.892  28.848  26.814  1.00  0.00     0.004 A 
ATOM     18  C   UNL A   1      32.806  30.039  26.789  1.00  0.00     0.004 A 
ATOM     19  C   UNL A   1      35.458  29.854  27.615  1.00  0.00     0.004 A 
ATOM     20  C   UNL A   1      33.376  31.048  27.572  1.00  0.00     0.004 A 
BRANCH  16  21
ATOM     21  C   UNL A   1      32.862  27.747  25.742  1.00  0.00     0.038 C 
BRANCH  21  22
ATOM     22  C   UNL A   1      31.457  28.097  25.196  1.00  0.00    -0.013 C 
ATOM     23  C   UNL A   1      31.504  29.106  24.043  1.00  0.00     0.008 C 
ATOM     24  C   UNL A   1      30.732  26.833  24.725  1.00  0.00     0.008 C 
ENDBRANCH  21  22
ENDBRANCH  16  21
ENDBRANCH   9  15
ENDBRANCH   6   8
ENDBRANCH   5   6
ENDBRANCH   4   5
ENDBRANCH   3   4
ENDBRANCH   2   3
ENDBRANCH   1   2
BRANCH   1  25
ATOM     25  C   UNL A   1      37.757  33.013  35.448  1.00  0.00     0.188 C 
BRANCH  25  26
ATOM     26  O   UNL A   1      36.808  32.366  34.634  1.00  0.00    -0.376 OA
BRANCH  26  27
ATOM     27  C   UNL A   1      37.224  31.486  33.603  1.00  0.00     0.202 C 
BRANCH  27  28
ATOM     28  C   UNL A   1      36.345  31.077  32.404  1.00  0.00     0.261 C 
BRANCH  28  29
ATOM     29  O   UNL A   1      36.701  29.900  31.672  1.00  0.00    -0.460 OA
BRANCH  29  30
ATOM     30  C   UNL A   1      37.609  29.070  32.237  1.00  0.00     0.338 C 
ATOM     31  O   UNL A   1      37.398  28.229  33.098  1.00  0.00    -0.246 OA
BRANCH  30  32
ATOM     32  C   UNL A   1      38.841  29.168  31.420  1.00  0.00     0.060 A 
ATOM     33  C   UNL A   1      38.746  29.093  30.019  1.00  0.00     0.016 A 
ATOM     34  C   UNL A   1      40.073  29.398  32.032  1.00  0.00     0.016 A 
ATOM     35  C   UNL A   1      39.887  29.228  29.228  1.00  0.00     0.010 A 
ATOM     36  C   UNL A   1      41.219  29.498  31.241  1.00  0.00     0.010 A 
ATOM     37  C   UNL A   1      41.135  29.384  29.841  1.00  0.00    -0.014 A 
BRANCH  37  38
ATOM     38  C   UNL A   1      42.382  29.181  29.067  1.00  0.00     0.031 A 
ATOM     39  C   UNL A   1      42.633  27.807  28.510  1.00  0.00     0.074 A 
ATOM     40  C   UNL A   1      43.283  30.163  28.892  1.00  0.00     0.049 A 
ATOM     41  N   UNL A   1      43.710  27.315  27.960  1.00  0.00    -0.248 NA
ATOM     42  C   UNL A   1      41.513  26.854  28.603  1.00  0.00     0.031 C 
ATOM     43  C   UNL A   1      43.125  31.548  29.330  1.00  0.00     0.029 A 
ATOM     44  N   UNL A   1      44.530  30.130  28.317  1.00  0.00    -0.354 N 
ATOM     45  C   UNL A   1      43.408  25.990  27.665  1.00  0.00     0.074 A 
ATOM     46  C   UNL A   1      42.057  25.749  28.116  1.00  0.00     0.031 C 
ATOM     47  C   UNL A   1      44.247  32.228  29.033  1.00  0.00     0.029 A 
ATOM     48  C   UNL A   1      45.218  31.315  28.430  1.00  0.00     0.049 A 
ATOM     49  H   UNL A   1      44.896  29.334  27.868  1.00  0.00     0.167 HD
ATOM     50  C   UNL A   1      44.191  25.061  27.070  1.00  0.00     0.037 A 
ATOM     51  C   UNL A   1      46.497  31.611  28.118  1.00  0.00     0.037 A 
ATOM     52  C   UNL A   1      45.535  25.315  26.626  1.00  0.00     0.049 A 
ATOM     53  C   UNL A   1      47.381  30.537  27.528  1.00  0.00     0.074 A 
ATOM     54  C   UNL A   1      46.411  24.445  26.003  1.00  0.00     0.029 A 
ATOM     55  N   UNL A   1      46.199  26.525  26.763  1.00  0.00    -0.354 N 
ATOM     56  N   UNL A   1      47.090  29.288  27.250  1.00  0.00    -0.248 NA
ATOM     57  C   UNL A   1      48.768  30.910  27.213  1.00  0.00     0.031 C 
ATOM     58  C   UNL A   1      47.626  25.112  25.817  1.00  0.00     0.029 A 
ATOM     59  C   UNL A   1      47.483  26.418  26.258  1.00  0.00     0.049 A 
ATOM     60  H   UNL A   1      45.814  27.339  27.163  1.00  0.00     0.167 HD
ATOM     61  C   UNL A   1      48.241  28.741  26.687  1.00  0.00     0.074 A 
ATOM     62  C   UNL A   1      49.234  29.794  26.668  1.00  0.00     0.031 C 
ATOM     63  C   UNL A   1      48.452  27.486  26.219  1.00  0.00     0.037 A 
BRANCH  50  64
ATOM     64  C   UNL A   1      43.627  23.678  26.902  1.00  0.00     0.058 A 
ATOM     65  C   UNL A   1      43.463  22.804  27.989  1.00  0.00     0.135 A 
ATOM     66  C   UNL A   1      43.217  23.231  25.635  1.00  0.00     0.135 A 
ATOM     67  F   UNL A   1      43.860  23.171  29.218  1.00  0.00    -0.206 F 
ATOM     68  C   UNL A   1      42.937  21.529  27.821  1.00  0.00     0.059 A 
ATOM     69  C   UNL A   1      42.658  21.971  25.451  1.00  0.00     0.059 A 
ATOM     70  F   UNL A   1      43.358  24.023  24.560  1.00  0.00    -0.206 F 
ATOM     71  C   UNL A   1      42.533  21.122  26.548  1.00  0.00     0.060 A 
BRANCH  71  72
ATOM     72  S   UNL A   1      41.841  19.467  26.352  1.00  0.00     0.124 S 
ATOM     73  O   UNL A   1      42.458  19.040  25.100  1.00  0.00    -0.237 OA
ATOM     74  O   UNL A   1      42.315  18.788  27.555  1.00  0.00    -0.237 OA
ATOM     75  O   UNL A   1      40.403  19.702  26.293  1.00  0.00    -0.744 OA
ENDBRANCH  71  72
ENDBRANCH  50  64
BRANCH  51  76
ATOM     76  C   UNL A   1      47.033  32.977  28.374  1.00  0.00     0.058 A 
ATOM     77  C   UNL A   1      47.658  33.293  29.589  1.00  0.00     0.135 A 
ATOM     78  C   UNL A   1      46.922  33.996  27.415  1.00  0.00     0.135 A 
ATOM     79  F   UNL A   1      47.775  32.359  30.545  1.00  0.00    -0.206 F 
ATOM     80  C   UNL A   1      48.137  34.573  29.854  1.00  0.00     0.059 A 
ATOM     81  C   UNL A   1      47.421  35.276  27.644  1.00  0.00     0.059 A 
ATOM     82  F   UNL A   1      46.337  33.748  26.232  1.00  0.00    -0.206 F 
ATOM     83  C   UNL A   1      48.017  35.557  28.871  1.00  0.00     0.060 A 
BRANCH  83  84
ATOM     84  S   UNL A   1      48.681  37.203  29.210  1.00  0.00     0.124 S 
ATOM     85  O   UNL A   1      49.263  37.018  30.535  1.00  0.00    -0.237 OA
ATOM     86  O   UNL A   1      49.632  37.379  28.117  1.00  0.00    -0.237 OA
ATOM     87  O   UNL A   1      47.502  38.059  29.152  1.00  0.00    -0.744 OA
ENDBRANCH  83  84
ENDBRANCH  51  76
BRANCH  63  88
ATOM     88  C   UNL A   1      49.779  27.181  25.577  1.00  0.00     0.058 A 
ATOM     89  C   UNL A   1      50.026  27.420  24.218  1.00  0.00     0.135 A 
ATOM     90  C   UNL A   1      50.854  26.740  26.371  1.00  0.00     0.135 A 
ATOM     91  F   UNL A   1      49.036  27.837  23.414  1.00  0.00    -0.206 F 
ATOM     92  C   UNL A   1      51.288  27.224  23.664  1.00  0.00     0.059 A 
ATOM     93  C   UNL A   1      52.130  26.568  25.845  1.00  0.00     0.059 A 
ATOM     94  F   UNL A   1      50.676  26.507  27.681  1.00  0.00    -0.206 F 
ATOM     95  C   UNL A   1      52.337  26.808  24.488  1.00  0.00     0.060 A 
BRANCH  95  96
ATOM     96  S   UNL A   1      53.984  26.628  23.770  1.00  0.00     0.124 S 
ATOM     97  O   UNL A   1      54.485  27.997  23.833  1.00  0.00    -0.237 OA
ATOM     98  O   UNL A   1      54.617  25.678  24.678  1.00  0.00    -0.237 OA
ATOM     99  O   UNL A   1      53.716  26.121  22.427  1.00  0.00    -0.744 OA
ENDBRANCH  95  96
ENDBRANCH  63  88
ENDBRANCH  37  38
ENDBRANCH  30  32
ENDBRANCH  29  30
ENDBRANCH  28  29
ENDBRANCH  27  28
ENDBRANCH  26  27
ENDBRANCH  25  26
ENDBRANCH   1  25
TORSDOF 23
ENDMDL
MODEL 3
REMARK VINA RESULT:      -8.7      5.417      8.133
REMARK SMILES CC(C)Cc1ccc([C@@H]2CC[NH2+][C@H]2C(=O)OCCOCCOCCOC(=O)c2ccc(-c3c4nc(c(-c5c(F)cc(S(=O)(=O)[O-])cc5F)c5ccc([nH]5)c(-c5c(F)cc(S(=O)(=O)[O-])cc5F)c5nc(c(-c6c(F)cc(S(=O)(=O)[O-])cc6F)c6ccc3[nH]6)C=C5)C=C4)cc2)cc1
REMARK SMILES IDX 20 1 19 2 18 3 17 4 16 5 14 6 15 7 13 8 9 9 10 10 11 11
REMARK SMILES IDX 12 12 8 15 5 16 6 17 95 18 7 19 94 20 4 21 2 22 1 23 3 24
REMARK SMILES IDX 21 25 22 26 23 27 24 28 25 29 26 30 27 31 28 32 29 33 93 34
REMARK SMILES IDX 30 35 92 36 31 37 32 38 33 39 86 40 34 41 91 42 85 43 87 44
REMARK SMILES IDX 35 45 90 46 84 47 83 48 36 50 70 51 49 52 69 53 50 54 53 55
REMARK SMILES IDX 68 56 88 57 51 58 52 59 67 61 89 62 54 63 37 64 38 65 47 66
REMARK SMILES IDX 39 67 40 68 46 69 48 70 41 71 42 72 43 73 44 74 45 75 71 76
REMARK SMILES IDX 72 77 81 78 73 79 74 80 80 81 82 82 75 83 76 84 77 85 78 86
REMARK SMILES IDX 79 87 55 88 56 89 65 90 57 91 58 92 64 93 66 94 59 95 60 96
REMARK SMILES IDX 61 97 62 98 63 99
REMARK H PARENT 12 13 12 14 87 49 53 60
REMARK Flexibility Score: inf
ROOT
ATOM      1  C   UNL A   1      33.385  28.091  24.726  1.00  0.00     0.188 C 
ENDROOT
BRANCH   1   2
ATOM      2  O   UNL A   1      32.173  27.425  24.410  1.00  0.00    -0.376 OA
BRANCH   2   3
ATOM      3  C   UNL A   1      31.103  27.483  25.349  1.00  0.00     0.202 C 
BRANCH   3   4
ATOM      4  C   UNL A   1      30.321  26.201  25.701  1.00  0.00     0.261 C 
BRANCH   4   5
ATOM      5  O   UNL A   1      30.918  24.968  25.230  1.00  0.00    -0.459 OA
BRANCH   5   6
ATOM      6  C   UNL A   1      31.785  24.367  26.079  1.00  0.00     0.365 C 
ATOM      7  O   UNL A   1      31.491  24.062  27.235  1.00  0.00    -0.245 OA
BRANCH   6   8
ATOM      8  C   UNL A   1      33.196  24.048  25.506  1.00  0.00     0.301 C 
ATOM      9  C   UNL A   1      33.687  22.596  25.327  1.00  0.00     0.095 C 
ATOM     10  C   UNL A   1      33.364  22.290  23.868  1.00  0.00     0.076 C 
ATOM     11  C   UNL A   1      33.478  23.619  23.156  1.00  0.00     0.262 C 
ATOM     12  N   UNL A   1      33.270  24.670  24.146  1.00  0.00    -0.334 N 
ATOM     13  H   UNL A   1      32.399  25.161  23.947  1.00  0.00     0.347 HD
ATOM     14  H   UNL A   1      34.043  25.335  24.113  1.00  0.00     0.347 HD
BRANCH   9  15
ATOM     15  C   UNL A   1      35.188  22.394  25.607  1.00  0.00    -0.038 A 
ATOM     16  C   UNL A   1      38.012  22.113  25.835  1.00  0.00    -0.048 A 
ATOM     17  C   UNL A   1      37.222  21.052  25.378  1.00  0.00     0.004 A 
ATOM     18  C   UNL A   1      37.374  23.280  26.260  1.00  0.00     0.004 A 
ATOM     19  C   UNL A   1      35.829  21.194  25.253  1.00  0.00     0.004 A 
ATOM     20  C   UNL A   1      35.986  23.414  26.152  1.00  0.00     0.004 A 
BRANCH  16  21
ATOM     21  C   UNL A   1      39.525  22.053  25.795  1.00  0.00     0.038 C 
BRANCH  21  22
ATOM     22  C   UNL A   1      40.184  22.198  27.187  1.00  0.00    -0.013 C 
ATOM     23  C   UNL A   1      41.003  20.966  27.587  1.00  0.00     0.008 C 
ATOM     24  C   UNL A   1      41.087  23.434  27.228  1.00  0.00     0.008 C 
ENDBRANCH  21  22
ENDBRANCH  16  21
ENDBRANCH   9  15
ENDBRANCH   6   8
ENDBRANCH   5   6
ENDBRANCH   4   5
ENDBRANCH   3   4
ENDBRANCH   2   3
ENDBRANCH   1   2
BRANCH   1  25
ATOM     25  C   UNL A   1      33.324  29.273  25.700  1.00  0.00     0.188 C 
BRANCH  25  26
ATOM     26  O   UNL A   1      34.446  29.447  26.533  1.00  0.00    -0.376 OA
BRANCH  26  27
ATOM     27  C   UNL A   1      34.381  30.309  27.656  1.00  0.00     0.202 C 
BRANCH  27  28
ATOM     28  C   UNL A   1      34.477  31.847  27.576  1.00  0.00     0.261 C 
BRANCH  28  29
ATOM     29  O   UNL A   1      33.405  32.622  28.121  1.00  0.00    -0.460 OA
BRANCH  29  30
ATOM     30  C   UNL A   1      33.733  33.770  28.761  1.00  0.00     0.338 C 
ATOM     31  O   UNL A   1      33.043  34.773  28.864  1.00  0.00    -0.246 OA
BRANCH  30  32
ATOM     32  C   UNL A   1      34.953  33.484  29.551  1.00  0.00     0.060 A 
ATOM     33  C   UNL A   1      36.164  34.102  29.194  1.00  0.00     0.016 A 
ATOM     34  C   UNL A   1      34.885  32.662  30.675  1.00  0.00     0.016 A 
ATOM     35  C   UNL A   1      37.316  33.882  29.950  1.00  0.00     0.010 A 
ATOM     36  C   UNL A   1      36.045  32.416  31.411  1.00  0.00     0.010 A 
ATOM     37  C   UNL A   1      37.269  33.000  31.034  1.00  0.00    -0.014 A 
BRANCH  37  38
ATOM     38  C   UNL A   1      38.521  32.479  31.633  1.00  0.00     0.031 A 
ATOM     39  C   UNL A   1      38.932  33.038  32.967  1.00  0.00     0.074 A 
ATOM     40  C   UNL A   1      39.291  31.573  31.006  1.00  0.00     0.049 A 
ATOM     41  N   UNL A   1      40.054  32.895  33.619  1.00  0.00    -0.248 NA
ATOM     42  C   UNL A   1      37.940  33.888  33.649  1.00  0.00     0.031 C 
ATOM     43  C   UNL A   1      38.969  30.914  29.742  1.00  0.00     0.029 A 
ATOM     44  N   UNL A   1      40.524  31.072  31.344  1.00  0.00    -0.354 N 
ATOM     45  C   UNL A   1      39.914  33.657  34.774  1.00  0.00     0.074 A 
ATOM     46  C   UNL A   1      38.610  34.276  34.723  1.00  0.00     0.031 C 
ATOM     47  C   UNL A   1      39.994  30.116  29.395  1.00  0.00     0.029 A 
ATOM     48  C   UNL A   1      41.062  30.245  30.386  1.00  0.00     0.049 A 
ATOM     49  H   UNL A   1      40.980  31.286  32.190  1.00  0.00     0.167 HD
ATOM     50  C   UNL A   1      40.798  33.822  35.785  1.00  0.00     0.037 A 
ATOM     51  C   UNL A   1      42.290  29.691  30.306  1.00  0.00     0.037 A 
ATOM     52  C   UNL A   1      42.094  33.199  35.823  1.00  0.00     0.049 A 
ATOM     53  C   UNL A   1      43.291  29.952  31.406  1.00  0.00     0.074 A 
ATOM     54  C   UNL A   1      43.062  33.293  36.806  1.00  0.00     0.029 A 
ATOM     55  N   UNL A   1      42.605  32.374  34.833  1.00  0.00    -0.354 N 
ATOM     56  N   UNL A   1      43.153  30.671  32.496  1.00  0.00    -0.248 NA
ATOM     57  C   UNL A   1      44.617  29.331  31.265  1.00  0.00     0.031 C 
ATOM     58  C   UNL A   1      44.182  32.572  36.382  1.00  0.00     0.029 A 
ATOM     59  C   UNL A   1      43.885  31.969  35.170  1.00  0.00     0.049 A 
ATOM     60  H   UNL A   1      42.128  32.115  34.011  1.00  0.00     0.167 HD
ATOM     61  C   UNL A   1      44.355  30.550  33.190  1.00  0.00     0.074 A 
ATOM     62  C   UNL A   1      45.210  29.694  32.395  1.00  0.00     0.031 C 
ATOM     63  C   UNL A   1      44.713  31.091  34.381  1.00  0.00     0.037 A 
BRANCH  50  64
ATOM     64  C   UNL A   1      40.407  34.739  36.910  1.00  0.00     0.058 A 
ATOM     65  C   UNL A   1      40.842  36.073  36.968  1.00  0.00     0.135 A 
ATOM     66  C   UNL A   1      39.559  34.282  37.933  1.00  0.00     0.135 A 
ATOM     67  F   UNL A   1      41.673  36.555  36.030  1.00  0.00    -0.206 F 
ATOM     68  C   UNL A   1      40.471  36.912  38.012  1.00  0.00     0.059 A 
ATOM     69  C   UNL A   1      39.150  35.114  38.969  1.00  0.00     0.059 A 
ATOM     70  F   UNL A   1      39.120  33.013  37.931  1.00  0.00    -0.206 F 
ATOM     71  C   UNL A   1      39.621  36.425  39.007  1.00  0.00     0.060 A 
BRANCH  71  72
ATOM     72  S   UNL A   1      39.141  37.532  40.348  1.00  0.00     0.124 S 
ATOM     73  O   UNL A   1      38.147  38.374  39.689  1.00  0.00    -0.237 OA
ATOM     74  O   UNL A   1      38.621  36.603  41.347  1.00  0.00    -0.237 OA
ATOM     75  O   UNL A   1      40.389  38.198  40.705  1.00  0.00    -0.744 OA
ENDBRANCH  71  72
ENDBRANCH  50  64
BRANCH  51  76
ATOM     76  C   UNL A   1      42.656  28.851  29.132  1.00  0.00     0.058 A 
ATOM     77  C   UNL A   1      42.309  27.492  29.078  1.00  0.00     0.135 A 
ATOM     78  C   UNL A   1      43.368  29.384  28.046  1.00  0.00     0.135 A 
ATOM     79  F   UNL A   1      41.642  26.930  30.097  1.00  0.00    -0.206 F 
ATOM     80  C   UNL A   1      42.669  26.689  28.000  1.00  0.00     0.059 A 
ATOM     81  C   UNL A   1      43.714  28.607  26.943  1.00  0.00     0.059 A 
ATOM     82  F   UNL A   1      43.722  30.679  28.043  1.00  0.00    -0.206 F 
ATOM     83  C   UNL A   1      43.368  27.258  26.934  1.00  0.00     0.060 A 
BRANCH  83  84
ATOM     84  S   UNL A   1      43.793  26.214  25.523  1.00  0.00     0.124 S 
ATOM     85  O   UNL A   1      44.827  27.008  24.869  1.00  0.00    -0.237 OA
ATOM     86  O   UNL A   1      44.247  24.989  26.175  1.00  0.00    -0.237 OA
ATOM     87  O   UNL A   1      42.532  26.099  24.798  1.00  0.00    -0.744 OA
ENDBRANCH  83  84
ENDBRANCH  51  76
BRANCH  63  88
ATOM     88  C   UNL A   1      46.059  30.728  34.949  1.00  0.00     0.058 A 
ATOM     89  C   UNL A   1      46.253  29.591  35.746  1.00  0.00     0.135 A 
ATOM     90  C   UNL A   1      47.193  31.482  34.596  1.00  0.00     0.135 A 
ATOM     91  F   UNL A   1      45.205  28.839  36.117  1.00  0.00    -0.206 F 
ATOM     92  C   UNL A   1      47.521  29.217  36.182  1.00  0.00     0.059 A 
ATOM     93  C   UNL A   1      48.473  31.110  34.994  1.00  0.00     0.059 A 
ATOM     94  F   UNL A   1      47.067  32.573  33.825  1.00  0.00    -0.206 F 
ATOM     95  C   UNL A   1      48.627  29.977  35.791  1.00  0.00     0.060 A 
BRANCH  95  96
ATOM     96  S   UNL A   1      50.273  29.438  36.304  1.00  0.00     0.124 S 
ATOM     97  O   UNL A   1      51.024  30.687  36.244  1.00  0.00    -0.237 OA
ATOM     98  O   UNL A   1      50.024  28.911  37.641  1.00  0.00    -0.237 OA
ATOM     99  O   UNL A   1      50.634  28.442  35.299  1.00  0.00    -0.744 OA
ENDBRANCH  95  96
ENDBRANCH  63  88
ENDBRANCH  37  38
ENDBRANCH  30  32
ENDBRANCH  29  30
ENDBRANCH  28  29
ENDBRANCH  27  28
ENDBRANCH  26  27
ENDBRANCH  25  26
ENDBRANCH   1  25
TORSDOF 23
ENDMDL
