MODEL 1
REMARK VINA RESULT:     -11.8      0.000      0.000
REMARK SMILES O=C(OCCOCCOCCOC(=O)[C@H](c1c[nH]c2cc(F)ccc12)[NH+]1CC[NH+](Cc2cccc(Cl)c2)CC1)c1ccc(-c2c3nc(c(-c4c(F)cc(S(=O)(=O)[O-])cc4F)c4ccc([nH]4)c(-c4c(F)cc(S(=O)(=O)[O-])cc4F)c4nc(c(-c5c(F)cc(S(=O)(=O)[O-])cc5F)c5ccc2[nH]5)C=C4)C=C3)cc1
REMARK SMILES IDX 7 1 6 2 5 3 4 4 3 5 2 6 1 7 40 8 41 9 105 10 42 11 104 12
REMARK SMILES IDX 43 13 44 14 45 15 98 16 46 17 103 18 97 19 99 20 47 21
REMARK SMILES IDX 102 22 96 23 95 24 48 26 82 27 61 28 81 29 62 30 65 31 80 32
REMARK SMILES IDX 100 33 63 34 64 35 79 37 101 38 66 39 49 40 50 41 59 42
REMARK SMILES IDX 51 43 52 44 58 45 60 46 53 47 54 48 55 49 56 50 57 51 83 52
REMARK SMILES IDX 84 53 93 54 85 55 86 56 92 57 94 58 87 59 88 60 89 61 90 62
REMARK SMILES IDX 91 63 67 64 68 65 77 66 69 67 70 68 76 69 78 70 71 71 72 72
REMARK SMILES IDX 73 73 74 74 75 75 8 76 9 77 10 78 11 79 12 80 13 81 14 82
REMARK SMILES IDX 15 83 26 84 27 85 39 86 28 88 38 89 29 90 30 92 31 93 32 94
REMARK SMILES IDX 37 95 33 96 35 97 34 98 36 99 16 100 17 101 25 102 18 103
REMARK SMILES IDX 19 104 24 105 20 107 23 108 21 109 22 110
REMARK H PARENT 99 25 65 36 26 87 29 91 18 106
REMARK Flexibility Score: inf
ROOT
ATOM      1  C   UNL A   1      33.814  33.119  28.045  1.00  0.00     0.188 C 
ENDROOT
BRANCH   1   2
ATOM      2  O   UNL A   1      34.239  33.496  29.352  1.00  0.00    -0.376 OA
BRANCH   2   3
ATOM      3  C   UNL A   1      35.636  33.728  29.494  1.00  0.00     0.202 C 
BRANCH   3   4
ATOM      4  C   UNL A   1      36.317  32.936  30.624  1.00  0.00     0.261 C 
BRANCH   4   5
ATOM      5  O   UNL A   1      35.917  31.559  30.758  1.00  0.00    -0.460 OA
BRANCH   5   6
ATOM      6  C   UNL A   1      36.628  30.408  30.709  1.00  0.00     0.338 C 
ATOM      7  O   UNL A   1      36.098  29.396  31.175  1.00  0.00    -0.246 OA
BRANCH   6   8
ATOM      8  C   UNL A   1      38.012  30.262  30.150  1.00  0.00     0.060 A 
ATOM      9  C   UNL A   1      38.337  30.108  28.802  1.00  0.00     0.016 A 
ATOM     10  C   UNL A   1      39.079  30.302  31.073  1.00  0.00     0.016 A 
ATOM     11  C   UNL A   1      39.654  29.984  28.376  1.00  0.00     0.010 A 
ATOM     12  C   UNL A   1      40.408  30.143  30.663  1.00  0.00     0.010 A 
ATOM     13  C   UNL A   1      40.689  29.949  29.308  1.00  0.00    -0.014 A 
BRANCH  13  14
ATOM     14  C   UNL A   1      41.986  29.421  28.844  1.00  0.00     0.031 A 
ATOM     15  C   UNL A   1      43.169  30.346  28.941  1.00  0.00     0.074 A 
ATOM     16  C   UNL A   1      42.117  28.127  28.500  1.00  0.00     0.049 A 
ATOM     17  N   UNL A   1      44.420  30.128  28.645  1.00  0.00    -0.248 NA
ATOM     18  C   UNL A   1      42.903  31.705  29.454  1.00  0.00     0.031 C 
ATOM     19  C   UNL A   1      41.030  27.149  28.452  1.00  0.00     0.029 A 
ATOM     20  N   UNL A   1      43.226  27.407  28.147  1.00  0.00    -0.354 N 
ATOM     21  C   UNL A   1      45.080  31.327  28.896  1.00  0.00     0.074 A 
ATOM     22  C   UNL A   1      44.099  32.268  29.381  1.00  0.00     0.031 C 
ATOM     23  C   UNL A   1      41.529  25.951  28.097  1.00  0.00     0.029 A 
ATOM     24  C   UNL A   1      42.965  26.082  27.877  1.00  0.00     0.049 A 
ATOM     25  H   UNL A   1      44.126  27.800  28.093  1.00  0.00     0.167 HD
ATOM     26  C   UNL A   1      46.389  31.614  28.718  1.00  0.00     0.037 A 
ATOM     27  C   UNL A   1      43.812  25.109  27.486  1.00  0.00     0.037 A 
ATOM     28  C   UNL A   1      47.338  30.655  28.225  1.00  0.00     0.049 A 
ATOM     29  C   UNL A   1      45.258  25.471  27.284  1.00  0.00     0.074 A 
ATOM     30  C   UNL A   1      48.679  30.829  27.942  1.00  0.00     0.029 A 
ATOM     31  N   UNL A   1      47.032  29.332  27.937  1.00  0.00    -0.354 N 
ATOM     32  N   UNL A   1      45.862  26.617  27.489  1.00  0.00    -0.248 NA
ATOM     33  C   UNL A   1      46.133  24.406  26.776  1.00  0.00     0.031 C 
ATOM     34  C   UNL A   1      49.173  29.624  27.434  1.00  0.00     0.029 A 
ATOM     35  C   UNL A   1      48.154  28.682  27.459  1.00  0.00     0.049 A 
ATOM     36  H   UNL A   1      46.146  28.917  28.054  1.00  0.00     0.167 HD
ATOM     37  C   UNL A   1      47.186  26.414  27.124  1.00  0.00     0.074 A 
ATOM     38  C   UNL A   1      47.304  25.022  26.739  1.00  0.00     0.031 C 
ATOM     39  C   UNL A   1      48.214  27.295  27.083  1.00  0.00     0.037 A 
BRANCH  26  40
ATOM     40  C   UNL A   1      46.832  33.028  28.970  1.00  0.00     0.058 A 
ATOM     41  C   UNL A   1      46.815  34.012  27.970  1.00  0.00     0.135 A 
ATOM     42  C   UNL A   1      47.300  33.397  30.242  1.00  0.00     0.135 A 
ATOM     43  F   UNL A   1      46.408  33.707  26.727  1.00  0.00    -0.206 F 
ATOM     44  C   UNL A   1      47.273  35.304  28.213  1.00  0.00     0.059 A 
ATOM     45  C   UNL A   1      47.737  34.690  30.516  1.00  0.00     0.059 A 
ATOM     46  F   UNL A   1      47.352  32.493  31.232  1.00  0.00    -0.206 F 
ATOM     47  C   UNL A   1      47.733  35.633  29.490  1.00  0.00     0.060 A 
BRANCH  47  48
ATOM     48  S   UNL A   1      48.330  37.310  29.789  1.00  0.00     0.124 S 
ATOM     49  O   UNL A   1      48.563  37.784  28.428  1.00  0.00    -0.237 OA
ATOM     50  O   UNL A   1      47.204  37.920  30.488  1.00  0.00    -0.237 OA
ATOM     51  O   UNL A   1      49.529  37.106  30.596  1.00  0.00    -0.744 OA
ENDBRANCH  47  48
ENDBRANCH  26  40
BRANCH  27  52
ATOM     52  C   UNL A   1      43.361  23.721  27.206  1.00  0.00     0.058 A 
ATOM     53  C   UNL A   1      43.138  23.284  25.888  1.00  0.00     0.135 A 
ATOM     54  C   UNL A   1      43.066  22.829  28.246  1.00  0.00     0.135 A 
ATOM     55  F   UNL A   1      43.416  24.097  24.858  1.00  0.00    -0.206 F 
ATOM     56  C   UNL A   1      42.646  22.011  25.610  1.00  0.00     0.059 A 
ATOM     57  C   UNL A   1      42.578  21.550  27.994  1.00  0.00     0.059 A 
ATOM     58  F   UNL A   1      43.271  23.193  29.521  1.00  0.00    -0.206 F 
ATOM     59  C   UNL A   1      42.373  21.148  26.672  1.00  0.00     0.060 A 
BRANCH  59  60
ATOM     60  S   UNL A   1      41.922  19.432  26.307  1.00  0.00     0.124 S 
ATOM     61  O   UNL A   1      40.469  19.518  26.237  1.00  0.00    -0.237 OA
ATOM     62  O   UNL A   1      42.608  19.189  25.042  1.00  0.00    -0.237 OA
ATOM     63  O   UNL A   1      42.461  18.704  27.453  1.00  0.00    -0.744 OA
ENDBRANCH  59  60
ENDBRANCH  27  52
BRANCH  39  64
ATOM     64  C   UNL A   1      49.532  26.763  26.610  1.00  0.00     0.058 A 
ATOM     65  C   UNL A   1      50.427  26.137  27.491  1.00  0.00     0.135 A 
ATOM     66  C   UNL A   1      49.882  26.852  25.255  1.00  0.00     0.135 A 
ATOM     67  F   UNL A   1      50.139  26.046  28.798  1.00  0.00    -0.206 F 
ATOM     68  C   UNL A   1      51.641  25.632  27.043  1.00  0.00     0.059 A 
ATOM     69  C   UNL A   1      51.076  26.325  24.782  1.00  0.00     0.059 A 
ATOM     70  F   UNL A   1      49.054  27.440  24.378  1.00  0.00    -0.206 F 
ATOM     71  C   UNL A   1      51.953  25.727  25.686  1.00  0.00     0.060 A 
BRANCH  71  72
ATOM     72  S   UNL A   1      53.512  25.028  25.112  1.00  0.00     0.124 S 
ATOM     73  O   UNL A   1      53.258  23.597  25.244  1.00  0.00    -0.237 OA
ATOM     74  O   UNL A   1      53.594  25.535  23.745  1.00  0.00    -0.237 OA
ATOM     75  O   UNL A   1      54.494  25.581  26.040  1.00  0.00    -0.744 OA
ENDBRANCH  71  72
ENDBRANCH  39  64
ENDBRANCH  13  14
ENDBRANCH   6   8
ENDBRANCH   5   6
ENDBRANCH   4   5
ENDBRANCH   3   4
ENDBRANCH   2   3
ENDBRANCH   1   2
BRANCH   1  76
ATOM     76  C   UNL A   1      33.951  31.637  27.704  1.00  0.00     0.188 C 
BRANCH  76  77
ATOM     77  O   UNL A   1      32.746  31.054  27.222  1.00  0.00    -0.376 OA
BRANCH  77  78
ATOM     78  C   UNL A   1      32.964  29.853  26.484  1.00  0.00     0.202 C 
BRANCH  78  79
ATOM     79  C   UNL A   1      32.321  28.602  27.086  1.00  0.00     0.261 C 
BRANCH  79  80
ATOM     80  O   UNL A   1      32.022  27.508  26.199  1.00  0.00    -0.459 OA
BRANCH  80  81
ATOM     81  C   UNL A   1      33.041  26.779  25.669  1.00  0.00     0.370 C 
ATOM     82  O   UNL A   1      34.114  26.611  26.253  1.00  0.00    -0.245 OA
BRANCH  81  83
ATOM     83  C   UNL A   1      32.663  26.288  24.250  1.00  0.00     0.328 C 
BRANCH  83  84
ATOM     84  N   UNL A   1      31.708  25.150  24.285  1.00  0.00    -0.310 N 
ATOM     85  C   UNL A   1      31.696  24.261  23.117  1.00  0.00     0.325 C 
ATOM     86  C   UNL A   1      31.714  24.344  25.509  1.00  0.00     0.325 C 
ATOM     87  H   UNL A   1      30.837  25.681  24.261  1.00  0.00     0.349 HD
ATOM     88  C   UNL A   1      32.559  22.959  23.162  1.00  0.00     0.324 C 
ATOM     89  C   UNL A   1      32.816  23.268  25.591  1.00  0.00     0.324 C 
ATOM     90  N   UNL A   1      32.902  22.337  24.456  1.00  0.00    -0.322 N 
ATOM     91  H   UNL A   1      33.888  22.097  24.361  1.00  0.00     0.348 HD
BRANCH  90  92
ATOM     92  C   UNL A   1      32.237  21.042  24.716  1.00  0.00     0.299 C 
BRANCH  92  93
ATOM     93  C   UNL A   1      32.844  19.893  23.952  1.00  0.00     0.008 A 
ATOM     94  C   UNL A   1      32.274  19.515  22.737  1.00  0.00     0.009 A 
ATOM     95  C   UNL A   1      33.775  19.044  24.578  1.00  0.00     0.030 A 
ATOM     96  C   UNL A   1      32.444  18.217  22.285  1.00  0.00     0.002 A 
ATOM     97  C   UNL A   1      33.959  17.751  24.101  1.00  0.00     0.041 A 
ATOM     98  C   UNL A   1      33.252  17.323  22.988  1.00  0.00     0.020 A 
ATOM     99  Cl  UNL A   1      34.898  16.635  25.011  1.00  0.00    -0.084 Cl
ENDBRANCH  92  93
ENDBRANCH  90  92
ENDBRANCH  83  84
BRANCH  83 100
ATOM    100  C   UNL A   1      32.056  27.363  23.335  1.00  0.00     0.046 A 
ATOM    101  C   UNL A   1      32.745  28.306  22.586  1.00  0.00     0.094 A 
ATOM    102  C   UNL A   1      30.656  27.708  23.202  1.00  0.00     0.009 A 
ATOM    103  N   UNL A   1      31.869  29.265  22.163  1.00  0.00    -0.361 N 
ATOM    104  C   UNL A   1      30.591  28.934  22.528  1.00  0.00     0.049 A 
ATOM    105  C   UNL A   1      29.438  27.143  23.650  1.00  0.00     0.014 A 
ATOM    106  H   UNL A   1      32.121  30.076  21.666  1.00  0.00     0.166 HD
ATOM    107  C   UNL A   1      29.400  29.644  22.337  1.00  0.00     0.065 A 
ATOM    108  C   UNL A   1      28.229  27.824  23.429  1.00  0.00     0.040 A 
ATOM    109  C   UNL A   1      28.227  29.060  22.799  1.00  0.00     0.125 A 
ATOM    110  F   UNL A   1      27.067  29.710  22.623  1.00  0.00    -0.207 F 
ENDBRANCH  83 100
ENDBRANCH  81  83
ENDBRANCH  80  81
ENDBRANCH  79  80
ENDBRANCH  78  79
ENDBRANCH  77  78
ENDBRANCH  76  77
ENDBRANCH   1  76
TORSDOF 24
ENDMDL
MODEL 2
REMARK VINA RESULT:     -11.5      2.436      5.049
REMARK SMILES O=C(OCCOCCOCCOC(=O)[C@H](c1c[nH]c2cc(F)ccc12)[NH+]1CC[NH+](Cc2cccc(Cl)c2)CC1)c1ccc(-c2c3nc(c(-c4c(F)cc(S(=O)(=O)[O-])cc4F)c4ccc([nH]4)c(-c4c(F)cc(S(=O)(=O)[O-])cc4F)c4nc(c(-c5c(F)cc(S(=O)(=O)[O-])cc5F)c5ccc2[nH]5)C=C4)C=C3)cc1
REMARK SMILES IDX 7 1 6 2 5 3 4 4 3 5 2 6 1 7 40 8 41 9 105 10 42 11 104 12
REMARK SMILES IDX 43 13 44 14 45 15 98 16 46 17 103 18 97 19 99 20 47 21
REMARK SMILES IDX 102 22 96 23 95 24 48 26 82 27 61 28 81 29 62 30 65 31 80 32
REMARK SMILES IDX 100 33 63 34 64 35 79 37 101 38 66 39 49 40 50 41 59 42
REMARK SMILES IDX 51 43 52 44 58 45 60 46 53 47 54 48 55 49 56 50 57 51 83 52
REMARK SMILES IDX 84 53 93 54 85 55 86 56 92 57 94 58 87 59 88 60 89 61 90 62
REMARK SMILES IDX 91 63 67 64 68 65 77 66 69 67 70 68 76 69 78 70 71 71 72 72
REMARK SMILES IDX 73 73 74 74 75 75 8 76 9 77 10 78 11 79 12 80 13 81 14 82
REMARK SMILES IDX 15 83 26 84 27 85 39 86 28 88 38 89 29 90 30 92 31 93 32 94
REMARK SMILES IDX 37 95 33 96 35 97 34 98 36 99 16 100 17 101 25 102 18 103
REMARK SMILES IDX 19 104 24 105 20 107 23 108 21 109 22 110
REMARK H PARENT 99 25 65 36 26 87 29 91 18 106
REMARK Flexibility Score: inf
ROOT
ATOM      1  C   UNL A   1      33.678  33.342  28.071  1.00  0.00     0.188 C 
ENDROOT
BRANCH   1   2
ATOM      2  O   UNL A   1      34.226  33.927  29.251  1.00  0.00    -0.376 OA
BRANCH   2   3
ATOM      3  C   UNL A   1      35.635  33.790  29.398  1.00  0.00     0.202 C 
BRANCH   3   4
ATOM      4  C   UNL A   1      36.091  33.108  30.700  1.00  0.00     0.261 C 
BRANCH   4   5
ATOM      5  O   UNL A   1      35.792  31.704  30.814  1.00  0.00    -0.460 OA
BRANCH   5   6
ATOM      6  C   UNL A   1      36.593  30.623  30.966  1.00  0.00     0.338 C 
ATOM      7  O   UNL A   1      36.170  29.700  31.666  1.00  0.00    -0.246 OA
BRANCH   6   8
ATOM      8  C   UNL A   1      37.959  30.460  30.367  1.00  0.00     0.060 A 
ATOM      9  C   UNL A   1      38.242  30.297  29.012  1.00  0.00     0.016 A 
ATOM     10  C   UNL A   1      39.052  30.493  31.260  1.00  0.00     0.016 A 
ATOM     11  C   UNL A   1      39.545  30.158  28.548  1.00  0.00     0.010 A 
ATOM     12  C   UNL A   1      40.367  30.318  30.811  1.00  0.00     0.010 A 
ATOM     13  C   UNL A   1      40.607  30.115  29.450  1.00  0.00    -0.014 A 
BRANCH  13  14
ATOM     14  C   UNL A   1      41.884  29.572  28.951  1.00  0.00     0.031 A 
ATOM     15  C   UNL A   1      43.084  30.477  29.030  1.00  0.00     0.074 A 
ATOM     16  C   UNL A   1      41.986  28.280  28.591  1.00  0.00     0.049 A 
ATOM     17  N   UNL A   1      44.324  30.242  28.703  1.00  0.00    -0.248 NA
ATOM     18  C   UNL A   1      42.851  31.834  29.563  1.00  0.00     0.031 C 
ATOM     19  C   UNL A   1      40.882  27.319  28.558  1.00  0.00     0.029 A 
ATOM     20  N   UNL A   1      43.075  27.545  28.206  1.00  0.00    -0.354 N 
ATOM     21  C   UNL A   1      45.009  31.427  28.952  1.00  0.00     0.074 A 
ATOM     22  C   UNL A   1      44.054  32.378  29.469  1.00  0.00     0.031 C 
ATOM     23  C   UNL A   1      41.354  26.117  28.180  1.00  0.00     0.029 A 
ATOM     24  C   UNL A   1      42.787  26.228  27.928  1.00  0.00     0.049 A 
ATOM     25  H   UNL A   1      43.980  27.925  28.134  1.00  0.00     0.167 HD
ATOM     26  C   UNL A   1      46.318  31.695  28.746  1.00  0.00     0.037 A 
ATOM     27  C   UNL A   1      43.608  25.246  27.508  1.00  0.00     0.037 A 
ATOM     28  C   UNL A   1      47.240  30.727  28.222  1.00  0.00     0.049 A 
ATOM     29  C   UNL A   1      45.055  25.586  27.276  1.00  0.00     0.074 A 
ATOM     30  C   UNL A   1      48.577  30.882  27.910  1.00  0.00     0.029 A 
ATOM     31  N   UNL A   1      46.906  29.412  27.927  1.00  0.00    -0.354 N 
ATOM     32  N   UNL A   1      45.682  26.721  27.479  1.00  0.00    -0.248 NA
ATOM     33  C   UNL A   1      45.901  24.513  26.737  1.00  0.00     0.031 C 
ATOM     34  C   UNL A   1      49.039  29.674  27.379  1.00  0.00     0.029 A 
ATOM     35  C   UNL A   1      48.006  28.749  27.418  1.00  0.00     0.049 A 
ATOM     36  H   UNL A   1      46.017  29.010  28.061  1.00  0.00     0.167 HD
ATOM     37  C   UNL A   1      46.994  26.500  27.082  1.00  0.00     0.074 A 
ATOM     38  C   UNL A   1      47.081  25.110  26.680  1.00  0.00     0.031 C 
ATOM     39  C   UNL A   1      48.035  27.365  27.026  1.00  0.00     0.037 A 
BRANCH  26  40
ATOM     40  C   UNL A   1      46.789  33.099  29.003  1.00  0.00     0.058 A 
ATOM     41  C   UNL A   1      47.334  33.498  30.233  1.00  0.00     0.135 A 
ATOM     42  C   UNL A   1      46.673  34.071  27.994  1.00  0.00     0.135 A 
ATOM     43  F   UNL A   1      47.438  32.618  31.243  1.00  0.00    -0.206 F 
ATOM     44  C   UNL A   1      47.722  34.814  30.465  1.00  0.00     0.059 A 
ATOM     45  C   UNL A   1      47.079  35.386  28.194  1.00  0.00     0.059 A 
ATOM     46  F   UNL A   1      46.145  33.749  26.803  1.00  0.00    -0.206 F 
ATOM     47  C   UNL A   1      47.590  35.752  29.438  1.00  0.00     0.060 A 
BRANCH  47  48
ATOM     48  S   UNL A   1      48.090  37.458  29.754  1.00  0.00     0.124 S 
ATOM     49  O   UNL A   1      49.528  37.307  29.955  1.00  0.00    -0.237 OA
ATOM     50  O   UNL A   1      47.690  38.131  28.523  1.00  0.00    -0.237 OA
ATOM     51  O   UNL A   1      47.325  37.823  30.942  1.00  0.00    -0.744 OA
ENDBRANCH  47  48
ENDBRANCH  26  40
BRANCH  27  52
ATOM     52  C   UNL A   1      43.128  23.868  27.224  1.00  0.00     0.058 A 
ATOM     53  C   UNL A   1      43.241  22.849  28.188  1.00  0.00     0.135 A 
ATOM     54  C   UNL A   1      42.623  23.519  25.964  1.00  0.00     0.135 A 
ATOM     55  F   UNL A   1      43.708  23.136  29.412  1.00  0.00    -0.206 F 
ATOM     56  C   UNL A   1      42.863  21.537  27.915  1.00  0.00     0.059 A 
ATOM     57  C   UNL A   1      42.235  22.216  25.669  1.00  0.00     0.059 A 
ATOM     58  F   UNL A   1      42.486  24.456  25.013  1.00  0.00    -0.206 F 
ATOM     59  C   UNL A   1      42.356  21.230  26.652  1.00  0.00     0.060 A 
BRANCH  59  60
ATOM     60  S   UNL A   1      41.685  19.573  26.359  1.00  0.00     0.124 S 
ATOM     61  O   UNL A   1      42.495  19.121  25.236  1.00  0.00    -0.237 OA
ATOM     62  O   UNL A   1      41.932  18.906  27.633  1.00  0.00    -0.237 OA
ATOM     63  O   UNL A   1      40.280  19.841  26.064  1.00  0.00    -0.744 OA
ENDBRANCH  59  60
ENDBRANCH  27  52
BRANCH  39  64
ATOM     64  C   UNL A   1      49.333  26.817  26.518  1.00  0.00     0.058 A 
ATOM     65  C   UNL A   1      49.714  26.964  25.175  1.00  0.00     0.135 A 
ATOM     66  C   UNL A   1      50.218  26.172  27.395  1.00  0.00     0.135 A 
ATOM     67  F   UNL A   1      48.890  27.560  24.299  1.00  0.00    -0.206 F 
ATOM     68  C   UNL A   1      50.925  26.468  24.713  1.00  0.00     0.059 A 
ATOM     69  C   UNL A   1      51.448  25.699  26.960  1.00  0.00     0.059 A 
ATOM     70  F   UNL A   1      49.895  26.014  28.688  1.00  0.00    -0.206 F 
ATOM     71  C   UNL A   1      51.787  25.841  25.614  1.00  0.00     0.060 A 
BRANCH  71  72
ATOM     72  S   UNL A   1      53.376  25.242  25.011  1.00  0.00     0.124 S 
ATOM     73  O   UNL A   1      54.308  25.971  25.864  1.00  0.00    -0.237 OA
ATOM     74  O   UNL A   1      53.279  23.806  25.257  1.00  0.00    -0.237 OA
ATOM     75  O   UNL A   1      53.373  25.632  23.603  1.00  0.00    -0.744 OA
ENDBRANCH  71  72
ENDBRANCH  39  64
ENDBRANCH  13  14
ENDBRANCH   6   8
ENDBRANCH   5   6
ENDBRANCH   4   5
ENDBRANCH   3   4
ENDBRANCH   2   3
ENDBRANCH   1   2
BRANCH   1  76
ATOM     76  C   UNL A   1      34.028  31.875  27.833  1.00  0.00     0.188 C 
BRANCH  76  77
ATOM     77  O   UNL A   1      32.960  31.124  27.269  1.00  0.00    -0.376 OA
BRANCH  77  78
ATOM     78  C   UNL A   1      33.408  30.009  26.500  1.00  0.00     0.202 C 
BRANCH  78  79
ATOM     79  C   UNL A   1      33.569  28.707  27.287  1.00  0.00     0.261 C 
BRANCH  79  80
ATOM     80  O   UNL A   1      32.668  27.625  26.986  1.00  0.00    -0.459 OA
BRANCH  80  81
ATOM     81  C   UNL A   1      33.084  26.615  26.175  1.00  0.00     0.370 C 
ATOM     82  O   UNL A   1      34.269  26.438  25.884  1.00  0.00    -0.245 OA
BRANCH  81  83
ATOM     83  C   UNL A   1      31.865  25.816  25.652  1.00  0.00     0.328 C 
BRANCH  83  84
ATOM     84  N   UNL A   1      31.649  26.009  24.194  1.00  0.00    -0.310 N 
ATOM     85  C   UNL A   1      30.274  25.858  23.703  1.00  0.00     0.325 C 
ATOM     86  C   UNL A   1      32.244  27.215  23.611  1.00  0.00     0.325 C 
ATOM     87  H   UNL A   1      32.175  25.203  23.854  1.00  0.00     0.349 HD
ATOM     88  C   UNL A   1      29.392  27.138  23.551  1.00  0.00     0.324 C 
ATOM     89  C   UNL A   1      31.424  28.510  23.784  1.00  0.00     0.324 C 
ATOM     90  N   UNL A   1      30.023  28.457  23.340  1.00  0.00    -0.322 N 
ATOM     91  H   UNL A   1      29.505  29.079  23.960  1.00  0.00     0.348 HD
BRANCH  90  92
ATOM     92  C   UNL A   1      29.818  29.033  21.993  1.00  0.00     0.299 C 
BRANCH  92  93
ATOM     93  C   UNL A   1      28.966  30.277  21.998  1.00  0.00     0.008 A 
ATOM     94  C   UNL A   1      28.096  30.503  20.931  1.00  0.00     0.009 A 
ATOM     95  C   UNL A   1      29.245  31.320  22.899  1.00  0.00     0.030 A 
ATOM     96  C   UNL A   1      27.711  31.799  20.635  1.00  0.00     0.002 A 
ATOM     97  C   UNL A   1      28.831  32.614  22.608  1.00  0.00     0.041 A 
ATOM     98  C   UNL A   1      28.112  32.859  21.447  1.00  0.00     0.020 A 
ATOM     99  Cl  UNL A   1      29.388  33.923  23.573  1.00  0.00    -0.084 Cl
ENDBRANCH  92  93
ENDBRANCH  90  92
ENDBRANCH  83  84
BRANCH  83 100
ATOM    100  C   UNL A   1      31.928  24.302  25.905  1.00  0.00     0.046 A 
ATOM    101  C   UNL A   1      31.193  23.582  26.836  1.00  0.00     0.094 A 
ATOM    102  C   UNL A   1      32.873  23.360  25.344  1.00  0.00     0.009 A 
ATOM    103  N   UNL A   1      31.745  22.341  26.975  1.00  0.00    -0.361 N 
ATOM    104  C   UNL A   1      32.775  22.177  26.086  1.00  0.00     0.049 A 
ATOM    105  C   UNL A   1      33.858  23.414  24.329  1.00  0.00     0.014 A 
ATOM    106  H   UNL A   1      31.444  21.661  27.621  1.00  0.00     0.166 HD
ATOM    107  C   UNL A   1      33.634  21.086  25.914  1.00  0.00     0.065 A 
ATOM    108  C   UNL A   1      34.702  22.312  24.115  1.00  0.00     0.040 A 
ATOM    109  C   UNL A   1      34.593  21.182  24.912  1.00  0.00     0.125 A 
ATOM    110  F   UNL A   1      35.428  20.151  24.714  1.00  0.00    -0.207 F 
ENDBRANCH  83 100
ENDBRANCH  81  83
ENDBRANCH  80  81
ENDBRANCH  79  80
ENDBRANCH  78  79
ENDBRANCH  77  78
ENDBRANCH  76  77
ENDBRANCH   1  76
TORSDOF 24
ENDMDL
MODEL 3
REMARK VINA RESULT:     -11.5      0.565      7.786
REMARK SMILES O=C(OCCOCCOCCOC(=O)[C@H](c1c[nH]c2cc(F)ccc12)[NH+]1CC[NH+](Cc2cccc(Cl)c2)CC1)c1ccc(-c2c3nc(c(-c4c(F)cc(S(=O)(=O)[O-])cc4F)c4ccc([nH]4)c(-c4c(F)cc(S(=O)(=O)[O-])cc4F)c4nc(c(-c5c(F)cc(S(=O)(=O)[O-])cc5F)c5ccc2[nH]5)C=C4)C=C3)cc1
REMARK SMILES IDX 7 1 6 2 5 3 4 4 3 5 2 6 1 7 40 8 41 9 105 10 42 11 104 12
REMARK SMILES IDX 43 13 44 14 45 15 98 16 46 17 103 18 97 19 99 20 47 21
REMARK SMILES IDX 102 22 96 23 95 24 48 26 82 27 61 28 81 29 62 30 65 31 80 32
REMARK SMILES IDX 100 33 63 34 64 35 79 37 101 38 66 39 49 40 50 41 59 42
REMARK SMILES IDX 51 43 52 44 58 45 60 46 53 47 54 48 55 49 56 50 57 51 83 52
REMARK SMILES IDX 84 53 93 54 85 55 86 56 92 57 94 58 87 59 88 60 89 61 90 62
REMARK SMILES IDX 91 63 67 64 68 65 77 66 69 67 70 68 76 69 78 70 71 71 72 72
REMARK SMILES IDX 73 73 74 74 75 75 8 76 9 77 10 78 11 79 12 80 13 81 14 82
REMARK SMILES IDX 15 83 26 84 27 85 39 86 28 88 38 89 29 90 30 92 31 93 32 94
REMARK SMILES IDX 37 95 33 96 35 97 34 98 36 99 16 100 17 101 25 102 18 103
REMARK SMILES IDX 19 104 24 105 20 107 23 108 21 109 22 110
REMARK H PARENT 99 25 65 36 26 87 29 91 18 106
REMARK Flexibility Score: inf
ROOT
ATOM      1  C   UNL A   1      34.067  33.091  28.351  1.00  0.00     0.188 C 
ENDROOT
BRANCH   1   2
ATOM      2  O   UNL A   1      34.536  33.492  29.636  1.00  0.00    -0.376 OA
BRANCH   2   3
ATOM      3  C   UNL A   1      35.950  33.558  29.772  1.00  0.00     0.202 C 
BRANCH   3   4
ATOM      4  C   UNL A   1      36.527  32.779  30.968  1.00  0.00     0.261 C 
BRANCH   4   5
ATOM      5  O   UNL A   1      36.184  31.382  31.035  1.00  0.00    -0.460 OA
BRANCH   5   6
ATOM      6  C   UNL A   1      36.918  30.264  30.824  1.00  0.00     0.338 C 
ATOM      7  O   UNL A   1      36.369  29.180  31.034  1.00  0.00    -0.246 OA
BRANCH   6   8
ATOM      8  C   UNL A   1      38.347  30.234  30.371  1.00  0.00     0.060 A 
ATOM      9  C   UNL A   1      38.793  30.410  29.061  1.00  0.00     0.016 A 
ATOM     10  C   UNL A   1      39.326  30.024  31.367  1.00  0.00     0.016 A 
ATOM     11  C   UNL A   1      40.144  30.370  28.737  1.00  0.00     0.010 A 
ATOM     12  C   UNL A   1      40.687  29.945  31.049  1.00  0.00     0.010 A 
ATOM     13  C   UNL A   1      41.091  30.086  29.719  1.00  0.00    -0.014 A 
BRANCH  13  14
ATOM     14  C   UNL A   1      42.426  29.663  29.256  1.00  0.00     0.031 A 
ATOM     15  C   UNL A   1      42.540  28.272  28.693  1.00  0.00     0.074 A 
ATOM     16  C   UNL A   1      43.443  30.542  29.202  1.00  0.00     0.049 A 
ATOM     17  N   UNL A   1      43.574  27.666  28.181  1.00  0.00    -0.248 NA
ATOM     18  C   UNL A   1      41.310  27.455  28.700  1.00  0.00     0.031 C 
ATOM     19  C   UNL A   1      43.389  31.931  29.660  1.00  0.00     0.029 A 
ATOM     20  N   UNL A   1      44.715  30.403  28.716  1.00  0.00    -0.354 N 
ATOM     21  C   UNL A   1      43.133  26.390  27.844  1.00  0.00     0.074 A 
ATOM     22  C   UNL A   1      41.735  26.309  28.194  1.00  0.00     0.031 C 
ATOM     23  C   UNL A   1      44.577  32.519  29.426  1.00  0.00     0.029 A 
ATOM     24  C   UNL A   1      45.477  31.545  28.818  1.00  0.00     0.049 A 
ATOM     25  H   UNL A   1      45.054  29.563  28.329  1.00  0.00     0.167 HD
ATOM     26  C   UNL A   1      43.844  25.375  27.305  1.00  0.00     0.037 A 
ATOM     27  C   UNL A   1      46.761  31.748  28.462  1.00  0.00     0.037 A 
ATOM     28  C   UNL A   1      45.238  25.487  26.975  1.00  0.00     0.049 A 
ATOM     29  C   UNL A   1      47.524  30.591  27.879  1.00  0.00     0.074 A 
ATOM     30  C   UNL A   1      46.092  24.521  26.479  1.00  0.00     0.029 A 
ATOM     31  N   UNL A   1      45.982  26.651  27.117  1.00  0.00    -0.354 N 
ATOM     32  N   UNL A   1      47.106  29.379  27.600  1.00  0.00    -0.248 NA
ATOM     33  C   UNL A   1      48.943  30.826  27.582  1.00  0.00     0.031 C 
ATOM     34  C   UNL A   1      47.366  25.087  26.370  1.00  0.00     0.029 A 
ATOM     35  C   UNL A   1      47.291  26.422  26.738  1.00  0.00     0.049 A 
ATOM     36  H   UNL A   1      45.630  27.511  27.441  1.00  0.00     0.167 HD
ATOM     37  C   UNL A   1      48.214  28.705  27.105  1.00  0.00     0.074 A 
ATOM     38  C   UNL A   1      49.304  29.659  27.072  1.00  0.00     0.031 C 
ATOM     39  C   UNL A   1      48.338  27.408  26.732  1.00  0.00     0.037 A 
BRANCH  26  40
ATOM     40  C   UNL A   1      43.149  24.053  27.132  1.00  0.00     0.058 A 
ATOM     41  C   UNL A   1      42.973  23.151  28.192  1.00  0.00     0.135 A 
ATOM     42  C   UNL A   1      42.666  23.678  25.867  1.00  0.00     0.135 A 
ATOM     43  F   UNL A   1      43.445  23.444  29.415  1.00  0.00    -0.206 F 
ATOM     44  C   UNL A   1      42.367  21.912  28.000  1.00  0.00     0.059 A 
ATOM     45  C   UNL A   1      42.033  22.457  25.658  1.00  0.00     0.059 A 
ATOM     46  F   UNL A   1      42.820  24.496  24.814  1.00  0.00    -0.206 F 
ATOM     47  C   UNL A   1      41.901  21.574  26.728  1.00  0.00     0.060 A 
BRANCH  47  48
ATOM     48  S   UNL A   1      41.123  19.962  26.491  1.00  0.00     0.124 S 
ATOM     49  O   UNL A   1      39.782  20.346  26.060  1.00  0.00    -0.237 OA
ATOM     50  O   UNL A   1      41.968  19.358  25.466  1.00  0.00    -0.237 OA
ATOM     51  O   UNL A   1      41.206  19.347  27.811  1.00  0.00    -0.744 OA
ENDBRANCH  47  48
ENDBRANCH  26  40
BRANCH  27  52
ATOM     52  C   UNL A   1      47.451  33.049  28.667  1.00  0.00     0.058 A 
ATOM     53  C   UNL A   1      48.107  33.338  29.877  1.00  0.00     0.135 A 
ATOM     54  C   UNL A   1      47.405  34.057  27.695  1.00  0.00     0.135 A 
ATOM     55  F   UNL A   1      48.188  32.401  30.834  1.00  0.00    -0.206 F 
ATOM     56  C   UNL A   1      48.696  34.577  30.115  1.00  0.00     0.059 A 
ATOM     57  C   UNL A   1      47.990  35.302  27.906  1.00  0.00     0.059 A 
ATOM     58  F   UNL A   1      46.802  33.829  26.518  1.00  0.00    -0.206 F 
ATOM     59  C   UNL A   1      48.637  35.553  29.119  1.00  0.00     0.060 A 
BRANCH  59  60
ATOM     60  S   UNL A   1      49.569  37.089  29.348  1.00  0.00     0.124 S 
ATOM     61  O   UNL A   1      50.278  36.822  30.592  1.00  0.00    -0.237 OA
ATOM     62  O   UNL A   1      50.392  37.139  28.143  1.00  0.00    -0.237 OA
ATOM     63  O   UNL A   1      48.516  38.099  29.419  1.00  0.00    -0.744 OA
ENDBRANCH  59  60
ENDBRANCH  27  52
BRANCH  39  64
ATOM     64  C   UNL A   1      49.693  26.975  26.263  1.00  0.00     0.058 A 
ATOM     65  C   UNL A   1      50.667  26.516  27.162  1.00  0.00     0.135 A 
ATOM     66  C   UNL A   1      50.002  26.986  24.894  1.00  0.00     0.135 A 
ATOM     67  F   UNL A   1      50.420  26.506  28.481  1.00  0.00    -0.206 F 
ATOM     68  C   UNL A   1      51.916  26.101  26.720  1.00  0.00     0.059 A 
ATOM     69  C   UNL A   1      51.232  26.544  24.428  1.00  0.00     0.059 A 
ATOM     70  F   UNL A   1      49.097  27.413  23.999  1.00  0.00    -0.206 F 
ATOM     71  C   UNL A   1      52.187  26.114  25.350  1.00  0.00     0.060 A 
BRANCH  71  72
ATOM     72  S   UNL A   1      53.795  25.530  24.786  1.00  0.00     0.124 S 
ATOM     73  O   UNL A   1      53.922  26.214  23.502  1.00  0.00    -0.237 OA
ATOM     74  O   UNL A   1      54.684  25.998  25.845  1.00  0.00    -0.237 OA
ATOM     75  O   UNL A   1      53.625  24.082  24.713  1.00  0.00    -0.744 OA
ENDBRANCH  71  72
ENDBRANCH  39  64
ENDBRANCH  13  14
ENDBRANCH   6   8
ENDBRANCH   5   6
ENDBRANCH   4   5
ENDBRANCH   3   4
ENDBRANCH   2   3
ENDBRANCH   1   2
BRANCH   1  76
ATOM     76  C   UNL A   1      34.380  31.652  27.948  1.00  0.00     0.188 C 
BRANCH  76  77
ATOM     77  O   UNL A   1      33.223  30.891  27.622  1.00  0.00    -0.376 OA
BRANCH  77  78
ATOM     78  C   UNL A   1      33.512  29.765  26.797  1.00  0.00     0.202 C 
BRANCH  78  79
ATOM     79  C   UNL A   1      32.714  28.502  27.129  1.00  0.00     0.261 C 
BRANCH  79  80
ATOM     80  O   UNL A   1      32.313  27.654  26.037  1.00  0.00    -0.459 OA
BRANCH  80  81
ATOM     81  C   UNL A   1      33.174  26.708  25.573  1.00  0.00     0.370 C 
ATOM     82  O   UNL A   1      34.175  26.354  26.200  1.00  0.00    -0.245 OA
BRANCH  81  83
ATOM     83  C   UNL A   1      32.737  26.235  24.166  1.00  0.00     0.328 C 
BRANCH  83  84
ATOM     84  N   UNL A   1      31.770  25.108  24.225  1.00  0.00    -0.310 N 
ATOM     85  C   UNL A   1      31.729  24.209  23.065  1.00  0.00     0.325 C 
ATOM     86  C   UNL A   1      31.786  24.313  25.456  1.00  0.00     0.325 C 
ATOM     87  H   UNL A   1      30.905  25.649  24.210  1.00  0.00     0.349 HD
ATOM     88  C   UNL A   1      32.578  22.898  23.108  1.00  0.00     0.324 C 
ATOM     89  C   UNL A   1      32.878  23.226  25.530  1.00  0.00     0.324 C 
ATOM     90  N   UNL A   1      32.935  22.283  24.403  1.00  0.00    -0.322 N 
ATOM     91  H   UNL A   1      33.917  22.032  24.294  1.00  0.00     0.348 HD
BRANCH  90  92
ATOM     92  C   UNL A   1      32.259  20.998  24.685  1.00  0.00     0.299 C 
BRANCH  92  93
ATOM     93  C   UNL A   1      32.858  19.832  23.941  1.00  0.00     0.008 A 
ATOM     94  C   UNL A   1      32.200  19.340  22.813  1.00  0.00     0.009 A 
ATOM     95  C   UNL A   1      33.891  19.077  24.527  1.00  0.00     0.030 A 
ATOM     96  C   UNL A   1      32.402  18.025  22.432  1.00  0.00     0.002 A 
ATOM     97  C   UNL A   1      34.104  17.766  24.118  1.00  0.00     0.041 A 
ATOM     98  C   UNL A   1      33.322  17.225  23.109  1.00  0.00     0.020 A 
ATOM     99  Cl  UNL A   1      35.188  16.766  25.003  1.00  0.00    -0.084 Cl
ENDBRANCH  92  93
ENDBRANCH  90  92
ENDBRANCH  83  84
BRANCH  83 100
ATOM    100  C   UNL A   1      32.109  27.326  23.284  1.00  0.00     0.046 A 
ATOM    101  C   UNL A   1      32.781  28.291  22.547  1.00  0.00     0.094 A 
ATOM    102  C   UNL A   1      30.705  27.664  23.177  1.00  0.00     0.009 A 
ATOM    103  N   UNL A   1      31.893  29.252  22.158  1.00  0.00    -0.361 N 
ATOM    104  C   UNL A   1      30.622  28.904  22.533  1.00  0.00     0.049 A 
ATOM    105  C   UNL A   1      29.498  27.080  23.630  1.00  0.00     0.014 A 
ATOM    106  H   UNL A   1      32.133  30.077  21.676  1.00  0.00     0.166 HD
ATOM    107  C   UNL A   1      29.424  29.610  22.374  1.00  0.00     0.065 A 
ATOM    108  C   UNL A   1      28.282  27.756  23.441  1.00  0.00     0.040 A 
ATOM    109  C   UNL A   1      28.261  29.006  22.839  1.00  0.00     0.125 A 
ATOM    110  F   UNL A   1      27.095  29.652  22.694  1.00  0.00    -0.207 F 
ENDBRANCH  83 100
ENDBRANCH  81  83
ENDBRANCH  80  81
ENDBRANCH  79  80
ENDBRANCH  78  79
ENDBRANCH  77  78
ENDBRANCH  76  77
ENDBRANCH   1  76
TORSDOF 24
ENDMDL
