MODEL 1
REMARK VINA RESULT:     -11.7      0.000      0.000
REMARK SMILES Cc1cccc(OC2(C(=O)OCCOCCOCCOC(=O)c3ccc(-c4c5nc(c(-c6c(F)cc(S(=O)(=O)[O-])cc6F)c6ccc([nH]6)c(-c6c(F)cc(S(=O)(=O)[O-])cc6F)c6nc(c(-c7c(F)cc(S(=O)(=O)[O-])cc7F)c7ccc4[nH]7)C=C6)C=C5)cc3)CCN(C(=O)c3cnc[nH]c3=O)CC2)c1
REMARK SMILES IDX 16 1 15 2 14 3 13 4 12 5 11 6 9 7 10 8 8 9 89 10 102 11
REMARK SMILES IDX 90 12 101 13 91 14 92 15 93 16 7 17 6 18 1 19 2 20 3 21
REMARK SMILES IDX 103 22 4 23 5 24 94 25 95 26 99 27 96 28 98 29 100 30 97 31
REMARK SMILES IDX 17 33 18 34 19 35 20 36 21 37 22 38 23 39 24 40 88 41 25 42
REMARK SMILES IDX 87 43 26 44 27 45 28 46 81 47 29 48 86 49 80 50 82 51 30 52
REMARK SMILES IDX 85 53 79 54 78 55 31 57 65 58 44 59 64 60 45 61 48 62 63 63
REMARK SMILES IDX 83 64 46 65 47 66 62 68 84 69 49 70 32 71 33 72 42 73 34 74
REMARK SMILES IDX 35 75 41 76 43 77 36 78 37 79 38 80 39 81 40 82 66 83 67 84
REMARK SMILES IDX 76 85 68 86 69 87 75 88 77 89 70 90 71 91 72 92 73 93 74 94
REMARK SMILES IDX 50 95 51 96 60 97 52 98 53 99 59 100 61 101 54 102 55 103
REMARK SMILES IDX 56 104 57 105 58 106
REMARK H PARENT 98 32 82 56 48 67
REMARK Flexibility Score: inf
ROOT
ATOM      1  C   UNL A   1      42.667  23.130  26.918  1.00  0.00     0.188 C 
ENDROOT
BRANCH   1   2
ATOM      2  C   UNL A   1      41.436  22.250  27.171  1.00  0.00     0.188 C 
BRANCH   2   3
ATOM      3  O   UNL A   1      40.098  22.722  27.443  1.00  0.00    -0.376 OA
BRANCH   3   4
ATOM      4  C   UNL A   1      39.074  22.982  26.465  1.00  0.00     0.202 C 
BRANCH   4   5
ATOM      5  C   UNL A   1      38.010  21.834  25.752  1.00  0.00     0.261 C 
BRANCH   5   6
ATOM      6  O   UNL A   1      36.258  21.947  25.386  1.00  0.00    -0.460 OA
BRANCH   6   7
ATOM      7  C   UNL A   1      35.018  22.667  25.735  1.00  0.00     0.350 C 
ATOM      8  O   UNL A   1      34.901  23.649  26.479  1.00  0.00    -0.247 OA
BRANCH   7   9
ATOM      9  C   UNL A   1      33.655  22.327  25.100  1.00  0.00     0.209 C 
ATOM     10  C   UNL A   1      32.653  22.152  26.220  1.00  0.00     0.082 C 
ATOM     11  C   UNL A   1      33.391  23.491  24.081  1.00  0.00     0.082 C 
ATOM     12  C   UNL A   1      31.258  22.635  25.889  1.00  0.00     0.124 C 
ATOM     13  C   UNL A   1      31.923  23.661  23.786  1.00  0.00     0.124 C 
ATOM     14  N   UNL A   1      31.280  23.830  25.078  1.00  0.00    -0.338 N 
ATOM     15  C   UNL A   1      31.131  25.081  25.655  1.00  0.00     0.261 C 
ATOM     16  O   UNL A   1      31.316  25.318  26.844  1.00  0.00    -0.269 OA
BRANCH   9  17
ATOM     17  O   UNL A   1      34.030  21.203  24.262  1.00  0.00    -0.475 OA
BRANCH  17  18
ATOM     18  C   UNL A   1      33.511  19.948  24.193  1.00  0.00     0.121 A 
ATOM     19  C   UNL A   1      34.781  16.414  24.625  1.00  0.00     0.044 C 
ATOM     20  C   UNL A   1      33.888  17.556  24.241  1.00  0.00    -0.047 A 
ATOM     21  C   UNL A   1      32.895  17.366  23.274  1.00  0.00     0.003 A 
ATOM     22  C   UNL A   1      34.163  18.847  24.721  1.00  0.00     0.050 A 
ATOM     23  C   UNL A   1      32.182  18.458  22.789  1.00  0.00     0.004 A 
ATOM     24  C   UNL A   1      32.502  19.746  23.235  1.00  0.00     0.046 A 
ENDBRANCH  17  18
ENDBRANCH   9  17
BRANCH  15  25
ATOM     25  C   UNL A   1      30.657  26.121  24.723  1.00  0.00     0.123 A 
ATOM     26  C   UNL A   1      29.385  26.172  24.302  1.00  0.00     0.132 A 
ATOM     27  C   UNL A   1      31.565  27.193  24.271  1.00  0.00     0.263 A 
ATOM     28  N   UNL A   1      28.865  27.165  23.502  1.00  0.00    -0.246 NA
ATOM     29  N   UNL A   1      30.977  28.178  23.534  1.00  0.00    -0.312 N 
ATOM     30  O   UNL A   1      32.766  27.219  24.517  1.00  0.00    -0.269 OA
ATOM     31  C   UNL A   1      29.666  28.119  23.170  1.00  0.00     0.199 A 
ATOM     32  H   UNL A   1      31.515  28.954  23.257  1.00  0.00     0.171 HD
ENDBRANCH  15  25
ENDBRANCH   7   9
ENDBRANCH   6   7
ENDBRANCH   5   6
ENDBRANCH   4   5
ENDBRANCH   3   4
ENDBRANCH   2   3
ENDBRANCH   1   2
BRANCH   1  33
ATOM     33  O   UNL A   1      43.463  22.660  25.849  1.00  0.00    -0.376 OA
BRANCH  33  34
ATOM     34  C   UNL A   1      43.544  23.515  24.721  1.00  0.00     0.202 C 
BRANCH  34  35
ATOM     35  C   UNL A   1      43.441  25.028  25.018  1.00  0.00     0.261 C 
BRANCH  35  36
ATOM     36  O   UNL A   1      44.672  25.644  25.471  1.00  0.00    -0.460 OA
BRANCH  36  37
ATOM     37  C   UNL A   1      44.667  26.983  25.822  1.00  0.00     0.338 C 
ATOM     38  O   UNL A   1      44.895  27.859  24.995  1.00  0.00    -0.246 OA
BRANCH  37  39
ATOM     39  C   UNL A   1      43.983  27.228  27.127  1.00  0.00     0.060 A 
ATOM     40  C   UNL A   1      43.548  26.380  28.156  1.00  0.00     0.016 A 
ATOM     41  C   UNL A   1      43.803  28.533  27.381  1.00  0.00     0.016 A 
ATOM     42  C   UNL A   1      42.815  26.859  29.362  1.00  0.00     0.010 A 
ATOM     43  C   UNL A   1      43.020  28.906  28.465  1.00  0.00     0.010 A 
ATOM     44  C   UNL A   1      42.476  28.203  29.585  1.00  0.00    -0.014 A 
BRANCH  44  45
ATOM     45  C   UNL A   1      41.486  28.860  30.840  1.00  0.00     0.031 A 
ATOM     46  C   UNL A   1      40.303  30.190  30.991  1.00  0.00     0.074 A 
ATOM     47  C   UNL A   1      41.554  28.181  32.008  1.00  0.00     0.049 A 
ATOM     48  N   UNL A   1      40.062  30.881  32.094  1.00  0.00    -0.248 NA
ATOM     49  C   UNL A   1      39.432  30.881  29.915  1.00  0.00     0.031 C 
ATOM     50  C   UNL A   1      40.600  28.239  33.112  1.00  0.00     0.029 A 
ATOM     51  N   UNL A   1      42.536  27.293  32.459  1.00  0.00    -0.354 N 
ATOM     52  C   UNL A   1      39.059  31.853  31.838  1.00  0.00     0.074 A 
ATOM     53  C   UNL A   1      38.857  31.927  30.454  1.00  0.00     0.031 C 
ATOM     54  C   UNL A   1      41.139  27.643  34.185  1.00  0.00     0.029 A 
ATOM     55  C   UNL A   1      42.517  27.336  33.857  1.00  0.00     0.049 A 
ATOM     56  H   UNL A   1      43.128  26.741  31.898  1.00  0.00     0.167 HD
ATOM     57  C   UNL A   1      38.235  32.429  32.756  1.00  0.00     0.037 A 
ATOM     58  C   UNL A   1      43.616  27.716  34.563  1.00  0.00     0.037 A 
ATOM     59  C   UNL A   1      38.574  31.921  34.048  1.00  0.00     0.049 A 
ATOM     60  C   UNL A   1      43.345  28.910  35.445  1.00  0.00     0.074 A 
ATOM     61  C   UNL A   1      38.150  30.799  34.734  1.00  0.00     0.029 A 
ATOM     62  N   UNL A   1      39.787  32.301  34.583  1.00  0.00    -0.354 N 
ATOM     63  N   UNL A   1      42.298  29.681  35.316  1.00  0.00    -0.248 NA
ATOM     64  C   UNL A   1      44.192  29.320  36.560  1.00  0.00     0.031 C 
ATOM     65  C   UNL A   1      39.168  30.462  35.660  1.00  0.00     0.029 A 
ATOM     66  C   UNL A   1      40.172  31.412  35.561  1.00  0.00     0.049 A 
ATOM     67  H   UNL A   1      40.302  33.092  34.306  1.00  0.00     0.167 HD
ATOM     68  C   UNL A   1      42.335  30.681  36.248  1.00  0.00     0.074 A 
ATOM     69  C   UNL A   1      43.527  30.395  37.022  1.00  0.00     0.031 C 
ATOM     70  C   UNL A   1      41.394  31.667  36.295  1.00  0.00     0.037 A 
BRANCH  57  71
ATOM     71  C   UNL A   1      36.928  33.116  32.349  1.00  0.00     0.058 A 
ATOM     72  C   UNL A   1      36.844  34.520  32.306  1.00  0.00     0.135 A 
ATOM     73  C   UNL A   1      35.699  32.450  32.106  1.00  0.00     0.135 A 
ATOM     74  F   UNL A   1      37.937  35.282  32.443  1.00  0.00    -0.206 F 
ATOM     75  C   UNL A   1      35.634  35.209  32.153  1.00  0.00     0.059 A 
ATOM     76  C   UNL A   1      34.463  33.115  32.026  1.00  0.00     0.059 A 
ATOM     77  F   UNL A   1      35.657  31.113  31.971  1.00  0.00    -0.206 F 
ATOM     78  C   UNL A   1      34.441  34.502  32.050  1.00  0.00     0.060 A 
BRANCH  78  79
ATOM     79  S   UNL A   1      32.884  35.420  31.969  1.00  0.00     0.124 S 
ATOM     80  O   UNL A   1      32.538  35.336  30.553  1.00  0.00    -0.237 OA
ATOM     81  O   UNL A   1      32.035  34.652  32.872  1.00  0.00    -0.237 OA
ATOM     82  O   UNL A   1      33.249  36.756  32.432  1.00  0.00    -0.744 OA
ENDBRANCH  78  79
ENDBRANCH  57  71
BRANCH  58  83
ATOM     83  C   UNL A   1      44.898  27.289  33.924  1.00  0.00     0.058 A 
ATOM     84  C   UNL A   1      45.726  28.310  33.412  1.00  0.00     0.135 A 
ATOM     85  C   UNL A   1      45.514  26.058  34.196  1.00  0.00     0.135 A 
ATOM     86  F   UNL A   1      45.204  29.516  33.129  1.00  0.00    -0.206 F 
ATOM     87  C   UNL A   1      47.110  28.170  33.308  1.00  0.00     0.059 A 
ATOM     88  C   UNL A   1      46.906  25.890  34.082  1.00  0.00     0.059 A 
ATOM     89  F   UNL A   1      44.800  25.046  34.712  1.00  0.00    -0.206 F 
ATOM     90  C   UNL A   1      47.699  26.971  33.696  1.00  0.00     0.060 A 
BRANCH  90  91
ATOM     91  S   UNL A   1      49.507  26.938  33.844  1.00  0.00     0.124 S 
ATOM     92  O   UNL A   1      49.908  28.005  32.935  1.00  0.00    -0.237 OA
ATOM     93  O   UNL A   1      49.698  27.215  35.268  1.00  0.00    -0.237 OA
ATOM     94  O   UNL A   1      49.869  25.592  33.418  1.00  0.00    -0.744 OA
ENDBRANCH  90  91
ENDBRANCH  58  83
BRANCH  70  95
ATOM     95  C   UNL A   1      41.494  32.974  37.047  1.00  0.00     0.058 A 
ATOM     96  C   UNL A   1      42.490  33.933  36.808  1.00  0.00     0.135 A 
ATOM     97  C   UNL A   1      40.450  33.382  37.920  1.00  0.00     0.135 A 
ATOM     98  F   UNL A   1      43.466  33.720  35.915  1.00  0.00    -0.206 F 
ATOM     99  C   UNL A   1      42.497  35.172  37.445  1.00  0.00     0.059 A 
ATOM    100  C   UNL A   1      40.396  34.642  38.503  1.00  0.00     0.059 A 
ATOM    101  F   UNL A   1      39.426  32.570  38.226  1.00  0.00    -0.206 F 
ATOM    102  C   UNL A   1      41.448  35.516  38.293  1.00  0.00     0.060 A 
BRANCH 102 103
ATOM    103  S   UNL A   1      41.443  37.111  39.124  1.00  0.00     0.124 S 
ATOM    104  O   UNL A   1      41.789  36.723  40.488  1.00  0.00    -0.237 OA
ATOM    105  O   UNL A   1      42.469  37.860  38.404  1.00  0.00    -0.237 OA
ATOM    106  O   UNL A   1      40.077  37.583  38.925  1.00  0.00    -0.744 OA
ENDBRANCH 102 103
ENDBRANCH  70  95
ENDBRANCH  44  45
ENDBRANCH  37  39
ENDBRANCH  36  37
ENDBRANCH  35  36
ENDBRANCH  34  35
ENDBRANCH  33  34
ENDBRANCH   1  33
TORSDOF 23
ENDMDL
MODEL 2
REMARK VINA RESULT:     -11.3      3.337      9.722
REMARK SMILES Cc1cccc(OC2(C(=O)OCCOCCOCCOC(=O)c3ccc(-c4c5nc(c(-c6c(F)cc(S(=O)(=O)[O-])cc6F)c6ccc([nH]6)c(-c6c(F)cc(S(=O)(=O)[O-])cc6F)c6nc(c(-c7c(F)cc(S(=O)(=O)[O-])cc7F)c7ccc4[nH]7)C=C6)C=C5)cc3)CCN(C(=O)c3cnc[nH]c3=O)CC2)c1
REMARK SMILES IDX 16 1 15 2 14 3 13 4 12 5 11 6 9 7 10 8 8 9 89 10 102 11
REMARK SMILES IDX 90 12 101 13 91 14 92 15 93 16 7 17 6 18 1 19 2 20 3 21
REMARK SMILES IDX 103 22 4 23 5 24 94 25 95 26 99 27 96 28 98 29 100 30 97 31
REMARK SMILES IDX 17 33 18 34 19 35 20 36 21 37 22 38 23 39 24 40 88 41 25 42
REMARK SMILES IDX 87 43 26 44 27 45 28 46 81 47 29 48 86 49 80 50 82 51 30 52
REMARK SMILES IDX 85 53 79 54 78 55 31 57 65 58 44 59 64 60 45 61 48 62 63 63
REMARK SMILES IDX 83 64 46 65 47 66 62 68 84 69 49 70 32 71 33 72 42 73 34 74
REMARK SMILES IDX 35 75 41 76 43 77 36 78 37 79 38 80 39 81 40 82 66 83 67 84
REMARK SMILES IDX 76 85 68 86 69 87 75 88 77 89 70 90 71 91 72 92 73 93 74 94
REMARK SMILES IDX 50 95 51 96 60 97 52 98 53 99 59 100 61 101 54 102 55 103
REMARK SMILES IDX 56 104 57 105 58 106
REMARK H PARENT 98 32 82 56 48 67
REMARK Flexibility Score: inf
ROOT
ATOM      1  C   UNL A   1      32.577  29.730  25.878  1.00  0.00     0.188 C 
ENDROOT
BRANCH   1   2
ATOM      2  C   UNL A   1      31.462  28.702  25.646  1.00  0.00     0.188 C 
BRANCH   2   3
ATOM      3  O   UNL A   1      31.266  27.482  26.393  1.00  0.00    -0.376 OA
BRANCH   3   4
ATOM      4  C   UNL A   1      30.453  26.362  25.994  1.00  0.00     0.202 C 
BRANCH   4   5
ATOM      5  C   UNL A   1      30.110  24.952  26.916  1.00  0.00     0.261 C 
BRANCH   5   6
ATOM      6  O   UNL A   1      31.092  23.475  27.185  1.00  0.00    -0.460 OA
BRANCH   6   7
ATOM      7  C   UNL A   1      32.464  22.935  27.123  1.00  0.00     0.350 C 
ATOM      8  O   UNL A   1      33.021  22.199  27.947  1.00  0.00    -0.247 OA
BRANCH   7   9
ATOM      9  C   UNL A   1      33.387  23.153  25.908  1.00  0.00     0.209 C 
ATOM     10  C   UNL A   1      32.880  22.283  24.779  1.00  0.00     0.082 C 
ATOM     11  C   UNL A   1      33.377  24.704  25.675  1.00  0.00     0.082 C 
ATOM     12  C   UNL A   1      33.035  22.894  23.404  1.00  0.00     0.124 C 
ATOM     13  C   UNL A   1      33.731  25.064  24.255  1.00  0.00     0.124 C 
ATOM     14  N   UNL A   1      32.805  24.320  23.419  1.00  0.00    -0.338 N 
ATOM     15  C   UNL A   1      31.573  24.842  23.060  1.00  0.00     0.261 C 
ATOM     16  O   UNL A   1      30.529  24.199  23.046  1.00  0.00    -0.269 OA
BRANCH   9  17
ATOM     17  O   UNL A   1      34.680  22.896  26.514  1.00  0.00    -0.475 OA
BRANCH  17  18
ATOM     18  C   UNL A   1      35.889  22.658  25.937  1.00  0.00     0.121 A 
ATOM     19  C   UNL A   1      37.922  19.630  24.946  1.00  0.00     0.044 C 
ATOM     20  C   UNL A   1      37.574  21.053  25.267  1.00  0.00    -0.047 A 
ATOM     21  C   UNL A   1      38.588  21.959  25.597  1.00  0.00     0.003 A 
ATOM     22  C   UNL A   1      36.227  21.426  25.406  1.00  0.00     0.050 A 
ATOM     23  C   UNL A   1      38.260  23.228  26.063  1.00  0.00     0.004 A 
ATOM     24  C   UNL A   1      36.914  23.569  26.248  1.00  0.00     0.046 A 
ENDBRANCH  17  18
ENDBRANCH   9  17
BRANCH  15  25
ATOM     25  C   UNL A   1      31.621  26.249  22.620  1.00  0.00     0.123 A 
ATOM     26  C   UNL A   1      30.596  27.090  22.817  1.00  0.00     0.132 A 
ATOM     27  C   UNL A   1      32.841  26.800  21.998  1.00  0.00     0.263 A 
ATOM     28  N   UNL A   1      30.614  28.432  22.505  1.00  0.00    -0.246 NA
ATOM     29  N   UNL A   1      32.820  28.143  21.772  1.00  0.00    -0.312 N 
ATOM     30  O   UNL A   1      33.816  26.122  21.690  1.00  0.00    -0.269 OA
ATOM     31  C   UNL A   1      31.713  28.898  22.019  1.00  0.00     0.199 A 
ATOM     32  H   UNL A   1      33.628  28.582  21.420  1.00  0.00     0.171 HD
ENDBRANCH  15  25
ENDBRANCH   7   9
ENDBRANCH   6   7
ENDBRANCH   5   6
ENDBRANCH   4   5
ENDBRANCH   3   4
ENDBRANCH   2   3
ENDBRANCH   1   2
BRANCH   1  33
ATOM     33  O   UNL A   1      33.780  29.138  26.326  1.00  0.00    -0.376 OA
BRANCH  33  34
ATOM     34  C   UNL A   1      34.238  29.563  27.599  1.00  0.00     0.202 C 
BRANCH  34  35
ATOM     35  C   UNL A   1      34.192  31.086  27.853  1.00  0.00     0.261 C 
BRANCH  35  36
ATOM     36  O   UNL A   1      34.930  31.531  29.018  1.00  0.00    -0.460 OA
BRANCH  36  37
ATOM     37  C   UNL A   1      35.766  32.630  28.908  1.00  0.00     0.338 C 
ATOM     38  O   UNL A   1      35.314  33.760  28.757  1.00  0.00    -0.246 OA
BRANCH  37  39
ATOM     39  C   UNL A   1      37.150  32.344  29.387  1.00  0.00     0.060 A 
ATOM     40  C   UNL A   1      38.283  33.148  29.585  1.00  0.00     0.016 A 
ATOM     41  C   UNL A   1      37.318  31.065  29.754  1.00  0.00     0.016 A 
ATOM     42  C   UNL A   1      39.605  32.614  30.020  1.00  0.00     0.010 A 
ATOM     43  C   UNL A   1      38.597  30.610  30.045  1.00  0.00     0.010 A 
ATOM     44  C   UNL A   1      39.854  31.255  30.265  1.00  0.00    -0.014 A 
BRANCH  44  45
ATOM     45  C   UNL A   1      41.367  30.491  30.601  1.00  0.00     0.031 A 
ATOM     46  C   UNL A   1      42.455  29.351  29.758  1.00  0.00     0.074 A 
ATOM     47  C   UNL A   1      41.934  30.877  31.767  1.00  0.00     0.049 A 
ATOM     48  N   UNL A   1      43.255  28.476  30.346  1.00  0.00    -0.248 NA
ATOM     49  C   UNL A   1      42.615  29.052  28.248  1.00  0.00     0.031 C 
ATOM     50  C   UNL A   1      43.332  30.718  32.157  1.00  0.00     0.029 A 
ATOM     51  N   UNL A   1      41.342  31.488  32.877  1.00  0.00    -0.354 N 
ATOM     52  C   UNL A   1      43.969  27.745  29.361  1.00  0.00     0.074 A 
ATOM     53  C   UNL A   1      43.395  28.010  28.111  1.00  0.00     0.031 C 
ATOM     54  C   UNL A   1      43.450  30.976  33.467  1.00  0.00     0.029 A 
ATOM     55  C   UNL A   1      42.110  31.139  33.994  1.00  0.00     0.049 A 
ATOM     56  H   UNL A   1      40.537  32.056  32.874  1.00  0.00     0.167 HD
ATOM     57  C   UNL A   1      45.161  27.109  29.529  1.00  0.00     0.037 A 
ATOM     58  C   UNL A   1      41.565  30.453  35.035  1.00  0.00     0.037 A 
ATOM     59  C   UNL A   1      45.566  27.263  30.891  1.00  0.00     0.049 A 
ATOM     60  C   UNL A   1      42.275  29.148  35.294  1.00  0.00     0.074 A 
ATOM     61  C   UNL A   1      46.286  28.255  31.529  1.00  0.00     0.029 A 
ATOM     62  N   UNL A   1      44.833  26.598  31.851  1.00  0.00    -0.354 N 
ATOM     63  N   UNL A   1      43.093  28.588  34.443  1.00  0.00    -0.248 NA
ATOM     64  C   UNL A   1      42.163  28.381  36.530  1.00  0.00     0.031 C 
ATOM     65  C   UNL A   1      45.923  28.224  32.897  1.00  0.00     0.029 A 
ATOM     66  C   UNL A   1      45.029  27.181  33.083  1.00  0.00     0.049 A 
ATOM     67  H   UNL A   1      44.255  25.820  31.681  1.00  0.00     0.167 HD
ATOM     68  C   UNL A   1      43.570  27.413  34.955  1.00  0.00     0.074 A 
ATOM     69  C   UNL A   1      42.979  27.341  36.276  1.00  0.00     0.031 C 
ATOM     70  C   UNL A   1      44.394  26.591  34.244  1.00  0.00     0.037 A 
BRANCH  57  71
ATOM     71  C   UNL A   1      46.049  26.731  28.339  1.00  0.00     0.058 A 
ATOM     72  C   UNL A   1      46.771  27.719  27.646  1.00  0.00     0.135 A 
ATOM     73  C   UNL A   1      46.133  25.436  27.765  1.00  0.00     0.135 A 
ATOM     74  F   UNL A   1      46.845  28.973  28.110  1.00  0.00    -0.206 F 
ATOM     75  C   UNL A   1      47.424  27.477  26.431  1.00  0.00     0.059 A 
ATOM     76  C   UNL A   1      46.716  25.183  26.511  1.00  0.00     0.059 A 
ATOM     77  F   UNL A   1      45.616  24.368  28.399  1.00  0.00    -0.206 F 
ATOM     78  C   UNL A   1      47.363  26.217  25.849  1.00  0.00     0.060 A 
BRANCH  78  79
ATOM     79  S   UNL A   1      48.119  25.965  24.224  1.00  0.00     0.124 S 
ATOM     80  O   UNL A   1      47.612  24.652  23.836  1.00  0.00    -0.237 OA
ATOM     81  O   UNL A   1      47.590  27.094  23.468  1.00  0.00    -0.237 OA
ATOM     82  O   UNL A   1      49.551  26.010  24.503  1.00  0.00    -0.744 OA
ENDBRANCH  78  79
ENDBRANCH  57  71
BRANCH  58  83
ATOM     83  C   UNL A   1      40.137  30.817  35.291  1.00  0.00     0.058 A 
ATOM     84  C   UNL A   1      39.903  31.931  36.124  1.00  0.00     0.135 A 
ATOM     85  C   UNL A   1      39.088  30.438  34.439  1.00  0.00     0.135 A 
ATOM     86  F   UNL A   1      40.864  32.351  36.965  1.00  0.00    -0.206 F 
ATOM     87  C   UNL A   1      38.754  32.714  36.023  1.00  0.00     0.059 A 
ATOM     88  C   UNL A   1      37.913  31.204  34.333  1.00  0.00     0.059 A 
ATOM     89  F   UNL A   1      39.244  29.407  33.595  1.00  0.00    -0.206 F 
ATOM     90  C   UNL A   1      37.785  32.373  35.085  1.00  0.00     0.060 A 
BRANCH  90  91
ATOM     91  S   UNL A   1      36.467  33.579  34.767  1.00  0.00     0.124 S 
ATOM     92  O   UNL A   1      37.189  34.649  34.088  1.00  0.00    -0.237 OA
ATOM     93  O   UNL A   1      35.547  32.807  33.931  1.00  0.00    -0.237 OA
ATOM     94  O   UNL A   1      35.969  33.913  36.095  1.00  0.00    -0.744 OA
ENDBRANCH  90  91
ENDBRANCH  58  83
BRANCH  70  95
ATOM     95  C   UNL A   1      44.722  25.150  34.559  1.00  0.00     0.058 A 
ATOM     96  C   UNL A   1      43.754  24.144  34.687  1.00  0.00     0.135 A 
ATOM     97  C   UNL A   1      46.072  24.703  34.555  1.00  0.00     0.135 A 
ATOM     98  F   UNL A   1      42.445  24.415  34.588  1.00  0.00    -0.206 F 
ATOM     99  C   UNL A   1      44.093  22.806  34.877  1.00  0.00     0.059 A 
ATOM    100  C   UNL A   1      46.428  23.366  34.664  1.00  0.00     0.059 A 
ATOM    101  F   UNL A   1      47.099  25.557  34.427  1.00  0.00    -0.206 F 
ATOM    102  C   UNL A   1      45.432  22.427  34.867  1.00  0.00     0.060 A 
BRANCH 102 103
ATOM    103  S   UNL A   1      45.886  20.705  35.112  1.00  0.00     0.124 S 
ATOM    104  O   UNL A   1      47.006  20.569  34.185  1.00  0.00    -0.237 OA
ATOM    105  O   UNL A   1      46.234  20.655  36.529  1.00  0.00    -0.237 OA
ATOM    106  O   UNL A   1      44.670  19.986  34.748  1.00  0.00    -0.744 OA
ENDBRANCH 102 103
ENDBRANCH  70  95
ENDBRANCH  44  45
ENDBRANCH  37  39
ENDBRANCH  36  37
ENDBRANCH  35  36
ENDBRANCH  34  35
ENDBRANCH  33  34
ENDBRANCH   1  33
TORSDOF 23
ENDMDL
MODEL 3
REMARK VINA RESULT:     -11.0      5.224     12.811
REMARK SMILES Cc1cccc(OC2(C(=O)OCCOCCOCCOC(=O)c3ccc(-c4c5nc(c(-c6c(F)cc(S(=O)(=O)[O-])cc6F)c6ccc([nH]6)c(-c6c(F)cc(S(=O)(=O)[O-])cc6F)c6nc(c(-c7c(F)cc(S(=O)(=O)[O-])cc7F)c7ccc4[nH]7)C=C6)C=C5)cc3)CCN(C(=O)c3cnc[nH]c3=O)CC2)c1
REMARK SMILES IDX 16 1 15 2 14 3 13 4 12 5 11 6 9 7 10 8 8 9 89 10 102 11
REMARK SMILES IDX 90 12 101 13 91 14 92 15 93 16 7 17 6 18 1 19 2 20 3 21
REMARK SMILES IDX 103 22 4 23 5 24 94 25 95 26 99 27 96 28 98 29 100 30 97 31
REMARK SMILES IDX 17 33 18 34 19 35 20 36 21 37 22 38 23 39 24 40 88 41 25 42
REMARK SMILES IDX 87 43 26 44 27 45 28 46 81 47 29 48 86 49 80 50 82 51 30 52
REMARK SMILES IDX 85 53 79 54 78 55 31 57 65 58 44 59 64 60 45 61 48 62 63 63
REMARK SMILES IDX 83 64 46 65 47 66 62 68 84 69 49 70 32 71 33 72 42 73 34 74
REMARK SMILES IDX 35 75 41 76 43 77 36 78 37 79 38 80 39 81 40 82 66 83 67 84
REMARK SMILES IDX 76 85 68 86 69 87 75 88 77 89 70 90 71 91 72 92 73 93 74 94
REMARK SMILES IDX 50 95 51 96 60 97 52 98 53 99 59 100 61 101 54 102 55 103
REMARK SMILES IDX 56 104 57 105 58 106
REMARK H PARENT 98 32 82 56 48 67
REMARK Flexibility Score: inf
ROOT
ATOM      1  C   UNL A   1      36.474  30.645  30.111  1.00  0.00     0.188 C 
ENDROOT
BRANCH   1   2
ATOM      2  C   UNL A   1      36.139  30.333  28.646  1.00  0.00     0.188 C 
BRANCH   2   3
ATOM      3  O   UNL A   1      35.309  31.134  27.777  1.00  0.00    -0.376 OA
BRANCH   3   4
ATOM      4  C   UNL A   1      33.877  31.051  27.656  1.00  0.00     0.202 C 
BRANCH   4   5
ATOM      5  C   UNL A   1      32.974  29.805  26.886  1.00  0.00     0.261 C 
BRANCH   5   6
ATOM      6  O   UNL A   1      33.509  28.506  25.772  1.00  0.00    -0.460 OA
BRANCH   6   7
ATOM      7  C   UNL A   1      33.376  27.996  24.393  1.00  0.00     0.350 C 
ATOM      8  O   UNL A   1      34.181  28.125  23.462  1.00  0.00    -0.247 OA
BRANCH   7   9
ATOM      9  C   UNL A   1      32.200  27.105  23.948  1.00  0.00     0.209 C 
ATOM     10  C   UNL A   1      32.385  26.792  22.479  1.00  0.00     0.082 C 
ATOM     11  C   UNL A   1      32.220  25.894  24.945  1.00  0.00     0.082 C 
ATOM     12  C   UNL A   1      31.933  25.407  22.076  1.00  0.00     0.124 C 
ATOM     13  C   UNL A   1      31.553  24.674  24.364  1.00  0.00     0.124 C 
ATOM     14  N   UNL A   1      32.221  24.427  23.098  1.00  0.00    -0.338 N 
ATOM     15  C   UNL A   1      33.353  23.632  23.017  1.00  0.00     0.261 C 
ATOM     16  O   UNL A   1      34.335  23.898  22.333  1.00  0.00    -0.269 OA
BRANCH   9  17
ATOM     17  O   UNL A   1      31.078  27.911  24.395  1.00  0.00    -0.475 OA
BRANCH  17  18
ATOM     18  C   UNL A   1      30.113  28.546  23.679  1.00  0.00     0.121 A 
ATOM     19  C   UNL A   1      28.679  32.038  23.478  1.00  0.00     0.044 C 
ATOM     20  C   UNL A   1      28.817  30.556  23.295  1.00  0.00    -0.047 A 
ATOM     21  C   UNL A   1      27.689  29.787  22.987  1.00  0.00     0.003 A 
ATOM     22  C   UNL A   1      30.033  29.926  23.603  1.00  0.00     0.050 A 
ATOM     23  C   UNL A   1      27.776  28.398  22.988  1.00  0.00     0.004 A 
ATOM     24  C   UNL A   1      28.980  27.781  23.350  1.00  0.00     0.046 A 
ENDBRANCH  17  18
ENDBRANCH   9  17
BRANCH  15  25
ATOM     25  C   UNL A   1      33.261  22.376  23.785  1.00  0.00     0.123 A 
ATOM     26  C   UNL A   1      33.883  22.215  24.962  1.00  0.00     0.132 A 
ATOM     27  C   UNL A   1      32.418  21.264  23.306  1.00  0.00     0.263 A 
ATOM     28  N   UNL A   1      33.768  21.101  25.763  1.00  0.00    -0.246 NA
ATOM     29  N   UNL A   1      32.293  20.217  24.171  1.00  0.00    -0.312 N 
ATOM     30  O   UNL A   1      31.861  21.250  22.213  1.00  0.00    -0.269 OA
ATOM     31  C   UNL A   1      32.977  20.170  25.348  1.00  0.00     0.199 A 
ATOM     32  H   UNL A   1      31.692  19.473  23.938  1.00  0.00     0.171 HD
ENDBRANCH  15  25
ENDBRANCH   7   9
ENDBRANCH   6   7
ENDBRANCH   5   6
ENDBRANCH   4   5
ENDBRANCH   3   4
ENDBRANCH   2   3
ENDBRANCH   1   2
BRANCH   1  33
ATOM     33  O   UNL A   1      36.354  29.514  30.950  1.00  0.00    -0.376 OA
BRANCH  33  34
ATOM     34  C   UNL A   1      37.576  28.936  31.380  1.00  0.00     0.202 C 
BRANCH  34  35
ATOM     35  C   UNL A   1      38.194  29.549  32.655  1.00  0.00     0.261 C 
BRANCH  35  36
ATOM     36  O   UNL A   1      39.640  29.474  32.727  1.00  0.00    -0.460 OA
BRANCH  36  37
ATOM     37  C   UNL A   1      40.392  30.576  32.356  1.00  0.00     0.338 C 
ATOM     38  O   UNL A   1      40.060  31.711  32.678  1.00  0.00    -0.246 OA
BRANCH  37  39
ATOM     39  C   UNL A   1      41.771  30.205  31.920  1.00  0.00     0.060 A 
ATOM     40  C   UNL A   1      42.640  30.717  30.945  1.00  0.00     0.016 A 
ATOM     41  C   UNL A   1      42.299  29.216  32.657  1.00  0.00     0.016 A 
ATOM     42  C   UNL A   1      43.974  30.127  30.640  1.00  0.00     0.010 A 
ATOM     43  C   UNL A   1      43.497  28.642  32.253  1.00  0.00     0.010 A 
ATOM     44  C   UNL A   1      44.492  28.995  31.290  1.00  0.00    -0.014 A 
BRANCH  44  45
ATOM     45  C   UNL A   1      45.932  28.117  30.916  1.00  0.00     0.031 A 
ATOM     46  C   UNL A   1      47.666  28.241  31.327  1.00  0.00     0.074 A 
ATOM     47  C   UNL A   1      45.723  27.007  30.170  1.00  0.00     0.049 A 
ATOM     48  N   UNL A   1      48.668  27.847  30.556  1.00  0.00    -0.248 NA
ATOM     49  C   UNL A   1      48.362  28.904  32.539  1.00  0.00     0.031 C 
ATOM     50  C   UNL A   1      46.636  25.879  30.002  1.00  0.00     0.029 A 
ATOM     51  N   UNL A   1      44.624  26.672  29.373  1.00  0.00    -0.354 N 
ATOM     52  C   UNL A   1      49.902  28.100  31.211  1.00  0.00     0.074 A 
ATOM     53  C   UNL A   1      49.654  28.914  32.323  1.00  0.00     0.031 C 
ATOM     54  C   UNL A   1      46.198  25.112  28.995  1.00  0.00     0.029 A 
ATOM     55  C   UNL A   1      45.091  25.811  28.373  1.00  0.00     0.049 A 
ATOM     56  H   UNL A   1      43.697  26.983  29.492  1.00  0.00     0.167 HD
ATOM     57  C   UNL A   1      51.085  27.465  30.984  1.00  0.00     0.037 A 
ATOM     58  C   UNL A   1      44.982  26.139  27.057  1.00  0.00     0.037 A 
ATOM     59  C   UNL A   1      50.893  26.515  29.935  1.00  0.00     0.049 A 
ATOM     60  C   UNL A   1      46.321  26.171  26.363  1.00  0.00     0.074 A 
ATOM     61  C   UNL A   1      50.472  25.199  29.953  1.00  0.00     0.029 A 
ATOM     62  N   UNL A   1      50.669  27.005  28.666  1.00  0.00    -0.354 N 
ATOM     63  N   UNL A   1      47.463  26.202  26.997  1.00  0.00    -0.248 NA
ATOM     64  C   UNL A   1      46.500  26.135  24.916  1.00  0.00     0.031 C 
ATOM     65  C   UNL A   1      49.922  24.916  28.678  1.00  0.00     0.029 A 
ATOM     66  C   UNL A   1      50.063  26.044  27.888  1.00  0.00     0.049 A 
ATOM     67  H   UNL A   1      50.907  27.910  28.361  1.00  0.00     0.167 HD
ATOM     68  C   UNL A   1      48.495  26.238  26.101  1.00  0.00     0.074 A 
ATOM     69  C   UNL A   1      47.841  26.167  24.810  1.00  0.00     0.031 C 
ATOM     70  C   UNL A   1      49.797  26.340  26.494  1.00  0.00     0.037 A 
BRANCH  57  71
ATOM     71  C   UNL A   1      52.224  27.492  32.009  1.00  0.00     0.058 A 
ATOM     72  C   UNL A   1      53.349  28.311  31.802  1.00  0.00     0.135 A 
ATOM     73  C   UNL A   1      52.317  26.648  33.146  1.00  0.00     0.135 A 
ATOM     74  F   UNL A   1      53.375  29.212  30.812  1.00  0.00    -0.206 F 
ATOM     75  C   UNL A   1      54.510  28.224  32.581  1.00  0.00     0.059 A 
ATOM     76  C   UNL A   1      53.496  26.487  33.894  1.00  0.00     0.059 A 
ATOM     77  F   UNL A   1      51.261  25.920  33.549  1.00  0.00    -0.206 F 
ATOM     78  C   UNL A   1      54.593  27.285  33.602  1.00  0.00     0.060 A 
BRANCH  78  79
ATOM     79  S   UNL A   1      56.147  27.118  34.514  1.00  0.00     0.124 S 
ATOM     80  O   UNL A   1      57.068  26.637  33.489  1.00  0.00    -0.237 OA
ATOM     81  O   UNL A   1      56.372  28.483  34.976  1.00  0.00    -0.237 OA
ATOM     82  O   UNL A   1      55.829  26.146  35.557  1.00  0.00    -0.744 OA
ENDBRANCH  78  79
ENDBRANCH  57  71
BRANCH  58  83
ATOM     83  C   UNL A   1      43.741  26.913  26.748  1.00  0.00     0.058 A 
ATOM     84  C   UNL A   1      42.543  26.177  26.630  1.00  0.00     0.135 A 
ATOM     85  C   UNL A   1      43.611  28.285  27.013  1.00  0.00     0.135 A 
ATOM     86  F   UNL A   1      42.591  24.858  26.378  1.00  0.00    -0.206 F 
ATOM     87  C   UNL A   1      41.293  26.734  26.898  1.00  0.00     0.059 A 
ATOM     88  C   UNL A   1      42.359  28.870  27.270  1.00  0.00     0.059 A 
ATOM     89  F   UNL A   1      44.705  29.048  27.168  1.00  0.00    -0.206 F 
ATOM     90  C   UNL A   1      41.214  28.072  27.270  1.00  0.00     0.060 A 
BRANCH  90  91
ATOM     91  S   UNL A   1      39.625  28.670  27.910  1.00  0.00     0.124 S 
ATOM     92  O   UNL A   1      38.938  27.425  28.233  1.00  0.00    -0.237 OA
ATOM     93  O   UNL A   1      40.047  29.476  29.056  1.00  0.00    -0.237 OA
ATOM     94  O   UNL A   1      39.059  29.420  26.796  1.00  0.00    -0.744 OA
ENDBRANCH  90  91
ENDBRANCH  58  83
BRANCH  70  95
ATOM     95  C   UNL A   1      50.977  26.705  25.623  1.00  0.00     0.058 A 
ATOM     96  C   UNL A   1      51.237  28.009  25.176  1.00  0.00     0.135 A 
ATOM     97  C   UNL A   1      52.003  25.755  25.367  1.00  0.00     0.135 A 
ATOM     98  F   UNL A   1      50.408  29.023  25.456  1.00  0.00    -0.206 F 
ATOM     99  C   UNL A   1      52.387  28.333  24.460  1.00  0.00     0.059 A 
ATOM    100  C   UNL A   1      53.191  26.076  24.725  1.00  0.00     0.059 A 
ATOM    101  F   UNL A   1      51.891  24.474  25.752  1.00  0.00    -0.206 F 
ATOM    102  C   UNL A   1      53.357  27.360  24.236  1.00  0.00     0.060 A 
BRANCH 102 103
ATOM    103  S   UNL A   1      54.846  27.762  23.312  1.00  0.00     0.124 S 
ATOM    104  O   UNL A   1      55.651  26.564  23.532  1.00  0.00    -0.237 OA
ATOM    105  O   UNL A   1      54.349  27.945  21.952  1.00  0.00    -0.237 OA
ATOM    106  O   UNL A   1      55.323  28.976  23.966  1.00  0.00    -0.744 OA
ENDBRANCH 102 103
ENDBRANCH  70  95
ENDBRANCH  44  45
ENDBRANCH  37  39
ENDBRANCH  36  37
ENDBRANCH  35  36
ENDBRANCH  34  35
ENDBRANCH  33  34
ENDBRANCH   1  33
TORSDOF 23
ENDMDL
