MODEL 1
REMARK VINA RESULT:     -10.1      0.000      0.000
REMARK SMILES O=C(OCCOCCOCCOC(=O)c1cc(-c2ccn(C(F)F)c(=O)c2)ccc1O)c1ccc(-c2c3nc(c(-c4c(F)cc(S(=O)(=O)[O-])cc4F)c4ccc([nH]4)c(-c4c(F)cc(S(=O)(=O)[O-])cc4F)c4nc(c(-c5c(F)cc(S(=O)(=O)[O-])cc5F)c5ccc2[nH]5)C=C4)C=C3)cc1
REMARK SMILES IDX 7 1 6 2 5 3 4 4 3 5 2 6 1 7 32 8 33 9 97 10 34 11 96 12
REMARK SMILES IDX 35 13 36 14 37 15 90 16 38 17 95 18 89 19 91 20 39 21 94 22
REMARK SMILES IDX 88 23 87 24 40 26 74 27 53 28 73 29 54 30 57 31 72 32 92 33
REMARK SMILES IDX 55 34 56 35 71 37 93 38 58 39 41 40 42 41 51 42 43 43 44 44
REMARK SMILES IDX 50 45 52 46 45 47 46 48 47 49 48 50 49 51 75 52 76 53 85 54
REMARK SMILES IDX 77 55 78 56 84 57 86 58 79 59 80 60 81 61 82 62 83 63 59 64
REMARK SMILES IDX 60 65 69 66 61 67 62 68 68 69 70 70 63 71 64 72 65 73 66 74
REMARK SMILES IDX 67 75 8 76 9 77 10 78 11 79 12 80 13 81 14 82 15 83 16 84
REMARK SMILES IDX 30 85 17 86 29 87 28 88 31 89 18 91 19 92 27 93 20 94 25 95
REMARK SMILES IDX 21 96 26 97 22 98 23 99 24 100
REMARK H PARENT 91 25 57 36 31 90
REMARK Flexibility Score: inf
ROOT
ATOM      1  C   UNL A   1      31.535  29.645  25.491  1.00  0.00     0.188 C 
ENDROOT
BRANCH   1   2
ATOM      2  O   UNL A   1      32.303  29.276  26.643  1.00  0.00    -0.376 OA
BRANCH   2   3
ATOM      3  C   UNL A   1      33.212  30.294  27.068  1.00  0.00     0.202 C 
BRANCH   3   4
ATOM      4  C   UNL A   1      34.538  29.750  27.604  1.00  0.00     0.261 C 
BRANCH   4   5
ATOM      5  O   UNL A   1      35.404  30.781  28.096  1.00  0.00    -0.460 OA
BRANCH   5   6
ATOM      6  C   UNL A   1      36.324  30.727  29.089  1.00  0.00     0.338 C 
ATOM      7  O   UNL A   1      35.986  31.192  30.179  1.00  0.00    -0.246 OA
BRANCH   6   8
ATOM      8  C   UNL A   1      37.714  30.151  28.980  1.00  0.00     0.060 A 
ATOM      9  C   UNL A   1      38.124  29.776  27.686  1.00  0.00     0.016 A 
ATOM     10  C   UNL A   1      38.631  29.945  30.016  1.00  0.00     0.016 A 
ATOM     11  C   UNL A   1      39.398  29.248  27.440  1.00  0.00     0.010 A 
ATOM     12  C   UNL A   1      39.919  29.447  29.773  1.00  0.00     0.010 A 
ATOM     13  C   UNL A   1      40.316  29.097  28.484  1.00  0.00    -0.014 A 
BRANCH  13  14
ATOM     14  C   UNL A   1      41.719  28.717  28.211  1.00  0.00     0.031 A 
ATOM     15  C   UNL A   1      42.124  27.302  27.930  1.00  0.00     0.074 A 
ATOM     16  C   UNL A   1      42.657  29.680  28.295  1.00  0.00     0.049 A 
ATOM     17  N   UNL A   1      43.295  26.846  27.564  1.00  0.00    -0.248 NA
ATOM     18  C   UNL A   1      41.100  26.260  28.099  1.00  0.00     0.031 C 
ATOM     19  C   UNL A   1      42.396  31.072  28.664  1.00  0.00     0.029 A 
ATOM     20  N   UNL A   1      44.011  29.635  28.093  1.00  0.00    -0.354 N 
ATOM     21  C   UNL A   1      43.142  25.476  27.417  1.00  0.00     0.074 A 
ATOM     22  C   UNL A   1      41.788  25.160  27.815  1.00  0.00     0.031 C 
ATOM     23  C   UNL A   1      43.550  31.753  28.648  1.00  0.00     0.029 A 
ATOM     24  C   UNL A   1      44.631  30.846  28.274  1.00  0.00     0.049 A 
ATOM     25  H   UNL A   1      44.493  28.814  27.841  1.00  0.00     0.167 HD
ATOM     26  C   UNL A   1      44.040  24.574  26.954  1.00  0.00     0.037 A 
ATOM     27  C   UNL A   1      45.924  31.195  28.141  1.00  0.00     0.037 A 
ATOM     28  C   UNL A   1      45.393  24.892  26.597  1.00  0.00     0.049 A 
ATOM     29  C   UNL A   1      46.915  30.172  27.679  1.00  0.00     0.074 A 
ATOM     30  C   UNL A   1      46.352  24.070  26.032  1.00  0.00     0.029 A 
ATOM     31  N   UNL A   1      45.992  26.123  26.810  1.00  0.00    -0.354 N 
ATOM     32  N   UNL A   1      46.708  28.916  27.366  1.00  0.00    -0.248 NA
ATOM     33  C   UNL A   1      48.311  30.609  27.540  1.00  0.00     0.031 C 
ATOM     34  C   UNL A   1      47.547  24.793  25.945  1.00  0.00     0.029 A 
ATOM     35  C   UNL A   1      47.322  26.071  26.434  1.00  0.00     0.049 A 
ATOM     36  H   UNL A   1      45.538  26.917  27.175  1.00  0.00     0.167 HD
ATOM     37  C   UNL A   1      47.945  28.411  26.985  1.00  0.00     0.074 A 
ATOM     38  C   UNL A   1      48.894  29.500  27.098  1.00  0.00     0.031 C 
ATOM     39  C   UNL A   1      48.258  27.158  26.574  1.00  0.00     0.037 A 
BRANCH  26  40
ATOM     40  C   UNL A   1      43.570  23.169  26.750  1.00  0.00     0.058 A 
ATOM     41  C   UNL A   1      43.288  22.352  27.856  1.00  0.00     0.135 A 
ATOM     42  C   UNL A   1      43.364  22.639  25.468  1.00  0.00     0.135 A 
ATOM     43  F   UNL A   1      43.481  22.808  29.104  1.00  0.00    -0.206 F 
ATOM     44  C   UNL A   1      42.867  21.038  27.698  1.00  0.00     0.059 A 
ATOM     45  C   UNL A   1      42.935  21.327  25.286  1.00  0.00     0.059 A 
ATOM     46  F   UNL A   1      43.604  23.388  24.381  1.00  0.00    -0.206 F 
ATOM     47  C   UNL A   1      42.717  20.529  26.409  1.00  0.00     0.060 A 
BRANCH  47  48
ATOM     48  S   UNL A   1      42.320  18.780  26.231  1.00  0.00     0.124 S 
ATOM     49  O   UNL A   1      42.394  18.352  27.627  1.00  0.00    -0.237 OA
ATOM     50  O   UNL A   1      40.982  18.816  25.651  1.00  0.00    -0.237 OA
ATOM     51  O   UNL A   1      43.373  18.280  25.355  1.00  0.00    -0.744 OA
ENDBRANCH  47  48
ENDBRANCH  26  40
BRANCH  27  52
ATOM     52  C   UNL A   1      46.305  32.603  28.407  1.00  0.00     0.058 A 
ATOM     53  C   UNL A   1      46.181  33.576  27.406  1.00  0.00     0.135 A 
ATOM     54  C   UNL A   1      46.664  33.025  29.697  1.00  0.00     0.135 A 
ATOM     55  F   UNL A   1      45.840  33.216  26.160  1.00  0.00    -0.206 F 
ATOM     56  C   UNL A   1      46.376  34.925  27.680  1.00  0.00     0.059 A 
ATOM     57  C   UNL A   1      46.852  34.370  29.998  1.00  0.00     0.059 A 
ATOM     58  F   UNL A   1      46.774  32.129  30.690  1.00  0.00    -0.206 F 
ATOM     59  C   UNL A   1      46.697  35.313  28.982  1.00  0.00     0.060 A 
BRANCH  59  60
ATOM     60  S   UNL A   1      46.827  37.077  29.351  1.00  0.00     0.124 S 
ATOM     61  O   UNL A   1      47.447  37.057  30.671  1.00  0.00    -0.237 OA
ATOM     62  O   UNL A   1      47.666  37.558  28.258  1.00  0.00    -0.237 OA
ATOM     63  O   UNL A   1      45.440  37.531  29.312  1.00  0.00    -0.744 OA
ENDBRANCH  59  60
ENDBRANCH  27  52
BRANCH  39  64
ATOM     64  C   UNL A   1      49.692  26.872  26.249  1.00  0.00     0.058 A 
ATOM     65  C   UNL A   1      50.553  26.330  27.213  1.00  0.00     0.135 A 
ATOM     66  C   UNL A   1      50.178  27.033  24.942  1.00  0.00     0.135 A 
ATOM     67  F   UNL A   1      50.131  26.162  28.477  1.00  0.00    -0.206 F 
ATOM     68  C   UNL A   1      51.849  25.948  26.893  1.00  0.00     0.059 A 
ATOM     69  C   UNL A   1      51.466  26.642  24.595  1.00  0.00     0.059 A 
ATOM     70  F   UNL A   1      49.386  27.537  23.983  1.00  0.00    -0.206 F 
ATOM     71  C   UNL A   1      52.295  26.099  25.578  1.00  0.00     0.060 A 
BRANCH  71  72
ATOM     72  S   UNL A   1      53.951  25.521  25.157  1.00  0.00     0.124 S 
ATOM     73  O   UNL A   1      53.802  24.075  25.292  1.00  0.00    -0.237 OA
ATOM     74  O   UNL A   1      54.118  26.017  23.794  1.00  0.00    -0.237 OA
ATOM     75  O   UNL A   1      54.799  26.162  26.158  1.00  0.00    -0.744 OA
ENDBRANCH  71  72
ENDBRANCH  39  64
ENDBRANCH  13  14
ENDBRANCH   6   8
ENDBRANCH   5   6
ENDBRANCH   4   5
ENDBRANCH   3   4
ENDBRANCH   2   3
ENDBRANCH   1   2
BRANCH   1  76
ATOM     76  C   UNL A   1      32.285  29.313  24.200  1.00  0.00     0.188 C 
BRANCH  76  77
ATOM     77  O   UNL A   1      31.540  28.544  23.256  1.00  0.00    -0.376 OA
BRANCH  77  78
ATOM     78  C   UNL A   1      30.167  28.303  23.568  1.00  0.00     0.202 C 
BRANCH  78  79
ATOM     79  C   UNL A   1      29.754  26.844  23.789  1.00  0.00     0.261 C 
BRANCH  79  80
ATOM     80  O   UNL A   1      30.820  25.891  23.649  1.00  0.00    -0.460 OA
BRANCH  80  81
ATOM     81  C   UNL A   1      31.188  25.287  24.809  1.00  0.00     0.342 C 
ATOM     82  O   UNL A   1      30.906  25.634  25.943  1.00  0.00    -0.246 OA
BRANCH  81  83
ATOM     83  C   UNL A   1      31.932  24.053  24.529  1.00  0.00     0.102 A 
ATOM     84  C   UNL A   1      33.206  23.881  25.095  1.00  0.00     0.028 A 
ATOM     85  C   UNL A   1      31.457  23.170  23.559  1.00  0.00     0.130 A 
ATOM     86  C   UNL A   1      34.008  22.808  24.689  1.00  0.00    -0.017 A 
ATOM     87  C   UNL A   1      32.255  22.107  23.154  1.00  0.00     0.048 A 
ATOM     88  C   UNL A   1      33.517  21.918  23.722  1.00  0.00     0.012 A 
BRANCH  85  89
ATOM     89  O   UNL A   1      30.229  23.358  22.994  1.00  0.00    -0.507 OA
ATOM     90  H   UNL A   1      29.994  24.196  22.651  1.00  0.00     0.293 HD
ENDBRANCH  85  89
BRANCH  86  91
ATOM     91  C   UNL A   1      35.389  22.628  25.179  1.00  0.00    -0.011 A 
ATOM     92  C   UNL A   1      36.091  23.672  25.899  1.00  0.00     0.027 A 
ATOM     93  C   UNL A   1      36.042  21.492  24.887  1.00  0.00     0.080 A 
ATOM     94  C   UNL A   1      37.383  23.534  26.215  1.00  0.00     0.095 A 
ATOM     95  C   UNL A   1      37.476  21.310  25.252  1.00  0.00     0.255 A 
ATOM     96  N   UNL A   1      38.078  22.385  25.886  1.00  0.00    -0.258 N 
ATOM     97  O   UNL A   1      38.026  20.250  24.969  1.00  0.00    -0.269 OA
BRANCH  96  98
ATOM     98  C   UNL A   1      39.482  22.272  26.188  1.00  0.00     0.451 C 
ATOM     99  F   UNL A   1      40.173  23.348  25.738  1.00  0.00    -0.185 F 
ATOM    100  F   UNL A   1      39.694  22.165  27.522  1.00  0.00    -0.185 F 
ENDBRANCH  96  98
ENDBRANCH  86  91
ENDBRANCH  81  83
ENDBRANCH  80  81
ENDBRANCH  79  80
ENDBRANCH  78  79
ENDBRANCH  77  78
ENDBRANCH  76  77
ENDBRANCH   1  76
TORSDOF 23
ENDMDL
MODEL 2
REMARK VINA RESULT:     -10.0      4.878      9.059
REMARK SMILES O=C(OCCOCCOCCOC(=O)c1cc(-c2ccn(C(F)F)c(=O)c2)ccc1O)c1ccc(-c2c3nc(c(-c4c(F)cc(S(=O)(=O)[O-])cc4F)c4ccc([nH]4)c(-c4c(F)cc(S(=O)(=O)[O-])cc4F)c4nc(c(-c5c(F)cc(S(=O)(=O)[O-])cc5F)c5ccc2[nH]5)C=C4)C=C3)cc1
REMARK SMILES IDX 7 1 6 2 5 3 4 4 3 5 2 6 1 7 32 8 33 9 97 10 34 11 96 12
REMARK SMILES IDX 35 13 36 14 37 15 90 16 38 17 95 18 89 19 91 20 39 21 94 22
REMARK SMILES IDX 88 23 87 24 40 26 74 27 53 28 73 29 54 30 57 31 72 32 92 33
REMARK SMILES IDX 55 34 56 35 71 37 93 38 58 39 41 40 42 41 51 42 43 43 44 44
REMARK SMILES IDX 50 45 52 46 45 47 46 48 47 49 48 50 49 51 75 52 76 53 85 54
REMARK SMILES IDX 77 55 78 56 84 57 86 58 79 59 80 60 81 61 82 62 83 63 59 64
REMARK SMILES IDX 60 65 69 66 61 67 62 68 68 69 70 70 63 71 64 72 65 73 66 74
REMARK SMILES IDX 67 75 8 76 9 77 10 78 11 79 12 80 13 81 14 82 15 83 16 84
REMARK SMILES IDX 30 85 17 86 29 87 28 88 31 89 18 91 19 92 27 93 20 94 25 95
REMARK SMILES IDX 21 96 26 97 22 98 23 99 24 100
REMARK H PARENT 91 25 57 36 31 90
REMARK Flexibility Score: inf
ROOT
ATOM      1  C   UNL A   1      30.984  28.985  24.178  1.00  0.00     0.188 C 
ENDROOT
BRANCH   1   2
ATOM      2  O   UNL A   1      30.656  27.844  24.980  1.00  0.00    -0.376 OA
BRANCH   2   3
ATOM      3  C   UNL A   1      31.729  27.416  25.821  1.00  0.00     0.202 C 
BRANCH   3   4
ATOM      4  C   UNL A   1      32.179  28.474  26.831  1.00  0.00     0.261 C 
BRANCH   4   5
ATOM      5  O   UNL A   1      33.557  28.837  26.679  1.00  0.00    -0.460 OA
BRANCH   5   6
ATOM      6  C   UNL A   1      34.236  29.877  27.223  1.00  0.00     0.338 C 
ATOM      7  O   UNL A   1      33.678  30.976  27.190  1.00  0.00    -0.246 OA
BRANCH   6   8
ATOM      8  C   UNL A   1      35.600  29.808  27.862  1.00  0.00     0.060 A 
ATOM      9  C   UNL A   1      35.625  29.433  29.219  1.00  0.00     0.016 A 
ATOM     10  C   UNL A   1      36.834  30.079  27.260  1.00  0.00     0.016 A 
ATOM     11  C   UNL A   1      36.828  29.307  29.927  1.00  0.00     0.010 A 
ATOM     12  C   UNL A   1      38.043  29.926  27.953  1.00  0.00     0.010 A 
ATOM     13  C   UNL A   1      38.052  29.536  29.291  1.00  0.00    -0.014 A 
BRANCH  13  14
ATOM     14  C   UNL A   1      39.329  29.229  29.972  1.00  0.00     0.031 A 
ATOM     15  C   UNL A   1      39.805  30.004  31.163  1.00  0.00     0.074 A 
ATOM     16  C   UNL A   1      40.107  28.266  29.442  1.00  0.00     0.049 A 
ATOM     17  N   UNL A   1      40.845  29.773  31.924  1.00  0.00    -0.248 NA
ATOM     18  C   UNL A   1      39.039  31.201  31.541  1.00  0.00     0.031 C 
ATOM     19  C   UNL A   1      39.796  27.516  28.224  1.00  0.00     0.029 A 
ATOM     20  N   UNL A   1      41.316  27.765  29.846  1.00  0.00    -0.354 N 
ATOM     21  C   UNL A   1      40.836  30.763  32.894  1.00  0.00     0.074 A 
ATOM     22  C   UNL A   1      39.738  31.650  32.577  1.00  0.00     0.031 C 
ATOM     23  C   UNL A   1      40.782  26.640  27.987  1.00  0.00     0.029 A 
ATOM     24  C   UNL A   1      41.794  26.770  29.030  1.00  0.00     0.049 A 
ATOM     25  H   UNL A   1      41.795  28.086  30.644  1.00  0.00     0.167 HD
ATOM     26  C   UNL A   1      41.648  30.894  33.970  1.00  0.00     0.037 A 
ATOM     27  C   UNL A   1      42.916  26.032  29.117  1.00  0.00     0.037 A 
ATOM     28  C   UNL A   1      42.758  30.030  34.254  1.00  0.00     0.049 A 
ATOM     29  C   UNL A   1      43.832  26.225  30.287  1.00  0.00     0.074 A 
ATOM     30  C   UNL A   1      43.583  30.023  35.365  1.00  0.00     0.029 A 
ATOM     31  N   UNL A   1      43.224  29.045  33.398  1.00  0.00    -0.354 N 
ATOM     32  N   UNL A   1      43.703  27.050  31.297  1.00  0.00    -0.248 NA
ATOM     33  C   UNL A   1      45.036  25.386  30.338  1.00  0.00     0.031 C 
ATOM     34  C   UNL A   1      44.578  29.060  35.159  1.00  0.00     0.029 A 
ATOM     35  C   UNL A   1      44.356  28.455  33.931  1.00  0.00     0.049 A 
ATOM     36  H   UNL A   1      42.811  28.801  32.538  1.00  0.00     0.167 HD
ATOM     37  C   UNL A   1      44.806  26.826  32.112  1.00  0.00     0.074 A 
ATOM     38  C   UNL A   1      45.587  25.782  31.480  1.00  0.00     0.031 C 
ATOM     39  C   UNL A   1      45.133  27.431  33.280  1.00  0.00     0.037 A 
BRANCH  26  40
ATOM     40  C   UNL A   1      41.329  31.976  34.952  1.00  0.00     0.058 A 
ATOM     41  C   UNL A   1      40.421  31.737  35.994  1.00  0.00     0.135 A 
ATOM     42  C   UNL A   1      41.943  33.235  34.887  1.00  0.00     0.135 A 
ATOM     43  F   UNL A   1      39.796  30.552  36.093  1.00  0.00    -0.206 F 
ATOM     44  C   UNL A   1      40.091  32.727  36.910  1.00  0.00     0.059 A 
ATOM     45  C   UNL A   1      41.633  34.241  35.799  1.00  0.00     0.059 A 
ATOM     46  F   UNL A   1      42.830  33.505  33.917  1.00  0.00    -0.206 F 
ATOM     47  C   UNL A   1      40.685  33.983  36.788  1.00  0.00     0.060 A 
BRANCH  47  48
ATOM     48  S   UNL A   1      40.128  35.294  37.892  1.00  0.00     0.124 S 
ATOM     49  O   UNL A   1      38.855  34.733  38.341  1.00  0.00    -0.237 OA
ATOM     50  O   UNL A   1      41.188  35.338  38.892  1.00  0.00    -0.237 OA
ATOM     51  O   UNL A   1      40.038  36.458  37.018  1.00  0.00    -0.744 OA
ENDBRANCH  47  48
ENDBRANCH  26  40
BRANCH  27  52
ATOM     52  C   UNL A   1      43.172  25.011  28.072  1.00  0.00     0.058 A 
ATOM     53  C   UNL A   1      43.829  25.356  26.884  1.00  0.00     0.135 A 
ATOM     54  C   UNL A   1      42.890  23.655  28.302  1.00  0.00     0.135 A 
ATOM     55  F   UNL A   1      44.117  26.640  26.626  1.00  0.00    -0.206 F 
ATOM     56  C   UNL A   1      44.223  24.388  25.968  1.00  0.00     0.059 A 
ATOM     57  C   UNL A   1      43.286  22.667  27.406  1.00  0.00     0.059 A 
ATOM     58  F   UNL A   1      42.280  23.278  29.437  1.00  0.00    -0.206 F 
ATOM     59  C   UNL A   1      43.959  23.045  26.244  1.00  0.00     0.060 A 
BRANCH  59  60
ATOM     60  S   UNL A   1      44.585  21.789  25.106  1.00  0.00     0.124 S 
ATOM     61  O   UNL A   1      46.021  21.859  25.351  1.00  0.00    -0.237 OA
ATOM     62  O   UNL A   1      43.914  20.583  25.581  1.00  0.00    -0.237 OA
ATOM     63  O   UNL A   1      44.143  22.269  23.800  1.00  0.00    -0.744 OA
ENDBRANCH  59  60
ENDBRANCH  27  52
BRANCH  39  64
ATOM     64  C   UNL A   1      46.410  27.015  33.944  1.00  0.00     0.058 A 
ATOM     65  C   UNL A   1      46.442  25.912  34.809  1.00  0.00     0.135 A 
ATOM     66  C   UNL A   1      47.623  27.648  33.630  1.00  0.00     0.135 A 
ATOM     67  F   UNL A   1      45.305  25.279  35.140  1.00  0.00    -0.206 F 
ATOM     68  C   UNL A   1      47.639  25.442  35.336  1.00  0.00     0.059 A 
ATOM     69  C   UNL A   1      48.833  27.185  34.133  1.00  0.00     0.059 A 
ATOM     70  F   UNL A   1      47.640  28.700  32.798  1.00  0.00    -0.206 F 
ATOM     71  C   UNL A   1      48.831  26.079  34.985  1.00  0.00     0.060 A 
BRANCH  71  72
ATOM     72  S   UNL A   1      50.384  25.406  35.610  1.00  0.00     0.124 S 
ATOM     73  O   UNL A   1      50.295  25.732  37.030  1.00  0.00    -0.237 OA
ATOM     74  O   UNL A   1      50.268  23.990  35.276  1.00  0.00    -0.237 OA
ATOM     75  O   UNL A   1      51.398  26.140  34.858  1.00  0.00    -0.744 OA
ENDBRANCH  71  72
ENDBRANCH  39  64
ENDBRANCH  13  14
ENDBRANCH   6   8
ENDBRANCH   5   6
ENDBRANCH   4   5
ENDBRANCH   3   4
ENDBRANCH   2   3
ENDBRANCH   1   2
BRANCH   1  76
ATOM     76  C   UNL A   1      31.596  28.561  22.841  1.00  0.00     0.188 C 
BRANCH  76  77
ATOM     77  O   UNL A   1      30.826  27.610  22.106  1.00  0.00    -0.376 OA
BRANCH  77  78
ATOM     78  C   UNL A   1      31.498  26.415  21.707  1.00  0.00     0.202 C 
BRANCH  78  79
ATOM     79  C   UNL A   1      32.578  25.880  22.654  1.00  0.00     0.261 C 
BRANCH  79  80
ATOM     80  O   UNL A   1      33.708  25.282  21.998  1.00  0.00    -0.460 OA
BRANCH  80  81
ATOM     81  C   UNL A   1      33.529  23.981  21.650  1.00  0.00     0.342 C 
ATOM     82  O   UNL A   1      33.276  23.541  20.541  1.00  0.00    -0.246 OA
BRANCH  81  83
ATOM     83  C   UNL A   1      33.774  23.105  22.803  1.00  0.00     0.102 A 
ATOM     84  C   UNL A   1      35.085  22.971  23.291  1.00  0.00     0.028 A 
ATOM     85  C   UNL A   1      32.753  22.276  23.265  1.00  0.00     0.130 A 
ATOM     86  C   UNL A   1      35.370  21.999  24.258  1.00  0.00    -0.017 A 
ATOM     87  C   UNL A   1      33.037  21.310  24.222  1.00  0.00     0.048 A 
ATOM     88  C   UNL A   1      34.333  21.180  24.726  1.00  0.00     0.012 A 
BRANCH  85  89
ATOM     89  O   UNL A   1      31.487  22.395  22.767  1.00  0.00    -0.507 OA
ATOM     90  H   UNL A   1      30.929  23.085  23.067  1.00  0.00     0.293 HD
ENDBRANCH  85  89
BRANCH  86  91
ATOM     91  C   UNL A   1      36.742  21.749  24.741  1.00  0.00    -0.011 A 
ATOM     92  C   UNL A   1      37.332  20.425  24.728  1.00  0.00     0.027 A 
ATOM     93  C   UNL A   1      37.441  22.763  25.275  1.00  0.00     0.080 A 
ATOM     94  C   UNL A   1      38.524  20.202  25.293  1.00  0.00     0.095 A 
ATOM     95  C   UNL A   1      38.782  22.540  25.887  1.00  0.00     0.255 A 
ATOM     96  N   UNL A   1      39.237  21.230  25.881  1.00  0.00    -0.258 N 
ATOM     97  O   UNL A   1      39.383  23.501  26.357  1.00  0.00    -0.269 OA
BRANCH  96  98
ATOM     98  C   UNL A   1      40.496  20.965  26.529  1.00  0.00     0.451 C 
ATOM     99  F   UNL A   1      40.375  21.002  27.878  1.00  0.00    -0.185 F 
ATOM    100  F   UNL A   1      40.984  19.750  26.184  1.00  0.00    -0.185 F 
ENDBRANCH  96  98
ENDBRANCH  86  91
ENDBRANCH  81  83
ENDBRANCH  80  81
ENDBRANCH  79  80
ENDBRANCH  78  79
ENDBRANCH  77  78
ENDBRANCH  76  77
ENDBRANCH   1  76
TORSDOF 23
ENDMDL
MODEL 3
REMARK VINA RESULT:     -10.0      1.768      2.622
REMARK SMILES O=C(OCCOCCOCCOC(=O)c1cc(-c2ccn(C(F)F)c(=O)c2)ccc1O)c1ccc(-c2c3nc(c(-c4c(F)cc(S(=O)(=O)[O-])cc4F)c4ccc([nH]4)c(-c4c(F)cc(S(=O)(=O)[O-])cc4F)c4nc(c(-c5c(F)cc(S(=O)(=O)[O-])cc5F)c5ccc2[nH]5)C=C4)C=C3)cc1
REMARK SMILES IDX 7 1 6 2 5 3 4 4 3 5 2 6 1 7 32 8 33 9 97 10 34 11 96 12
REMARK SMILES IDX 35 13 36 14 37 15 90 16 38 17 95 18 89 19 91 20 39 21 94 22
REMARK SMILES IDX 88 23 87 24 40 26 74 27 53 28 73 29 54 30 57 31 72 32 92 33
REMARK SMILES IDX 55 34 56 35 71 37 93 38 58 39 41 40 42 41 51 42 43 43 44 44
REMARK SMILES IDX 50 45 52 46 45 47 46 48 47 49 48 50 49 51 75 52 76 53 85 54
REMARK SMILES IDX 77 55 78 56 84 57 86 58 79 59 80 60 81 61 82 62 83 63 59 64
REMARK SMILES IDX 60 65 69 66 61 67 62 68 68 69 70 70 63 71 64 72 65 73 66 74
REMARK SMILES IDX 67 75 8 76 9 77 10 78 11 79 12 80 13 81 14 82 15 83 16 84
REMARK SMILES IDX 30 85 17 86 29 87 28 88 31 89 18 91 19 92 27 93 20 94 25 95
REMARK SMILES IDX 21 96 26 97 22 98 23 99 24 100
REMARK H PARENT 91 25 57 36 31 90
REMARK Flexibility Score: inf
ROOT
ATOM      1  C   UNL A   1      35.072  31.253  27.549  1.00  0.00     0.188 C 
ENDROOT
BRANCH   1   2
ATOM      2  O   UNL A   1      34.046  32.079  28.115  1.00  0.00    -0.376 OA
BRANCH   2   3
ATOM      3  C   UNL A   1      34.430  32.691  29.348  1.00  0.00     0.202 C 
BRANCH   3   4
ATOM      4  C   UNL A   1      35.879  33.185  29.365  1.00  0.00     0.261 C 
BRANCH   4   5
ATOM      5  O   UNL A   1      36.595  32.768  30.534  1.00  0.00    -0.460 OA
BRANCH   5   6
ATOM      6  C   UNL A   1      36.987  31.523  30.903  1.00  0.00     0.338 C 
ATOM      7  O   UNL A   1      36.196  30.879  31.594  1.00  0.00    -0.246 OA
BRANCH   6   8
ATOM      8  C   UNL A   1      38.294  30.863  30.541  1.00  0.00     0.060 A 
ATOM      9  C   UNL A   1      38.561  30.743  29.163  1.00  0.00     0.016 A 
ATOM     10  C   UNL A   1      39.259  30.355  31.417  1.00  0.00     0.016 A 
ATOM     11  C   UNL A   1      39.748  30.169  28.690  1.00  0.00     0.010 A 
ATOM     12  C   UNL A   1      40.463  29.809  30.951  1.00  0.00     0.010 A 
ATOM     13  C   UNL A   1      40.721  29.714  29.585  1.00  0.00    -0.014 A 
BRANCH  13  14
ATOM     14  C   UNL A   1      42.050  29.278  29.103  1.00  0.00     0.031 A 
ATOM     15  C   UNL A   1      42.324  27.867  28.681  1.00  0.00     0.074 A 
ATOM     16  C   UNL A   1      43.051  30.180  29.123  1.00  0.00     0.049 A 
ATOM     17  N   UNL A   1      43.407  27.375  28.134  1.00  0.00    -0.248 NA
ATOM     18  C   UNL A   1      41.267  26.873  28.919  1.00  0.00     0.031 C 
ATOM     19  C   UNL A   1      42.929  31.555  29.611  1.00  0.00     0.029 A 
ATOM     20  N   UNL A   1      44.361  30.075  28.739  1.00  0.00    -0.354 N 
ATOM     21  C   UNL A   1      43.150  26.029  27.922  1.00  0.00     0.074 A 
ATOM     22  C   UNL A   1      41.841  25.760  28.477  1.00  0.00     0.031 C 
ATOM     23  C   UNL A   1      44.112  32.171  29.485  1.00  0.00     0.029 A 
ATOM     24  C   UNL A   1      45.075  31.235  28.913  1.00  0.00     0.049 A 
ATOM     25  H   UNL A   1      44.754  29.249  28.373  1.00  0.00     0.167 HD
ATOM     26  C   UNL A   1      43.921  25.115  27.287  1.00  0.00     0.037 A 
ATOM     27  C   UNL A   1      46.360  31.522  28.631  1.00  0.00     0.037 A 
ATOM     28  C   UNL A   1      45.234  25.383  26.773  1.00  0.00     0.049 A 
ATOM     29  C   UNL A   1      47.216  30.481  27.976  1.00  0.00     0.074 A 
ATOM     30  C   UNL A   1      46.057  24.553  26.034  1.00  0.00     0.029 A 
ATOM     31  N   UNL A   1      45.933  26.562  26.983  1.00  0.00    -0.354 N 
ATOM     32  N   UNL A   1      46.891  29.264  27.615  1.00  0.00    -0.248 NA
ATOM     33  C   UNL A   1      48.606  30.850  27.681  1.00  0.00     0.031 C 
ATOM     34  C   UNL A   1      47.274  25.214  25.835  1.00  0.00     0.029 A 
ATOM     35  C   UNL A   1      47.197  26.464  26.430  1.00  0.00     0.049 A 
ATOM     36  H   UNL A   1      45.581  27.351  27.455  1.00  0.00     0.167 HD
ATOM     37  C   UNL A   1      48.033  28.721  27.040  1.00  0.00     0.074 A 
ATOM     38  C   UNL A   1      49.056  29.746  27.095  1.00  0.00     0.031 C 
ATOM     39  C   UNL A   1      48.210  27.486  26.513  1.00  0.00     0.037 A 
BRANCH  26  40
ATOM     40  C   UNL A   1      43.340  23.755  27.059  1.00  0.00     0.058 A 
ATOM     41  C   UNL A   1      43.327  22.811  28.096  1.00  0.00     0.135 A 
ATOM     42  C   UNL A   1      42.766  23.396  25.831  1.00  0.00     0.135 A 
ATOM     43  F   UNL A   1      43.877  23.102  29.286  1.00  0.00    -0.206 F 
ATOM     44  C   UNL A   1      42.811  21.536  27.909  1.00  0.00     0.059 A 
ATOM     45  C   UNL A   1      42.235  22.126  25.623  1.00  0.00     0.059 A 
ATOM     46  F   UNL A   1      42.740  24.272  24.815  1.00  0.00    -0.206 F 
ATOM     47  C   UNL A   1      42.290  21.196  26.661  1.00  0.00     0.060 A 
BRANCH  47  48
ATOM     48  S   UNL A   1      41.768  19.491  26.397  1.00  0.00     0.124 S 
ATOM     49  O   UNL A   1      40.323  19.678  26.270  1.00  0.00    -0.237 OA
ATOM     50  O   UNL A   1      42.469  19.132  25.169  1.00  0.00    -0.237 OA
ATOM     51  O   UNL A   1      42.218  18.807  27.603  1.00  0.00    -0.744 OA
ENDBRANCH  47  48
ENDBRANCH  26  40
BRANCH  27  52
ATOM     52  C   UNL A   1      46.861  32.884  28.932  1.00  0.00     0.058 A 
ATOM     53  C   UNL A   1      47.546  33.144  30.127  1.00  0.00     0.135 A 
ATOM     54  C   UNL A   1      46.787  33.910  27.976  1.00  0.00     0.135 A 
ATOM     55  F   UNL A   1      47.640  32.192  31.066  1.00  0.00    -0.206 F 
ATOM     56  C   UNL A   1      48.164  34.368  30.354  1.00  0.00     0.059 A 
ATOM     57  C   UNL A   1      47.408  35.138  28.176  1.00  0.00     0.059 A 
ATOM     58  F   UNL A   1      46.158  33.697  26.810  1.00  0.00    -0.206 F 
ATOM     59  C   UNL A   1      48.102  35.354  29.367  1.00  0.00     0.060 A 
BRANCH  59  60
ATOM     60  S   UNL A   1      49.012  36.894  29.624  1.00  0.00     0.124 S 
ATOM     61  O   UNL A   1      49.447  36.751  31.008  1.00  0.00    -0.237 OA
ATOM     62  O   UNL A   1      50.060  36.802  28.612  1.00  0.00    -0.237 OA
ATOM     63  O   UNL A   1      48.007  37.923  29.381  1.00  0.00    -0.744 OA
ENDBRANCH  59  60
ENDBRANCH  27  52
BRANCH  39  64
ATOM     64  C   UNL A   1      49.569  27.145  25.981  1.00  0.00     0.058 A 
ATOM     65  C   UNL A   1      50.529  26.538  26.802  1.00  0.00     0.135 A 
ATOM     66  C   UNL A   1      49.874  27.323  24.623  1.00  0.00     0.135 A 
ATOM     67  F   UNL A   1      50.281  26.353  28.109  1.00  0.00    -0.206 F 
ATOM     68  C   UNL A   1      51.748  26.108  26.293  1.00  0.00     0.059 A 
ATOM     69  C   UNL A   1      51.080  26.886  24.088  1.00  0.00     0.059 A 
ATOM     70  F   UNL A   1      48.981  27.890  23.798  1.00  0.00    -0.206 F 
ATOM     71  C   UNL A   1      52.011  26.278  24.932  1.00  0.00     0.060 A 
BRANCH  71  72
ATOM     72  S   UNL A   1      53.563  25.639  24.268  1.00  0.00     0.124 S 
ATOM     73  O   UNL A   1      53.489  24.232  24.648  1.00  0.00    -0.237 OA
ATOM     74  O   UNL A   1      53.430  25.918  22.840  1.00  0.00    -0.237 OA
ATOM     75  O   UNL A   1      54.578  26.426  24.961  1.00  0.00    -0.744 OA
ENDBRANCH  71  72
ENDBRANCH  39  64
ENDBRANCH  13  14
ENDBRANCH   6   8
ENDBRANCH   5   6
ENDBRANCH   4   5
ENDBRANCH   3   4
ENDBRANCH   2   3
ENDBRANCH   1   2
BRANCH   1  76
ATOM     76  C   UNL A   1      35.079  29.865  28.192  1.00  0.00     0.188 C 
BRANCH  76  77
ATOM     77  O   UNL A   1      34.289  28.888  27.515  1.00  0.00    -0.376 OA
BRANCH  77  78
ATOM     78  C   UNL A   1      33.892  29.199  26.180  1.00  0.00     0.202 C 
BRANCH  78  79
ATOM     79  C   UNL A   1      33.475  28.022  25.290  1.00  0.00     0.261 C 
BRANCH  79  80
ATOM     80  O   UNL A   1      32.057  27.809  25.203  1.00  0.00    -0.460 OA
BRANCH  80  81
ATOM     81  C   UNL A   1      31.589  26.820  26.008  1.00  0.00     0.342 C 
ATOM     82  O   UNL A   1      31.372  26.884  27.206  1.00  0.00    -0.246 OA
BRANCH  81  83
ATOM     83  C   UNL A   1      31.273  25.624  25.217  1.00  0.00     0.102 A 
ATOM     84  C   UNL A   1      31.990  24.439  25.456  1.00  0.00     0.028 A 
ATOM     85  C   UNL A   1      30.419  25.732  24.120  1.00  0.00     0.130 A 
ATOM     86  C   UNL A   1      31.841  23.350  24.588  1.00  0.00    -0.017 A 
ATOM     87  C   UNL A   1      30.274  24.652  23.258  1.00  0.00     0.048 A 
ATOM     88  C   UNL A   1      30.970  23.465  23.496  1.00  0.00     0.012 A 
BRANCH  85  89
ATOM     89  O   UNL A   1      29.745  26.895  23.880  1.00  0.00    -0.507 OA
ATOM     90  H   UNL A   1      29.494  27.446  24.593  1.00  0.00     0.293 HD
ENDBRANCH  85  89
BRANCH  86  91
ATOM     91  C   UNL A   1      32.635  22.114  24.734  1.00  0.00    -0.011 A 
ATOM     92  C   UNL A   1      34.073  22.098  24.548  1.00  0.00     0.027 A 
ATOM     93  C   UNL A   1      32.001  20.956  24.976  1.00  0.00     0.080 A 
ATOM     94  C   UNL A   1      34.749  20.944  24.554  1.00  0.00     0.095 A 
ATOM     95  C   UNL A   1      32.741  19.662  25.011  1.00  0.00     0.255 A 
ATOM     96  N   UNL A   1      34.103  19.740  24.763  1.00  0.00    -0.258 N 
ATOM     97  O   UNL A   1      32.116  18.632  25.242  1.00  0.00    -0.269 OA
BRANCH  96  98
ATOM     98  C   UNL A   1      34.837  18.502  24.717  1.00  0.00     0.451 C 
ATOM     99  F   UNL A   1      34.546  17.796  23.598  1.00  0.00    -0.185 F 
ATOM    100  F   UNL A   1      36.174  18.719  24.742  1.00  0.00    -0.185 F 
ENDBRANCH  96  98
ENDBRANCH  86  91
ENDBRANCH  81  83
ENDBRANCH  80  81
ENDBRANCH  79  80
ENDBRANCH  78  79
ENDBRANCH  77  78
ENDBRANCH  76  77
ENDBRANCH   1  76
TORSDOF 23
ENDMDL
