MODEL 1
REMARK VINA RESULT:     -10.2      0.000      0.000
REMARK SMILES O=C(Cc1ccc(F)c(F)c1)NC1(C(=O)OCCOCCOCCOC(=O)c2ccc(-c3c4nc(c(-c5c(F)cc(S(=O)(=O)[O-])cc5F)c5ccc([nH]5)c(-c5c(F)cc(S(=O)(=O)[O-])cc5F)c5nc(c(-c6c(F)cc(S(=O)(=O)[O-])cc6F)c6ccc3[nH]6)C=C5)C=C4)cc2)CCCC1
REMARK SMILES IDX 20 1 19 2 18 3 17 4 16 5 14 6 15 7 13 8 94 9 97 10 95 11
REMARK SMILES IDX 96 12 12 13 1 14 2 15 3 17 4 18 5 19 11 20 6 21 9 22 7 23
REMARK SMILES IDX 10 24 8 25 21 26 22 27 23 28 24 29 25 30 26 31 27 32 28 33
REMARK SMILES IDX 29 34 93 35 30 36 92 37 31 38 32 39 33 40 86 41 34 42 91 43
REMARK SMILES IDX 85 44 87 45 35 46 90 47 84 48 83 49 36 51 70 52 49 53 69 54
REMARK SMILES IDX 50 55 53 56 68 57 88 58 51 59 52 60 67 62 89 63 54 64 37 65
REMARK SMILES IDX 38 66 47 67 39 68 40 69 46 70 48 71 41 72 42 73 43 74 44 75
REMARK SMILES IDX 45 76 71 77 72 78 81 79 73 80 74 81 80 82 82 83 75 84 76 85
REMARK SMILES IDX 77 86 78 87 79 88 55 89 56 90 65 91 57 92 58 93 64 94 66 95
REMARK SMILES IDX 59 96 60 97 61 98 62 99 63 100
REMARK H PARENT 12 16 87 50 53 61
REMARK Flexibility Score: inf
ROOT
ATOM      1  C   UNL A   1      31.792  28.311  22.723  1.00  0.00     0.188 C 
ENDROOT
BRANCH   1   2
ATOM      2  O   UNL A   1      31.252  27.124  22.159  1.00  0.00    -0.376 OA
BRANCH   2   3
ATOM      3  C   UNL A   1      31.751  25.928  22.731  1.00  0.00     0.202 C 
BRANCH   3   4
ATOM      4  C   UNL A   1      30.758  25.140  23.599  1.00  0.00     0.261 C 
BRANCH   4   5
ATOM      5  O   UNL A   1      30.771  23.706  23.456  1.00  0.00    -0.461 OA
BRANCH   5   6
ATOM      6  C   UNL A   1      31.407  22.972  24.407  1.00  0.00     0.331 C 
ATOM      7  O   UNL A   1      30.988  22.833  25.552  1.00  0.00    -0.249 OA
BRANCH   6   8
ATOM      8  C   UNL A   1      32.781  22.393  23.911  1.00  0.00     0.138 C 
ATOM      9  C   UNL A   1      32.663  22.227  22.377  1.00  0.00     0.040 C 
ATOM     10  C   UNL A   1      33.138  20.942  24.294  1.00  0.00     0.040 C 
ATOM     11  C   UNL A   1      31.931  20.908  22.178  1.00  0.00     0.003 C 
ATOM     12  C   UNL A   1      32.363  20.030  23.344  1.00  0.00     0.003 C 
BRANCH   8  13
ATOM     13  N   UNL A   1      33.893  23.322  24.192  1.00  0.00    -0.340 N 
ATOM     14  O   UNL A   1      34.080  22.868  26.428  1.00  0.00    -0.275 OA
ATOM     15  C   UNL A   1      34.497  23.436  25.425  1.00  0.00     0.225 C 
ATOM     16  H   UNL A   1      34.219  23.893  23.459  1.00  0.00     0.164 HD
BRANCH  15  17
ATOM     17  C   UNL A   1      35.770  24.268  25.438  1.00  0.00     0.135 C 
BRANCH  17  18
ATOM     18  C   UNL A   1      37.029  23.474  25.720  1.00  0.00    -0.036 A 
ATOM     19  C   UNL A   1      38.110  23.991  26.460  1.00  0.00     0.007 A 
ATOM     20  C   UNL A   1      37.120  22.156  25.236  1.00  0.00     0.046 A 
ATOM     21  C   UNL A   1      39.255  23.223  26.686  1.00  0.00     0.043 A 
ATOM     22  C   UNL A   1      38.265  21.396  25.469  1.00  0.00     0.159 A 
ATOM     23  C   UNL A   1      39.327  21.928  26.185  1.00  0.00     0.158 A 
ATOM     24  F   UNL A   1      38.328  20.144  24.999  1.00  0.00    -0.204 F 
ATOM     25  F   UNL A   1      40.437  21.210  26.396  1.00  0.00    -0.204 F 
ENDBRANCH  17  18
ENDBRANCH  15  17
ENDBRANCH   8  13
ENDBRANCH   6   8
ENDBRANCH   5   6
ENDBRANCH   4   5
ENDBRANCH   3   4
ENDBRANCH   2   3
ENDBRANCH   1   2
BRANCH   1  26
ATOM     26  C   UNL A   1      30.946  28.865  23.871  1.00  0.00     0.188 C 
BRANCH  26  27
ATOM     27  O   UNL A   1      31.451  28.881  25.201  1.00  0.00    -0.376 OA
BRANCH  27  28
ATOM     28  C   UNL A   1      32.439  29.853  25.514  1.00  0.00     0.202 C 
BRANCH  28  29
ATOM     29  C   UNL A   1      33.482  29.507  26.586  1.00  0.00     0.261 C 
BRANCH  29  30
ATOM     30  O   UNL A   1      33.526  30.417  27.698  1.00  0.00    -0.460 OA
BRANCH  30  31
ATOM     31  C   UNL A   1      34.616  31.216  27.740  1.00  0.00     0.338 C 
ATOM     32  O   UNL A   1      34.635  32.447  27.691  1.00  0.00    -0.246 OA
BRANCH  31  33
ATOM     33  C   UNL A   1      35.829  30.432  28.019  1.00  0.00     0.060 A 
ATOM     34  C   UNL A   1      35.911  29.780  29.254  1.00  0.00     0.016 A 
ATOM     35  C   UNL A   1      36.930  30.451  27.160  1.00  0.00     0.016 A 
ATOM     36  C   UNL A   1      37.091  29.155  29.633  1.00  0.00     0.010 A 
ATOM     37  C   UNL A   1      38.134  29.856  27.570  1.00  0.00     0.010 A 
ATOM     38  C   UNL A   1      38.228  29.235  28.828  1.00  0.00    -0.014 A 
BRANCH  38  39
ATOM     39  C   UNL A   1      39.533  28.916  29.465  1.00  0.00     0.031 A 
ATOM     40  C   UNL A   1      39.868  29.595  30.768  1.00  0.00     0.074 A 
ATOM     41  C   UNL A   1      40.325  27.926  29.011  1.00  0.00     0.049 A 
ATOM     42  N   UNL A   1      40.957  29.527  31.488  1.00  0.00    -0.248 NA
ATOM     43  C   UNL A   1      38.824  30.464  31.340  1.00  0.00     0.031 C 
ATOM     44  C   UNL A   1      40.045  27.081  27.851  1.00  0.00     0.029 A 
ATOM     45  N   UNL A   1      41.513  27.441  29.500  1.00  0.00    -0.354 N 
ATOM     46  C   UNL A   1      40.751  30.381  32.566  1.00  0.00     0.074 A 
ATOM     47  C   UNL A   1      39.427  30.943  32.416  1.00  0.00     0.031 C 
ATOM     48  C   UNL A   1      41.023  26.163  27.735  1.00  0.00     0.029 A 
ATOM     49  C   UNL A   1      42.023  26.388  28.779  1.00  0.00     0.049 A 
ATOM     50  H   UNL A   1      41.958  27.813  30.295  1.00  0.00     0.167 HD
ATOM     51  C   UNL A   1      41.594  30.684  33.580  1.00  0.00     0.037 A 
ATOM     52  C   UNL A   1      43.175  25.703  28.933  1.00  0.00     0.037 A 
ATOM     53  C   UNL A   1      42.891  30.087  33.757  1.00  0.00     0.049 A 
ATOM     54  C   UNL A   1      44.128  26.097  30.036  1.00  0.00     0.074 A 
ATOM     55  C   UNL A   1      43.841  30.361  34.725  1.00  0.00     0.029 A 
ATOM     56  N   UNL A   1      43.409  29.079  32.960  1.00  0.00    -0.354 N 
ATOM     57  N   UNL A   1      43.977  26.994  30.981  1.00  0.00    -0.248 NA
ATOM     58  C   UNL A   1      45.424  25.401  30.074  1.00  0.00     0.031 C 
ATOM     59  C   UNL A   1      44.951  29.543  34.489  1.00  0.00     0.029 A 
ATOM     60  C   UNL A   1      44.673  28.730  33.401  1.00  0.00     0.049 A 
ATOM     61  H   UNL A   1      42.946  28.672  32.191  1.00  0.00     0.167 HD
ATOM     62  C   UNL A   1      45.148  26.959  31.732  1.00  0.00     0.074 A 
ATOM     63  C   UNL A   1      45.992  25.940  31.144  1.00  0.00     0.031 C 
ATOM     64  C   UNL A   1      45.498  27.707  32.809  1.00  0.00     0.037 A 
BRANCH  51  65
ATOM     65  C   UNL A   1      41.168  31.772  34.523  1.00  0.00     0.058 A 
ATOM     66  C   UNL A   1      40.424  31.517  35.683  1.00  0.00     0.135 A 
ATOM     67  C   UNL A   1      41.510  33.105  34.240  1.00  0.00     0.135 A 
ATOM     68  F   UNL A   1      40.048  30.264  35.985  1.00  0.00    -0.206 F 
ATOM     69  C   UNL A   1      40.007  32.550  36.518  1.00  0.00     0.059 A 
ATOM     70  C   UNL A   1      41.125  34.150  35.072  1.00  0.00     0.059 A 
ATOM     71  F   UNL A   1      42.214  33.402  33.137  1.00  0.00    -0.206 F 
ATOM     72  C   UNL A   1      40.359  33.865  36.200  1.00  0.00     0.060 A 
BRANCH  72  73
ATOM     73  S   UNL A   1      39.802  35.201  37.278  1.00  0.00     0.124 S 
ATOM     74  O   UNL A   1      38.530  34.674  37.762  1.00  0.00    -0.237 OA
ATOM     75  O   UNL A   1      40.874  35.277  38.266  1.00  0.00    -0.237 OA
ATOM     76  O   UNL A   1      39.705  36.346  36.377  1.00  0.00    -0.744 OA
ENDBRANCH  72  73
ENDBRANCH  51  65
BRANCH  52  77
ATOM     77  C   UNL A   1      43.525  24.595  28.002  1.00  0.00     0.058 A 
ATOM     78  C   UNL A   1      44.235  24.843  26.818  1.00  0.00     0.135 A 
ATOM     79  C   UNL A   1      43.131  23.273  28.261  1.00  0.00     0.135 A 
ATOM     80  F   UNL A   1      44.623  26.092  26.516  1.00  0.00    -0.206 F 
ATOM     81  C   UNL A   1      44.530  23.824  25.916  1.00  0.00     0.059 A 
ATOM     82  C   UNL A   1      43.438  22.233  27.388  1.00  0.00     0.059 A 
ATOM     83  F   UNL A   1      42.450  22.980  29.380  1.00  0.00    -0.206 F 
ATOM     84  C   UNL A   1      44.129  22.520  26.212  1.00  0.00     0.060 A 
BRANCH  84  85
ATOM     85  S   UNL A   1      44.561  21.194  25.066  1.00  0.00     0.124 S 
ATOM     86  O   UNL A   1      43.490  20.235  25.308  1.00  0.00    -0.237 OA
ATOM     87  O   UNL A   1      44.528  21.877  23.777  1.00  0.00    -0.237 OA
ATOM     88  O   UNL A   1      45.889  20.786  25.515  1.00  0.00    -0.744 OA
ENDBRANCH  84  85
ENDBRANCH  52  77
BRANCH  64  89
ATOM     89  C   UNL A   1      46.838  27.442  33.436  1.00  0.00     0.058 A 
ATOM     90  C   UNL A   1      47.002  26.478  34.443  1.00  0.00     0.135 A 
ATOM     91  C   UNL A   1      47.982  28.121  32.985  1.00  0.00     0.135 A 
ATOM     92  F   UNL A   1      45.942  25.803  34.911  1.00  0.00    -0.206 F 
ATOM     93  C   UNL A   1      48.251  26.214  34.999  1.00  0.00     0.059 A 
ATOM     94  C   UNL A   1      49.244  27.856  33.510  1.00  0.00     0.059 A 
ATOM     95  F   UNL A   1      47.882  29.042  32.014  1.00  0.00    -0.206 F 
ATOM     96  C   UNL A   1      49.366  26.908  34.526  1.00  0.00     0.060 A 
BRANCH  96  97
ATOM     97  S   UNL A   1      50.985  26.538  35.234  1.00  0.00     0.124 S 
ATOM     98  O   UNL A   1      51.516  27.875  35.470  1.00  0.00    -0.237 OA
ATOM     99  O   UNL A   1      50.639  25.773  36.428  1.00  0.00    -0.237 OA
ATOM    100  O   UNL A   1      51.649  25.774  34.181  1.00  0.00    -0.744 OA
ENDBRANCH  96  97
ENDBRANCH  64  89
ENDBRANCH  38  39
ENDBRANCH  31  33
ENDBRANCH  30  31
ENDBRANCH  29  30
ENDBRANCH  28  29
ENDBRANCH  27  28
ENDBRANCH  26  27
ENDBRANCH   1  26
TORSDOF 23
ENDMDL
MODEL 2
REMARK VINA RESULT:     -10.2      4.876      6.927
REMARK SMILES O=C(Cc1ccc(F)c(F)c1)NC1(C(=O)OCCOCCOCCOC(=O)c2ccc(-c3c4nc(c(-c5c(F)cc(S(=O)(=O)[O-])cc5F)c5ccc([nH]5)c(-c5c(F)cc(S(=O)(=O)[O-])cc5F)c5nc(c(-c6c(F)cc(S(=O)(=O)[O-])cc6F)c6ccc3[nH]6)C=C5)C=C4)cc2)CCCC1
REMARK SMILES IDX 20 1 19 2 18 3 17 4 16 5 14 6 15 7 13 8 94 9 97 10 95 11
REMARK SMILES IDX 96 12 12 13 1 14 2 15 3 17 4 18 5 19 11 20 6 21 9 22 7 23
REMARK SMILES IDX 10 24 8 25 21 26 22 27 23 28 24 29 25 30 26 31 27 32 28 33
REMARK SMILES IDX 29 34 93 35 30 36 92 37 31 38 32 39 33 40 86 41 34 42 91 43
REMARK SMILES IDX 85 44 87 45 35 46 90 47 84 48 83 49 36 51 70 52 49 53 69 54
REMARK SMILES IDX 50 55 53 56 68 57 88 58 51 59 52 60 67 62 89 63 54 64 37 65
REMARK SMILES IDX 38 66 47 67 39 68 40 69 46 70 48 71 41 72 42 73 43 74 44 75
REMARK SMILES IDX 45 76 71 77 72 78 81 79 73 80 74 81 80 82 82 83 75 84 76 85
REMARK SMILES IDX 77 86 78 87 79 88 55 89 56 90 65 91 57 92 58 93 64 94 66 95
REMARK SMILES IDX 59 96 60 97 61 98 62 99 63 100
REMARK H PARENT 12 16 87 50 53 61
REMARK Flexibility Score: inf
ROOT
ATOM      1  C   UNL A   1      33.679  31.401  27.479  1.00  0.00     0.188 C 
ENDROOT
BRANCH   1   2
ATOM      2  O   UNL A   1      32.647  31.049  26.569  1.00  0.00    -0.376 OA
BRANCH   2   3
ATOM      3  C   UNL A   1      32.011  29.816  26.857  1.00  0.00     0.202 C 
BRANCH   3   4
ATOM      4  C   UNL A   1      32.900  28.744  27.504  1.00  0.00     0.261 C 
BRANCH   4   5
ATOM      5  O   UNL A   1      33.263  27.621  26.677  1.00  0.00    -0.461 OA
BRANCH   5   6
ATOM      6  C   UNL A   1      32.340  26.642  26.482  1.00  0.00     0.331 C 
ATOM      7  O   UNL A   1      31.407  26.423  27.250  1.00  0.00    -0.249 OA
BRANCH   6   8
ATOM      8  C   UNL A   1      32.645  25.761  25.217  1.00  0.00     0.138 C 
ATOM      9  C   UNL A   1      31.918  24.412  25.432  1.00  0.00     0.040 C 
ATOM     10  C   UNL A   1      34.084  25.244  25.022  1.00  0.00     0.040 C 
ATOM     11  C   UNL A   1      32.844  23.604  26.330  1.00  0.00     0.003 C 
ATOM     12  C   UNL A   1      34.251  24.041  25.951  1.00  0.00     0.003 C 
BRANCH   8  13
ATOM     13  N   UNL A   1      32.115  26.381  23.987  1.00  0.00    -0.340 N 
ATOM     14  O   UNL A   1      29.894  26.098  24.462  1.00  0.00    -0.275 OA
ATOM     15  C   UNL A   1      30.771  26.557  23.739  1.00  0.00     0.225 C 
ATOM     16  H   UNL A   1      32.758  26.684  23.304  1.00  0.00     0.164 HD
BRANCH  15  17
ATOM     17  C   UNL A   1      30.452  27.427  22.535  1.00  0.00     0.135 C 
BRANCH  17  18
ATOM     18  C   UNL A   1      29.572  28.621  22.844  1.00  0.00    -0.036 A 
ATOM     19  C   UNL A   1      28.223  28.700  22.450  1.00  0.00     0.007 A 
ATOM     20  C   UNL A   1      30.119  29.693  23.573  1.00  0.00     0.046 A 
ATOM     21  C   UNL A   1      27.454  29.827  22.751  1.00  0.00     0.043 A 
ATOM     22  C   UNL A   1      29.344  30.812  23.871  1.00  0.00     0.159 A 
ATOM     23  C   UNL A   1      28.021  30.880  23.459  1.00  0.00     0.158 A 
ATOM     24  F   UNL A   1      29.887  31.820  24.566  1.00  0.00    -0.204 F 
ATOM     25  F   UNL A   1      27.277  31.961  23.727  1.00  0.00    -0.204 F 
ENDBRANCH  17  18
ENDBRANCH  15  17
ENDBRANCH   8  13
ENDBRANCH   6   8
ENDBRANCH   5   6
ENDBRANCH   4   5
ENDBRANCH   3   4
ENDBRANCH   2   3
ENDBRANCH   1   2
BRANCH   1  26
ATOM     26  C   UNL A   1      33.549  32.831  28.005  1.00  0.00     0.188 C 
BRANCH  26  27
ATOM     27  O   UNL A   1      34.690  33.678  28.093  1.00  0.00    -0.376 OA
BRANCH  27  28
ATOM     28  C   UNL A   1      35.368  33.734  29.340  1.00  0.00     0.202 C 
BRANCH  28  29
ATOM     29  C   UNL A   1      34.789  32.935  30.516  1.00  0.00     0.261 C 
BRANCH  29  30
ATOM     30  O   UNL A   1      35.178  31.551  30.551  1.00  0.00    -0.460 OA
BRANCH  30  31
ATOM     31  C   UNL A   1      36.238  31.275  31.344  1.00  0.00     0.338 C 
ATOM     32  O   UNL A   1      36.337  31.491  32.553  1.00  0.00    -0.246 OA
BRANCH  31  33
ATOM     33  C   UNL A   1      37.256  30.510  30.607  1.00  0.00     0.060 A 
ATOM     34  C   UNL A   1      38.139  29.720  31.351  1.00  0.00     0.016 A 
ATOM     35  C   UNL A   1      37.446  30.673  29.233  1.00  0.00     0.016 A 
ATOM     36  C   UNL A   1      39.212  29.099  30.726  1.00  0.00     0.010 A 
ATOM     37  C   UNL A   1      38.560  30.079  28.616  1.00  0.00     0.010 A 
ATOM     38  C   UNL A   1      39.469  29.318  29.372  1.00  0.00    -0.014 A 
BRANCH  38  39
ATOM     39  C   UNL A   1      40.828  28.976  28.876  1.00  0.00     0.031 A 
ATOM     40  C   UNL A   1      41.914  30.011  29.019  1.00  0.00     0.074 A 
ATOM     41  C   UNL A   1      41.148  27.731  28.475  1.00  0.00     0.049 A 
ATOM     42  N   UNL A   1      43.158  29.975  28.619  1.00  0.00    -0.248 NA
ATOM     43  C   UNL A   1      41.544  31.253  29.719  1.00  0.00     0.031 C 
ATOM     44  C   UNL A   1      40.233  26.590  28.436  1.00  0.00     0.029 A 
ATOM     45  N   UNL A   1      42.349  27.211  28.059  1.00  0.00    -0.354 N 
ATOM     46  C   UNL A   1      43.703  31.205  28.970  1.00  0.00     0.074 A 
ATOM     47  C   UNL A   1      42.660  31.959  29.631  1.00  0.00     0.031 C 
ATOM     48  C   UNL A   1      40.915  25.498  28.044  1.00  0.00     0.029 A 
ATOM     49  C   UNL A   1      42.300  25.871  27.754  1.00  0.00     0.049 A 
ATOM     50  H   UNL A   1      43.171  27.748  27.986  1.00  0.00     0.167 HD
ATOM     51  C   UNL A   1      44.953  31.673  28.748  1.00  0.00     0.037 A 
ATOM     52  C   UNL A   1      43.258  25.050  27.275  1.00  0.00     0.037 A 
ATOM     53  C   UNL A   1      46.005  30.905  28.137  1.00  0.00     0.049 A 
ATOM     54  C   UNL A   1      44.629  25.607  26.979  1.00  0.00     0.074 A 
ATOM     55  C   UNL A   1      47.292  31.304  27.822  1.00  0.00     0.029 A 
ATOM     56  N   UNL A   1      45.895  29.575  27.766  1.00  0.00    -0.354 N 
ATOM     57  N   UNL A   1      45.101  26.811  27.202  1.00  0.00    -0.248 NA
ATOM     58  C   UNL A   1      45.592  24.698  26.338  1.00  0.00     0.031 C 
ATOM     59  C   UNL A   1      47.950  30.222  27.228  1.00  0.00     0.029 A 
ATOM     60  C   UNL A   1      47.085  29.139  27.211  1.00  0.00     0.049 A 
ATOM     61  H   UNL A   1      45.088  29.021  27.881  1.00  0.00     0.167 HD
ATOM     62  C   UNL A   1      46.415  26.798  26.743  1.00  0.00     0.074 A 
ATOM     63  C   UNL A   1      46.671  25.463  26.247  1.00  0.00     0.031 C 
ATOM     64  C   UNL A   1      47.327  27.802  26.729  1.00  0.00     0.037 A 
BRANCH  51  65
ATOM     65  C   UNL A   1      45.217  33.111  29.091  1.00  0.00     0.058 A 
ATOM     66  C   UNL A   1      44.976  34.158  28.190  1.00  0.00     0.135 A 
ATOM     67  C   UNL A   1      45.737  33.437  30.354  1.00  0.00     0.135 A 
ATOM     68  F   UNL A   1      44.506  33.898  26.959  1.00  0.00    -0.206 F 
ATOM     69  C   UNL A   1      45.269  35.479  28.519  1.00  0.00     0.059 A 
ATOM     70  C   UNL A   1      46.014  34.750  30.714  1.00  0.00     0.059 A 
ATOM     71  F   UNL A   1      45.993  32.469  31.249  1.00  0.00    -0.206 F 
ATOM     72  C   UNL A   1      45.793  35.763  29.782  1.00  0.00     0.060 A 
BRANCH  72  73
ATOM     73  S   UNL A   1      46.184  37.476  30.198  1.00  0.00     0.124 S 
ATOM     74  O   UNL A   1      45.339  37.692  31.368  1.00  0.00    -0.237 OA
ATOM     75  O   UNL A   1      47.620  37.418  30.454  1.00  0.00    -0.237 OA
ATOM     76  O   UNL A   1      45.795  38.213  28.999  1.00  0.00    -0.744 OA
ENDBRANCH  72  73
ENDBRANCH  51  65
BRANCH  52  77
ATOM     77  C   UNL A   1      42.958  23.618  27.002  1.00  0.00     0.058 A 
ATOM     78  C   UNL A   1      42.694  23.170  25.699  1.00  0.00     0.135 A 
ATOM     79  C   UNL A   1      42.897  22.675  28.040  1.00  0.00     0.135 A 
ATOM     80  F   UNL A   1      42.723  24.034  24.673  1.00  0.00    -0.206 F 
ATOM     81  C   UNL A   1      42.367  21.843  25.435  1.00  0.00     0.059 A 
ATOM     82  C   UNL A   1      42.600  21.337  27.798  1.00  0.00     0.059 A 
ATOM     83  F   UNL A   1      43.142  23.050  29.305  1.00  0.00    -0.206 F 
ATOM     84  C   UNL A   1      42.325  20.932  26.493  1.00  0.00     0.060 A 
BRANCH  84  85
ATOM     85  S   UNL A   1      41.955  19.201  26.138  1.00  0.00     0.124 S 
ATOM     86  O   UNL A   1      42.287  18.563  27.406  1.00  0.00    -0.237 OA
ATOM     87  O   UNL A   1      40.536  19.252  25.801  1.00  0.00    -0.237 OA
ATOM     88  O   UNL A   1      42.843  18.893  25.021  1.00  0.00    -0.744 OA
ENDBRANCH  84  85
ENDBRANCH  52  77
BRANCH  64  89
ATOM     89  C   UNL A   1      48.693  27.496  26.178  1.00  0.00     0.058 A 
ATOM     90  C   UNL A   1      49.764  27.155  27.017  1.00  0.00     0.135 A 
ATOM     91  C   UNL A   1      48.916  27.490  24.792  1.00  0.00     0.135 A 
ATOM     92  F   UNL A   1      49.604  27.147  28.349  1.00  0.00    -0.206 F 
ATOM     93  C   UNL A   1      51.019  26.841  26.501  1.00  0.00     0.059 A 
ATOM     94  C   UNL A   1      50.156  27.157  24.253  1.00  0.00     0.059 A 
ATOM     95  F   UNL A   1      47.920  27.796  23.945  1.00  0.00    -0.206 F 
ATOM     96  C   UNL A   1      51.205  26.845  25.117  1.00  0.00     0.060 A 
BRANCH  96  97
ATOM     97  S   UNL A   1      52.828  26.409  24.457  1.00  0.00     0.124 S 
ATOM     98  O   UNL A   1      53.685  27.387  25.117  1.00  0.00    -0.237 OA
ATOM     99  O   UNL A   1      52.987  25.027  24.899  1.00  0.00    -0.237 OA
ATOM    100  O   UNL A   1      52.666  26.584  23.016  1.00  0.00    -0.744 OA
ENDBRANCH  96  97
ENDBRANCH  64  89
ENDBRANCH  38  39
ENDBRANCH  31  33
ENDBRANCH  30  31
ENDBRANCH  29  30
ENDBRANCH  28  29
ENDBRANCH  27  28
ENDBRANCH  26  27
ENDBRANCH   1  26
TORSDOF 23
ENDMDL
MODEL 3
REMARK VINA RESULT:     -10.0      2.105      3.049
REMARK SMILES O=C(Cc1ccc(F)c(F)c1)NC1(C(=O)OCCOCCOCCOC(=O)c2ccc(-c3c4nc(c(-c5c(F)cc(S(=O)(=O)[O-])cc5F)c5ccc([nH]5)c(-c5c(F)cc(S(=O)(=O)[O-])cc5F)c5nc(c(-c6c(F)cc(S(=O)(=O)[O-])cc6F)c6ccc3[nH]6)C=C5)C=C4)cc2)CCCC1
REMARK SMILES IDX 20 1 19 2 18 3 17 4 16 5 14 6 15 7 13 8 94 9 97 10 95 11
REMARK SMILES IDX 96 12 12 13 1 14 2 15 3 17 4 18 5 19 11 20 6 21 9 22 7 23
REMARK SMILES IDX 10 24 8 25 21 26 22 27 23 28 24 29 25 30 26 31 27 32 28 33
REMARK SMILES IDX 29 34 93 35 30 36 92 37 31 38 32 39 33 40 86 41 34 42 91 43
REMARK SMILES IDX 85 44 87 45 35 46 90 47 84 48 83 49 36 51 70 52 49 53 69 54
REMARK SMILES IDX 50 55 53 56 68 57 88 58 51 59 52 60 67 62 89 63 54 64 37 65
REMARK SMILES IDX 38 66 47 67 39 68 40 69 46 70 48 71 41 72 42 73 43 74 44 75
REMARK SMILES IDX 45 76 71 77 72 78 81 79 73 80 74 81 80 82 82 83 75 84 76 85
REMARK SMILES IDX 77 86 78 87 79 88 55 89 56 90 65 91 57 92 58 93 64 94 66 95
REMARK SMILES IDX 59 96 60 97 61 98 62 99 63 100
REMARK H PARENT 12 16 87 50 53 61
REMARK Flexibility Score: inf
ROOT
ATOM      1  C   UNL A   1      30.184  29.730  23.716  1.00  0.00     0.188 C 
ENDROOT
BRANCH   1   2
ATOM      2  O   UNL A   1      29.676  28.449  23.367  1.00  0.00    -0.376 OA
BRANCH   2   3
ATOM      3  C   UNL A   1      30.537  27.372  23.693  1.00  0.00     0.202 C 
BRANCH   3   4
ATOM      4  C   UNL A   1      29.989  25.968  23.398  1.00  0.00     0.261 C 
BRANCH   4   5
ATOM      5  O   UNL A   1      30.883  24.863  23.637  1.00  0.00    -0.461 OA
BRANCH   5   6
ATOM      6  C   UNL A   1      31.315  24.650  24.909  1.00  0.00     0.331 C 
ATOM      7  O   UNL A   1      30.568  24.598  25.882  1.00  0.00    -0.249 OA
BRANCH   6   8
ATOM      8  C   UNL A   1      32.880  24.566  25.013  1.00  0.00     0.138 C 
ATOM      9  C   UNL A   1      33.287  25.411  26.244  1.00  0.00     0.040 C 
ATOM     10  C   UNL A   1      33.719  25.275  23.931  1.00  0.00     0.040 C 
ATOM     11  C   UNL A   1      33.307  26.849  25.745  1.00  0.00     0.003 C 
ATOM     12  C   UNL A   1      33.734  26.761  24.287  1.00  0.00     0.003 C 
BRANCH   8  13
ATOM     13  N   UNL A   1      33.333  23.178  25.235  1.00  0.00    -0.340 N 
ATOM     14  O   UNL A   1      33.150  22.472  23.065  1.00  0.00    -0.275 OA
ATOM     15  C   UNL A   1      33.493  22.258  24.222  1.00  0.00     0.225 C 
ATOM     16  H   UNL A   1      33.531  22.895  26.157  1.00  0.00     0.164 HD
BRANCH  15  17
ATOM     17  C   UNL A   1      34.194  20.973  24.632  1.00  0.00     0.135 C 
BRANCH  17  18
ATOM     18  C   UNL A   1      35.672  21.137  24.925  1.00  0.00    -0.036 A 
ATOM     19  C   UNL A   1      36.600  20.087  24.788  1.00  0.00     0.007 A 
ATOM     20  C   UNL A   1      36.143  22.396  25.337  1.00  0.00     0.046 A 
ATOM     21  C   UNL A   1      37.952  20.285  25.080  1.00  0.00     0.043 A 
ATOM     22  C   UNL A   1      37.494  22.586  25.624  1.00  0.00     0.159 A 
ATOM     23  C   UNL A   1      38.392  21.535  25.500  1.00  0.00     0.158 A 
ATOM     24  F   UNL A   1      37.919  23.793  26.014  1.00  0.00    -0.204 F 
ATOM     25  F   UNL A   1      39.687  21.705  25.792  1.00  0.00    -0.204 F 
ENDBRANCH  17  18
ENDBRANCH  15  17
ENDBRANCH   8  13
ENDBRANCH   6   8
ENDBRANCH   5   6
ENDBRANCH   4   5
ENDBRANCH   3   4
ENDBRANCH   2   3
ENDBRANCH   1   2
BRANCH   1  26
ATOM     26  C   UNL A   1      31.307  29.663  24.751  1.00  0.00     0.188 C 
BRANCH  26  27
ATOM     27  O   UNL A   1      31.380  30.617  25.805  1.00  0.00    -0.376 OA
BRANCH  27  28
ATOM     28  C   UNL A   1      31.904  30.178  27.050  1.00  0.00     0.202 C 
BRANCH  28  29
ATOM     29  C   UNL A   1      33.419  29.951  27.158  1.00  0.00     0.261 C 
BRANCH  29  30
ATOM     30  O   UNL A   1      34.199  31.152  27.280  1.00  0.00    -0.460 OA
BRANCH  30  31
ATOM     31  C   UNL A   1      34.889  31.272  28.437  1.00  0.00     0.338 C 
ATOM     32  O   UNL A   1      34.539  31.880  29.450  1.00  0.00    -0.246 OA
BRANCH  31  33
ATOM     33  C   UNL A   1      36.095  30.430  28.416  1.00  0.00     0.060 A 
ATOM     34  C   UNL A   1      36.436  29.755  29.593  1.00  0.00     0.016 A 
ATOM     35  C   UNL A   1      36.961  30.414  27.320  1.00  0.00     0.016 A 
ATOM     36  C   UNL A   1      37.642  29.071  29.678  1.00  0.00     0.010 A 
ATOM     37  C   UNL A   1      38.199  29.759  27.429  1.00  0.00     0.010 A 
ATOM     38  C   UNL A   1      38.559  29.114  28.627  1.00  0.00    -0.014 A 
BRANCH  38  39
ATOM     39  C   UNL A   1      39.961  28.727  28.934  1.00  0.00     0.031 A 
ATOM     40  C   UNL A   1      40.755  29.619  29.853  1.00  0.00     0.074 A 
ATOM     41  C   UNL A   1      40.469  27.536  28.564  1.00  0.00     0.049 A 
ATOM     42  N   UNL A   1      42.004  29.529  30.228  1.00  0.00    -0.248 NA
ATOM     43  C   UNL A   1      40.034  30.765  30.434  1.00  0.00     0.031 C 
ATOM     44  C   UNL A   1      39.756  26.508  27.806  1.00  0.00     0.029 A 
ATOM     45  N   UNL A   1      41.697  26.976  28.814  1.00  0.00    -0.354 N 
ATOM     46  C   UNL A   1      42.232  30.631  31.045  1.00  0.00     0.074 A 
ATOM     47  C   UNL A   1      40.989  31.366  31.125  1.00  0.00     0.031 C 
ATOM     48  C   UNL A   1      40.554  25.432  27.676  1.00  0.00     0.029 A 
ATOM     49  C   UNL A   1      41.849  25.712  28.295  1.00  0.00     0.049 A 
ATOM     50  H   UNL A   1      42.406  27.438  29.319  1.00  0.00     0.167 HD
ATOM     51  C   UNL A   1      43.378  31.007  31.659  1.00  0.00     0.037 A 
ATOM     52  C   UNL A   1      42.919  24.890  28.301  1.00  0.00     0.037 A 
ATOM     53  C   UNL A   1      44.600  30.249  31.622  1.00  0.00     0.049 A 
ATOM     54  C   UNL A   1      44.205  25.354  28.941  1.00  0.00     0.074 A 
ATOM     55  C   UNL A   1      45.829  30.568  32.171  1.00  0.00     0.029 A 
ATOM     56  N   UNL A   1      44.739  29.010  31.018  1.00  0.00    -0.354 N 
ATOM     57  N   UNL A   1      44.448  26.458  29.608  1.00  0.00    -0.248 NA
ATOM     58  C   UNL A   1      45.373  24.470  28.803  1.00  0.00     0.031 C 
ATOM     59  C   UNL A   1      46.723  29.536  31.866  1.00  0.00     0.029 A 
ATOM     60  C   UNL A   1      46.038  28.556  31.165  1.00  0.00     0.049 A 
ATOM     61  H   UNL A   1      44.020  28.524  30.552  1.00  0.00     0.167 HD
ATOM     62  C   UNL A   1      45.788  26.392  29.980  1.00  0.00     0.074 A 
ATOM     63  C   UNL A   1      46.299  25.134  29.480  1.00  0.00     0.031 C 
ATOM     64  C   UNL A   1      46.531  27.295  30.669  1.00  0.00     0.037 A 
BRANCH  51  65
ATOM     65  C   UNL A   1      43.380  32.341  32.348  1.00  0.00     0.058 A 
ATOM     66  C   UNL A   1      43.091  32.486  33.713  1.00  0.00     0.135 A 
ATOM     67  C   UNL A   1      43.667  33.501  31.610  1.00  0.00     0.135 A 
ATOM     68  F   UNL A   1      42.782  31.412  34.457  1.00  0.00    -0.206 F 
ATOM     69  C   UNL A   1      43.059  33.740  34.317  1.00  0.00     0.059 A 
ATOM     70  C   UNL A   1      43.665  34.760  32.198  1.00  0.00     0.059 A 
ATOM     71  F   UNL A   1      43.942  33.416  30.299  1.00  0.00    -0.206 F 
ATOM     72  C   UNL A   1      43.342  34.871  33.549  1.00  0.00     0.060 A 
BRANCH  72  73
ATOM     73  S   UNL A   1      43.285  36.496  34.335  1.00  0.00     0.124 S 
ATOM     74  O   UNL A   1      44.383  36.395  35.292  1.00  0.00    -0.237 OA
ATOM     75  O   UNL A   1      43.504  37.399  33.210  1.00  0.00    -0.237 OA
ATOM     76  O   UNL A   1      41.947  36.542  34.919  1.00  0.00    -0.744 OA
ENDBRANCH  72  73
ENDBRANCH  51  65
BRANCH  52  77
ATOM     77  C   UNL A   1      42.848  23.554  27.649  1.00  0.00     0.058 A 
ATOM     78  C   UNL A   1      42.402  22.427  28.356  1.00  0.00     0.135 A 
ATOM     79  C   UNL A   1      43.254  23.369  26.318  1.00  0.00     0.135 A 
ATOM     80  F   UNL A   1      42.018  22.546  29.636  1.00  0.00    -0.206 F 
ATOM     81  C   UNL A   1      42.374  21.163  27.773  1.00  0.00     0.059 A 
ATOM     82  C   UNL A   1      43.208  22.121  25.704  1.00  0.00     0.059 A 
ATOM     83  F   UNL A   1      43.688  24.414  25.595  1.00  0.00    -0.206 F 
ATOM     84  C   UNL A   1      42.777  21.021  26.444  1.00  0.00     0.060 A 
BRANCH  84  85
ATOM     85  S   UNL A   1      42.686  19.389  25.675  1.00  0.00     0.124 S 
ATOM     86  O   UNL A   1      41.255  19.258  25.431  1.00  0.00    -0.237 OA
ATOM     87  O   UNL A   1      43.524  19.559  24.493  1.00  0.00    -0.237 OA
ATOM     88  O   UNL A   1      43.238  18.508  26.701  1.00  0.00    -0.744 OA
ENDBRANCH  84  85
ENDBRANCH  52  77
BRANCH  64  89
ATOM     89  C   UNL A   1      47.969  26.951  30.942  1.00  0.00     0.058 A 
ATOM     90  C   UNL A   1      48.989  27.282  30.038  1.00  0.00     0.135 A 
ATOM     91  C   UNL A   1      48.335  26.334  32.149  1.00  0.00     0.135 A 
ATOM     92  F   UNL A   1      48.692  27.871  28.870  1.00  0.00    -0.206 F 
ATOM     93  C   UNL A   1      50.323  26.990  30.309  1.00  0.00     0.059 A 
ATOM     94  C   UNL A   1      49.665  26.054  32.452  1.00  0.00     0.059 A 
ATOM     95  F   UNL A   1      47.399  26.010  33.055  1.00  0.00    -0.206 F 
ATOM     96  C   UNL A   1      50.651  26.375  31.519  1.00  0.00     0.060 A 
BRANCH  96  97
ATOM     97  S   UNL A   1      52.387  26.026  31.874  1.00  0.00     0.124 S 
ATOM     98  O   UNL A   1      53.041  26.545  30.678  1.00  0.00    -0.237 OA
ATOM     99  O   UNL A   1      52.616  26.782  33.101  1.00  0.00    -0.237 OA
ATOM    100  O   UNL A   1      52.416  24.574  32.027  1.00  0.00    -0.744 OA
ENDBRANCH  96  97
ENDBRANCH  64  89
ENDBRANCH  38  39
ENDBRANCH  31  33
ENDBRANCH  30  31
ENDBRANCH  29  30
ENDBRANCH  28  29
ENDBRANCH  27  28
ENDBRANCH  26  27
ENDBRANCH   1  26
TORSDOF 23
ENDMDL
