MODEL 1
REMARK VINA RESULT:     -14.3      0.000      0.000
REMARK SMILES Cc1ccccc1[C@@H]1[NH2+][C@H](C(=O)OCCOCCOCCOC(=O)c2ccc(-c3c4nc(c(-c5c(F)cc(S(=O)(=O)[O-])cc5F)c5ccc([nH]5)c(-c5c(F)cc(S(=O)(=O)[O-])cc5F)c5nc(c(-c6c(F)cc(S(=O)(=O)[O-])cc6F)c6ccc3[nH]6)C=C5)C=C4)cc2)CC2=c3ccccc3=N[C@@H]21
REMARK SMILES IDX 18 1 17 2 16 3 15 4 14 5 13 6 11 7 12 8 10 9 8 10 9 11
REMARK SMILES IDX 100 12 92 15 99 16 91 17 93 18 98 19 94 20 97 21 95 22 96 23
REMARK SMILES IDX 7 24 1 25 2 26 3 27 4 28 6 29 5 30 19 31 20 32 21 33 22 34
REMARK SMILES IDX 23 35 24 36 25 37 26 38 90 39 27 40 89 41 28 42 29 43 30 44
REMARK SMILES IDX 83 45 31 46 88 47 82 48 84 49 32 50 87 51 81 52 80 53 33 55
REMARK SMILES IDX 67 56 46 57 66 58 47 59 50 60 65 61 85 62 48 63 49 64 64 66
REMARK SMILES IDX 86 67 51 68 34 69 35 70 44 71 36 72 37 73 43 74 45 75 38 76
REMARK SMILES IDX 39 77 40 78 41 79 42 80 68 81 69 82 78 83 70 84 71 85 77 86
REMARK SMILES IDX 79 87 72 88 73 89 74 90 75 91 76 92 52 93 53 94 62 95 54 96
REMARK SMILES IDX 55 97 61 98 63 99 56 100 57 101 58 102 59 103 60 104
REMARK H PARENT 9 13 9 14 84 54 50 65
REMARK Flexibility Score: inf
ROOT
ATOM      1  C   UNL A   1      34.317  31.568  27.660  1.00  0.00     0.188 C 
ENDROOT
BRANCH   1   2
ATOM      2  C   UNL A   1      33.907  30.330  26.915  1.00  0.00     0.188 C 
BRANCH   2   3
ATOM      3  O   UNL A   1      32.989  29.433  27.467  1.00  0.00    -0.376 OA
BRANCH   3   4
ATOM      4  C   UNL A   1      33.128  28.177  26.865  1.00  0.00     0.202 C 
BRANCH   4   5
ATOM      5  C   UNL A   1      32.013  27.122  26.905  1.00  0.00     0.261 C 
BRANCH   5   6
ATOM      6  O   UNL A   1      32.235  25.682  26.413  1.00  0.00    -0.459 OA
BRANCH   6   7
ATOM      7  C   UNL A   1      31.690  24.299  26.458  1.00  0.00     0.365 C 
ATOM      8  O   UNL A   1      30.932  23.677  27.199  1.00  0.00    -0.245 OA
BRANCH   7   9
ATOM      9  C   UNL A   1      31.873  23.785  25.130  1.00  0.00     0.298 C 
ATOM     10  C   UNL A   1      32.431  24.881  23.217  1.00  0.00     0.243 C 
ATOM     11  N   UNL A   1      32.877  24.706  24.588  1.00  0.00    -0.326 N 
ATOM     12  C   UNL A   1      32.930  23.377  22.626  1.00  0.00     0.196 C 
ATOM     13  H   UNL A   1      32.875  25.592  25.093  1.00  0.00     0.347 HD
ATOM     14  H   UNL A   1      33.833  24.358  24.665  1.00  0.00     0.347 HD
ATOM     15  C   UNL A   1      32.702  22.171  23.706  1.00  0.00    -0.024 C 
ATOM     16  N   UNL A   1      34.406  23.352  22.524  1.00  0.00    -0.270 NA
ATOM     17  C   UNL A   1      31.688  22.312  24.790  1.00  0.00     0.111 C 
ATOM     18  C   UNL A   1      33.840  21.585  24.084  1.00  0.00     0.002 A 
ATOM     19  C   UNL A   1      34.797  22.475  23.408  1.00  0.00     0.066 A 
ATOM     20  C   UNL A   1      34.156  20.908  25.330  1.00  0.00     0.010 A 
ATOM     21  C   UNL A   1      36.159  22.452  23.972  1.00  0.00     0.028 A 
ATOM     22  C   UNL A   1      35.369  21.097  25.868  1.00  0.00     0.001 A 
ATOM     23  C   UNL A   1      36.381  21.847  25.151  1.00  0.00     0.002 A 
BRANCH  10  24
ATOM     24  C   UNL A   1      31.825  26.614  23.022  1.00  0.00     0.015 A 
ATOM     25  C   UNL A   1      29.042  25.900  24.680  1.00  0.00     0.045 C 
ATOM     26  C   UNL A   1      30.252  27.271  23.602  1.00  0.00    -0.042 A 
ATOM     27  C   UNL A   1      30.115  28.667  23.477  1.00  0.00     0.004 A 
ATOM     28  C   UNL A   1      31.249  29.391  22.992  1.00  0.00     0.000 A 
ATOM     29  C   UNL A   1      32.852  27.471  22.666  1.00  0.00     0.010 A 
ATOM     30  C   UNL A   1      32.543  28.834  22.646  1.00  0.00     0.001 A 
ENDBRANCH  10  24
ENDBRANCH   7   9
ENDBRANCH   6   7
ENDBRANCH   5   6
ENDBRANCH   4   5
ENDBRANCH   3   4
ENDBRANCH   2   3
ENDBRANCH   1   2
BRANCH   1  31
ATOM     31  O   UNL A   1      33.629  33.251  28.035  1.00  0.00    -0.376 OA
BRANCH  31  32
ATOM     32  C   UNL A   1      34.534  34.359  29.464  1.00  0.00     0.202 C 
BRANCH  32  33
ATOM     33  C   UNL A   1      33.167  35.749  30.093  1.00  0.00     0.261 C 
BRANCH  33  34
ATOM     34  O   UNL A   1      33.467  36.626  31.757  1.00  0.00    -0.460 OA
BRANCH  34  35
ATOM     35  C   UNL A   1      34.288  36.193  33.233  1.00  0.00     0.338 C 
ATOM     36  O   UNL A   1      34.302  37.174  33.991  1.00  0.00    -0.246 OA
BRANCH  35  37
ATOM     37  C   UNL A   1      34.809  34.585  34.033  1.00  0.00     0.060 A 
ATOM     38  C   UNL A   1      35.564  34.297  35.200  1.00  0.00     0.016 A 
ATOM     39  C   UNL A   1      34.840  33.296  33.554  1.00  0.00     0.016 A 
ATOM     40  C   UNL A   1      36.764  33.205  35.410  1.00  0.00     0.010 A 
ATOM     41  C   UNL A   1      36.168  32.523  33.593  1.00  0.00     0.010 A 
ATOM     42  C   UNL A   1      37.306  32.397  34.429  1.00  0.00    -0.014 A 
BRANCH  42  43
ATOM     43  C   UNL A   1      39.011  31.944  33.995  1.00  0.00     0.031 A 
ATOM     44  C   UNL A   1      39.663  30.702  32.809  1.00  0.00     0.074 A 
ATOM     45  C   UNL A   1      39.972  32.851  34.383  1.00  0.00     0.049 A 
ATOM     46  N   UNL A   1      40.014  29.422  32.964  1.00  0.00    -0.248 NA
ATOM     47  C   UNL A   1      39.753  30.867  31.256  1.00  0.00     0.031 C 
ATOM     48  C   UNL A   1      41.402  33.003  34.008  1.00  0.00     0.029 A 
ATOM     49  N   UNL A   1      39.832  33.935  35.271  1.00  0.00    -0.354 N 
ATOM     50  C   UNL A   1      40.350  28.883  31.625  1.00  0.00     0.074 A 
ATOM     51  C   UNL A   1      39.582  29.660  30.731  1.00  0.00     0.031 C 
ATOM     52  C   UNL A   1      42.030  33.796  34.903  1.00  0.00     0.029 A 
ATOM     53  C   UNL A   1      41.062  34.075  35.941  1.00  0.00     0.049 A 
ATOM     54  H   UNL A   1      39.028  34.489  35.398  1.00  0.00     0.167 HD
ATOM     55  C   UNL A   1      41.635  28.726  31.089  1.00  0.00     0.037 A 
ATOM     56  C   UNL A   1      41.075  33.589  37.212  1.00  0.00     0.037 A 
ATOM     57  C   UNL A   1      42.546  29.479  31.919  1.00  0.00     0.049 A 
ATOM     58  C   UNL A   1      41.793  32.242  37.189  1.00  0.00     0.074 A 
ATOM     59  C   UNL A   1      43.309  30.625  31.795  1.00  0.00     0.029 A 
ATOM     60  N   UNL A   1      42.482  29.191  33.252  1.00  0.00    -0.354 N 
ATOM     61  N   UNL A   1      41.889  31.448  36.144  1.00  0.00    -0.248 NA
ATOM     62  C   UNL A   1      42.687  31.831  38.262  1.00  0.00     0.031 C 
ATOM     63  C   UNL A   1      43.769  30.958  33.111  1.00  0.00     0.029 A 
ATOM     64  C   UNL A   1      43.231  30.041  34.001  1.00  0.00     0.049 A 
ATOM     65  H   UNL A   1      41.953  28.450  33.628  1.00  0.00     0.167 HD
ATOM     66  C   UNL A   1      42.894  30.533  36.338  1.00  0.00     0.074 A 
ATOM     67  C   UNL A   1      43.347  30.812  37.685  1.00  0.00     0.031 C 
ATOM     68  C   UNL A   1      43.374  29.667  35.390  1.00  0.00     0.037 A 
BRANCH  55  69
ATOM     69  C   UNL A   1      42.009  28.334  29.605  1.00  0.00     0.058 A 
ATOM     70  C   UNL A   1      42.317  29.340  28.653  1.00  0.00     0.135 A 
ATOM     71  C   UNL A   1      42.138  27.019  29.077  1.00  0.00     0.135 A 
ATOM     72  F   UNL A   1      42.299  30.637  28.989  1.00  0.00    -0.206 F 
ATOM     73  C   UNL A   1      42.691  29.081  27.320  1.00  0.00     0.059 A 
ATOM     74  C   UNL A   1      42.473  26.735  27.731  1.00  0.00     0.059 A 
ATOM     75  F   UNL A   1      41.970  25.937  29.853  1.00  0.00    -0.206 F 
ATOM     76  C   UNL A   1      42.772  27.775  26.862  1.00  0.00     0.060 A 
BRANCH  76  77
ATOM     77  S   UNL A   1      43.351  27.473  25.169  1.00  0.00     0.124 S 
ATOM     78  O   UNL A   1      42.377  28.209  24.368  1.00  0.00    -0.237 OA
ATOM     79  O   UNL A   1      44.698  28.034  25.202  1.00  0.00    -0.237 OA
ATOM     80  O   UNL A   1      43.286  26.020  25.038  1.00  0.00    -0.744 OA
ENDBRANCH  76  77
ENDBRANCH  55  69
BRANCH  56  81
ATOM     81  C   UNL A   1      39.850  34.122  37.929  1.00  0.00     0.058 A 
ATOM     82  C   UNL A   1      38.878  33.139  38.272  1.00  0.00     0.135 A 
ATOM     83  C   UNL A   1      39.799  35.301  38.682  1.00  0.00     0.135 A 
ATOM     84  F   UNL A   1      38.838  31.979  37.595  1.00  0.00    -0.206 F 
ATOM     85  C   UNL A   1      38.066  33.228  39.401  1.00  0.00     0.059 A 
ATOM     86  C   UNL A   1      38.889  35.457  39.765  1.00  0.00     0.059 A 
ATOM     87  F   UNL A   1      40.735  36.248  38.506  1.00  0.00    -0.206 F 
ATOM     88  C   UNL A   1      38.092  34.380  40.167  1.00  0.00     0.060 A 
BRANCH  88  89
ATOM     89  S   UNL A   1      37.199  34.298  41.755  1.00  0.00     0.124 S 
ATOM     90  O   UNL A   1      37.711  33.067  42.341  1.00  0.00    -0.237 OA
ATOM     91  O   UNL A   1      37.663  35.530  42.391  1.00  0.00    -0.237 OA
ATOM     92  O   UNL A   1      35.792  34.247  41.367  1.00  0.00    -0.744 OA
ENDBRANCH  88  89
ENDBRANCH  56  81
BRANCH  68  93
ATOM     93  C   UNL A   1      43.972  28.279  35.666  1.00  0.00     0.058 A 
ATOM     94  C   UNL A   1      43.255  27.241  36.269  1.00  0.00     0.135 A 
ATOM     95  C   UNL A   1      45.255  27.882  35.161  1.00  0.00     0.135 A 
ATOM     96  F   UNL A   1      41.979  27.375  36.642  1.00  0.00    -0.206 F 
ATOM     97  C   UNL A   1      43.802  25.980  36.485  1.00  0.00     0.059 A 
ATOM     98  C   UNL A   1      45.763  26.593  35.250  1.00  0.00     0.059 A 
ATOM     99  F   UNL A   1      46.093  28.723  34.540  1.00  0.00    -0.206 F 
ATOM    100  C   UNL A   1      45.053  25.664  35.976  1.00  0.00     0.060 A 
BRANCH 100 101
ATOM    101  S   UNL A   1      45.740  24.043  36.303  1.00  0.00     0.124 S 
ATOM    102  O   UNL A   1      47.106  24.215  35.820  1.00  0.00    -0.237 OA
ATOM    103  O   UNL A   1      45.589  23.931  37.750  1.00  0.00    -0.237 OA
ATOM    104  O   UNL A   1      44.900  23.145  35.517  1.00  0.00    -0.744 OA
ENDBRANCH 100 101
ENDBRANCH  68  93
ENDBRANCH  42  43
ENDBRANCH  35  37
ENDBRANCH  34  35
ENDBRANCH  33  34
ENDBRANCH  32  33
ENDBRANCH  31  32
ENDBRANCH   1  31
TORSDOF 21
ENDMDL
MODEL 2
REMARK VINA RESULT:     -14.1      7.988     11.319
REMARK SMILES Cc1ccccc1[C@@H]1[NH2+][C@H](C(=O)OCCOCCOCCOC(=O)c2ccc(-c3c4nc(c(-c5c(F)cc(S(=O)(=O)[O-])cc5F)c5ccc([nH]5)c(-c5c(F)cc(S(=O)(=O)[O-])cc5F)c5nc(c(-c6c(F)cc(S(=O)(=O)[O-])cc6F)c6ccc3[nH]6)C=C5)C=C4)cc2)CC2=c3ccccc3=N[C@@H]21
REMARK SMILES IDX 18 1 17 2 16 3 15 4 14 5 13 6 11 7 12 8 10 9 8 10 9 11
REMARK SMILES IDX 100 12 92 15 99 16 91 17 93 18 98 19 94 20 97 21 95 22 96 23
REMARK SMILES IDX 7 24 1 25 2 26 3 27 4 28 6 29 5 30 19 31 20 32 21 33 22 34
REMARK SMILES IDX 23 35 24 36 25 37 26 38 90 39 27 40 89 41 28 42 29 43 30 44
REMARK SMILES IDX 83 45 31 46 88 47 82 48 84 49 32 50 87 51 81 52 80 53 33 55
REMARK SMILES IDX 67 56 46 57 66 58 47 59 50 60 65 61 85 62 48 63 49 64 64 66
REMARK SMILES IDX 86 67 51 68 34 69 35 70 44 71 36 72 37 73 43 74 45 75 38 76
REMARK SMILES IDX 39 77 40 78 41 79 42 80 68 81 69 82 78 83 70 84 71 85 77 86
REMARK SMILES IDX 79 87 72 88 73 89 74 90 75 91 76 92 52 93 53 94 62 95 54 96
REMARK SMILES IDX 55 97 61 98 63 99 56 100 57 101 58 102 59 103 60 104
REMARK H PARENT 9 13 9 14 84 54 50 65
REMARK Flexibility Score: inf
ROOT
ATOM      1  C   UNL A   1      33.626  19.579  24.452  1.00  0.00     0.188 C 
ENDROOT
BRANCH   1   2
ATOM      2  C   UNL A   1      32.626  19.082  23.447  1.00  0.00     0.188 C 
BRANCH   2   3
ATOM      3  O   UNL A   1      32.270  19.864  22.344  1.00  0.00    -0.376 OA
BRANCH   3   4
ATOM      4  C   UNL A   1      31.946  21.159  22.762  1.00  0.00     0.202 C 
BRANCH   4   5
ATOM      5  C   UNL A   1      32.597  22.406  22.145  1.00  0.00     0.261 C 
BRANCH   5   6
ATOM      6  O   UNL A   1      32.156  23.829  22.526  1.00  0.00    -0.459 OA
BRANCH   6   7
ATOM      7  C   UNL A   1      32.384  25.272  22.250  1.00  0.00     0.365 C 
ATOM      8  O   UNL A   1      32.356  25.991  21.253  1.00  0.00    -0.245 OA
BRANCH   7   9
ATOM      9  C   UNL A   1      32.258  25.918  23.526  1.00  0.00     0.298 C 
ATOM     10  C   UNL A   1      30.602  27.266  24.309  1.00  0.00     0.243 C 
ATOM     11  N   UNL A   1      30.803  25.964  23.695  1.00  0.00    -0.326 N 
ATOM     12  C   UNL A   1      31.157  26.871  25.857  1.00  0.00     0.196 C 
ATOM     13  H   UNL A   1      30.325  25.901  22.796  1.00  0.00     0.347 HD
ATOM     14  H   UNL A   1      30.433  25.191  24.248  1.00  0.00     0.347 HD
ATOM     15  C   UNL A   1      32.444  25.863  25.824  1.00  0.00    -0.024 C 
ATOM     16  N   UNL A   1      30.168  25.999  26.529  1.00  0.00    -0.270 NA
ATOM     17  C   UNL A   1      33.314  25.791  24.616  1.00  0.00     0.111 C 
ATOM     18  C   UNL A   1      32.202  24.685  26.403  1.00  0.00     0.002 A 
ATOM     19  C   UNL A   1      30.762  24.845  26.662  1.00  0.00     0.066 A 
ATOM     20  C   UNL A   1      32.804  23.390  26.141  1.00  0.00     0.010 A 
ATOM     21  C   UNL A   1      30.028  23.579  26.849  1.00  0.00     0.028 A 
ATOM     22  C   UNL A   1      32.015  22.306  26.150  1.00  0.00     0.001 A 
ATOM     23  C   UNL A   1      30.626  22.414  26.547  1.00  0.00     0.002 A 
BRANCH  10  24
ATOM     24  C   UNL A   1      29.742  28.354  23.090  1.00  0.00     0.015 A 
ATOM     25  C   UNL A   1      26.776  27.310  24.148  1.00  0.00     0.045 C 
ATOM     26  C   UNL A   1      27.964  28.484  22.838  1.00  0.00    -0.042 A 
ATOM     27  C   UNL A   1      27.567  29.517  21.966  1.00  0.00     0.004 A 
ATOM     28  C   UNL A   1      28.596  30.374  21.462  1.00  0.00     0.000 A 
ATOM     29  C   UNL A   1      30.592  29.328  22.595  1.00  0.00     0.010 A 
ATOM     30  C   UNL A   1      30.009  30.307  21.785  1.00  0.00     0.001 A 
ENDBRANCH  10  24
ENDBRANCH   7   9
ENDBRANCH   6   7
ENDBRANCH   5   6
ENDBRANCH   4   5
ENDBRANCH   3   4
ENDBRANCH   2   3
ENDBRANCH   1   2
BRANCH   1  31
ATOM     31  O   UNL A   1      34.792  21.009  24.656  1.00  0.00    -0.376 OA
BRANCH  31  32
ATOM     32  C   UNL A   1      36.727  20.612  25.088  1.00  0.00     0.202 C 
BRANCH  32  33
ATOM     33  C   UNL A   1      37.685  22.416  25.237  1.00  0.00     0.261 C 
BRANCH  33  34
ATOM     34  O   UNL A   1      38.899  22.681  26.680  1.00  0.00    -0.460 OA
BRANCH  34  35
ATOM     35  C   UNL A   1      39.674  24.077  27.380  1.00  0.00     0.338 C 
ATOM     36  O   UNL A   1      40.294  23.729  28.397  1.00  0.00    -0.246 OA
BRANCH  35  37
ATOM     37  C   UNL A   1      40.059  25.811  26.792  1.00  0.00     0.060 A 
ATOM     38  C   UNL A   1      40.841  26.304  25.715  1.00  0.00     0.016 A 
ATOM     39  C   UNL A   1      39.921  27.033  27.406  1.00  0.00     0.016 A 
ATOM     40  C   UNL A   1      41.922  27.531  25.703  1.00  0.00     0.010 A 
ATOM     41  C   UNL A   1      41.157  27.938  27.538  1.00  0.00     0.010 A 
ATOM     42  C   UNL A   1      42.318  28.275  26.798  1.00  0.00    -0.014 A 
BRANCH  42  43
ATOM     43  C   UNL A   1      43.937  28.849  27.390  1.00  0.00     0.031 A 
ATOM     44  C   UNL A   1      44.878  30.383  27.026  1.00  0.00     0.074 A 
ATOM     45  C   UNL A   1      44.418  28.191  28.500  1.00  0.00     0.049 A 
ATOM     46  N   UNL A   1      45.803  30.663  26.103  1.00  0.00    -0.248 NA
ATOM     47  C   UNL A   1      44.616  31.795  27.645  1.00  0.00     0.031 C 
ATOM     48  C   UNL A   1      45.528  28.507  29.437  1.00  0.00     0.029 A 
ATOM     49  N   UNL A   1      43.945  26.994  29.071  1.00  0.00    -0.354 N 
ATOM     50  C   UNL A   1      46.118  32.107  26.204  1.00  0.00     0.074 A 
ATOM     51  C   UNL A   1      44.938  32.688  26.718  1.00  0.00     0.031 C 
ATOM     52  C   UNL A   1      45.858  27.406  30.146  1.00  0.00     0.029 A 
ATOM     53  C   UNL A   1      45.064  26.325  29.603  1.00  0.00     0.049 A 
ATOM     54  H   UNL A   1      43.011  26.684  29.094  1.00  0.00     0.167 HD
ATOM     55  C   UNL A   1      47.217  32.676  26.861  1.00  0.00     0.037 A 
ATOM     56  C   UNL A   1      45.516  25.287  28.851  1.00  0.00     0.037 A 
ATOM     57  C   UNL A   1      47.801  31.651  27.695  1.00  0.00     0.049 A 
ATOM     58  C   UNL A   1      46.761  25.759  28.104  1.00  0.00     0.074 A 
ATOM     59  C   UNL A   1      47.913  31.397  29.049  1.00  0.00     0.029 A 
ATOM     60  N   UNL A   1      48.105  30.488  27.050  1.00  0.00    -0.354 N 
ATOM     61  N   UNL A   1      47.035  27.008  27.794  1.00  0.00    -0.248 NA
ATOM     62  C   UNL A   1      47.911  24.889  27.903  1.00  0.00     0.031 C 
ATOM     63  C   UNL A   1      48.382  30.049  29.178  1.00  0.00     0.029 A 
ATOM     64  C   UNL A   1      48.490  29.507  27.906  1.00  0.00     0.049 A 
ATOM     65  H   UNL A   1      48.052  30.373  26.073  1.00  0.00     0.167 HD
ATOM     66  C   UNL A   1      48.366  27.136  27.483  1.00  0.00     0.074 A 
ATOM     67  C   UNL A   1      48.860  25.776  27.555  1.00  0.00     0.031 C 
ATOM     68  C   UNL A   1      49.024  28.320  27.276  1.00  0.00     0.037 A 
BRANCH  55  69
ATOM     69  C   UNL A   1      47.472  34.210  27.144  1.00  0.00     0.058 A 
ATOM     70  C   UNL A   1      48.060  35.034  26.149  1.00  0.00     0.135 A 
ATOM     71  C   UNL A   1      47.121  34.930  28.319  1.00  0.00     0.135 A 
ATOM     72  F   UNL A   1      48.407  34.534  24.955  1.00  0.00    -0.206 F 
ATOM     73  C   UNL A   1      48.295  36.414  26.302  1.00  0.00     0.059 A 
ATOM     74  C   UNL A   1      47.384  36.308  28.512  1.00  0.00     0.059 A 
ATOM     75  F   UNL A   1      46.477  34.335  29.335  1.00  0.00    -0.206 F 
ATOM     76  C   UNL A   1      47.952  37.050  27.485  1.00  0.00     0.060 A 
BRANCH  76  77
ATOM     77  S   UNL A   1      48.178  38.846  27.613  1.00  0.00     0.124 S 
ATOM     78  O   UNL A   1      47.569  39.329  26.377  1.00  0.00    -0.237 OA
ATOM     79  O   UNL A   1      47.453  39.159  28.841  1.00  0.00    -0.237 OA
ATOM     80  O   UNL A   1      49.628  39.005  27.690  1.00  0.00    -0.744 OA
ENDBRANCH  76  77
ENDBRANCH  55  69
BRANCH  56  81
ATOM     81  C   UNL A   1      44.326  24.423  28.481  1.00  0.00     0.058 A 
ATOM     82  C   UNL A   1      43.962  24.457  27.105  1.00  0.00     0.135 A 
ATOM     83  C   UNL A   1      43.890  23.295  29.187  1.00  0.00     0.135 A 
ATOM     84  F   UNL A   1      44.322  25.506  26.347  1.00  0.00    -0.206 F 
ATOM     85  C   UNL A   1      43.402  23.370  26.435  1.00  0.00     0.059 A 
ATOM     86  C   UNL A   1      43.207  22.227  28.541  1.00  0.00     0.059 A 
ATOM     87  F   UNL A   1      44.266  23.120  30.464  1.00  0.00    -0.206 F 
ATOM     88  C   UNL A   1      43.049  22.240  27.151  1.00  0.00     0.060 A 
BRANCH  88  89
ATOM     89  S   UNL A   1      42.572  20.786  26.157  1.00  0.00     0.124 S 
ATOM     90  O   UNL A   1      41.369  21.250  25.479  1.00  0.00    -0.237 OA
ATOM     91  O   UNL A   1      43.751  20.642  25.306  1.00  0.00    -0.237 OA
ATOM     92  O   UNL A   1      42.345  19.740  27.150  1.00  0.00    -0.744 OA
ENDBRANCH  88  89
ENDBRANCH  56  81
BRANCH  68  93
ATOM     93  C   UNL A   1      50.234  28.523  26.351  1.00  0.00     0.058 A 
ATOM     94  C   UNL A   1      50.265  28.093  25.022  1.00  0.00     0.135 A 
ATOM     95  C   UNL A   1      51.359  29.332  26.726  1.00  0.00     0.135 A 
ATOM     96  F   UNL A   1      49.227  27.478  24.444  1.00  0.00    -0.206 F 
ATOM     97  C   UNL A   1      51.357  28.311  24.188  1.00  0.00     0.059 A 
ATOM     98  C   UNL A   1      52.396  29.671  25.867  1.00  0.00     0.059 A 
ATOM     99  F   UNL A   1      51.515  29.852  27.951  1.00  0.00    -0.206 F 
ATOM    100  C   UNL A   1      52.417  29.097  24.617  1.00  0.00     0.060 A 
BRANCH 100 101
ATOM    101  S   UNL A   1      53.822  29.326  23.531  1.00  0.00     0.124 S 
ATOM    102  O   UNL A   1      53.529  30.641  22.969  1.00  0.00    -0.237 OA
ATOM    103  O   UNL A   1      54.944  29.271  24.463  1.00  0.00    -0.237 OA
ATOM    104  O   UNL A   1      53.728  28.207  22.600  1.00  0.00    -0.744 OA
ENDBRANCH 100 101
ENDBRANCH  68  93
ENDBRANCH  42  43
ENDBRANCH  35  37
ENDBRANCH  34  35
ENDBRANCH  33  34
ENDBRANCH  32  33
ENDBRANCH  31  32
ENDBRANCH   1  31
TORSDOF 21
ENDMDL
MODEL 3
REMARK VINA RESULT:     -13.9      4.828      7.053
REMARK SMILES Cc1ccccc1[C@@H]1[NH2+][C@H](C(=O)OCCOCCOCCOC(=O)c2ccc(-c3c4nc(c(-c5c(F)cc(S(=O)(=O)[O-])cc5F)c5ccc([nH]5)c(-c5c(F)cc(S(=O)(=O)[O-])cc5F)c5nc(c(-c6c(F)cc(S(=O)(=O)[O-])cc6F)c6ccc3[nH]6)C=C5)C=C4)cc2)CC2=c3ccccc3=N[C@@H]21
REMARK SMILES IDX 18 1 17 2 16 3 15 4 14 5 13 6 11 7 12 8 10 9 8 10 9 11
REMARK SMILES IDX 100 12 92 15 99 16 91 17 93 18 98 19 94 20 97 21 95 22 96 23
REMARK SMILES IDX 7 24 1 25 2 26 3 27 4 28 6 29 5 30 19 31 20 32 21 33 22 34
REMARK SMILES IDX 23 35 24 36 25 37 26 38 90 39 27 40 89 41 28 42 29 43 30 44
REMARK SMILES IDX 83 45 31 46 88 47 82 48 84 49 32 50 87 51 81 52 80 53 33 55
REMARK SMILES IDX 67 56 46 57 66 58 47 59 50 60 65 61 85 62 48 63 49 64 64 66
REMARK SMILES IDX 86 67 51 68 34 69 35 70 44 71 36 72 37 73 43 74 45 75 38 76
REMARK SMILES IDX 39 77 40 78 41 79 42 80 68 81 69 82 78 83 70 84 71 85 77 86
REMARK SMILES IDX 79 87 72 88 73 89 74 90 75 91 76 92 52 93 53 94 62 95 54 96
REMARK SMILES IDX 55 97 61 98 63 99 56 100 57 101 58 102 59 103 60 104
REMARK H PARENT 9 13 9 14 84 54 50 65
REMARK Flexibility Score: inf
ROOT
ATOM      1  C   UNL A   1      36.163  29.791  28.124  1.00  0.00     0.188 C 
ENDROOT
BRANCH   1   2
ATOM      2  C   UNL A   1      35.132  29.301  27.147  1.00  0.00     0.188 C 
BRANCH   2   3
ATOM      3  O   UNL A   1      33.829  29.017  27.564  1.00  0.00    -0.376 OA
BRANCH   3   4
ATOM      4  C   UNL A   1      33.170  28.263  26.586  1.00  0.00     0.202 C 
BRANCH   4   5
ATOM      5  C   UNL A   1      32.161  27.162  26.944  1.00  0.00     0.261 C 
BRANCH   5   6
ATOM      6  O   UNL A   1      32.389  25.690  26.561  1.00  0.00    -0.459 OA
BRANCH   6   7
ATOM      7  C   UNL A   1      31.782  24.334  26.587  1.00  0.00     0.365 C 
ATOM      8  O   UNL A   1      31.052  23.712  27.357  1.00  0.00    -0.245 OA
BRANCH   7   9
ATOM      9  C   UNL A   1      31.838  23.876  25.227  1.00  0.00     0.298 C 
ATOM     10  C   UNL A   1      32.029  25.074  23.303  1.00  0.00     0.243 C 
ATOM     11  N   UNL A   1      32.667  24.909  24.598  1.00  0.00    -0.326 N 
ATOM     12  C   UNL A   1      32.591  23.645  22.594  1.00  0.00     0.196 C 
ATOM     13  H   UNL A   1      32.644  25.777  25.134  1.00  0.00     0.347 HD
ATOM     14  H   UNL A   1      33.654  24.658  24.538  1.00  0.00     0.347 HD
ATOM     15  C   UNL A   1      32.627  22.394  23.646  1.00  0.00    -0.024 C 
ATOM     16  N   UNL A   1      34.036  23.774  22.303  1.00  0.00    -0.270 NA
ATOM     17  C   UNL A   1      31.756  22.401  24.856  1.00  0.00     0.111 C 
ATOM     18  C   UNL A   1      33.857  21.917  23.851  1.00  0.00     0.002 A 
ATOM     19  C   UNL A   1      34.624  22.918  23.094  1.00  0.00     0.066 A 
ATOM     20  C   UNL A   1      34.399  21.244  25.018  1.00  0.00     0.010 A 
ATOM     21  C   UNL A   1      36.045  23.021  23.477  1.00  0.00     0.028 A 
ATOM     22  C   UNL A   1      35.648  21.542  25.403  1.00  0.00     0.001 A 
ATOM     23  C   UNL A   1      36.478  22.410  24.593  1.00  0.00     0.002 A 
BRANCH  10  24
ATOM     24  C   UNL A   1      31.235  26.740  23.256  1.00  0.00     0.015 A 
ATOM     25  C   UNL A   1      34.024  28.109  22.093  1.00  0.00     0.045 C 
ATOM     26  C   UNL A   1      32.016  28.284  22.758  1.00  0.00    -0.042 A 
ATOM     27  C   UNL A   1      31.137  29.379  22.647  1.00  0.00     0.004 A 
ATOM     28  C   UNL A   1      29.746  29.121  22.858  1.00  0.00     0.000 A 
ATOM     29  C   UNL A   1      29.856  26.645  23.329  1.00  0.00     0.010 A 
ATOM     30  C   UNL A   1      29.142  27.833  23.142  1.00  0.00     0.001 A 
ENDBRANCH  10  24
ENDBRANCH   7   9
ENDBRANCH   6   7
ENDBRANCH   5   6
ENDBRANCH   4   5
ENDBRANCH   3   4
ENDBRANCH   2   3
ENDBRANCH   1   2
BRANCH   1  31
ATOM     31  O   UNL A   1      36.789  31.409  28.784  1.00  0.00    -0.376 OA
BRANCH  31  32
ATOM     32  C   UNL A   1      35.724  33.081  28.389  1.00  0.00     0.202 C 
BRANCH  32  33
ATOM     33  C   UNL A   1      34.847  33.657  30.148  1.00  0.00     0.261 C 
BRANCH  33  34
ATOM     34  O   UNL A   1      35.951  33.864  31.686  1.00  0.00    -0.460 OA
BRANCH  34  35
ATOM     35  C   UNL A   1      37.617  33.501  32.048  1.00  0.00     0.338 C 
ATOM     36  O   UNL A   1      37.674  32.422  32.656  1.00  0.00    -0.246 OA
BRANCH  35  37
ATOM     37  C   UNL A   1      39.270  34.146  31.456  1.00  0.00     0.060 A 
ATOM     38  C   UNL A   1      39.727  34.584  30.186  1.00  0.00     0.016 A 
ATOM     39  C   UNL A   1      40.523  34.096  32.020  1.00  0.00     0.016 A 
ATOM     40  C   UNL A   1      41.131  34.238  29.420  1.00  0.00     0.010 A 
ATOM     41  C   UNL A   1      41.672  33.465  31.217  1.00  0.00     0.010 A 
ATOM     42  C   UNL A   1      42.111  33.376  29.871  1.00  0.00    -0.014 A 
BRANCH  42  43
ATOM     43  C   UNL A   1      43.095  32.081  29.063  1.00  0.00     0.031 A 
ATOM     44  C   UNL A   1      42.929  30.251  29.084  1.00  0.00     0.074 A 
ATOM     45  C   UNL A   1      43.914  32.519  28.047  1.00  0.00     0.049 A 
ATOM     46  N   UNL A   1      43.473  29.317  29.870  1.00  0.00    -0.248 NA
ATOM     47  C   UNL A   1      41.905  29.408  28.257  1.00  0.00     0.031 C 
ATOM     48  C   UNL A   1      44.655  31.790  26.984  1.00  0.00     0.029 A 
ATOM     49  N   UNL A   1      44.265  33.845  27.727  1.00  0.00    -0.354 N 
ATOM     50  C   UNL A   1      42.874  28.014  29.500  1.00  0.00     0.074 A 
ATOM     51  C   UNL A   1      41.599  28.345  28.990  1.00  0.00     0.031 C 
ATOM     52  C   UNL A   1      45.600  32.593  26.449  1.00  0.00     0.029 A 
ATOM     53  C   UNL A   1      45.581  33.811  27.229  1.00  0.00     0.049 A 
ATOM     54  H   UNL A   1      43.697  34.644  27.832  1.00  0.00     0.167 HD
ATOM     55  C   UNL A   1      43.445  27.040  28.670  1.00  0.00     0.037 A 
ATOM     56  C   UNL A   1      46.532  34.224  28.109  1.00  0.00     0.037 A 
ATOM     57  C   UNL A   1      44.554  27.656  27.979  1.00  0.00     0.049 A 
ATOM     58  C   UNL A   1      47.225  32.982  28.664  1.00  0.00     0.074 A 
ATOM     59  C   UNL A   1      44.845  28.040  26.684  1.00  0.00     0.029 A 
ATOM     60  N   UNL A   1      45.464  28.274  28.787  1.00  0.00    -0.354 N 
ATOM     61  N   UNL A   1      46.694  31.780  28.734  1.00  0.00    -0.248 NA
ATOM     62  C   UNL A   1      48.659  32.952  28.917  1.00  0.00     0.031 C 
ATOM     63  C   UNL A   1      46.027  28.849  26.749  1.00  0.00     0.029 A 
ATOM     64  C   UNL A   1      46.388  28.977  28.082  1.00  0.00     0.049 A 
ATOM     65  H   UNL A   1      45.453  28.216  29.770  1.00  0.00     0.167 HD
ATOM     66  C   UNL A   1      47.677  30.839  28.911  1.00  0.00     0.074 A 
ATOM     67  C   UNL A   1      48.883  31.632  29.033  1.00  0.00     0.031 C 
ATOM     68  C   UNL A   1      47.496  29.481  28.860  1.00  0.00     0.037 A 
BRANCH  55  69
ATOM     69  C   UNL A   1      42.752  25.734  28.111  1.00  0.00     0.058 A 
ATOM     70  C   UNL A   1      42.868  24.505  28.811  1.00  0.00     0.135 A 
ATOM     71  C   UNL A   1      41.932  25.633  26.953  1.00  0.00     0.135 A 
ATOM     72  F   UNL A   1      43.561  24.425  29.956  1.00  0.00    -0.206 F 
ATOM     73  C   UNL A   1      42.259  23.302  28.404  1.00  0.00     0.059 A 
ATOM     74  C   UNL A   1      41.344  24.427  26.502  1.00  0.00     0.059 A 
ATOM     75  F   UNL A   1      41.638  26.712  26.211  1.00  0.00    -0.206 F 
ATOM     76  C   UNL A   1      41.493  23.267  27.249  1.00  0.00     0.060 A 
BRANCH  76  77
ATOM     77  S   UNL A   1      40.644  21.726  26.807  1.00  0.00     0.124 S 
ATOM     78  O   UNL A   1      41.423  21.254  25.665  1.00  0.00    -0.237 OA
ATOM     79  O   UNL A   1      40.775  20.942  28.030  1.00  0.00    -0.237 OA
ATOM     80  O   UNL A   1      39.286  22.161  26.490  1.00  0.00    -0.744 OA
ENDBRANCH  76  77
ENDBRANCH  55  69
BRANCH  56  81
ATOM     81  C   UNL A   1      46.072  35.536  28.714  1.00  0.00     0.058 A 
ATOM     82  C   UNL A   1      46.152  36.661  27.844  1.00  0.00     0.135 A 
ATOM     83  C   UNL A   1      45.175  35.668  29.781  1.00  0.00     0.135 A 
ATOM     84  F   UNL A   1      46.995  36.635  26.799  1.00  0.00    -0.206 F 
ATOM     85  C   UNL A   1      45.266  37.735  27.902  1.00  0.00     0.059 A 
ATOM     86  C   UNL A   1      44.348  36.817  29.924  1.00  0.00     0.059 A 
ATOM     87  F   UNL A   1      44.952  34.627  30.599  1.00  0.00    -0.206 F 
ATOM     88  C   UNL A   1      44.342  37.800  28.930  1.00  0.00     0.060 A 
BRANCH  88  89
ATOM     89  S   UNL A   1      43.067  39.095  28.771  1.00  0.00     0.124 S 
ATOM     90  O   UNL A   1      43.612  39.946  27.722  1.00  0.00    -0.237 OA
ATOM     91  O   UNL A   1      41.911  38.291  28.383  1.00  0.00    -0.237 OA
ATOM     92  O   UNL A   1      43.026  39.713  30.094  1.00  0.00    -0.744 OA
ENDBRANCH  88  89
ENDBRANCH  56  81
BRANCH  68  93
ATOM     93  C   UNL A   1      48.315  28.439  29.638  1.00  0.00     0.058 A 
ATOM     94  C   UNL A   1      49.045  27.420  29.019  1.00  0.00     0.135 A 
ATOM     95  C   UNL A   1      48.540  28.540  31.052  1.00  0.00     0.135 A 
ATOM     96  F   UNL A   1      49.099  27.283  27.691  1.00  0.00    -0.206 F 
ATOM     97  C   UNL A   1      49.806  26.502  29.736  1.00  0.00     0.059 A 
ATOM     98  C   UNL A   1      49.401  27.715  31.764  1.00  0.00     0.059 A 
ATOM     99  F   UNL A   1      47.945  29.455  31.828  1.00  0.00    -0.206 F 
ATOM    100  C   UNL A   1      49.977  26.653  31.105  1.00  0.00     0.060 A 
BRANCH 100 101
ATOM    101  S   UNL A   1      50.933  25.433  32.000  1.00  0.00     0.124 S 
ATOM    102  O   UNL A   1      50.322  25.515  33.323  1.00  0.00    -0.237 OA
ATOM    103  O   UNL A   1      50.657  24.213  31.249  1.00  0.00    -0.237 OA
ATOM    104  O   UNL A   1      52.303  25.928  31.906  1.00  0.00    -0.744 OA
ENDBRANCH 100 101
ENDBRANCH  68  93
ENDBRANCH  42  43
ENDBRANCH  35  37
ENDBRANCH  34  35
ENDBRANCH  33  34
ENDBRANCH  32  33
ENDBRANCH  31  32
ENDBRANCH   1  31
TORSDOF 21
ENDMDL
