MODEL 1
REMARK VINA RESULT:     -10.0      0.000      0.000
REMARK SMILES COC(=O)c1ccccc1-c1ccc(/C=C(\C#N)C(=O)OCCOCCOCCOC(=O)c2ccc(-c3c4nc(c(-c5c(F)cc(S(=O)(=O)[O-])cc5F)c5ccc([nH]5)c(-c5c(F)cc(S(=O)(=O)[O-])cc5F)c5nc(c(-c6c(F)cc(S(=O)(=O)[O-])cc6F)c6ccc3[nH]6)C=C5)C=C4)cc2)o1
REMARK SMILES IDX 25 1 24 2 23 3 22 4 21 5 19 6 20 7 16 8 15 9 14 10 11 11
REMARK SMILES IDX 12 12 99 13 13 14 10 15 5 16 6 17 7 18 9 19 8 20 3 21 4 22
REMARK SMILES IDX 2 23 1 24 17 25 18 26 26 27 27 28 28 29 29 30 30 31 31 32
REMARK SMILES IDX 32 33 33 34 34 35 98 36 35 37 97 38 36 39 37 40 38 41 91 42
REMARK SMILES IDX 39 43 96 44 90 45 92 46 40 47 95 48 89 49 88 50 41 52 75 53
REMARK SMILES IDX 54 54 74 55 55 56 58 57 73 58 93 59 56 60 57 61 72 63 94 64
REMARK SMILES IDX 59 65 42 66 43 67 52 68 44 69 45 70 51 71 53 72 46 73 47 74
REMARK SMILES IDX 48 75 49 76 50 77 76 78 77 79 86 80 78 81 79 82 85 83 87 84
REMARK SMILES IDX 80 85 81 86 82 87 83 88 84 89 60 90 61 91 70 92 62 93 63 94
REMARK SMILES IDX 69 95 71 96 64 97 65 98 66 99 67 100 68 101
REMARK H PARENT 92 51 58 62
REMARK Flexibility Score: inf
ROOT
ATOM      1  C   UNL A   1      37.574  22.032  25.721  1.00  0.00     0.188 C 
ENDROOT
BRANCH   1   2
ATOM      2  O   UNL A   1      37.292  20.756  25.188  1.00  0.00    -0.376 OA
BRANCH   2   3
ATOM      3  C   UNL A   1      35.964  20.293  25.004  1.00  0.00     0.202 C 
BRANCH   3   4
ATOM      4  C   UNL A   1      34.732  21.181  25.208  1.00  0.00     0.261 C 
BRANCH   4   5
ATOM      5  O   UNL A   1      33.720  21.012  24.211  1.00  0.00    -0.459 OA
BRANCH   5   6
ATOM      6  C   UNL A   1      32.455  21.156  24.670  1.00  0.00     0.349 C 
ATOM      7  O   UNL A   1      31.806  20.306  25.261  1.00  0.00    -0.245 OA
BRANCH   6   8
ATOM      8  C   UNL A   1      31.985  22.547  24.468  1.00  0.00     0.141 C 
ATOM      9  C   UNL A   1      31.997  22.953  23.178  1.00  0.00     0.074 C 
BRANCH   9  10
ATOM     10  C   UNL A   1      32.220  24.303  22.771  1.00  0.00     0.129 A 
ATOM     11  C   UNL A   1      32.011  26.524  22.709  1.00  0.00     0.135 A 
ATOM     12  C   UNL A   1      33.105  26.222  21.931  1.00  0.00     0.051 A 
ATOM     13  O   UNL A   1      31.486  25.379  23.215  1.00  0.00    -0.457 OA
ATOM     14  C   UNL A   1      33.234  24.810  21.966  1.00  0.00     0.051 A 
BRANCH  11  15
ATOM     15  C   UNL A   1      31.308  27.750  23.060  1.00  0.00     0.032 A 
ATOM     16  C   UNL A   1      31.696  28.561  24.143  1.00  0.00     0.071 A 
ATOM     17  C   UNL A   1      30.936  29.687  24.501  1.00  0.00     0.016 A 
ATOM     18  C   UNL A   1      29.803  30.032  23.767  1.00  0.00     0.001 A 
ATOM     19  C   UNL A   1      30.173  28.126  22.322  1.00  0.00     0.013 A 
ATOM     20  C   UNL A   1      29.426  29.256  22.673  1.00  0.00     0.001 A 
BRANCH  16  21
ATOM     21  C   UNL A   1      32.887  28.268  24.966  1.00  0.00     0.338 C 
ATOM     22  O   UNL A   1      34.032  28.358  24.546  1.00  0.00    -0.246 OA
BRANCH  21  23
ATOM     23  O   UNL A   1      32.505  27.859  26.198  1.00  0.00    -0.465 OA
ATOM     24  C   UNL A   1      33.132  28.557  27.273  1.00  0.00     0.282 C 
ENDBRANCH  21  23
ENDBRANCH  16  21
ENDBRANCH  11  15
ENDBRANCH   9  10
BRANCH   8  25
ATOM     25  C   UNL A   1      32.243  23.517  25.610  1.00  0.00     0.107 C 
ATOM     26  N   UNL A   1      32.457  24.320  26.557  1.00  0.00    -0.192 NA
ENDBRANCH   8  25
ENDBRANCH   6   8
ENDBRANCH   5   6
ENDBRANCH   4   5
ENDBRANCH   3   4
ENDBRANCH   2   3
ENDBRANCH   1   2
BRANCH   1  27
ATOM     27  C   UNL A   1      39.023  22.425  26.090  1.00  0.00     0.188 C 
BRANCH  27  28
ATOM     28  O   UNL A   1      39.895  21.477  26.648  1.00  0.00    -0.376 OA
BRANCH  28  29
ATOM     29  C   UNL A   1      41.240  21.471  26.211  1.00  0.00     0.202 C 
BRANCH  29  30
ATOM     30  C   UNL A   1      42.188  22.671  26.406  1.00  0.00     0.261 C 
BRANCH  30  31
ATOM     31  O   UNL A   1      41.588  23.965  26.585  1.00  0.00    -0.460 OA
BRANCH  31  32
ATOM     32  C   UNL A   1      42.452  25.023  26.599  1.00  0.00     0.338 C 
ATOM     33  O   UNL A   1      43.324  25.264  25.792  1.00  0.00    -0.246 OA
BRANCH  32  34
ATOM     34  C   UNL A   1      42.019  25.984  27.640  1.00  0.00     0.060 A 
ATOM     35  C   UNL A   1      42.829  27.092  27.954  1.00  0.00     0.016 A 
ATOM     36  C   UNL A   1      40.826  25.770  28.322  1.00  0.00     0.016 A 
ATOM     37  C   UNL A   1      42.449  27.982  28.963  1.00  0.00     0.010 A 
ATOM     38  C   UNL A   1      40.467  26.639  29.354  1.00  0.00     0.010 A 
ATOM     39  C   UNL A   1      41.286  27.730  29.700  1.00  0.00    -0.014 A 
BRANCH  39  40
ATOM     40  C   UNL A   1      41.007  28.432  30.977  1.00  0.00     0.031 A 
ATOM     41  C   UNL A   1      39.917  29.469  30.974  1.00  0.00     0.074 A 
ATOM     42  C   UNL A   1      41.754  28.235  32.077  1.00  0.00     0.049 A 
ATOM     43  N   UNL A   1      39.647  30.395  31.853  1.00  0.00    -0.248 NA
ATOM     44  C   UNL A   1      39.025  29.468  29.802  1.00  0.00     0.031 C 
ATOM     45  C   UNL A   1      42.797  27.222  32.225  1.00  0.00     0.029 A 
ATOM     46  N   UNL A   1      41.773  28.916  33.271  1.00  0.00    -0.354 N 
ATOM     47  C   UNL A   1      38.578  31.110  31.328  1.00  0.00     0.074 A 
ATOM     48  C   UNL A   1      38.254  30.516  30.050  1.00  0.00     0.031 C 
ATOM     49  C   UNL A   1      43.382  27.375  33.427  1.00  0.00     0.029 A 
ATOM     50  C   UNL A   1      42.793  28.529  34.108  1.00  0.00     0.049 A 
ATOM     51  H   UNL A   1      41.118  29.614  33.504  1.00  0.00     0.167 HD
ATOM     52  C   UNL A   1      37.930  32.171  31.862  1.00  0.00     0.037 A 
ATOM     53  C   UNL A   1      43.231  29.075  35.261  1.00  0.00     0.037 A 
ATOM     54  C   UNL A   1      38.267  32.757  33.131  1.00  0.00     0.049 A 
ATOM     55  C   UNL A   1      42.548  30.309  35.803  1.00  0.00     0.074 A 
ATOM     56  C   UNL A   1      37.666  33.827  33.769  1.00  0.00     0.029 A 
ATOM     57  N   UNL A   1      39.300  32.328  33.951  1.00  0.00    -0.354 N 
ATOM     58  N   UNL A   1      41.536  30.978  35.304  1.00  0.00    -0.248 NA
ATOM     59  C   UNL A   1      43.071  30.869  37.061  1.00  0.00     0.031 C 
ATOM     60  C   UNL A   1      38.373  34.083  34.947  1.00  0.00     0.029 A 
ATOM     61  C   UNL A   1      39.368  33.126  35.079  1.00  0.00     0.049 A 
ATOM     62  H   UNL A   1      39.897  31.569  33.759  1.00  0.00     0.167 HD
ATOM     63  C   UNL A   1      41.272  32.006  36.208  1.00  0.00     0.074 A 
ATOM     64  C   UNL A   1      42.236  31.878  37.279  1.00  0.00     0.031 C 
ATOM     65  C   UNL A   1      40.313  32.963  36.158  1.00  0.00     0.037 A 
BRANCH  52  66
ATOM     66  C   UNL A   1      36.822  32.791  31.058  1.00  0.00     0.058 A 
ATOM     67  C   UNL A   1      35.470  32.600  31.387  1.00  0.00     0.135 A 
ATOM     68  C   UNL A   1      37.118  33.616  29.960  1.00  0.00     0.135 A 
ATOM     69  F   UNL A   1      35.130  31.804  32.412  1.00  0.00    -0.206 F 
ATOM     70  C   UNL A   1      34.452  33.183  30.640  1.00  0.00     0.059 A 
ATOM     71  C   UNL A   1      36.117  34.235  29.218  1.00  0.00     0.059 A 
ATOM     72  F   UNL A   1      38.394  33.828  29.599  1.00  0.00    -0.206 F 
ATOM     73  C   UNL A   1      34.787  34.001  29.559  1.00  0.00     0.060 A 
BRANCH  73  74
ATOM     74  S   UNL A   1      33.452  34.754  28.605  1.00  0.00     0.124 S 
ATOM     75  O   UNL A   1      33.100  33.673  27.691  1.00  0.00    -0.237 OA
ATOM     76  O   UNL A   1      32.466  35.058  29.638  1.00  0.00    -0.237 OA
ATOM     77  O   UNL A   1      34.087  35.915  27.988  1.00  0.00    -0.744 OA
ENDBRANCH  73  74
ENDBRANCH  52  66
BRANCH  53  78
ATOM     78  C   UNL A   1      44.394  28.481  35.977  1.00  0.00     0.058 A 
ATOM     79  C   UNL A   1      45.700  28.933  35.733  1.00  0.00     0.135 A 
ATOM     80  C   UNL A   1      44.229  27.447  36.914  1.00  0.00     0.135 A 
ATOM     81  F   UNL A   1      45.914  29.908  34.836  1.00  0.00    -0.206 F 
ATOM     82  C   UNL A   1      46.800  28.377  36.380  1.00  0.00     0.059 A 
ATOM     83  C   UNL A   1      45.309  26.895  37.595  1.00  0.00     0.059 A 
ATOM     84  F   UNL A   1      43.002  26.981  37.190  1.00  0.00    -0.206 F 
ATOM     85  C   UNL A   1      46.593  27.362  37.314  1.00  0.00     0.060 A 
BRANCH  85  86
ATOM     86  S   UNL A   1      48.024  26.685  38.185  1.00  0.00     0.124 S 
ATOM     87  O   UNL A   1      48.609  27.887  38.767  1.00  0.00    -0.237 OA
ATOM     88  O   UNL A   1      47.397  25.760  39.125  1.00  0.00    -0.237 OA
ATOM     89  O   UNL A   1      48.800  26.057  37.120  1.00  0.00    -0.744 OA
ENDBRANCH  85  86
ENDBRANCH  53  78
BRANCH  65  90
ATOM     90  C   UNL A   1      40.184  33.910  37.319  1.00  0.00     0.058 A 
ATOM     91  C   UNL A   1      40.859  35.139  37.359  1.00  0.00     0.135 A 
ATOM     92  C   UNL A   1      39.265  33.634  38.347  1.00  0.00     0.135 A 
ATOM     93  F   UNL A   1      41.753  35.450  36.407  1.00  0.00    -0.206 F 
ATOM     94  C   UNL A   1      40.621  36.064  38.372  1.00  0.00     0.059 A 
ATOM     95  C   UNL A   1      38.992  34.554  39.353  1.00  0.00     0.059 A 
ATOM     96  F   UNL A   1      38.586  32.475  38.352  1.00  0.00    -0.206 F 
ATOM     97  C   UNL A   1      39.675  35.769  39.355  1.00  0.00     0.060 A 
BRANCH  97  98
ATOM     98  S   UNL A   1      39.308  37.017  40.608  1.00  0.00     0.124 S 
ATOM     99  O   UNL A   1      38.583  36.233  41.603  1.00  0.00    -0.237 OA
ATOM    100  O   UNL A   1      40.642  37.463  41.001  1.00  0.00    -0.237 OA
ATOM    101  O   UNL A   1      38.511  38.004  39.885  1.00  0.00    -0.744 OA
ENDBRANCH  97  98
ENDBRANCH  65  90
ENDBRANCH  39  40
ENDBRANCH  32  34
ENDBRANCH  31  32
ENDBRANCH  30  31
ENDBRANCH  29  30
ENDBRANCH  28  29
ENDBRANCH  27  28
ENDBRANCH   1  27
TORSDOF 25
ENDMDL
MODEL 2
REMARK VINA RESULT:      -9.7      2.133      9.267
REMARK SMILES COC(=O)c1ccccc1-c1ccc(/C=C(\C#N)C(=O)OCCOCCOCCOC(=O)c2ccc(-c3c4nc(c(-c5c(F)cc(S(=O)(=O)[O-])cc5F)c5ccc([nH]5)c(-c5c(F)cc(S(=O)(=O)[O-])cc5F)c5nc(c(-c6c(F)cc(S(=O)(=O)[O-])cc6F)c6ccc3[nH]6)C=C5)C=C4)cc2)o1
REMARK SMILES IDX 25 1 24 2 23 3 22 4 21 5 19 6 20 7 16 8 15 9 14 10 11 11
REMARK SMILES IDX 12 12 99 13 13 14 10 15 5 16 6 17 7 18 9 19 8 20 3 21 4 22
REMARK SMILES IDX 2 23 1 24 17 25 18 26 26 27 27 28 28 29 29 30 30 31 31 32
REMARK SMILES IDX 32 33 33 34 34 35 98 36 35 37 97 38 36 39 37 40 38 41 91 42
REMARK SMILES IDX 39 43 96 44 90 45 92 46 40 47 95 48 89 49 88 50 41 52 75 53
REMARK SMILES IDX 54 54 74 55 55 56 58 57 73 58 93 59 56 60 57 61 72 63 94 64
REMARK SMILES IDX 59 65 42 66 43 67 52 68 44 69 45 70 51 71 53 72 46 73 47 74
REMARK SMILES IDX 48 75 49 76 50 77 76 78 77 79 86 80 78 81 79 82 85 83 87 84
REMARK SMILES IDX 80 85 81 86 82 87 83 88 84 89 60 90 61 91 70 92 62 93 63 94
REMARK SMILES IDX 69 95 71 96 64 97 65 98 66 99 67 100 68 101
REMARK H PARENT 92 51 58 62
REMARK Flexibility Score: inf
ROOT
ATOM      1  C   UNL A   1      33.597  29.439  26.184  1.00  0.00     0.188 C 
ENDROOT
BRANCH   1   2
ATOM      2  O   UNL A   1      33.309  29.223  24.819  1.00  0.00    -0.376 OA
BRANCH   2   3
ATOM      3  C   UNL A   1      32.008  28.889  24.368  1.00  0.00     0.202 C 
BRANCH   3   4
ATOM      4  C   UNL A   1      31.608  28.891  22.889  1.00  0.00     0.261 C 
BRANCH   4   5
ATOM      5  O   UNL A   1      31.641  27.600  22.274  1.00  0.00    -0.459 OA
BRANCH   5   6
ATOM      6  C   UNL A   1      30.967  26.642  22.952  1.00  0.00     0.349 C 
ATOM      7  O   UNL A   1      29.784  26.679  23.259  1.00  0.00    -0.245 OA
BRANCH   6   8
ATOM      8  C   UNL A   1      31.832  25.460  23.178  1.00  0.00     0.141 C 
ATOM      9  C   UNL A   1      31.156  24.296  23.303  1.00  0.00     0.074 C 
BRANCH   9  10
ATOM     10  C   UNL A   1      31.596  23.202  24.109  1.00  0.00     0.129 A 
ATOM     11  C   UNL A   1      32.941  21.614  24.914  1.00  0.00     0.135 A 
ATOM     12  C   UNL A   1      31.862  21.668  25.766  1.00  0.00     0.051 A 
ATOM     13  O   UNL A   1      32.785  22.534  23.927  1.00  0.00    -0.457 OA
ATOM     14  C   UNL A   1      31.005  22.674  25.252  1.00  0.00     0.051 A 
BRANCH  11  15
ATOM     15  C   UNL A   1      34.141  20.793  24.827  1.00  0.00     0.032 A 
ATOM     16  C   UNL A   1      34.094  19.405  24.604  1.00  0.00     0.071 A 
ATOM     17  C   UNL A   1      35.271  18.638  24.618  1.00  0.00     0.016 A 
ATOM     18  C   UNL A   1      36.505  19.251  24.822  1.00  0.00     0.001 A 
ATOM     19  C   UNL A   1      35.397  21.393  25.014  1.00  0.00     0.013 A 
ATOM     20  C   UNL A   1      36.570  20.629  25.014  1.00  0.00     0.001 A 
BRANCH  16  21
ATOM     21  C   UNL A   1      32.826  18.682  24.372  1.00  0.00     0.338 C 
ATOM     22  O   UNL A   1      32.278  18.622  23.281  1.00  0.00    -0.246 OA
BRANCH  21  23
ATOM     23  O   UNL A   1      32.377  18.158  25.535  1.00  0.00    -0.465 OA
ATOM     24  C   UNL A   1      32.495  16.739  25.629  1.00  0.00     0.282 C 
ENDBRANCH  21  23
ENDBRANCH  16  21
ENDBRANCH  11  15
ENDBRANCH   9  10
BRANCH   8  25
ATOM     25  C   UNL A   1      33.131  25.710  23.927  1.00  0.00     0.107 C 
ATOM     26  N   UNL A   1      34.208  25.918  24.547  1.00  0.00    -0.192 NA
ENDBRANCH   8  25
ENDBRANCH   6   8
ENDBRANCH   5   6
ENDBRANCH   4   5
ENDBRANCH   3   4
ENDBRANCH   2   3
ENDBRANCH   1   2
BRANCH   1  27
ATOM     27  C   UNL A   1      32.455  29.663  27.201  1.00  0.00     0.188 C 
BRANCH  27  28
ATOM     28  O   UNL A   1      31.884  30.936  27.358  1.00  0.00    -0.376 OA
BRANCH  28  29
ATOM     29  C   UNL A   1      32.572  32.045  26.813  1.00  0.00     0.202 C 
BRANCH  29  30
ATOM     30  C   UNL A   1      33.279  33.101  27.685  1.00  0.00     0.261 C 
BRANCH  30  31
ATOM     31  O   UNL A   1      32.467  34.146  28.246  1.00  0.00    -0.460 OA
BRANCH  31  32
ATOM     32  C   UNL A   1      33.146  35.188  28.811  1.00  0.00     0.338 C 
ATOM     33  O   UNL A   1      32.828  36.358  28.801  1.00  0.00    -0.246 OA
BRANCH  32  34
ATOM     34  C   UNL A   1      34.239  34.649  29.654  1.00  0.00     0.060 A 
ATOM     35  C   UNL A   1      35.559  34.629  29.164  1.00  0.00     0.016 A 
ATOM     36  C   UNL A   1      33.949  34.140  30.915  1.00  0.00     0.016 A 
ATOM     37  C   UNL A   1      36.591  34.085  29.935  1.00  0.00     0.010 A 
ATOM     38  C   UNL A   1      34.974  33.565  31.668  1.00  0.00     0.010 A 
ATOM     39  C   UNL A   1      36.291  33.508  31.175  1.00  0.00    -0.014 A 
BRANCH  39  40
ATOM     40  C   UNL A   1      37.261  32.633  31.880  1.00  0.00     0.031 A 
ATOM     41  C   UNL A   1      37.795  33.115  33.200  1.00  0.00     0.074 A 
ATOM     42  C   UNL A   1      37.731  31.501  31.329  1.00  0.00     0.049 A 
ATOM     43  N   UNL A   1      38.822  32.694  33.886  1.00  0.00    -0.248 NA
ATOM     44  C   UNL A   1      37.077  34.244  33.817  1.00  0.00     0.031 C 
ATOM     45  C   UNL A   1      37.254  30.898  30.086  1.00  0.00     0.029 A 
ATOM     46  N   UNL A   1      38.754  30.676  31.733  1.00  0.00    -0.354 N 
ATOM     47  C   UNL A   1      38.898  33.525  34.997  1.00  0.00     0.074 A 
ATOM     48  C   UNL A   1      37.818  34.481  34.889  1.00  0.00     0.031 C 
ATOM     49  C   UNL A   1      38.011  29.821  29.808  1.00  0.00     0.029 A 
ATOM     50  C   UNL A   1      39.058  29.691  30.821  1.00  0.00     0.049 A 
ATOM     51  H   UNL A   1      39.224  30.780  32.593  1.00  0.00     0.167 HD
ATOM     52  C   UNL A   1      39.793  33.497  36.012  1.00  0.00     0.037 A 
ATOM     53  C   UNL A   1      40.092  28.824  30.786  1.00  0.00     0.037 A 
ATOM     54  C   UNL A   1      40.867  32.546  36.103  1.00  0.00     0.049 A 
ATOM     55  C   UNL A   1      41.128  28.860  31.884  1.00  0.00     0.074 A 
ATOM     56  C   UNL A   1      41.823  32.423  37.097  1.00  0.00     0.029 A 
ATOM     57  N   UNL A   1      41.134  31.560  35.165  1.00  0.00    -0.354 N 
ATOM     58  N   UNL A   1      41.192  29.646  32.933  1.00  0.00    -0.248 NA
ATOM     59  C   UNL A   1      42.238  27.897  31.792  1.00  0.00     0.031 C 
ATOM     60  C   UNL A   1      42.702  31.401  36.729  1.00  0.00     0.029 A 
ATOM     61  C   UNL A   1      42.251  30.839  35.544  1.00  0.00     0.049 A 
ATOM     62  H   UNL A   1      40.606  31.398  34.349  1.00  0.00     0.167 HD
ATOM     63  C   UNL A   1      42.318  29.242  33.647  1.00  0.00     0.074 A 
ATOM     64  C   UNL A   1      42.913  28.149  32.907  1.00  0.00     0.031 C 
ATOM     65  C   UNL A   1      42.810  29.727  34.814  1.00  0.00     0.037 A 
BRANCH  52  66
ATOM     66  C   UNL A   1      39.674  34.549  37.079  1.00  0.00     0.058 A 
ATOM     67  C   UNL A   1      38.839  34.382  38.195  1.00  0.00     0.135 A 
ATOM     68  C   UNL A   1      40.431  35.730  36.998  1.00  0.00     0.135 A 
ATOM     69  F   UNL A   1      38.077  33.284  38.311  1.00  0.00    -0.206 F 
ATOM     70  C   UNL A   1      38.740  35.359  39.181  1.00  0.00     0.059 A 
ATOM     71  C   UNL A   1      40.373  36.706  37.988  1.00  0.00     0.059 A 
ATOM     72  F   UNL A   1      41.241  35.943  35.949  1.00  0.00    -0.206 F 
ATOM     73  C   UNL A   1      39.514  36.516  39.069  1.00  0.00     0.060 A 
BRANCH  73  74
ATOM     74  S   UNL A   1      39.377  37.770  40.360  1.00  0.00     0.124 S 
ATOM     75  O   UNL A   1      38.156  38.464  39.964  1.00  0.00    -0.237 OA
ATOM     76  O   UNL A   1      39.281  36.959  41.570  1.00  0.00    -0.237 OA
ATOM     77  O   UNL A   1      40.609  38.539  40.220  1.00  0.00    -0.744 OA
ENDBRANCH  73  74
ENDBRANCH  52  66
BRANCH  53  78
ATOM     78  C   UNL A   1      40.220  27.860  29.657  1.00  0.00     0.058 A 
ATOM     79  C   UNL A   1      41.120  28.095  28.607  1.00  0.00     0.135 A 
ATOM     80  C   UNL A   1      39.446  26.689  29.602  1.00  0.00     0.135 A 
ATOM     81  F   UNL A   1      41.872  29.206  28.604  1.00  0.00    -0.206 F 
ATOM     82  C   UNL A   1      41.241  27.213  27.536  1.00  0.00     0.059 A 
ATOM     83  C   UNL A   1      39.570  25.778  28.557  1.00  0.00     0.059 A 
ATOM     84  F   UNL A   1      38.574  26.413  30.583  1.00  0.00    -0.206 F 
ATOM     85  C   UNL A   1      40.464  26.054  27.524  1.00  0.00     0.060 A 
BRANCH  85  86
ATOM     86  S   UNL A   1      40.669  24.892  26.155  1.00  0.00     0.124 S 
ATOM     87  O   UNL A   1      39.302  24.424  25.961  1.00  0.00    -0.237 OA
ATOM     88  O   UNL A   1      41.205  25.752  25.105  1.00  0.00    -0.237 OA
ATOM     89  O   UNL A   1      41.605  23.906  26.688  1.00  0.00    -0.744 OA
ENDBRANCH  85  86
ENDBRANCH  53  78
BRANCH  65  90
ATOM     90  C   UNL A   1      44.004  29.047  35.426  1.00  0.00     0.058 A 
ATOM     91  C   UNL A   1      43.878  27.948  36.288  1.00  0.00     0.135 A 
ATOM     92  C   UNL A   1      45.300  29.427  35.035  1.00  0.00     0.135 A 
ATOM     93  F   UNL A   1      42.663  27.549  36.699  1.00  0.00    -0.206 F 
ATOM     94  C   UNL A   1      44.993  27.244  36.734  1.00  0.00     0.059 A 
ATOM     95  C   UNL A   1      46.426  28.721  35.446  1.00  0.00     0.059 A 
ATOM     96  F   UNL A   1      45.477  30.468  34.204  1.00  0.00    -0.206 F 
ATOM     97  C   UNL A   1      46.261  27.629  36.295  1.00  0.00     0.060 A 
BRANCH  97  98
ATOM     98  S   UNL A   1      47.689  26.648  36.806  1.00  0.00     0.124 S 
ATOM     99  O   UNL A   1      47.879  27.096  38.182  1.00  0.00    -0.237 OA
ATOM    100  O   UNL A   1      47.201  25.282  36.644  1.00  0.00    -0.237 OA
ATOM    101  O   UNL A   1      48.734  27.050  35.867  1.00  0.00    -0.744 OA
ENDBRANCH  97  98
ENDBRANCH  65  90
ENDBRANCH  39  40
ENDBRANCH  32  34
ENDBRANCH  31  32
ENDBRANCH  30  31
ENDBRANCH  29  30
ENDBRANCH  28  29
ENDBRANCH  27  28
ENDBRANCH   1  27
TORSDOF 25
ENDMDL
MODEL 3
REMARK VINA RESULT:      -9.7      0.935      2.031
REMARK SMILES COC(=O)c1ccccc1-c1ccc(/C=C(\C#N)C(=O)OCCOCCOCCOC(=O)c2ccc(-c3c4nc(c(-c5c(F)cc(S(=O)(=O)[O-])cc5F)c5ccc([nH]5)c(-c5c(F)cc(S(=O)(=O)[O-])cc5F)c5nc(c(-c6c(F)cc(S(=O)(=O)[O-])cc6F)c6ccc3[nH]6)C=C5)C=C4)cc2)o1
REMARK SMILES IDX 25 1 24 2 23 3 22 4 21 5 19 6 20 7 16 8 15 9 14 10 11 11
REMARK SMILES IDX 12 12 99 13 13 14 10 15 5 16 6 17 7 18 9 19 8 20 3 21 4 22
REMARK SMILES IDX 2 23 1 24 17 25 18 26 26 27 27 28 28 29 29 30 30 31 31 32
REMARK SMILES IDX 32 33 33 34 34 35 98 36 35 37 97 38 36 39 37 40 38 41 91 42
REMARK SMILES IDX 39 43 96 44 90 45 92 46 40 47 95 48 89 49 88 50 41 52 75 53
REMARK SMILES IDX 54 54 74 55 55 56 58 57 73 58 93 59 56 60 57 61 72 63 94 64
REMARK SMILES IDX 59 65 42 66 43 67 52 68 44 69 45 70 51 71 53 72 46 73 47 74
REMARK SMILES IDX 48 75 49 76 50 77 76 78 77 79 86 80 78 81 79 82 85 83 87 84
REMARK SMILES IDX 80 85 81 86 82 87 83 88 84 89 60 90 61 91 70 92 62 93 63 94
REMARK SMILES IDX 69 95 71 96 64 97 65 98 66 99 67 100 68 101
REMARK H PARENT 92 51 58 62
REMARK Flexibility Score: inf
ROOT
ATOM      1  C   UNL A   1      38.479  21.752  25.958  1.00  0.00     0.188 C 
ENDROOT
BRANCH   1   2
ATOM      2  O   UNL A   1      38.382  20.623  25.117  1.00  0.00    -0.376 OA
BRANCH   2   3
ATOM      3  C   UNL A   1      37.146  19.976  24.864  1.00  0.00     0.202 C 
BRANCH   3   4
ATOM      4  C   UNL A   1      35.799  20.525  25.347  1.00  0.00     0.261 C 
BRANCH   4   5
ATOM      5  O   UNL A   1      34.678  20.076  24.581  1.00  0.00    -0.459 OA
BRANCH   5   6
ATOM      6  C   UNL A   1      33.495  20.134  25.237  1.00  0.00     0.349 C 
ATOM      7  O   UNL A   1      32.871  19.180  25.676  1.00  0.00    -0.245 OA
BRANCH   6   8
ATOM      8  C   UNL A   1      33.098  21.544  25.466  1.00  0.00     0.141 C 
ATOM      9  C   UNL A   1      33.496  22.396  24.494  1.00  0.00     0.074 C 
BRANCH   9  10
ATOM     10  C   UNL A   1      33.822  23.767  24.723  1.00  0.00     0.129 A 
ATOM     11  C   UNL A   1      33.530  25.964  24.984  1.00  0.00     0.135 A 
ATOM     12  C   UNL A   1      34.830  25.706  25.352  1.00  0.00     0.051 A 
ATOM     13  O   UNL A   1      32.926  24.806  24.614  1.00  0.00    -0.457 OA
ATOM     14  C   UNL A   1      35.017  24.310  25.181  1.00  0.00     0.051 A 
BRANCH  11  15
ATOM     15  C   UNL A   1      32.712  27.165  24.878  1.00  0.00     0.032 A 
ATOM     16  C   UNL A   1      32.492  27.824  23.654  1.00  0.00     0.071 A 
ATOM     17  C   UNL A   1      31.771  29.028  23.611  1.00  0.00     0.016 A 
ATOM     18  C   UNL A   1      31.239  29.570  24.779  1.00  0.00     0.001 A 
ATOM     19  C   UNL A   1      32.152  27.719  26.041  1.00  0.00     0.013 A 
ATOM     20  C   UNL A   1      31.423  28.912  25.993  1.00  0.00     0.001 A 
BRANCH  16  21
ATOM     21  C   UNL A   1      33.016  27.310  22.371  1.00  0.00     0.338 C 
ATOM     22  O   UNL A   1      34.102  27.633  21.913  1.00  0.00    -0.246 OA
BRANCH  21  23
ATOM     23  O   UNL A   1      32.106  26.489  21.800  1.00  0.00    -0.465 OA
ATOM     24  C   UNL A   1      32.656  25.303  21.227  1.00  0.00     0.282 C 
ENDBRANCH  21  23
ENDBRANCH  16  21
ENDBRANCH  11  15
ENDBRANCH   9  10
BRANCH   8  25
ATOM     25  C   UNL A   1      32.991  21.985  26.916  1.00  0.00     0.107 C 
ATOM     26  N   UNL A   1      32.903  22.350  28.120  1.00  0.00    -0.192 NA
ENDBRANCH   8  25
ENDBRANCH   6   8
ENDBRANCH   5   6
ENDBRANCH   4   5
ENDBRANCH   3   4
ENDBRANCH   2   3
ENDBRANCH   1   2
BRANCH   1  27
ATOM     27  C   UNL A   1      39.862  22.283  26.402  1.00  0.00     0.188 C 
BRANCH  27  28
ATOM     28  O   UNL A   1      40.912  21.391  26.669  1.00  0.00    -0.376 OA
BRANCH  28  29
ATOM     29  C   UNL A   1      42.164  21.635  26.059  1.00  0.00     0.202 C 
BRANCH  29  30
ATOM     30  C   UNL A   1      42.940  22.955  26.242  1.00  0.00     0.261 C 
BRANCH  30  31
ATOM     31  O   UNL A   1      42.200  24.098  26.701  1.00  0.00    -0.460 OA
BRANCH  31  32
ATOM     32  C   UNL A   1      42.835  25.302  26.584  1.00  0.00     0.338 C 
ATOM     33  O   UNL A   1      43.551  25.664  25.675  1.00  0.00    -0.246 OA
BRANCH  32  34
ATOM     34  C   UNL A   1      42.335  26.215  27.639  1.00  0.00     0.060 A 
ATOM     35  C   UNL A   1      43.004  27.427  27.895  1.00  0.00     0.016 A 
ATOM     36  C   UNL A   1      41.221  25.855  28.391  1.00  0.00     0.016 A 
ATOM     37  C   UNL A   1      42.565  28.276  28.915  1.00  0.00     0.010 A 
ATOM     38  C   UNL A   1      40.806  26.685  29.432  1.00  0.00     0.010 A 
ATOM     39  C   UNL A   1      41.489  27.883  29.720  1.00  0.00    -0.014 A 
BRANCH  39  40
ATOM     40  C   UNL A   1      41.189  28.563  31.003  1.00  0.00     0.031 A 
ATOM     41  C   UNL A   1      40.083  29.582  31.006  1.00  0.00     0.074 A 
ATOM     42  C   UNL A   1      41.931  28.363  32.107  1.00  0.00     0.049 A 
ATOM     43  N   UNL A   1      39.792  30.492  31.895  1.00  0.00    -0.248 NA
ATOM     44  C   UNL A   1      39.199  29.583  29.828  1.00  0.00     0.031 C 
ATOM     45  C   UNL A   1      42.989  27.366  32.250  1.00  0.00     0.029 A 
ATOM     46  N   UNL A   1      41.930  29.029  33.310  1.00  0.00    -0.354 N 
ATOM     47  C   UNL A   1      38.715  31.197  31.371  1.00  0.00     0.074 A 
ATOM     48  C   UNL A   1      38.410  30.615  30.083  1.00  0.00     0.031 C 
ATOM     49  C   UNL A   1      43.562  27.511  33.458  1.00  0.00     0.029 A 
ATOM     50  C   UNL A   1      42.950  28.647  34.149  1.00  0.00     0.049 A 
ATOM     51  H   UNL A   1      41.262  29.713  33.546  1.00  0.00     0.167 HD
ATOM     52  C   UNL A   1      38.047  32.241  31.914  1.00  0.00     0.037 A 
ATOM     53  C   UNL A   1      43.370  29.185  35.313  1.00  0.00     0.037 A 
ATOM     54  C   UNL A   1      38.365  32.815  33.193  1.00  0.00     0.049 A 
ATOM     55  C   UNL A   1      42.664  30.401  35.866  1.00  0.00     0.074 A 
ATOM     56  C   UNL A   1      37.741  33.867  33.841  1.00  0.00     0.029 A 
ATOM     57  N   UNL A   1      39.399  32.393  34.016  1.00  0.00    -0.354 N 
ATOM     58  N   UNL A   1      41.645  31.060  35.368  1.00  0.00    -0.248 NA
ATOM     59  C   UNL A   1      43.168  30.952  37.135  1.00  0.00     0.031 C 
ATOM     60  C   UNL A   1      38.436  34.119  35.027  1.00  0.00     0.029 A 
ATOM     61  C   UNL A   1      39.445  33.176  35.154  1.00  0.00     0.049 A 
ATOM     62  H   UNL A   1      40.009  31.645  33.818  1.00  0.00     0.167 HD
ATOM     63  C   UNL A   1      41.358  32.071  36.283  1.00  0.00     0.074 A 
ATOM     64  C   UNL A   1      42.316  31.944  37.360  1.00  0.00     0.031 C 
ATOM     65  C   UNL A   1      40.384  33.014  36.238  1.00  0.00     0.037 A 
BRANCH  52  66
ATOM     66  C   UNL A   1      36.934  32.854  31.110  1.00  0.00     0.058 A 
ATOM     67  C   UNL A   1      37.187  33.650  29.981  1.00  0.00     0.135 A 
ATOM     68  C   UNL A   1      35.594  32.616  31.456  1.00  0.00     0.135 A 
ATOM     69  F   UNL A   1      38.449  33.928  29.618  1.00  0.00    -0.206 F 
ATOM     70  C   UNL A   1      36.151  34.208  29.239  1.00  0.00     0.059 A 
ATOM     71  C   UNL A   1      34.541  33.137  30.710  1.00  0.00     0.059 A 
ATOM     72  F   UNL A   1      35.296  31.867  32.529  1.00  0.00    -0.206 F 
ATOM     73  C   UNL A   1      34.831  33.943  29.611  1.00  0.00     0.060 A 
BRANCH  73  74
ATOM     74  S   UNL A   1      33.500  34.671  28.634  1.00  0.00     0.124 S 
ATOM     75  O   UNL A   1      34.177  35.809  28.021  1.00  0.00    -0.237 OA
ATOM     76  O   UNL A   1      33.148  33.581  27.729  1.00  0.00    -0.237 OA
ATOM     77  O   UNL A   1      32.488  35.005  29.631  1.00  0.00    -0.744 OA
ENDBRANCH  73  74
ENDBRANCH  52  66
BRANCH  53  78
ATOM     78  C   UNL A   1      44.538  28.599  36.030  1.00  0.00     0.058 A 
ATOM     79  C   UNL A   1      44.368  27.556  36.953  1.00  0.00     0.135 A 
ATOM     80  C   UNL A   1      45.843  29.070  35.814  1.00  0.00     0.135 A 
ATOM     81  F   UNL A   1      43.140  27.081  37.208  1.00  0.00    -0.206 F 
ATOM     82  C   UNL A   1      45.445  27.009  37.644  1.00  0.00     0.059 A 
ATOM     83  C   UNL A   1      46.939  28.520  36.471  1.00  0.00     0.059 A 
ATOM     84  F   UNL A   1      46.063  30.062  34.938  1.00  0.00    -0.206 F 
ATOM     85  C   UNL A   1      46.728  27.495  37.392  1.00  0.00     0.060 A 
BRANCH  85  86
ATOM     86  S   UNL A   1      48.124  26.740  38.257  1.00  0.00     0.124 S 
ATOM     87  O   UNL A   1      47.449  25.769  39.111  1.00  0.00    -0.237 OA
ATOM     88  O   UNL A   1      48.902  26.187  37.153  1.00  0.00    -0.237 OA
ATOM     89  O   UNL A   1      48.741  27.868  38.948  1.00  0.00    -0.744 OA
ENDBRANCH  85  86
ENDBRANCH  53  78
BRANCH  65  90
ATOM     90  C   UNL A   1      40.232  33.944  37.411  1.00  0.00     0.058 A 
ATOM     91  C   UNL A   1      40.944  35.148  37.506  1.00  0.00     0.135 A 
ATOM     92  C   UNL A   1      39.256  33.680  38.388  1.00  0.00     0.135 A 
ATOM     93  F   UNL A   1      41.892  35.445  36.604  1.00  0.00    -0.206 F 
ATOM     94  C   UNL A   1      40.689  36.062  38.525  1.00  0.00     0.059 A 
ATOM     95  C   UNL A   1      38.966  34.590  39.398  1.00  0.00     0.059 A 
ATOM     96  F   UNL A   1      38.540  32.544  38.338  1.00  0.00    -0.206 F 
ATOM     97  C   UNL A   1      39.688  35.781  39.457  1.00  0.00     0.060 A 
BRANCH  97  98
ATOM     98  S   UNL A   1      39.304  37.018  40.716  1.00  0.00     0.124 S 
ATOM     99  O   UNL A   1      40.600  37.661  40.903  1.00  0.00    -0.237 OA
ATOM    100  O   UNL A   1      38.284  37.826  40.054  1.00  0.00    -0.237 OA
ATOM    101  O   UNL A   1      38.830  36.222  41.845  1.00  0.00    -0.744 OA
ENDBRANCH  97  98
ENDBRANCH  65  90
ENDBRANCH  39  40
ENDBRANCH  32  34
ENDBRANCH  31  32
ENDBRANCH  30  31
ENDBRANCH  29  30
ENDBRANCH  28  29
ENDBRANCH  27  28
ENDBRANCH   1  27
TORSDOF 25
ENDMDL
