MODEL 1
REMARK VINA RESULT:     -10.7      0.000      0.000
REMARK SMILES Cc1nn([C@H]2CCS(=O)(=O)C2)c(C)c1/C=C(\CC(=O)OCCOCCOCCOC(=O)c1ccc(-c2c3nc(c(-c4c(F)cc(S(=O)(=O)[O-])cc4F)c4ccc([nH]4)c(-c4c(F)cc(S(=O)(=O)[O-])cc4F)c4nc(c(-c5c(F)cc(S(=O)(=O)[O-])cc5F)c5ccc2[nH]5)C=C4)C=C3)cc1)c1nc2ccccc2s1
REMARK SMILES IDX 24 1 23 2 22 3 21 4 20 5 18 6 19 7 17 8 16 9 15 10 14 11
REMARK SMILES IDX 1 12 2 13 3 14 4 15 12 16 13 17 5 18 6 19 11 20 7 21 8 22
REMARK SMILES IDX 9 23 10 24 98 25 99 26 106 27 100 28 105 29 101 30 104 31
REMARK SMILES IDX 102 32 103 33 25 34 26 35 27 36 28 37 29 38 30 39 31 40
REMARK SMILES IDX 32 41 33 42 97 43 34 44 96 45 35 46 36 47 37 48 90 49 38 50
REMARK SMILES IDX 95 51 89 52 91 53 39 54 94 55 88 56 87 57 40 59 74 60 53 61
REMARK SMILES IDX 73 62 54 63 57 64 72 65 92 66 55 67 56 68 71 70 93 71 58 72
REMARK SMILES IDX 41 73 42 74 51 75 43 76 44 77 50 78 52 79 45 80 46 81 47 82
REMARK SMILES IDX 48 83 49 84 75 85 76 86 85 87 77 88 78 89 84 90 86 91 79 92
REMARK SMILES IDX 80 93 81 94 82 95 83 96 59 97 60 98 69 99 61 100 62 101
REMARK SMILES IDX 68 102 70 103 63 104 64 105 65 106 66 107 67 108
REMARK H PARENT 91 58 57 69
REMARK Flexibility Score: inf
ROOT
ATOM      1  C   UNL A   1      40.153  21.479  26.115  1.00  0.00     0.188 C 
ENDROOT
BRANCH   1   2
ATOM      2  O   UNL A   1      38.823  21.909  26.381  1.00  0.00    -0.376 OA
BRANCH   2   3
ATOM      3  C   UNL A   1      38.449  23.257  26.155  1.00  0.00     0.202 C 
BRANCH   3   4
ATOM      4  C   UNL A   1      37.235  23.524  25.242  1.00  0.00     0.261 C 
BRANCH   4   5
ATOM      5  O   UNL A   1      36.066  24.103  25.886  1.00  0.00    -0.463 OA
BRANCH   5   6
ATOM      6  C   UNL A   1      34.956  24.061  25.124  1.00  0.00     0.310 C 
ATOM      7  O   UNL A   1      34.868  24.649  24.043  1.00  0.00    -0.252 OA
BRANCH   6   8
ATOM      8  C   UNL A   1      33.726  23.280  25.616  1.00  0.00     0.161 C 
BRANCH   8   9
ATOM      9  C   UNL A   1      32.721  22.197  25.168  1.00  0.00    -0.000 C 
ATOM     10  C   UNL A   1      31.422  22.550  24.918  1.00  0.00     0.019 C 
BRANCH  10  11
ATOM     11  C   UNL A   1      30.824  23.805  25.264  1.00  0.00     0.019 A 
ATOM     12  C   UNL A   1      29.368  23.169  27.323  1.00  0.00     0.069 C 
ATOM     13  C   UNL A   1      30.056  24.114  26.407  1.00  0.00     0.067 A 
ATOM     14  N   UNL A   1      30.026  25.442  26.602  1.00  0.00    -0.177 NA
ATOM     15  N   UNL A   1      30.742  25.936  25.560  1.00  0.00    -0.265 N 
ATOM     16  C   UNL A   1      30.851  24.999  24.553  1.00  0.00     0.043 A 
ATOM     17  C   UNL A   1      31.135  25.277  23.112  1.00  0.00     0.067 C 
BRANCH  15  18
ATOM     18  C   UNL A   1      31.414  27.226  25.721  1.00  0.00     0.123 C 
ATOM     19  C   UNL A   1      31.254  27.796  27.154  1.00  0.00     0.044 C 
ATOM     20  C   UNL A   1      32.925  27.230  25.493  1.00  0.00     0.164 C 
ATOM     21  C   UNL A   1      32.149  29.026  27.280  1.00  0.00     0.139 C 
ATOM     22  S   UNL A   1      33.494  28.776  26.147  1.00  0.00     0.152 S 
ATOM     23  O   UNL A   1      33.400  29.767  25.100  1.00  0.00    -0.229 OA
ATOM     24  O   UNL A   1      34.713  28.569  26.904  1.00  0.00    -0.229 OA
ENDBRANCH  15  18
ENDBRANCH  10  11
BRANCH   9  25
ATOM     25  C   UNL A   1      33.142  20.877  24.685  1.00  0.00     0.121 A 
ATOM     26  N   UNL A   1      34.177  20.190  25.141  1.00  0.00    -0.236 NA
ATOM     27  S   UNL A   1      32.261  20.025  23.441  1.00  0.00    -0.114 S 
ATOM     28  C   UNL A   1      34.255  18.922  24.548  1.00  0.00     0.082 A 
ATOM     29  C   UNL A   1      33.257  18.635  23.620  1.00  0.00     0.055 A 
ATOM     30  C   UNL A   1      35.205  17.914  24.825  1.00  0.00     0.030 A 
ATOM     31  C   UNL A   1      33.160  17.373  22.998  1.00  0.00     0.021 A 
ATOM     32  C   UNL A   1      35.044  16.620  24.314  1.00  0.00     0.002 A 
ATOM     33  C   UNL A   1      34.029  16.354  23.406  1.00  0.00     0.002 A 
ENDBRANCH   9  25
ENDBRANCH   8   9
ENDBRANCH   6   8
ENDBRANCH   5   6
ENDBRANCH   4   5
ENDBRANCH   3   4
ENDBRANCH   2   3
ENDBRANCH   1   2
BRANCH   1  34
ATOM     34  C   UNL A   1      41.386  22.262  26.636  1.00  0.00     0.188 C 
BRANCH  34  35
ATOM     35  O   UNL A   1      42.623  21.790  26.151  1.00  0.00    -0.376 OA
BRANCH  35  36
ATOM     36  C   UNL A   1      43.623  22.715  25.795  1.00  0.00     0.202 C 
BRANCH  36  37
ATOM     37  C   UNL A   1      43.220  24.014  25.093  1.00  0.00     0.261 C 
BRANCH  37  38
ATOM     38  O   UNL A   1      43.171  25.165  25.926  1.00  0.00    -0.460 OA
BRANCH  38  39
ATOM     39  C   UNL A   1      42.270  26.072  25.497  1.00  0.00     0.338 C 
ATOM     40  O   UNL A   1      41.072  25.895  25.342  1.00  0.00    -0.246 OA
BRANCH  39  41
ATOM     41  C   UNL A   1      42.947  27.362  25.250  1.00  0.00     0.060 A 
ATOM     42  C   UNL A   1      44.145  27.486  25.958  1.00  0.00     0.016 A 
ATOM     43  C   UNL A   1      42.028  28.398  25.182  1.00  0.00     0.016 A 
ATOM     44  C   UNL A   1      44.140  28.336  27.032  1.00  0.00     0.010 A 
ATOM     45  C   UNL A   1      42.030  29.272  26.237  1.00  0.00     0.010 A 
ATOM     46  C   UNL A   1      42.999  29.109  27.234  1.00  0.00    -0.014 A 
BRANCH  46  47
ATOM     47  C   UNL A   1      42.859  29.813  28.495  1.00  0.00     0.031 A 
ATOM     48  C   UNL A   1      44.009  30.705  28.786  1.00  0.00     0.074 A 
ATOM     49  C   UNL A   1      41.696  29.729  29.177  1.00  0.00     0.049 A 
ATOM     50  N   UNL A   1      44.695  30.808  29.875  1.00  0.00    -0.248 NA
ATOM     51  C   UNL A   1      44.585  31.448  27.645  1.00  0.00     0.031 C 
ATOM     52  C   UNL A   1      40.487  28.977  28.805  1.00  0.00     0.029 A 
ATOM     53  N   UNL A   1      41.272  30.446  30.250  1.00  0.00    -0.354 N 
ATOM     54  C   UNL A   1      45.643  31.795  29.619  1.00  0.00     0.074 A 
ATOM     55  C   UNL A   1      45.659  32.004  28.198  1.00  0.00     0.031 C 
ATOM     56  C   UNL A   1      39.421  29.504  29.446  1.00  0.00     0.029 A 
ATOM     57  C   UNL A   1      39.885  30.544  30.344  1.00  0.00     0.049 A 
ATOM     58  H   UNL A   1      41.886  30.857  30.900  1.00  0.00     0.167 HD
ATOM     59  C   UNL A   1      46.180  32.553  30.610  1.00  0.00     0.037 A 
ATOM     60  C   UNL A   1      39.203  31.524  30.994  1.00  0.00     0.037 A 
ATOM     61  C   UNL A   1      46.023  31.936  31.896  1.00  0.00     0.049 A 
ATOM     62  C   UNL A   1      40.167  32.158  31.938  1.00  0.00     0.074 A 
ATOM     63  C   UNL A   1      46.488  30.762  32.455  1.00  0.00     0.029 A 
ATOM     64  N   UNL A   1      44.981  32.353  32.687  1.00  0.00    -0.354 N 
ATOM     65  N   UNL A   1      40.682  31.541  32.967  1.00  0.00    -0.248 NA
ATOM     66  C   UNL A   1      40.935  33.297  31.449  1.00  0.00     0.031 C 
ATOM     67  C   UNL A   1      45.420  30.292  33.268  1.00  0.00     0.029 A 
ATOM     68  C   UNL A   1      44.390  31.232  33.211  1.00  0.00     0.049 A 
ATOM     69  H   UNL A   1      44.710  33.286  32.849  1.00  0.00     0.167 HD
ATOM     70  C   UNL A   1      42.013  31.935  32.992  1.00  0.00     0.074 A 
ATOM     71  C   UNL A   1      42.096  33.064  32.069  1.00  0.00     0.031 C 
ATOM     72  C   UNL A   1      42.982  31.134  33.526  1.00  0.00     0.037 A 
BRANCH  59  73
ATOM     73  C   UNL A   1      46.534  34.002  30.430  1.00  0.00     0.058 A 
ATOM     74  C   UNL A   1      45.522  34.939  30.158  1.00  0.00     0.135 A 
ATOM     75  C   UNL A   1      47.861  34.459  30.251  1.00  0.00     0.135 A 
ATOM     76  F   UNL A   1      44.228  34.601  30.279  1.00  0.00    -0.206 F 
ATOM     77  C   UNL A   1      45.807  36.223  29.690  1.00  0.00     0.059 A 
ATOM     78  C   UNL A   1      48.168  35.749  29.844  1.00  0.00     0.059 A 
ATOM     79  F   UNL A   1      48.918  33.645  30.369  1.00  0.00    -0.206 F 
ATOM     80  C   UNL A   1      47.134  36.611  29.525  1.00  0.00     0.060 A 
BRANCH  80  81
ATOM     81  S   UNL A   1      47.503  38.225  28.819  1.00  0.00     0.124 S 
ATOM     82  O   UNL A   1      47.100  39.115  29.902  1.00  0.00    -0.237 OA
ATOM     83  O   UNL A   1      48.937  38.124  28.570  1.00  0.00    -0.237 OA
ATOM     84  O   UNL A   1      46.668  38.268  27.622  1.00  0.00    -0.744 OA
ENDBRANCH  80  81
ENDBRANCH  59  73
BRANCH  60  85
ATOM     85  C   UNL A   1      37.945  32.194  30.549  1.00  0.00     0.058 A 
ATOM     86  C   UNL A   1      37.957  33.181  29.547  1.00  0.00     0.135 A 
ATOM     87  C   UNL A   1      36.673  31.702  30.910  1.00  0.00     0.135 A 
ATOM     88  F   UNL A   1      39.121  33.690  29.117  1.00  0.00    -0.206 F 
ATOM     89  C   UNL A   1      36.785  33.625  28.917  1.00  0.00     0.059 A 
ATOM     90  C   UNL A   1      35.493  32.138  30.308  1.00  0.00     0.059 A 
ATOM     91  F   UNL A   1      36.536  30.708  31.799  1.00  0.00    -0.206 F 
ATOM     92  C   UNL A   1      35.556  33.082  29.293  1.00  0.00     0.060 A 
BRANCH  92  93
ATOM     93  S   UNL A   1      34.060  33.516  28.373  1.00  0.00     0.124 S 
ATOM     94  O   UNL A   1      33.620  32.217  27.880  1.00  0.00    -0.237 OA
ATOM     95  O   UNL A   1      33.228  34.123  29.407  1.00  0.00    -0.237 OA
ATOM     96  O   UNL A   1      34.547  34.440  27.351  1.00  0.00    -0.744 OA
ENDBRANCH  92  93
ENDBRANCH  60  85
BRANCH  72  97
ATOM     97  C   UNL A   1      42.557  29.920  34.310  1.00  0.00     0.058 A 
ATOM     98  C   UNL A   1      42.348  28.647  33.745  1.00  0.00     0.135 A 
ATOM     99  C   UNL A   1      42.554  30.007  35.709  1.00  0.00     0.135 A 
ATOM    100  F   UNL A   1      42.444  28.459  32.422  1.00  0.00    -0.206 F 
ATOM    101  C   UNL A   1      42.113  27.521  34.536  1.00  0.00     0.059 A 
ATOM    102  C   UNL A   1      42.353  28.893  36.517  1.00  0.00     0.059 A 
ATOM    103  F   UNL A   1      42.813  31.181  36.308  1.00  0.00    -0.206 F 
ATOM    104  C   UNL A   1      42.123  27.654  35.925  1.00  0.00     0.060 A 
BRANCH 104 105
ATOM    105  S   UNL A   1      41.913  26.183  36.950  1.00  0.00     0.124 S 
ATOM    106  O   UNL A   1      42.983  26.336  37.929  1.00  0.00    -0.237 OA
ATOM    107  O   UNL A   1      40.555  26.345  37.465  1.00  0.00    -0.237 OA
ATOM    108  O   UNL A   1      42.084  25.081  36.005  1.00  0.00    -0.744 OA
ENDBRANCH 104 105
ENDBRANCH  72  97
ENDBRANCH  46  47
ENDBRANCH  39  41
ENDBRANCH  38  39
ENDBRANCH  37  38
ENDBRANCH  36  37
ENDBRANCH  35  36
ENDBRANCH  34  35
ENDBRANCH   1  34
TORSDOF 24
ENDMDL
MODEL 2
REMARK VINA RESULT:     -10.5      4.562      9.653
REMARK SMILES Cc1nn([C@H]2CCS(=O)(=O)C2)c(C)c1/C=C(\CC(=O)OCCOCCOCCOC(=O)c1ccc(-c2c3nc(c(-c4c(F)cc(S(=O)(=O)[O-])cc4F)c4ccc([nH]4)c(-c4c(F)cc(S(=O)(=O)[O-])cc4F)c4nc(c(-c5c(F)cc(S(=O)(=O)[O-])cc5F)c5ccc2[nH]5)C=C4)C=C3)cc1)c1nc2ccccc2s1
REMARK SMILES IDX 24 1 23 2 22 3 21 4 20 5 18 6 19 7 17 8 16 9 15 10 14 11
REMARK SMILES IDX 1 12 2 13 3 14 4 15 12 16 13 17 5 18 6 19 11 20 7 21 8 22
REMARK SMILES IDX 9 23 10 24 98 25 99 26 106 27 100 28 105 29 101 30 104 31
REMARK SMILES IDX 102 32 103 33 25 34 26 35 27 36 28 37 29 38 30 39 31 40
REMARK SMILES IDX 32 41 33 42 97 43 34 44 96 45 35 46 36 47 37 48 90 49 38 50
REMARK SMILES IDX 95 51 89 52 91 53 39 54 94 55 88 56 87 57 40 59 74 60 53 61
REMARK SMILES IDX 73 62 54 63 57 64 72 65 92 66 55 67 56 68 71 70 93 71 58 72
REMARK SMILES IDX 41 73 42 74 51 75 43 76 44 77 50 78 52 79 45 80 46 81 47 82
REMARK SMILES IDX 48 83 49 84 75 85 76 86 85 87 77 88 78 89 84 90 86 91 79 92
REMARK SMILES IDX 80 93 81 94 82 95 83 96 59 97 60 98 69 99 61 100 62 101
REMARK SMILES IDX 68 102 70 103 63 104 64 105 65 106 66 107 67 108
REMARK H PARENT 91 58 57 69
REMARK Flexibility Score: inf
ROOT
ATOM      1  C   UNL A   1      39.599  20.953  25.499  1.00  0.00     0.188 C 
ENDROOT
BRANCH   1   2
ATOM      2  O   UNL A   1      38.280  21.458  25.673  1.00  0.00    -0.376 OA
BRANCH   2   3
ATOM      3  C   UNL A   1      38.068  22.843  25.887  1.00  0.00     0.202 C 
BRANCH   3   4
ATOM      4  C   UNL A   1      36.938  23.529  25.092  1.00  0.00     0.261 C 
BRANCH   4   5
ATOM      5  O   UNL A   1      35.909  24.188  25.882  1.00  0.00    -0.463 OA
BRANCH   5   6
ATOM      6  C   UNL A   1      34.681  24.114  25.333  1.00  0.00     0.310 C 
ATOM      7  O   UNL A   1      34.350  24.783  24.350  1.00  0.00    -0.252 OA
BRANCH   6   8
ATOM      8  C   UNL A   1      33.623  23.192  25.961  1.00  0.00     0.161 C 
BRANCH   8   9
ATOM      9  C   UNL A   1      32.632  22.064  25.599  1.00  0.00    -0.000 C 
ATOM     10  C   UNL A   1      31.375  22.388  25.166  1.00  0.00     0.019 C 
BRANCH  10  11
ATOM     11  C   UNL A   1      30.784  23.692  25.242  1.00  0.00     0.019 A 
ATOM     12  C   UNL A   1      29.252  23.480  27.333  1.00  0.00     0.069 C 
ATOM     13  C   UNL A   1      29.984  24.223  26.275  1.00  0.00     0.067 A 
ATOM     14  N   UNL A   1      29.968  25.564  26.208  1.00  0.00    -0.177 NA
ATOM     15  N   UNL A   1      30.725  25.840  25.116  1.00  0.00    -0.265 N 
ATOM     16  C   UNL A   1      30.853  24.725  24.314  1.00  0.00     0.043 A 
ATOM     17  C   UNL A   1      31.189  24.716  22.858  1.00  0.00     0.067 C 
BRANCH  15  18
ATOM     18  C   UNL A   1      31.411  27.132  25.048  1.00  0.00     0.123 C 
ATOM     19  C   UNL A   1      30.532  28.228  24.391  1.00  0.00     0.044 C 
ATOM     20  C   UNL A   1      31.822  27.746  26.385  1.00  0.00     0.164 C 
ATOM     21  C   UNL A   1      31.246  29.568  24.549  1.00  0.00     0.139 C 
ATOM     22  S   UNL A   1      32.231  29.431  26.021  1.00  0.00     0.152 S 
ATOM     23  O   UNL A   1      33.625  29.482  25.645  1.00  0.00    -0.229 OA
ATOM     24  O   UNL A   1      31.676  30.302  27.040  1.00  0.00    -0.229 OA
ENDBRANCH  15  18
ENDBRANCH  10  11
BRANCH   9  25
ATOM     25  C   UNL A   1      33.058  20.676  25.382  1.00  0.00     0.121 A 
ATOM     26  N   UNL A   1      32.283  19.611  25.505  1.00  0.00    -0.236 NA
ATOM     27  S   UNL A   1      34.681  20.276  24.877  1.00  0.00    -0.114 S 
ATOM     28  C   UNL A   1      32.955  18.439  25.130  1.00  0.00     0.082 A 
ATOM     29  C   UNL A   1      34.272  18.615  24.711  1.00  0.00     0.055 A 
ATOM     30  C   UNL A   1      32.424  17.131  25.100  1.00  0.00     0.030 A 
ATOM     31  C   UNL A   1      35.050  17.540  24.233  1.00  0.00     0.021 A 
ATOM     32  C   UNL A   1      33.140  16.082  24.507  1.00  0.00     0.002 A 
ATOM     33  C   UNL A   1      34.444  16.288  24.078  1.00  0.00     0.002 A 
ENDBRANCH   9  25
ENDBRANCH   8   9
ENDBRANCH   6   8
ENDBRANCH   5   6
ENDBRANCH   4   5
ENDBRANCH   3   4
ENDBRANCH   2   3
ENDBRANCH   1   2
BRANCH   1  34
ATOM     34  C   UNL A   1      40.069  19.640  26.176  1.00  0.00     0.188 C 
BRANCH  34  35
ATOM     35  O   UNL A   1      41.032  19.820  27.191  1.00  0.00    -0.376 OA
BRANCH  35  36
ATOM     36  C   UNL A   1      41.193  21.094  27.770  1.00  0.00     0.202 C 
BRANCH  36  37
ATOM     37  C   UNL A   1      42.501  21.854  27.542  1.00  0.00     0.261 C 
BRANCH  37  38
ATOM     38  O   UNL A   1      42.691  22.357  26.226  1.00  0.00    -0.460 OA
BRANCH  38  39
ATOM     39  C   UNL A   1      43.616  21.659  25.537  1.00  0.00     0.338 C 
ATOM     40  O   UNL A   1      43.822  20.457  25.602  1.00  0.00    -0.246 OA
BRANCH  39  41
ATOM     41  C   UNL A   1      44.362  22.572  24.647  1.00  0.00     0.060 A 
ATOM     42  C   UNL A   1      45.746  22.474  24.812  1.00  0.00     0.016 A 
ATOM     43  C   UNL A   1      43.722  23.799  24.547  1.00  0.00     0.016 A 
ATOM     44  C   UNL A   1      46.363  23.511  25.461  1.00  0.00     0.010 A 
ATOM     45  C   UNL A   1      44.342  24.850  25.169  1.00  0.00     0.010 A 
ATOM     46  C   UNL A   1      45.590  24.630  25.765  1.00  0.00    -0.014 A 
BRANCH  46  47
ATOM     47  C   UNL A   1      46.138  25.618  26.674  1.00  0.00     0.031 A 
ATOM     48  C   UNL A   1      45.591  25.498  28.049  1.00  0.00     0.074 A 
ATOM     49  C   UNL A   1      47.153  26.408  26.263  1.00  0.00     0.049 A 
ATOM     50  N   UNL A   1      45.116  26.426  28.812  1.00  0.00    -0.248 NA
ATOM     51  C   UNL A   1      45.378  24.131  28.568  1.00  0.00     0.031 C 
ATOM     52  C   UNL A   1      47.813  26.414  24.948  1.00  0.00     0.029 A 
ATOM     53  N   UNL A   1      47.943  27.244  26.987  1.00  0.00    -0.354 N 
ATOM     54  C   UNL A   1      44.756  25.781  29.993  1.00  0.00     0.074 A 
ATOM     55  C   UNL A   1      44.751  24.371  29.716  1.00  0.00     0.031 C 
ATOM     56  C   UNL A   1      49.040  26.965  25.070  1.00  0.00     0.029 A 
ATOM     57  C   UNL A   1      49.203  27.445  26.429  1.00  0.00     0.049 A 
ATOM     58  H   UNL A   1      47.651  27.668  27.826  1.00  0.00     0.167 HD
ATOM     59  C   UNL A   1      44.724  26.428  31.186  1.00  0.00     0.037 A 
ATOM     60  C   UNL A   1      50.318  27.826  27.108  1.00  0.00     0.037 A 
ATOM     61  C   UNL A   1      44.643  27.851  31.017  1.00  0.00     0.049 A 
ATOM     62  C   UNL A   1      49.851  28.423  28.391  1.00  0.00     0.074 A 
ATOM     63  C   UNL A   1      43.702  28.695  30.463  1.00  0.00     0.029 A 
ATOM     64  N   UNL A   1      45.806  28.576  31.109  1.00  0.00    -0.354 N 
ATOM     65  N   UNL A   1      49.168  29.534  28.464  1.00  0.00    -0.248 NA
ATOM     66  C   UNL A   1      49.706  27.529  29.534  1.00  0.00     0.031 C 
ATOM     67  C   UNL A   1      44.455  29.719  29.825  1.00  0.00     0.029 A 
ATOM     68  C   UNL A   1      45.807  29.480  30.077  1.00  0.00     0.049 A 
ATOM     69  H   UNL A   1      46.508  28.468  31.792  1.00  0.00     0.167 HD
ATOM     70  C   UNL A   1      48.204  29.298  29.436  1.00  0.00     0.074 A 
ATOM     71  C   UNL A   1      48.623  28.068  30.102  1.00  0.00     0.031 C 
ATOM     72  C   UNL A   1      47.005  29.952  29.419  1.00  0.00     0.037 A 
BRANCH  59  73
ATOM     73  C   UNL A   1      45.111  25.773  32.482  1.00  0.00     0.058 A 
ATOM     74  C   UNL A   1      44.227  25.810  33.574  1.00  0.00     0.135 A 
ATOM     75  C   UNL A   1      46.428  25.344  32.768  1.00  0.00     0.135 A 
ATOM     76  F   UNL A   1      42.960  26.221  33.413  1.00  0.00    -0.206 F 
ATOM     77  C   UNL A   1      44.638  25.494  34.870  1.00  0.00     0.059 A 
ATOM     78  C   UNL A   1      46.842  24.968  34.038  1.00  0.00     0.059 A 
ATOM     79  F   UNL A   1      47.402  25.362  31.849  1.00  0.00    -0.206 F 
ATOM     80  C   UNL A   1      45.951  25.087  35.091  1.00  0.00     0.060 A 
BRANCH  80  81
ATOM     81  S   UNL A   1      46.514  24.785  36.773  1.00  0.00     0.124 S 
ATOM     82  O   UNL A   1      47.962  24.796  36.602  1.00  0.00    -0.237 OA
ATOM     83  O   UNL A   1      45.943  25.920  37.491  1.00  0.00    -0.237 OA
ATOM     84  O   UNL A   1      45.926  23.488  37.097  1.00  0.00    -0.744 OA
ENDBRANCH  80  81
ENDBRANCH  59  73
BRANCH  60  85
ATOM     85  C   UNL A   1      51.710  27.327  26.906  1.00  0.00     0.058 A 
ATOM     86  C   UNL A   1      52.000  25.950  26.890  1.00  0.00     0.135 A 
ATOM     87  C   UNL A   1      52.749  28.176  26.467  1.00  0.00     0.135 A 
ATOM     88  F   UNL A   1      51.066  25.062  27.263  1.00  0.00    -0.206 F 
ATOM     89  C   UNL A   1      53.226  25.446  26.433  1.00  0.00     0.059 A 
ATOM     90  C   UNL A   1      53.981  27.700  26.022  1.00  0.00     0.059 A 
ATOM     91  F   UNL A   1      52.570  29.501  26.367  1.00  0.00    -0.206 F 
ATOM     92  C   UNL A   1      54.206  26.330  25.983  1.00  0.00     0.060 A 
BRANCH  92  93
ATOM     93  S   UNL A   1      55.722  25.689  25.232  1.00  0.00     0.124 S 
ATOM     94  O   UNL A   1      55.649  26.240  23.885  1.00  0.00    -0.237 OA
ATOM     95  O   UNL A   1      56.756  26.249  26.097  1.00  0.00    -0.237 OA
ATOM     96  O   UNL A   1      55.558  24.240  25.323  1.00  0.00    -0.744 OA
ENDBRANCH  92  93
ENDBRANCH  60  85
BRANCH  72  97
ATOM     97  C   UNL A   1      46.832  31.112  28.474  1.00  0.00     0.058 A 
ATOM     98  C   UNL A   1      46.445  30.985  27.127  1.00  0.00     0.135 A 
ATOM     99  C   UNL A   1      46.872  32.408  29.009  1.00  0.00     0.135 A 
ATOM    100  F   UNL A   1      46.278  29.776  26.573  1.00  0.00    -0.206 F 
ATOM    101  C   UNL A   1      46.144  32.097  26.340  1.00  0.00     0.059 A 
ATOM    102  C   UNL A   1      46.545  33.528  28.252  1.00  0.00     0.059 A 
ATOM    103  F   UNL A   1      47.169  32.590  30.306  1.00  0.00    -0.206 F 
ATOM    104  C   UNL A   1      46.192  33.367  26.915  1.00  0.00     0.060 A 
BRANCH 104 105
ATOM    105  S   UNL A   1      45.712  34.799  25.925  1.00  0.00     0.124 S 
ATOM    106  O   UNL A   1      44.528  35.277  26.630  1.00  0.00    -0.237 OA
ATOM    107  O   UNL A   1      46.891  35.657  26.013  1.00  0.00    -0.237 OA
ATOM    108  O   UNL A   1      45.464  34.232  24.601  1.00  0.00    -0.744 OA
ENDBRANCH 104 105
ENDBRANCH  72  97
ENDBRANCH  46  47
ENDBRANCH  39  41
ENDBRANCH  38  39
ENDBRANCH  37  38
ENDBRANCH  36  37
ENDBRANCH  35  36
ENDBRANCH  34  35
ENDBRANCH   1  34
TORSDOF 24
ENDMDL
MODEL 3
REMARK VINA RESULT:     -10.3      1.926      2.803
REMARK SMILES Cc1nn([C@H]2CCS(=O)(=O)C2)c(C)c1/C=C(\CC(=O)OCCOCCOCCOC(=O)c1ccc(-c2c3nc(c(-c4c(F)cc(S(=O)(=O)[O-])cc4F)c4ccc([nH]4)c(-c4c(F)cc(S(=O)(=O)[O-])cc4F)c4nc(c(-c5c(F)cc(S(=O)(=O)[O-])cc5F)c5ccc2[nH]5)C=C4)C=C3)cc1)c1nc2ccccc2s1
REMARK SMILES IDX 24 1 23 2 22 3 21 4 20 5 18 6 19 7 17 8 16 9 15 10 14 11
REMARK SMILES IDX 1 12 2 13 3 14 4 15 12 16 13 17 5 18 6 19 11 20 7 21 8 22
REMARK SMILES IDX 9 23 10 24 98 25 99 26 106 27 100 28 105 29 101 30 104 31
REMARK SMILES IDX 102 32 103 33 25 34 26 35 27 36 28 37 29 38 30 39 31 40
REMARK SMILES IDX 32 41 33 42 97 43 34 44 96 45 35 46 36 47 37 48 90 49 38 50
REMARK SMILES IDX 95 51 89 52 91 53 39 54 94 55 88 56 87 57 40 59 74 60 53 61
REMARK SMILES IDX 73 62 54 63 57 64 72 65 92 66 55 67 56 68 71 70 93 71 58 72
REMARK SMILES IDX 41 73 42 74 51 75 43 76 44 77 50 78 52 79 45 80 46 81 47 82
REMARK SMILES IDX 48 83 49 84 75 85 76 86 85 87 77 88 78 89 84 90 86 91 79 92
REMARK SMILES IDX 80 93 81 94 82 95 83 96 59 97 60 98 69 99 61 100 62 101
REMARK SMILES IDX 68 102 70 103 63 104 64 105 65 106 66 107 67 108
REMARK H PARENT 91 58 57 69
REMARK Flexibility Score: inf
ROOT
ATOM      1  C   UNL A   1      39.290  20.793  25.471  1.00  0.00     0.188 C 
ENDROOT
BRANCH   1   2
ATOM      2  O   UNL A   1      37.960  21.287  25.359  1.00  0.00    -0.376 OA
BRANCH   2   3
ATOM      3  C   UNL A   1      37.572  22.459  26.055  1.00  0.00     0.202 C 
BRANCH   3   4
ATOM      4  C   UNL A   1      37.148  23.685  25.221  1.00  0.00     0.261 C 
BRANCH   4   5
ATOM      5  O   UNL A   1      35.852  24.262  25.545  1.00  0.00    -0.463 OA
BRANCH   5   6
ATOM      6  C   UNL A   1      34.826  23.681  24.893  1.00  0.00     0.310 C 
ATOM      7  O   UNL A   1      34.725  23.698  23.664  1.00  0.00    -0.252 OA
BRANCH   6   8
ATOM      8  C   UNL A   1      33.710  22.992  25.695  1.00  0.00     0.161 C 
BRANCH   8   9
ATOM      9  C   UNL A   1      32.692  21.834  25.604  1.00  0.00    -0.000 C 
ATOM     10  C   UNL A   1      31.369  22.119  25.401  1.00  0.00     0.019 C 
BRANCH  10  11
ATOM     11  C   UNL A   1      30.777  23.420  25.505  1.00  0.00     0.019 A 
ATOM     12  C   UNL A   1      29.131  23.118  27.496  1.00  0.00     0.069 C 
ATOM     13  C   UNL A   1      29.921  23.906  26.516  1.00  0.00     0.067 A 
ATOM     14  N   UNL A   1      29.911  25.249  26.511  1.00  0.00    -0.177 NA
ATOM     15  N   UNL A   1      30.728  25.572  25.477  1.00  0.00    -0.265 N 
ATOM     16  C   UNL A   1      30.898  24.495  24.632  1.00  0.00     0.043 A 
ATOM     17  C   UNL A   1      31.314  24.552  23.197  1.00  0.00     0.067 C 
BRANCH  15  18
ATOM     18  C   UNL A   1      31.418  26.863  25.507  1.00  0.00     0.123 C 
ATOM     19  C   UNL A   1      31.087  27.676  26.785  1.00  0.00     0.044 C 
ATOM     20  C   UNL A   1      32.946  26.809  25.494  1.00  0.00     0.164 C 
ATOM     21  C   UNL A   1      32.000  28.898  26.822  1.00  0.00     0.139 C 
ATOM     22  S   UNL A   1      33.476  28.437  25.947  1.00  0.00     0.152 S 
ATOM     23  O   UNL A   1      33.561  29.232  24.743  1.00  0.00    -0.229 OA
ATOM     24  O   UNL A   1      34.574  28.351  26.891  1.00  0.00    -0.229 OA
ENDBRANCH  15  18
ENDBRANCH  10  11
BRANCH   9  25
ATOM     25  C   UNL A   1      33.097  20.439  25.399  1.00  0.00     0.121 A 
ATOM     26  N   UNL A   1      32.361  19.379  25.691  1.00  0.00    -0.236 NA
ATOM     27  S   UNL A   1      34.632  20.018  24.680  1.00  0.00    -0.114 S 
ATOM     28  C   UNL A   1      32.984  18.191  25.283  1.00  0.00     0.082 A 
ATOM     29  C   UNL A   1      34.222  18.349  24.664  1.00  0.00     0.055 A 
ATOM     30  C   UNL A   1      32.469  16.881  25.400  1.00  0.00     0.030 A 
ATOM     31  C   UNL A   1      34.933  17.253  24.132  1.00  0.00     0.021 A 
ATOM     32  C   UNL A   1      33.101  15.805  24.763  1.00  0.00     0.002 A 
ATOM     33  C   UNL A   1      34.325  15.992  24.136  1.00  0.00     0.002 A 
ENDBRANCH   9  25
ENDBRANCH   8   9
ENDBRANCH   6   8
ENDBRANCH   5   6
ENDBRANCH   4   5
ENDBRANCH   3   4
ENDBRANCH   2   3
ENDBRANCH   1   2
BRANCH   1  34
ATOM     34  C   UNL A   1      40.262  21.301  26.568  1.00  0.00     0.188 C 
BRANCH  34  35
ATOM     35  O   UNL A   1      40.876  22.536  26.274  1.00  0.00    -0.376 OA
BRANCH  35  36
ATOM     36  C   UNL A   1      42.257  22.691  26.501  1.00  0.00     0.202 C 
BRANCH  36  37
ATOM     37  C   UNL A   1      42.985  23.883  25.877  1.00  0.00     0.261 C 
BRANCH  37  38
ATOM     38  O   UNL A   1      43.090  25.034  26.706  1.00  0.00    -0.460 OA
BRANCH  38  39
ATOM     39  C   UNL A   1      42.165  25.968  26.407  1.00  0.00     0.338 C 
ATOM     40  O   UNL A   1      40.972  25.925  26.666  1.00  0.00    -0.246 OA
BRANCH  39  41
ATOM     41  C   UNL A   1      42.814  27.103  25.718  1.00  0.00     0.060 A 
ATOM     42  C   UNL A   1      44.109  27.345  26.181  1.00  0.00     0.016 A 
ATOM     43  C   UNL A   1      41.910  28.133  25.502  1.00  0.00     0.016 A 
ATOM     44  C   UNL A   1      44.285  28.452  26.968  1.00  0.00     0.010 A 
ATOM     45  C   UNL A   1      42.090  29.257  26.263  1.00  0.00     0.010 A 
ATOM     46  C   UNL A   1      43.201  29.315  27.114  1.00  0.00    -0.014 A 
BRANCH  46  47
ATOM     47  C   UNL A   1      43.270  30.340  28.139  1.00  0.00     0.031 A 
ATOM     48  C   UNL A   1      44.073  31.517  27.720  1.00  0.00     0.074 A 
ATOM     49  C   UNL A   1      42.515  30.219  29.252  1.00  0.00     0.049 A 
ATOM     50  N   UNL A   1      45.010  32.125  28.367  1.00  0.00    -0.248 NA
ATOM     51  C   UNL A   1      43.932  31.958  26.316  1.00  0.00     0.031 C 
ATOM     52  C   UNL A   1      41.586  29.130  29.594  1.00  0.00     0.029 A 
ATOM     53  N   UNL A   1      42.266  31.129  30.228  1.00  0.00    -0.354 N 
ATOM     54  C   UNL A   1      45.417  33.164  27.533  1.00  0.00     0.074 A 
ATOM     55  C   UNL A   1      44.872  32.895  26.231  1.00  0.00     0.031 C 
ATOM     56  C   UNL A   1      40.692  29.578  30.502  1.00  0.00     0.029 A 
ATOM     57  C   UNL A   1      41.051  30.931  30.881  1.00  0.00     0.049 A 
ATOM     58  H   UNL A   1      42.886  31.859  30.455  1.00  0.00     0.167 HD
ATOM     59  C   UNL A   1      45.967  34.305  28.020  1.00  0.00     0.037 A 
ATOM     60  C   UNL A   1      40.343  31.886  31.541  1.00  0.00     0.037 A 
ATOM     61  C   UNL A   1      46.481  34.123  29.348  1.00  0.00     0.049 A 
ATOM     62  C   UNL A   1      41.293  32.996  31.831  1.00  0.00     0.074 A 
ATOM     63  C   UNL A   1      47.480  33.336  29.886  1.00  0.00     0.029 A 
ATOM     64  N   UNL A   1      45.697  34.525  30.402  1.00  0.00    -0.354 N 
ATOM     65  N   UNL A   1      42.307  32.884  32.647  1.00  0.00    -0.248 NA
ATOM     66  C   UNL A   1      41.410  34.057  30.838  1.00  0.00     0.031 C 
ATOM     67  C   UNL A   1      46.984  32.926  31.155  1.00  0.00     0.029 A 
ATOM     68  C   UNL A   1      45.742  33.532  31.348  1.00  0.00     0.049 A 
ATOM     69  H   UNL A   1      45.197  35.371  30.467  1.00  0.00     0.167 HD
ATOM     70  C   UNL A   1      43.346  33.560  32.020  1.00  0.00     0.074 A 
ATOM     71  C   UNL A   1      42.717  34.313  30.938  1.00  0.00     0.031 C 
ATOM     72  C   UNL A   1      44.651  33.222  32.244  1.00  0.00     0.037 A 
BRANCH  59  73
ATOM     73  C   UNL A   1      45.721  35.656  27.411  1.00  0.00     0.058 A 
ATOM     74  C   UNL A   1      46.809  36.442  26.994  1.00  0.00     0.135 A 
ATOM     75  C   UNL A   1      44.471  36.316  27.469  1.00  0.00     0.135 A 
ATOM     76  F   UNL A   1      48.043  35.917  26.923  1.00  0.00    -0.206 F 
ATOM     77  C   UNL A   1      46.674  37.801  26.706  1.00  0.00     0.059 A 
ATOM     78  C   UNL A   1      44.303  37.651  27.131  1.00  0.00     0.059 A 
ATOM     79  F   UNL A   1      43.372  35.722  27.952  1.00  0.00    -0.206 F 
ATOM     80  C   UNL A   1      45.418  38.396  26.790  1.00  0.00     0.060 A 
BRANCH  80  81
ATOM     81  S   UNL A   1      45.259  40.169  26.526  1.00  0.00     0.124 S 
ATOM     82  O   UNL A   1      46.296  40.689  27.411  1.00  0.00    -0.237 OA
ATOM     83  O   UNL A   1      45.518  40.286  25.095  1.00  0.00    -0.237 OA
ATOM     84  O   UNL A   1      43.884  40.448  26.933  1.00  0.00    -0.744 OA
ENDBRANCH  80  81
ENDBRANCH  59  73
BRANCH  60  85
ATOM     85  C   UNL A   1      38.861  32.066  31.545  1.00  0.00     0.058 A 
ATOM     86  C   UNL A   1      38.145  32.226  32.746  1.00  0.00     0.135 A 
ATOM     87  C   UNL A   1      38.142  32.344  30.362  1.00  0.00     0.135 A 
ATOM     88  F   UNL A   1      38.752  32.013  33.923  1.00  0.00    -0.206 F 
ATOM     89  C   UNL A   1      36.816  32.670  32.774  1.00  0.00     0.059 A 
ATOM     90  C   UNL A   1      36.815  32.772  30.364  1.00  0.00     0.059 A 
ATOM     91  F   UNL A   1      38.733  32.299  29.160  1.00  0.00    -0.206 F 
ATOM     92  C   UNL A   1      36.163  32.958  31.576  1.00  0.00     0.060 A 
BRANCH  92  93
ATOM     93  S   UNL A   1      34.510  33.693  31.604  1.00  0.00     0.124 S 
ATOM     94  O   UNL A   1      34.186  33.764  30.185  1.00  0.00    -0.237 OA
ATOM     95  O   UNL A   1      33.753  32.719  32.385  1.00  0.00    -0.237 OA
ATOM     96  O   UNL A   1      34.723  34.980  32.261  1.00  0.00    -0.744 OA
ENDBRANCH  92  93
ENDBRANCH  60  85
BRANCH  72  97
ATOM     97  C   UNL A   1      44.962  32.267  33.367  1.00  0.00     0.058 A 
ATOM     98  C   UNL A   1      45.126  32.653  34.710  1.00  0.00     0.135 A 
ATOM     99  C   UNL A   1      44.897  30.892  33.100  1.00  0.00     0.135 A 
ATOM    100  F   UNL A   1      45.089  33.946  35.063  1.00  0.00    -0.206 F 
ATOM    101  C   UNL A   1      45.254  31.714  35.735  1.00  0.00     0.059 A 
ATOM    102  C   UNL A   1      44.990  29.939  34.109  1.00  0.00     0.059 A 
ATOM    103  F   UNL A   1      44.676  30.462  31.847  1.00  0.00    -0.206 F 
ATOM    104  C   UNL A   1      45.178  30.356  35.424  1.00  0.00     0.060 A 
BRANCH 104 105
ATOM    105  S   UNL A   1      45.248  29.143  36.759  1.00  0.00     0.124 S 
ATOM    106  O   UNL A   1      43.853  29.064  37.176  1.00  0.00    -0.237 OA
ATOM    107  O   UNL A   1      45.776  27.959  36.085  1.00  0.00    -0.237 OA
ATOM    108  O   UNL A   1      46.156  29.753  37.728  1.00  0.00    -0.744 OA
ENDBRANCH 104 105
ENDBRANCH  72  97
ENDBRANCH  46  47
ENDBRANCH  39  41
ENDBRANCH  38  39
ENDBRANCH  37  38
ENDBRANCH  36  37
ENDBRANCH  35  36
ENDBRANCH  34  35
ENDBRANCH   1  34
TORSDOF 24
ENDMDL
