MODEL 1
REMARK VINA RESULT:     -10.7      0.000      0.000
REMARK SMILES CC1(C)[C@H](C(=O)Nc2cccc3[nH]ccc23)[C@H]1C(=O)OCCOCCOCCOC(=O)c1ccc(-c2c3nc(c(-c4c(F)cc(S(=O)(=O)[O-])cc4F)c4ccc([nH]4)c(-c4c(F)cc(S(=O)(=O)[O-])cc4F)c4nc(c(-c5c(F)cc(S(=O)(=O)[O-])cc5F)c5ccc2[nH]5)C=C4)C=C3)cc1
REMARK SMILES IDX 25 1 24 2 23 3 22 4 21 5 20 6 18 7 19 8 17 9 1 10 2 11 3 12
REMARK SMILES IDX 4 13 5 14 6 15 7 16 8 18 9 19 16 20 10 21 12 22 15 23 11 24
REMARK SMILES IDX 13 25 14 26 26 28 27 29 28 30 29 31 30 32 31 33 32 34 33 35
REMARK SMILES IDX 97 36 34 37 96 38 35 39 36 40 37 41 90 42 38 43 95 44 89 45
REMARK SMILES IDX 91 46 39 47 94 48 88 49 87 50 40 52 74 53 53 54 73 55 54 56
REMARK SMILES IDX 57 57 72 58 92 59 55 60 56 61 71 63 93 64 58 65 41 66 42 67
REMARK SMILES IDX 51 68 43 69 44 70 50 71 52 72 45 73 46 74 47 75 48 76 49 77
REMARK SMILES IDX 75 78 76 79 85 80 77 81 78 82 84 83 86 84 79 85 80 86 81 87
REMARK SMILES IDX 82 88 83 89 59 90 60 91 69 92 61 93 62 94 68 95 70 96 63 97
REMARK SMILES IDX 64 98 65 99 66 100 67 101
REMARK H PARENT 7 17 13 27 91 51 57 62
REMARK Flexibility Score: inf
ROOT
ATOM      1  C   UNL A   1      39.923  21.977  26.776  1.00  0.00     0.188 C 
ENDROOT
BRANCH   1   2
ATOM      2  C   UNL A   1      38.887  21.405  25.788  1.00  0.00     0.188 C 
BRANCH   2   3
ATOM      3  O   UNL A   1      37.958  22.298  25.176  1.00  0.00    -0.376 OA
BRANCH   3   4
ATOM      4  C   UNL A   1      37.613  23.506  25.856  1.00  0.00     0.202 C 
BRANCH   4   5
ATOM      5  C   UNL A   1      36.206  24.057  25.605  1.00  0.00     0.261 C 
BRANCH   5   6
ATOM      6  O   UNL A   1      35.352  23.037  25.072  1.00  0.00    -0.463 OA
BRANCH   6   7
ATOM      7  C   UNL A   1      34.803  23.304  23.860  1.00  0.00     0.310 C 
ATOM      8  O   UNL A   1      35.322  23.119  22.778  1.00  0.00    -0.252 OA
BRANCH   7   9
ATOM      9  C   UNL A   1      33.387  23.731  23.988  1.00  0.00     0.118 C 
ATOM     10  C   UNL A   1      32.358  21.298  23.903  1.00  0.00     0.013 C 
ATOM     11  C   UNL A   1      32.181  22.793  24.012  1.00  0.00    -0.009 C 
ATOM     12  C   UNL A   1      30.924  23.267  23.320  1.00  0.00     0.013 C 
ATOM     13  C   UNL A   1      32.686  23.458  25.297  1.00  0.00     0.100 C 
BRANCH  13  14
ATOM     14  C   UNL A   1      31.954  24.511  26.061  1.00  0.00     0.228 C 
ATOM     15  O   UNL A   1      31.287  24.178  27.035  1.00  0.00    -0.274 OA
ATOM     16  N   UNL A   1      32.243  25.819  25.754  1.00  0.00    -0.325 N 
ATOM     17  H   UNL A   1      33.032  26.222  26.182  1.00  0.00     0.169 HD
BRANCH  16  18
ATOM     18  C   UNL A   1      31.496  26.625  24.872  1.00  0.00     0.050 A 
ATOM     19  C   UNL A   1      30.106  26.495  24.756  1.00  0.00     0.027 A 
ATOM     20  C   UNL A   1      32.150  27.583  24.057  1.00  0.00     0.023 A 
ATOM     21  C   UNL A   1      29.388  27.185  23.779  1.00  0.00     0.004 A 
ATOM     22  C   UNL A   1      31.400  28.271  23.098  1.00  0.00     0.047 A 
ATOM     23  C   UNL A   1      33.490  28.059  23.941  1.00  0.00     0.030 A 
ATOM     24  C   UNL A   1      30.028  28.069  22.913  1.00  0.00     0.027 A 
ATOM     25  N   UNL A   1      32.254  29.128  22.438  1.00  0.00    -0.361 N 
ATOM     26  C   UNL A   1      33.516  29.021  22.956  1.00  0.00     0.083 A 
ATOM     27  H   UNL A   1      31.995  29.729  21.703  1.00  0.00     0.166 HD
ENDBRANCH  16  18
ENDBRANCH  13  14
ENDBRANCH   7   9
ENDBRANCH   6   7
ENDBRANCH   5   6
ENDBRANCH   4   5
ENDBRANCH   3   4
ENDBRANCH   2   3
ENDBRANCH   1   2
BRANCH   1  28
ATOM     28  O   UNL A   1      40.673  20.989  27.464  1.00  0.00    -0.376 OA
BRANCH  28  29
ATOM     29  C   UNL A   1      42.024  21.325  27.744  1.00  0.00     0.202 C 
BRANCH  29  30
ATOM     30  C   UNL A   1      42.656  22.295  26.737  1.00  0.00     0.261 C 
BRANCH  30  31
ATOM     31  O   UNL A   1      43.001  23.587  27.267  1.00  0.00    -0.460 OA
BRANCH  31  32
ATOM     32  C   UNL A   1      42.638  24.664  26.533  1.00  0.00     0.338 C 
ATOM     33  O   UNL A   1      42.559  24.728  25.319  1.00  0.00    -0.246 OA
BRANCH  32  34
ATOM     34  C   UNL A   1      42.155  25.706  27.461  1.00  0.00     0.060 A 
ATOM     35  C   UNL A   1      42.821  26.937  27.503  1.00  0.00     0.016 A 
ATOM     36  C   UNL A   1      41.056  25.468  28.291  1.00  0.00     0.016 A 
ATOM     37  C   UNL A   1      42.409  27.922  28.402  1.00  0.00     0.010 A 
ATOM     38  C   UNL A   1      40.656  26.450  29.202  1.00  0.00     0.010 A 
ATOM     39  C   UNL A   1      41.350  27.669  29.285  1.00  0.00    -0.014 A 
BRANCH  39  40
ATOM     40  C   UNL A   1      41.093  28.604  30.409  1.00  0.00     0.031 A 
ATOM     41  C   UNL A   1      41.954  28.498  31.641  1.00  0.00     0.074 A 
ATOM     42  C   UNL A   1      40.134  29.544  30.335  1.00  0.00     0.049 A 
ATOM     43  N   UNL A   1      41.912  29.197  32.745  1.00  0.00    -0.248 NA
ATOM     44  C   UNL A   1      43.004  27.465  31.619  1.00  0.00     0.031 C 
ATOM     45  C   UNL A   1      39.244  29.760  29.196  1.00  0.00     0.029 A 
ATOM     46  N   UNL A   1      39.742  30.489  31.252  1.00  0.00    -0.354 N 
ATOM     47  C   UNL A   1      42.925  28.689  33.551  1.00  0.00     0.074 A 
ATOM     48  C   UNL A   1      43.546  27.607  32.819  1.00  0.00     0.031 C 
ATOM     49  C   UNL A   1      38.398  30.764  29.489  1.00  0.00     0.029 A 
ATOM     50  C   UNL A   1      38.676  31.252  30.839  1.00  0.00     0.049 A 
ATOM     51  H   UNL A   1      40.185  30.609  32.123  1.00  0.00     0.167 HD
ATOM     52  C   UNL A   1      43.310  29.091  34.786  1.00  0.00     0.037 A 
ATOM     53  C   UNL A   1      37.998  32.222  31.484  1.00  0.00     0.037 A 
ATOM     54  C   UNL A   1      42.687  30.159  35.520  1.00  0.00     0.049 A 
ATOM     55  C   UNL A   1      38.413  32.622  32.878  1.00  0.00     0.074 A 
ATOM     56  C   UNL A   1      43.010  30.643  36.776  1.00  0.00     0.029 A 
ATOM     57  N   UNL A   1      41.607  30.904  35.071  1.00  0.00    -0.354 N 
ATOM     58  N   UNL A   1      39.394  32.155  33.613  1.00  0.00    -0.248 NA
ATOM     59  C   UNL A   1      37.633  33.687  33.526  1.00  0.00     0.031 C 
ATOM     60  C   UNL A   1      42.101  31.656  37.101  1.00  0.00     0.029 A 
ATOM     61  C   UNL A   1      41.242  31.834  36.029  1.00  0.00     0.049 A 
ATOM     62  H   UNL A   1      41.166  30.788  34.198  1.00  0.00     0.167 HD
ATOM     63  C   UNL A   1      39.363  32.885  34.799  1.00  0.00     0.074 A 
ATOM     64  C   UNL A   1      38.275  33.832  34.678  1.00  0.00     0.031 C 
ATOM     65  C   UNL A   1      40.164  32.780  35.889  1.00  0.00     0.037 A 
BRANCH  52  66
ATOM     66  C   UNL A   1      44.449  28.351  35.428  1.00  0.00     0.058 A 
ATOM     67  C   UNL A   1      44.251  27.135  36.101  1.00  0.00     0.135 A 
ATOM     68  C   UNL A   1      45.757  28.854  35.353  1.00  0.00     0.135 A 
ATOM     69  F   UNL A   1      43.015  26.621  36.218  1.00  0.00    -0.206 F 
ATOM     70  C   UNL A   1      45.307  26.456  36.700  1.00  0.00     0.059 A 
ATOM     71  C   UNL A   1      46.832  28.181  35.925  1.00  0.00     0.059 A 
ATOM     72  F   UNL A   1      46.000  30.016  34.724  1.00  0.00    -0.206 F 
ATOM     73  C   UNL A   1      46.593  26.989  36.609  1.00  0.00     0.060 A 
BRANCH  73  74
ATOM     74  S   UNL A   1      47.955  26.100  37.396  1.00  0.00     0.124 S 
ATOM     75  O   UNL A   1      48.431  27.092  38.355  1.00  0.00    -0.237 OA
ATOM     76  O   UNL A   1      47.281  24.939  37.967  1.00  0.00    -0.237 OA
ATOM     77  O   UNL A   1      48.859  25.815  36.287  1.00  0.00    -0.744 OA
ENDBRANCH  73  74
ENDBRANCH  52  66
BRANCH  53  78
ATOM     78  C   UNL A   1      36.854  32.897  30.818  1.00  0.00     0.058 A 
ATOM     79  C   UNL A   1      37.062  33.954  29.921  1.00  0.00     0.135 A 
ATOM     80  C   UNL A   1      35.531  32.503  31.070  1.00  0.00     0.135 A 
ATOM     81  F   UNL A   1      38.311  34.365  29.650  1.00  0.00    -0.206 F 
ATOM     82  C   UNL A   1      35.999  34.612  29.311  1.00  0.00     0.059 A 
ATOM     83  C   UNL A   1      34.453  33.127  30.453  1.00  0.00     0.059 A 
ATOM     84  F   UNL A   1      35.281  31.487  31.911  1.00  0.00    -0.206 F 
ATOM     85  C   UNL A   1      34.698  34.190  29.583  1.00  0.00     0.060 A 
BRANCH  85  86
ATOM     86  S   UNL A   1      33.326  35.013  28.746  1.00  0.00     0.124 S 
ATOM     87  O   UNL A   1      32.731  33.907  28.004  1.00  0.00    -0.237 OA
ATOM     88  O   UNL A   1      32.545  35.522  29.869  1.00  0.00    -0.237 OA
ATOM     89  O   UNL A   1      33.991  36.033  27.941  1.00  0.00    -0.744 OA
ENDBRANCH  85  86
ENDBRANCH  53  78
BRANCH  65  90
ATOM     90  C   UNL A   1      39.926  33.739  37.024  1.00  0.00     0.058 A 
ATOM     91  C   UNL A   1      40.525  35.007  37.059  1.00  0.00     0.135 A 
ATOM     92  C   UNL A   1      39.040  33.403  38.060  1.00  0.00     0.135 A 
ATOM     93  F   UNL A   1      41.382  35.377  36.095  1.00  0.00    -0.206 F 
ATOM     94  C   UNL A   1      40.273  35.901  38.096  1.00  0.00     0.059 A 
ATOM     95  C   UNL A   1      38.754  34.289  39.095  1.00  0.00     0.059 A 
ATOM     96  F   UNL A   1      38.430  32.207  38.067  1.00  0.00    -0.206 F 
ATOM     97  C   UNL A   1      39.386  35.532  39.111  1.00  0.00     0.060 A 
BRANCH  97  98
ATOM     98  S   UNL A   1      39.044  36.709  40.436  1.00  0.00     0.124 S 
ATOM     99  O   UNL A   1      38.024  35.999  41.201  1.00  0.00    -0.237 OA
ATOM    100  O   UNL A   1      40.345  36.842  41.084  1.00  0.00    -0.237 OA
ATOM    101  O   UNL A   1      38.582  37.896  39.724  1.00  0.00    -0.744 OA
ENDBRANCH  97  98
ENDBRANCH  65  90
ENDBRANCH  39  40
ENDBRANCH  32  34
ENDBRANCH  31  32
ENDBRANCH  30  31
ENDBRANCH  29  30
ENDBRANCH  28  29
ENDBRANCH   1  28
TORSDOF 22
ENDMDL
MODEL 2
REMARK VINA RESULT:     -10.3      6.210     11.835
REMARK SMILES CC1(C)[C@H](C(=O)Nc2cccc3[nH]ccc23)[C@H]1C(=O)OCCOCCOCCOC(=O)c1ccc(-c2c3nc(c(-c4c(F)cc(S(=O)(=O)[O-])cc4F)c4ccc([nH]4)c(-c4c(F)cc(S(=O)(=O)[O-])cc4F)c4nc(c(-c5c(F)cc(S(=O)(=O)[O-])cc5F)c5ccc2[nH]5)C=C4)C=C3)cc1
REMARK SMILES IDX 25 1 24 2 23 3 22 4 21 5 20 6 18 7 19 8 17 9 1 10 2 11 3 12
REMARK SMILES IDX 4 13 5 14 6 15 7 16 8 18 9 19 16 20 10 21 12 22 15 23 11 24
REMARK SMILES IDX 13 25 14 26 26 28 27 29 28 30 29 31 30 32 31 33 32 34 33 35
REMARK SMILES IDX 97 36 34 37 96 38 35 39 36 40 37 41 90 42 38 43 95 44 89 45
REMARK SMILES IDX 91 46 39 47 94 48 88 49 87 50 40 52 74 53 53 54 73 55 54 56
REMARK SMILES IDX 57 57 72 58 92 59 55 60 56 61 71 63 93 64 58 65 41 66 42 67
REMARK SMILES IDX 51 68 43 69 44 70 50 71 52 72 45 73 46 74 47 75 48 76 49 77
REMARK SMILES IDX 75 78 76 79 85 80 77 81 78 82 84 83 86 84 79 85 80 86 81 87
REMARK SMILES IDX 82 88 83 89 59 90 60 91 69 92 61 93 62 94 68 95 70 96 63 97
REMARK SMILES IDX 64 98 65 99 66 100 67 101
REMARK H PARENT 7 17 13 27 91 51 57 62
REMARK Flexibility Score: inf
ROOT
ATOM      1  C   UNL A   1      33.271  29.519  26.347  1.00  0.00     0.188 C 
ENDROOT
BRANCH   1   2
ATOM      2  C   UNL A   1      32.207  29.987  25.335  1.00  0.00     0.188 C 
BRANCH   2   3
ATOM      3  O   UNL A   1      31.851  29.115  24.264  1.00  0.00    -0.376 OA
BRANCH   3   4
ATOM      4  C   UNL A   1      32.868  28.677  23.363  1.00  0.00     0.202 C 
BRANCH   4   5
ATOM      5  C   UNL A   1      33.354  27.233  23.524  1.00  0.00     0.261 C 
BRANCH   5   6
ATOM      6  O   UNL A   1      32.780  26.392  22.516  1.00  0.00    -0.463 OA
BRANCH   6   7
ATOM      7  C   UNL A   1      32.238  25.229  22.958  1.00  0.00     0.310 C 
ATOM      8  O   UNL A   1      32.053  24.226  22.302  1.00  0.00    -0.252 OA
BRANCH   7   9
ATOM      9  C   UNL A   1      32.015  25.259  24.425  1.00  0.00     0.118 C 
ATOM     10  C   UNL A   1      29.571  26.260  24.311  1.00  0.00     0.013 C 
ATOM     11  C   UNL A   1      30.743  25.750  25.115  1.00  0.00    -0.009 C 
ATOM     12  C   UNL A   1      30.908  26.502  26.415  1.00  0.00     0.013 C 
ATOM     13  C   UNL A   1      31.054  24.253  25.011  1.00  0.00     0.100 C 
BRANCH  13  14
ATOM     14  C   UNL A   1      31.405  23.370  26.163  1.00  0.00     0.228 C 
ATOM     15  O   UNL A   1      31.144  23.748  27.299  1.00  0.00    -0.274 OA
ATOM     16  N   UNL A   1      31.806  22.090  25.865  1.00  0.00    -0.325 N 
ATOM     17  H   UNL A   1      31.104  21.416  25.714  1.00  0.00     0.169 HD
BRANCH  16  18
ATOM     18  C   UNL A   1      33.147  21.667  25.760  1.00  0.00     0.050 A 
ATOM     19  C   UNL A   1      34.214  22.526  26.059  1.00  0.00     0.027 A 
ATOM     20  C   UNL A   1      33.447  20.354  25.323  1.00  0.00     0.023 A 
ATOM     21  C   UNL A   1      35.536  22.159  25.812  1.00  0.00     0.004 A 
ATOM     22  C   UNL A   1      34.785  20.010  25.101  1.00  0.00     0.047 A 
ATOM     23  C   UNL A   1      32.675  19.195  25.011  1.00  0.00     0.030 A 
ATOM     24  C   UNL A   1      35.845  20.900  25.303  1.00  0.00     0.027 A 
ATOM     25  N   UNL A   1      34.812  18.698  24.678  1.00  0.00    -0.361 N 
ATOM     26  C   UNL A   1      33.541  18.192  24.641  1.00  0.00     0.083 A 
ATOM     27  H   UNL A   1      35.626  18.199  24.438  1.00  0.00     0.166 HD
ENDBRANCH  16  18
ENDBRANCH  13  14
ENDBRANCH   7   9
ENDBRANCH   6   7
ENDBRANCH   5   6
ENDBRANCH   4   5
ENDBRANCH   3   4
ENDBRANCH   2   3
ENDBRANCH   1   2
BRANCH   1  28
ATOM     28  O   UNL A   1      33.254  30.230  27.574  1.00  0.00    -0.376 OA
BRANCH  28  29
ATOM     29  C   UNL A   1      34.027  31.420  27.609  1.00  0.00     0.202 C 
BRANCH  29  30
ATOM     30  C   UNL A   1      35.023  31.494  28.773  1.00  0.00     0.261 C 
BRANCH  30  31
ATOM     31  O   UNL A   1      35.650  30.246  29.120  1.00  0.00    -0.460 OA
BRANCH  31  32
ATOM     32  C   UNL A   1      36.375  30.225  30.261  1.00  0.00     0.338 C 
ATOM     33  O   UNL A   1      35.945  30.190  31.401  1.00  0.00    -0.246 OA
BRANCH  32  34
ATOM     34  C   UNL A   1      37.796  30.047  29.895  1.00  0.00     0.060 A 
ATOM     35  C   UNL A   1      38.147  30.019  28.540  1.00  0.00     0.016 A 
ATOM     36  C   UNL A   1      38.774  29.902  30.882  1.00  0.00     0.016 A 
ATOM     37  C   UNL A   1      39.475  29.811  28.168  1.00  0.00     0.010 A 
ATOM     38  C   UNL A   1      40.102  29.676  30.508  1.00  0.00     0.010 A 
ATOM     39  C   UNL A   1      40.455  29.597  29.149  1.00  0.00    -0.014 A 
BRANCH  39  40
ATOM     40  C   UNL A   1      41.799  29.112  28.751  1.00  0.00     0.031 A 
ATOM     41  C   UNL A   1      42.944  30.092  28.750  1.00  0.00     0.074 A 
ATOM     42  C   UNL A   1      42.012  27.826  28.420  1.00  0.00     0.049 A 
ATOM     43  N   UNL A   1      44.198  29.902  28.433  1.00  0.00    -0.248 NA
ATOM     44  C   UNL A   1      42.627  31.470  29.162  1.00  0.00     0.031 C 
ATOM     45  C   UNL A   1      40.995  26.777  28.397  1.00  0.00     0.029 A 
ATOM     46  N   UNL A   1      43.163  27.188  28.027  1.00  0.00    -0.354 N 
ATOM     47  C   UNL A   1      44.821  31.134  28.606  1.00  0.00     0.074 A 
ATOM     48  C   UNL A   1      43.800  32.069  29.029  1.00  0.00     0.031 C 
ATOM     49  C   UNL A   1      41.565  25.627  27.991  1.00  0.00     0.029 A 
ATOM     50  C   UNL A   1      42.982  25.861  27.716  1.00  0.00     0.049 A 
ATOM     51  H   UNL A   1      44.037  27.638  27.974  1.00  0.00     0.167 HD
ATOM     52  C   UNL A   1      46.124  31.458  28.436  1.00  0.00     0.037 A 
ATOM     53  C   UNL A   1      43.857  24.948  27.250  1.00  0.00     0.037 A 
ATOM     54  C   UNL A   1      47.138  30.534  28.005  1.00  0.00     0.049 A 
ATOM     55  C   UNL A   1      45.295  25.342  27.022  1.00  0.00     0.074 A 
ATOM     56  C   UNL A   1      48.489  30.766  27.809  1.00  0.00     0.029 A 
ATOM     57  N   UNL A   1      46.914  29.201  27.695  1.00  0.00    -0.354 N 
ATOM     58  N   UNL A   1      45.875  26.502  27.221  1.00  0.00    -0.248 NA
ATOM     59  C   UNL A   1      46.199  24.300  26.512  1.00  0.00     0.031 C 
ATOM     60  C   UNL A   1      49.073  29.583  27.344  1.00  0.00     0.029 A 
ATOM     61  C   UNL A   1      48.097  28.603  27.295  1.00  0.00     0.049 A 
ATOM     62  H   UNL A   1      46.041  28.748  27.751  1.00  0.00     0.167 HD
ATOM     63  C   UNL A   1      47.214  26.322  26.884  1.00  0.00     0.074 A 
ATOM     64  C   UNL A   1      47.361  24.940  26.481  1.00  0.00     0.031 C 
ATOM     65  C   UNL A   1      48.231  27.220  26.908  1.00  0.00     0.037 A 
BRANCH  52  66
ATOM     66  C   UNL A   1      46.520  32.884  28.697  1.00  0.00     0.058 A 
ATOM     67  C   UNL A   1      46.900  33.320  29.977  1.00  0.00     0.135 A 
ATOM     68  C   UNL A   1      46.538  33.820  27.653  1.00  0.00     0.135 A 
ATOM     69  F   UNL A   1      46.880  32.466  31.015  1.00  0.00    -0.206 F 
ATOM     70  C   UNL A   1      47.260  34.641  30.217  1.00  0.00     0.059 A 
ATOM     71  C   UNL A   1      46.916  35.143  27.865  1.00  0.00     0.059 A 
ATOM     72  F   UNL A   1      46.179  33.456  26.411  1.00  0.00    -0.206 F 
ATOM     73  C   UNL A   1      47.261  35.546  29.154  1.00  0.00     0.060 A 
BRANCH  73  74
ATOM     74  S   UNL A   1      47.725  37.261  29.480  1.00  0.00     0.124 S 
ATOM     75  O   UNL A   1      46.480  37.960  29.176  1.00  0.00    -0.237 OA
ATOM     76  O   UNL A   1      48.100  37.221  30.890  1.00  0.00    -0.237 OA
ATOM     77  O   UNL A   1      48.822  37.499  28.548  1.00  0.00    -0.744 OA
ENDBRANCH  73  74
ENDBRANCH  52  66
BRANCH  53  78
ATOM     78  C   UNL A   1      43.405  23.560  26.971  1.00  0.00     0.058 A 
ATOM     79  C   UNL A   1      43.200  22.645  28.013  1.00  0.00     0.135 A 
ATOM     80  C   UNL A   1      43.176  23.121  25.658  1.00  0.00     0.135 A 
ATOM     81  F   UNL A   1      43.407  23.022  29.284  1.00  0.00    -0.206 F 
ATOM     82  C   UNL A   1      42.803  21.336  27.765  1.00  0.00     0.059 A 
ATOM     83  C   UNL A   1      42.753  21.824  25.386  1.00  0.00     0.059 A 
ATOM     84  F   UNL A   1      43.345  23.964  24.628  1.00  0.00    -0.206 F 
ATOM     85  C   UNL A   1      42.581  20.935  26.447  1.00  0.00     0.060 A 
BRANCH  85  86
ATOM     86  S   UNL A   1      42.013  19.249  26.137  1.00  0.00     0.124 S 
ATOM     87  O   UNL A   1      40.586  19.458  25.917  1.00  0.00    -0.237 OA
ATOM     88  O   UNL A   1      42.793  18.876  24.961  1.00  0.00    -0.237 OA
ATOM     89  O   UNL A   1      42.368  18.546  27.366  1.00  0.00    -0.744 OA
ENDBRANCH  85  86
ENDBRANCH  53  78
BRANCH  65  90
ATOM     90  C   UNL A   1      49.602  26.732  26.529  1.00  0.00     0.058 A 
ATOM     91  C   UNL A   1      50.473  26.165  27.471  1.00  0.00     0.135 A 
ATOM     92  C   UNL A   1      50.025  26.781  25.190  1.00  0.00     0.135 A 
ATOM     93  F   UNL A   1      50.119  26.096  28.764  1.00  0.00    -0.206 F 
ATOM     94  C   UNL A   1      51.727  25.686  27.105  1.00  0.00     0.059 A 
ATOM     95  C   UNL A   1      51.265  26.286  24.797  1.00  0.00     0.059 A 
ATOM     96  F   UNL A   1      49.224  27.302  24.247  1.00  0.00    -0.206 F 
ATOM     97  C   UNL A   1      52.115  25.752  25.764  1.00  0.00     0.060 A 
BRANCH  97  98
ATOM     98  S   UNL A   1      53.732  25.100  25.294  1.00  0.00     0.124 S 
ATOM     99  O   UNL A   1      54.582  25.637  26.352  1.00  0.00    -0.237 OA
ATOM    100  O   UNL A   1      53.513  23.658  25.327  1.00  0.00    -0.237 OA
ATOM    101  O   UNL A   1      53.952  25.664  23.965  1.00  0.00    -0.744 OA
ENDBRANCH  97  98
ENDBRANCH  65  90
ENDBRANCH  39  40
ENDBRANCH  32  34
ENDBRANCH  31  32
ENDBRANCH  30  31
ENDBRANCH  29  30
ENDBRANCH  28  29
ENDBRANCH   1  28
TORSDOF 22
ENDMDL
MODEL 3
REMARK VINA RESULT:     -10.2      1.164      8.093
REMARK SMILES CC1(C)[C@H](C(=O)Nc2cccc3[nH]ccc23)[C@H]1C(=O)OCCOCCOCCOC(=O)c1ccc(-c2c3nc(c(-c4c(F)cc(S(=O)(=O)[O-])cc4F)c4ccc([nH]4)c(-c4c(F)cc(S(=O)(=O)[O-])cc4F)c4nc(c(-c5c(F)cc(S(=O)(=O)[O-])cc5F)c5ccc2[nH]5)C=C4)C=C3)cc1
REMARK SMILES IDX 25 1 24 2 23 3 22 4 21 5 20 6 18 7 19 8 17 9 1 10 2 11 3 12
REMARK SMILES IDX 4 13 5 14 6 15 7 16 8 18 9 19 16 20 10 21 12 22 15 23 11 24
REMARK SMILES IDX 13 25 14 26 26 28 27 29 28 30 29 31 30 32 31 33 32 34 33 35
REMARK SMILES IDX 97 36 34 37 96 38 35 39 36 40 37 41 90 42 38 43 95 44 89 45
REMARK SMILES IDX 91 46 39 47 94 48 88 49 87 50 40 52 74 53 53 54 73 55 54 56
REMARK SMILES IDX 57 57 72 58 92 59 55 60 56 61 71 63 93 64 58 65 41 66 42 67
REMARK SMILES IDX 51 68 43 69 44 70 50 71 52 72 45 73 46 74 47 75 48 76 49 77
REMARK SMILES IDX 75 78 76 79 85 80 77 81 78 82 84 83 86 84 79 85 80 86 81 87
REMARK SMILES IDX 82 88 83 89 59 90 60 91 69 92 61 93 62 94 68 95 70 96 63 97
REMARK SMILES IDX 64 98 65 99 66 100 67 101
REMARK H PARENT 7 17 13 27 91 51 57 62
REMARK Flexibility Score: inf
ROOT
ATOM      1  C   UNL A   1      40.974  22.191  26.097  1.00  0.00     0.188 C 
ENDROOT
BRANCH   1   2
ATOM      2  C   UNL A   1      39.764  21.260  26.306  1.00  0.00     0.188 C 
BRANCH   2   3
ATOM      3  O   UNL A   1      38.513  21.623  25.725  1.00  0.00    -0.376 OA
BRANCH   3   4
ATOM      4  C   UNL A   1      38.039  22.960  25.887  1.00  0.00     0.202 C 
BRANCH   4   5
ATOM      5  C   UNL A   1      36.973  23.438  24.896  1.00  0.00     0.261 C 
BRANCH   5   6
ATOM      6  O   UNL A   1      35.974  24.217  25.567  1.00  0.00    -0.463 OA
BRANCH   6   7
ATOM      7  C   UNL A   1      34.946  23.516  26.107  1.00  0.00     0.310 C 
ATOM      8  O   UNL A   1      35.022  22.701  27.003  1.00  0.00    -0.252 OA
BRANCH   7   9
ATOM      9  C   UNL A   1      33.639  23.968  25.567  1.00  0.00     0.118 C 
ATOM     10  C   UNL A   1      33.128  21.762  24.203  1.00  0.00     0.013 C 
ATOM     11  C   UNL A   1      32.735  23.151  24.645  1.00  0.00    -0.009 C 
ATOM     12  C   UNL A   1      31.992  23.902  23.563  1.00  0.00     0.013 C 
ATOM     13  C   UNL A   1      32.389  23.334  26.127  1.00  0.00     0.100 C 
BRANCH  13  14
ATOM     14  C   UNL A   1      31.237  24.129  26.646  1.00  0.00     0.228 C 
ATOM     15  O   UNL A   1      30.329  23.544  27.225  1.00  0.00    -0.274 OA
ATOM     16  N   UNL A   1      31.366  25.497  26.629  1.00  0.00    -0.325 N 
ATOM     17  H   UNL A   1      31.843  25.918  27.380  1.00  0.00     0.169 HD
BRANCH  16  18
ATOM     18  C   UNL A   1      30.868  26.343  25.617  1.00  0.00     0.050 A 
ATOM     19  C   UNL A   1      29.654  26.079  24.970  1.00  0.00     0.027 A 
ATOM     20  C   UNL A   1      31.607  27.482  25.215  1.00  0.00     0.023 A 
ATOM     21  C   UNL A   1      29.235  26.827  23.871  1.00  0.00     0.004 A 
ATOM     22  C   UNL A   1      31.153  28.224  24.120  1.00  0.00     0.047 A 
ATOM     23  C   UNL A   1      32.802  28.117  25.666  1.00  0.00     0.030 A 
ATOM     24  C   UNL A   1      29.992  27.901  23.408  1.00  0.00     0.027 A 
ATOM     25  N   UNL A   1      32.037  29.264  23.925  1.00  0.00    -0.361 N 
ATOM     26  C   UNL A   1      33.027  29.218  24.870  1.00  0.00     0.083 A 
ATOM     27  H   UNL A   1      31.967  29.939  23.213  1.00  0.00     0.166 HD
ENDBRANCH  16  18
ENDBRANCH  13  14
ENDBRANCH   7   9
ENDBRANCH   6   7
ENDBRANCH   5   6
ENDBRANCH   4   5
ENDBRANCH   3   4
ENDBRANCH   2   3
ENDBRANCH   1   2
BRANCH   1  28
ATOM     28  O   UNL A   1      42.226  21.524  26.117  1.00  0.00    -0.376 OA
BRANCH  28  29
ATOM     29  C   UNL A   1      43.320  22.251  25.577  1.00  0.00     0.202 C 
BRANCH  29  30
ATOM     30  C   UNL A   1      43.102  23.768  25.514  1.00  0.00     0.261 C 
BRANCH  30  31
ATOM     31  O   UNL A   1      43.430  24.483  26.719  1.00  0.00    -0.460 OA
BRANCH  31  32
ATOM     32  C   UNL A   1      43.927  25.732  26.570  1.00  0.00     0.338 C 
ATOM     33  O   UNL A   1      44.610  26.143  25.649  1.00  0.00    -0.246 OA
BRANCH  32  34
ATOM     34  C   UNL A   1      43.335  26.586  27.621  1.00  0.00     0.060 A 
ATOM     35  C   UNL A   1      43.730  27.927  27.706  1.00  0.00     0.016 A 
ATOM     36  C   UNL A   1      42.401  26.066  28.520  1.00  0.00     0.016 A 
ATOM     37  C   UNL A   1      43.216  28.742  28.715  1.00  0.00     0.010 A 
ATOM     38  C   UNL A   1      41.901  26.879  29.542  1.00  0.00     0.010 A 
ATOM     39  C   UNL A   1      42.330  28.212  29.664  1.00  0.00    -0.014 A 
BRANCH  39  40
ATOM     40  C   UNL A   1      42.001  28.997  30.879  1.00  0.00     0.031 A 
ATOM     41  C   UNL A   1      40.790  29.894  30.847  1.00  0.00     0.074 A 
ATOM     42  C   UNL A   1      42.741  28.902  31.998  1.00  0.00     0.049 A 
ATOM     43  N   UNL A   1      40.313  30.676  31.780  1.00  0.00    -0.248 NA
ATOM     44  C   UNL A   1      40.017  29.907  29.594  1.00  0.00     0.031 C 
ATOM     45  C   UNL A   1      43.925  28.061  32.163  1.00  0.00     0.029 A 
ATOM     46  N   UNL A   1      42.607  29.536  33.209  1.00  0.00    -0.354 N 
ATOM     47  C   UNL A   1      39.185  31.275  31.229  1.00  0.00     0.074 A 
ATOM     48  C   UNL A   1      39.067  30.786  29.872  1.00  0.00     0.031 C 
ATOM     49  C   UNL A   1      44.420  28.245  33.400  1.00  0.00     0.029 A 
ATOM     50  C   UNL A   1      43.597  29.224  34.110  1.00  0.00     0.049 A 
ATOM     51  H   UNL A   1      41.869  30.155  33.414  1.00  0.00     0.167 HD
ATOM     52  C   UNL A   1      38.322  32.148  31.800  1.00  0.00     0.037 A 
ATOM     53  C   UNL A   1      43.818  29.686  35.356  1.00  0.00     0.037 A 
ATOM     54  C   UNL A   1      38.443  32.644  33.144  1.00  0.00     0.049 A 
ATOM     55  C   UNL A   1      42.870  30.694  35.957  1.00  0.00     0.074 A 
ATOM     56  C   UNL A   1      37.614  33.526  33.815  1.00  0.00     0.029 A 
ATOM     57  N   UNL A   1      39.462  32.308  34.023  1.00  0.00    -0.354 N 
ATOM     58  N   UNL A   1      41.791  31.226  35.435  1.00  0.00    -0.248 NA
ATOM     59  C   UNL A   1      43.168  31.159  37.321  1.00  0.00     0.031 C 
ATOM     60  C   UNL A   1      38.153  33.753  35.086  1.00  0.00     0.029 A 
ATOM     61  C   UNL A   1      39.292  32.976  35.223  1.00  0.00     0.049 A 
ATOM     62  H   UNL A   1      40.198  31.685  33.821  1.00  0.00     0.167 HD
ATOM     63  C   UNL A   1      41.269  32.068  36.413  1.00  0.00     0.074 A 
ATOM     64  C   UNL A   1      42.143  31.966  37.562  1.00  0.00     0.031 C 
ATOM     65  C   UNL A   1      40.164  32.854  36.365  1.00  0.00     0.037 A 
BRANCH  52  66
ATOM     66  C   UNL A   1      37.178  32.638  30.957  1.00  0.00     0.058 A 
ATOM     67  C   UNL A   1      37.344  33.668  30.018  1.00  0.00     0.135 A 
ATOM     68  C   UNL A   1      35.906  32.058  31.077  1.00  0.00     0.135 A 
ATOM     69  F   UNL A   1      38.538  34.270  29.879  1.00  0.00    -0.206 F 
ATOM     70  C   UNL A   1      36.283  34.124  29.244  1.00  0.00     0.059 A 
ATOM     71  C   UNL A   1      34.834  32.483  30.298  1.00  0.00     0.059 A 
ATOM     72  F   UNL A   1      35.692  31.073  31.964  1.00  0.00    -0.206 F 
ATOM     73  C   UNL A   1      35.030  33.527  29.394  1.00  0.00     0.060 A 
BRANCH  73  74
ATOM     74  S   UNL A   1      33.658  34.132  28.388  1.00  0.00     0.124 S 
ATOM     75  O   UNL A   1      33.252  32.915  27.691  1.00  0.00    -0.237 OA
ATOM     76  O   UNL A   1      32.725  34.625  29.396  1.00  0.00    -0.237 OA
ATOM     77  O   UNL A   1      34.276  35.157  27.553  1.00  0.00    -0.744 OA
ENDBRANCH  73  74
ENDBRANCH  52  66
BRANCH  53  78
ATOM     78  C   UNL A   1      44.987  29.197  36.134  1.00  0.00     0.058 A 
ATOM     79  C   UNL A   1      46.238  29.820  36.025  1.00  0.00     0.135 A 
ATOM     80  C   UNL A   1      44.876  28.096  36.996  1.00  0.00     0.135 A 
ATOM     81  F   UNL A   1      46.389  30.877  35.212  1.00  0.00    -0.206 F 
ATOM     82  C   UNL A   1      47.346  29.358  36.727  1.00  0.00     0.059 A 
ATOM     83  C   UNL A   1      45.963  27.630  37.729  1.00  0.00     0.059 A 
ATOM     84  F   UNL A   1      43.696  27.475  37.145  1.00  0.00    -0.206 F 
ATOM     85  C   UNL A   1      47.197  28.262  37.577  1.00  0.00     0.060 A 
BRANCH  85  86
ATOM     86  S   UNL A   1      48.628  27.700  38.526  1.00  0.00     0.124 S 
ATOM     87  O   UNL A   1      47.994  26.873  39.547  1.00  0.00    -0.237 OA
ATOM     88  O   UNL A   1      49.403  26.987  37.516  1.00  0.00    -0.237 OA
ATOM     89  O   UNL A   1      49.223  28.946  39.000  1.00  0.00    -0.744 OA
ENDBRANCH  85  86
ENDBRANCH  53  78
BRANCH  65  90
ATOM     90  C   UNL A   1      39.809  33.636  37.600  1.00  0.00     0.058 A 
ATOM     91  C   UNL A   1      38.841  33.183  38.509  1.00  0.00     0.135 A 
ATOM     92  C   UNL A   1      40.490  34.826  37.905  1.00  0.00     0.135 A 
ATOM     93  F   UNL A   1      38.159  32.053  38.264  1.00  0.00    -0.206 F 
ATOM     94  C   UNL A   1      38.542  33.896  39.667  1.00  0.00     0.059 A 
ATOM     95  C   UNL A   1      40.225  35.542  39.068  1.00  0.00     0.059 A 
ATOM     96  F   UNL A   1      41.435  35.295  37.075  1.00  0.00    -0.206 F 
ATOM     97  C   UNL A   1      39.240  35.076  39.937  1.00  0.00     0.060 A 
BRANCH  97  98
ATOM     98  S   UNL A   1      38.866  35.978  41.456  1.00  0.00     0.124 S 
ATOM     99  O   UNL A   1      37.591  35.382  41.843  1.00  0.00    -0.237 OA
ATOM    100  O   UNL A   1      40.004  35.649  42.307  1.00  0.00    -0.237 OA
ATOM    101  O   UNL A   1      38.801  37.369  41.017  1.00  0.00    -0.744 OA
ENDBRANCH  97  98
ENDBRANCH  65  90
ENDBRANCH  39  40
ENDBRANCH  32  34
ENDBRANCH  31  32
ENDBRANCH  30  31
ENDBRANCH  29  30
ENDBRANCH  28  29
ENDBRANCH   1  28
TORSDOF 22
ENDMDL
