MODEL 1
REMARK VINA RESULT:      -9.3      0.000      0.000
REMARK SMILES C#CCN(CC(=O)OCCOCCOCCOC(=O)c1ccc(-c2c3nc(c(-c4c(F)cc(S(=O)(=O)[O-])cc4F)c4ccc([nH]4)c(-c4c(F)cc(S(=O)(=O)[O-])cc4F)c4nc(c(-c5c(F)cc(S(=O)(=O)[O-])cc5F)c5ccc2[nH]5)C=C4)C=C3)cc1)C(=O)CCc1ccc(Cl)cc1Cl
REMARK SMILES IDX 12 1 11 2 10 3 9 4 8 5 6 6 7 7 5 8 4 9 3 10 2 11 1 12 86 13
REMARK SMILES IDX 87 14 88 15 89 16 90 17 91 18 96 19 92 20 95 21 97 22 93 23
REMARK SMILES IDX 94 24 13 25 14 26 15 27 16 28 17 29 18 30 19 31 20 32 21 33
REMARK SMILES IDX 85 34 22 35 84 36 23 37 24 38 25 39 78 40 26 41 83 42 77 43
REMARK SMILES IDX 79 44 27 45 82 46 76 47 75 48 28 50 62 51 41 52 61 53 42 54
REMARK SMILES IDX 45 55 60 56 80 57 43 58 44 59 59 61 81 62 46 63 29 64 30 65
REMARK SMILES IDX 39 66 31 67 32 68 38 69 40 70 33 71 34 72 35 73 36 74 37 75
REMARK SMILES IDX 63 76 64 77 73 78 65 79 66 80 72 81 74 82 67 83 68 84 69 85
REMARK SMILES IDX 70 86 71 87 47 88 48 89 57 90 49 91 50 92 56 93 58 94 51 95
REMARK SMILES IDX 52 96 53 97 54 98 55 99
REMARK H PARENT 79 49 45 60
REMARK Flexibility Score: inf
ROOT
ATOM      1  C   UNL A   1      34.211  33.988  29.275  1.00  0.00     0.188 C 
ENDROOT
BRANCH   1   2
ATOM      2  O   UNL A   1      34.039  33.243  28.070  1.00  0.00    -0.376 OA
BRANCH   2   3
ATOM      3  C   UNL A   1      34.853  32.079  27.958  1.00  0.00     0.202 C 
BRANCH   3   4
ATOM      4  C   UNL A   1      34.035  30.790  27.865  1.00  0.00     0.261 C 
BRANCH   4   5
ATOM      5  O   UNL A   1      33.585  30.533  26.515  1.00  0.00    -0.462 OA
BRANCH   5   6
ATOM      6  C   UNL A   1      32.792  29.453  26.338  1.00  0.00     0.325 C 
ATOM      7  O   UNL A   1      31.882  29.135  27.098  1.00  0.00    -0.250 OA
BRANCH   6   8
ATOM      8  C   UNL A   1      33.059  28.711  25.026  1.00  0.00     0.243 C 
BRANCH   8   9
ATOM      9  N   UNL A   1      32.373  27.456  24.684  1.00  0.00    -0.320 N 
BRANCH   9  10
ATOM     10  C   UNL A   1      31.296  27.532  23.688  1.00  0.00     0.210 C 
BRANCH  10  11
ATOM     11  C   UNL A   1      31.633  26.631  22.511  1.00  0.00    -0.085 C 
ATOM     12  C   UNL A   1      31.922  25.858  21.502  1.00  0.00     0.006 C 
ENDBRANCH  10  11
ENDBRANCH   9  10
BRANCH   9  13
ATOM     13  C   UNL A   1      32.582  26.232  25.308  1.00  0.00     0.224 C 
ATOM     14  O   UNL A   1      31.845  25.831  26.215  1.00  0.00    -0.275 OA
BRANCH  13  15
ATOM     15  C   UNL A   1      33.769  25.363  24.936  1.00  0.00     0.105 C 
BRANCH  15  16
ATOM     16  C   UNL A   1      34.046  24.125  25.798  1.00  0.00     0.047 C 
BRANCH  16  17
ATOM     17  C   UNL A   1      33.450  22.849  25.246  1.00  0.00    -0.029 A 
ATOM     18  C   UNL A   1      32.921  22.869  23.944  1.00  0.00     0.007 A 
ATOM     19  C   UNL A   1      33.488  21.620  25.939  1.00  0.00     0.045 A 
ATOM     20  C   UNL A   1      32.541  21.682  23.316  1.00  0.00     0.021 A 
ATOM     21  C   UNL A   1      33.138  20.431  25.296  1.00  0.00     0.041 A 
ATOM     22  Cl  UNL A   1      34.043  21.497  27.572  1.00  0.00    -0.084 Cl
ATOM     23  C   UNL A   1      32.684  20.468  23.982  1.00  0.00     0.042 A 
ATOM     24  Cl  UNL A   1      32.332  19.000  23.157  1.00  0.00    -0.084 Cl
ENDBRANCH  16  17
ENDBRANCH  15  16
ENDBRANCH  13  15
ENDBRANCH   9  13
ENDBRANCH   8   9
ENDBRANCH   6   8
ENDBRANCH   5   6
ENDBRANCH   4   5
ENDBRANCH   3   4
ENDBRANCH   2   3
ENDBRANCH   1   2
BRANCH   1  25
ATOM     25  C   UNL A   1      35.027  33.226  30.335  1.00  0.00     0.188 C 
BRANCH  25  26
ATOM     26  O   UNL A   1      34.463  33.187  31.647  1.00  0.00    -0.376 OA
BRANCH  26  27
ATOM     27  C   UNL A   1      35.272  32.592  32.660  1.00  0.00     0.202 C 
BRANCH  27  28
ATOM     28  C   UNL A   1      36.668  32.196  32.187  1.00  0.00     0.261 C 
BRANCH  28  29
ATOM     29  O   UNL A   1      36.956  30.835  32.553  1.00  0.00    -0.460 OA
BRANCH  29  30
ATOM     30  C   UNL A   1      37.073  29.998  31.495  1.00  0.00     0.338 C 
ATOM     31  O   UNL A   1      36.211  29.265  31.048  1.00  0.00    -0.246 OA
BRANCH  30  32
ATOM     32  C   UNL A   1      38.439  30.093  30.944  1.00  0.00     0.060 A 
ATOM     33  C   UNL A   1      38.635  30.443  29.605  1.00  0.00     0.016 A 
ATOM     34  C   UNL A   1      39.521  29.692  31.729  1.00  0.00     0.016 A 
ATOM     35  C   UNL A   1      39.914  30.356  29.039  1.00  0.00     0.010 A 
ATOM     36  C   UNL A   1      40.800  29.621  31.164  1.00  0.00     0.010 A 
ATOM     37  C   UNL A   1      41.001  29.919  29.805  1.00  0.00    -0.014 A 
BRANCH  37  38
ATOM     38  C   UNL A   1      42.290  29.558  29.153  1.00  0.00     0.031 A 
ATOM     39  C   UNL A   1      42.452  28.159  28.620  1.00  0.00     0.074 A 
ATOM     40  C   UNL A   1      43.295  30.440  28.994  1.00  0.00     0.049 A 
ATOM     41  N   UNL A   1      43.525  27.554  28.181  1.00  0.00    -0.248 NA
ATOM     42  C   UNL A   1      41.232  27.337  28.570  1.00  0.00     0.031 C 
ATOM     43  C   UNL A   1      43.249  31.854  29.356  1.00  0.00     0.029 A 
ATOM     44  N   UNL A   1      44.560  30.264  28.484  1.00  0.00    -0.354 N 
ATOM     45  C   UNL A   1      43.120  26.269  27.839  1.00  0.00     0.074 A 
ATOM     46  C   UNL A   1      41.702  26.186  28.112  1.00  0.00     0.031 C 
ATOM     47  C   UNL A   1      44.435  32.417  29.060  1.00  0.00     0.029 A 
ATOM     48  C   UNL A   1      45.344  31.392  28.547  1.00  0.00     0.049 A 
ATOM     49  H   UNL A   1      44.874  29.410  28.110  1.00  0.00     0.167 HD
ATOM     50  C   UNL A   1      43.862  25.247  27.352  1.00  0.00     0.037 A 
ATOM     51  C   UNL A   1      46.652  31.565  28.266  1.00  0.00     0.037 A 
ATOM     52  C   UNL A   1      45.269  25.324  27.066  1.00  0.00     0.049 A 
ATOM     53  C   UNL A   1      47.484  30.389  27.813  1.00  0.00     0.074 A 
ATOM     54  C   UNL A   1      46.115  24.323  26.620  1.00  0.00     0.029 A 
ATOM     55  N   UNL A   1      46.037  26.471  27.190  1.00  0.00    -0.354 N 
ATOM     56  N   UNL A   1      47.113  29.153  27.575  1.00  0.00    -0.248 NA
ATOM     57  C   UNL A   1      48.923  30.628  27.612  1.00  0.00     0.031 C 
ATOM     58  C   UNL A   1      47.403  24.859  26.500  1.00  0.00     0.029 A 
ATOM     59  C   UNL A   1      47.349  26.202  26.836  1.00  0.00     0.049 A 
ATOM     60  H   UNL A   1      45.700  27.348  27.485  1.00  0.00     0.167 HD
ATOM     61  C   UNL A   1      48.264  28.476  27.182  1.00  0.00     0.074 A 
ATOM     62  C   UNL A   1      49.344  29.440  27.199  1.00  0.00     0.031 C 
ATOM     63  C   UNL A   1      48.414  27.172  26.841  1.00  0.00     0.037 A 
BRANCH  50  64
ATOM     64  C   UNL A   1      43.164  23.934  27.157  1.00  0.00     0.058 A 
ATOM     65  C   UNL A   1      42.648  23.547  25.911  1.00  0.00     0.135 A 
ATOM     66  C   UNL A   1      43.004  23.054  28.240  1.00  0.00     0.135 A 
ATOM     67  F   UNL A   1      42.756  24.364  24.851  1.00  0.00    -0.206 F 
ATOM     68  C   UNL A   1      41.971  22.342  25.751  1.00  0.00     0.059 A 
ATOM     69  C   UNL A   1      42.348  21.837  28.098  1.00  0.00     0.059 A 
ATOM     70  F   UNL A   1      43.476  23.383  29.452  1.00  0.00    -0.206 F 
ATOM     71  C   UNL A   1      41.819  21.498  26.853  1.00  0.00     0.060 A 
BRANCH  71  72
ATOM     72  S   UNL A   1      40.921  19.947  26.642  1.00  0.00     0.124 S 
ATOM     73  O   UNL A   1      41.825  19.205  25.769  1.00  0.00    -0.237 OA
ATOM     74  O   UNL A   1      40.818  19.454  28.012  1.00  0.00    -0.237 OA
ATOM     75  O   UNL A   1      39.661  20.364  26.035  1.00  0.00    -0.744 OA
ENDBRANCH  71  72
ENDBRANCH  50  64
BRANCH  51  76
ATOM     76  C   UNL A   1      47.293  32.895  28.459  1.00  0.00     0.058 A 
ATOM     77  C   UNL A   1      47.383  33.815  27.404  1.00  0.00     0.135 A 
ATOM     78  C   UNL A   1      47.862  33.254  29.691  1.00  0.00     0.135 A 
ATOM     79  F   UNL A   1      46.872  33.509  26.202  1.00  0.00    -0.206 F 
ATOM     80  C   UNL A   1      48.028  35.038  27.557  1.00  0.00     0.059 A 
ATOM     81  C   UNL A   1      48.490  34.482  29.875  1.00  0.00     0.059 A 
ATOM     82  F   UNL A   1      47.803  32.409  30.732  1.00  0.00    -0.206 F 
ATOM     83  C   UNL A   1      48.579  35.362  28.798  1.00  0.00     0.060 A 
BRANCH  83  84
ATOM     84  S   UNL A   1      49.381  36.967  29.005  1.00  0.00     0.124 S 
ATOM     85  O   UNL A   1      50.191  37.048  27.795  1.00  0.00    -0.237 OA
ATOM     86  O   UNL A   1      48.241  37.877  29.073  1.00  0.00    -0.237 OA
ATOM     87  O   UNL A   1      50.121  36.810  30.254  1.00  0.00    -0.744 OA
ENDBRANCH  83  84
ENDBRANCH  51  76
BRANCH  63  88
ATOM     88  C   UNL A   1      49.783  26.710  26.423  1.00  0.00     0.058 A 
ATOM     89  C   UNL A   1      50.646  26.059  27.317  1.00  0.00     0.135 A 
ATOM     90  C   UNL A   1      50.212  26.866  25.094  1.00  0.00     0.135 A 
ATOM     91  F   UNL A   1      50.287  25.886  28.600  1.00  0.00    -0.206 F 
ATOM     92  C   UNL A   1      51.895  25.593  26.914  1.00  0.00     0.059 A 
ATOM     93  C   UNL A   1      51.447  26.390  24.664  1.00  0.00     0.059 A 
ATOM     94  F   UNL A   1      49.420  27.473  24.196  1.00  0.00    -0.206 F 
ATOM     95  C   UNL A   1      52.286  25.763  25.584  1.00  0.00     0.060 A 
BRANCH  95  96
ATOM     96  S   UNL A   1      53.891  25.122  25.059  1.00  0.00     0.124 S 
ATOM     97  O   UNL A   1      53.587  23.712  24.838  1.00  0.00    -0.237 OA
ATOM     98  O   UNL A   1      54.167  25.906  23.858  1.00  0.00    -0.237 OA
ATOM     99  O   UNL A   1      54.759  25.407  26.197  1.00  0.00    -0.744 OA
ENDBRANCH  95  96
ENDBRANCH  63  88
ENDBRANCH  37  38
ENDBRANCH  30  32
ENDBRANCH  29  30
ENDBRANCH  28  29
ENDBRANCH  27  28
ENDBRANCH  26  27
ENDBRANCH  25  26
ENDBRANCH   1  25
TORSDOF 27
ENDMDL
MODEL 2
REMARK VINA RESULT:      -8.9      2.767      8.952
REMARK SMILES C#CCN(CC(=O)OCCOCCOCCOC(=O)c1ccc(-c2c3nc(c(-c4c(F)cc(S(=O)(=O)[O-])cc4F)c4ccc([nH]4)c(-c4c(F)cc(S(=O)(=O)[O-])cc4F)c4nc(c(-c5c(F)cc(S(=O)(=O)[O-])cc5F)c5ccc2[nH]5)C=C4)C=C3)cc1)C(=O)CCc1ccc(Cl)cc1Cl
REMARK SMILES IDX 12 1 11 2 10 3 9 4 8 5 6 6 7 7 5 8 4 9 3 10 2 11 1 12 86 13
REMARK SMILES IDX 87 14 88 15 89 16 90 17 91 18 96 19 92 20 95 21 97 22 93 23
REMARK SMILES IDX 94 24 13 25 14 26 15 27 16 28 17 29 18 30 19 31 20 32 21 33
REMARK SMILES IDX 85 34 22 35 84 36 23 37 24 38 25 39 78 40 26 41 83 42 77 43
REMARK SMILES IDX 79 44 27 45 82 46 76 47 75 48 28 50 62 51 41 52 61 53 42 54
REMARK SMILES IDX 45 55 60 56 80 57 43 58 44 59 59 61 81 62 46 63 29 64 30 65
REMARK SMILES IDX 39 66 31 67 32 68 38 69 40 70 33 71 34 72 35 73 36 74 37 75
REMARK SMILES IDX 63 76 64 77 73 78 65 79 66 80 72 81 74 82 67 83 68 84 69 85
REMARK SMILES IDX 70 86 71 87 47 88 48 89 57 90 49 91 50 92 56 93 58 94 51 95
REMARK SMILES IDX 52 96 53 97 54 98 55 99
REMARK H PARENT 79 49 45 60
REMARK Flexibility Score: inf
ROOT
ATOM      1  C   UNL A   1      34.913  21.008  25.560  1.00  0.00     0.188 C 
ENDROOT
BRANCH   1   2
ATOM      2  O   UNL A   1      34.077  20.027  24.947  1.00  0.00    -0.376 OA
BRANCH   2   3
ATOM      3  C   UNL A   1      32.706  20.075  25.330  1.00  0.00     0.202 C 
BRANCH   3   4
ATOM      4  C   UNL A   1      32.140  21.497  25.331  1.00  0.00     0.261 C 
BRANCH   4   5
ATOM      5  O   UNL A   1      31.860  21.964  26.671  1.00  0.00    -0.462 OA
BRANCH   5   6
ATOM      6  C   UNL A   1      31.199  23.139  26.775  1.00  0.00     0.325 C 
ATOM      7  O   UNL A   1      30.176  23.298  27.432  1.00  0.00    -0.250 OA
BRANCH   6   8
ATOM      8  C   UNL A   1      31.913  24.301  26.078  1.00  0.00     0.243 C 
BRANCH   8   9
ATOM      9  N   UNL A   1      31.285  25.063  24.988  1.00  0.00    -0.320 N 
BRANCH   9  10
ATOM     10  C   UNL A   1      31.590  24.640  23.615  1.00  0.00     0.210 C 
BRANCH  10  11
ATOM     11  C   UNL A   1      33.097  24.548  23.439  1.00  0.00    -0.085 C 
ATOM     12  C   UNL A   1      34.390  24.469  23.289  1.00  0.00     0.006 C 
ENDBRANCH  10  11
ENDBRANCH   9  10
BRANCH   9  13
ATOM     13  C   UNL A   1      30.523  26.213  25.150  1.00  0.00     0.224 C 
ATOM     14  O   UNL A   1      29.341  26.264  24.794  1.00  0.00    -0.275 OA
BRANCH  13  15
ATOM     15  C   UNL A   1      31.136  27.478  25.722  1.00  0.00     0.105 C 
BRANCH  15  16
ATOM     16  C   UNL A   1      31.726  28.494  24.735  1.00  0.00     0.047 C 
BRANCH  16  17
ATOM     17  C   UNL A   1      30.685  29.282  23.971  1.00  0.00    -0.029 A 
ATOM     18  C   UNL A   1      30.189  30.464  24.546  1.00  0.00     0.007 A 
ATOM     19  C   UNL A   1      30.261  28.935  22.670  1.00  0.00     0.045 A 
ATOM     20  C   UNL A   1      29.381  31.327  23.804  1.00  0.00     0.021 A 
ATOM     21  C   UNL A   1      29.479  29.816  21.920  1.00  0.00     0.041 A 
ATOM     22  Cl  UNL A   1      30.746  27.463  21.901  1.00  0.00    -0.084 Cl
ATOM     23  C   UNL A   1      29.060  31.015  22.485  1.00  0.00     0.042 A 
ATOM     24  Cl  UNL A   1      28.168  32.141  21.540  1.00  0.00    -0.084 Cl
ENDBRANCH  16  17
ENDBRANCH  15  16
ENDBRANCH  13  15
ENDBRANCH   9  13
ENDBRANCH   8   9
ENDBRANCH   6   8
ENDBRANCH   5   6
ENDBRANCH   4   5
ENDBRANCH   3   4
ENDBRANCH   2   3
ENDBRANCH   1   2
BRANCH   1  25
ATOM     25  C   UNL A   1      36.269  21.165  24.849  1.00  0.00     0.188 C 
BRANCH  25  26
ATOM     26  O   UNL A   1      37.426  20.949  25.658  1.00  0.00    -0.376 OA
BRANCH  26  27
ATOM     27  C   UNL A   1      38.542  21.798  25.395  1.00  0.00     0.202 C 
BRANCH  27  28
ATOM     28  C   UNL A   1      39.531  21.899  26.554  1.00  0.00     0.261 C 
BRANCH  28  29
ATOM     29  O   UNL A   1      39.997  20.592  26.933  1.00  0.00    -0.460 OA
BRANCH  29  30
ATOM     30  C   UNL A   1      41.187  20.256  26.383  1.00  0.00     0.338 C 
ATOM     31  O   UNL A   1      41.437  19.250  25.745  1.00  0.00    -0.246 OA
BRANCH  30  32
ATOM     32  C   UNL A   1      42.179  21.308  26.681  1.00  0.00     0.060 A 
ATOM     33  C   UNL A   1      42.474  21.643  28.005  1.00  0.00     0.016 A 
ATOM     34  C   UNL A   1      42.709  22.062  25.633  1.00  0.00     0.016 A 
ATOM     35  C   UNL A   1      43.275  22.759  28.284  1.00  0.00     0.010 A 
ATOM     36  C   UNL A   1      43.521  23.167  25.914  1.00  0.00     0.010 A 
ATOM     37  C   UNL A   1      43.782  23.546  27.242  1.00  0.00    -0.014 A 
BRANCH  37  38
ATOM     38  C   UNL A   1      44.390  24.875  27.525  1.00  0.00     0.031 A 
ATOM     39  C   UNL A   1      43.488  25.989  27.986  1.00  0.00     0.074 A 
ATOM     40  C   UNL A   1      45.713  25.105  27.418  1.00  0.00     0.049 A 
ATOM     41  N   UNL A   1      43.740  27.264  28.119  1.00  0.00    -0.248 NA
ATOM     42  C   UNL A   1      42.115  25.603  28.352  1.00  0.00     0.031 C 
ATOM     43  C   UNL A   1      46.726  24.106  27.092  1.00  0.00     0.029 A 
ATOM     44  N   UNL A   1      46.427  26.270  27.571  1.00  0.00    -0.354 N 
ATOM     45  C   UNL A   1      42.551  27.842  28.547  1.00  0.00     0.074 A 
ATOM     46  C   UNL A   1      41.580  26.775  28.660  1.00  0.00     0.031 C 
ATOM     47  C   UNL A   1      47.932  24.701  27.065  1.00  0.00     0.029 A 
ATOM     48  C   UNL A   1      47.770  26.135  27.310  1.00  0.00     0.049 A 
ATOM     49  H   UNL A   1      46.014  27.121  27.842  1.00  0.00     0.167 HD
ATOM     50  C   UNL A   1      42.285  29.143  28.812  1.00  0.00     0.037 A 
ATOM     51  C   UNL A   1      48.745  27.064  27.235  1.00  0.00     0.037 A 
ATOM     52  C   UNL A   1      43.247  30.207  28.713  1.00  0.00     0.049 A 
ATOM     53  C   UNL A   1      48.410  28.522  27.441  1.00  0.00     0.074 A 
ATOM     54  C   UNL A   1      43.055  31.564  28.910  1.00  0.00     0.029 A 
ATOM     55  N   UNL A   1      44.585  30.035  28.398  1.00  0.00    -0.354 N 
ATOM     56  N   UNL A   1      47.262  29.071  27.760  1.00  0.00    -0.248 NA
ATOM     57  C   UNL A   1      49.503  29.491  27.254  1.00  0.00     0.031 C 
ATOM     58  C   UNL A   1      44.273  32.216  28.687  1.00  0.00     0.029 A 
ATOM     59  C   UNL A   1      45.230  31.260  28.387  1.00  0.00     0.049 A 
ATOM     60  H   UNL A   1      45.014  29.169  28.209  1.00  0.00     0.167 HD
ATOM     61  C   UNL A   1      47.498  30.442  27.828  1.00  0.00     0.074 A 
ATOM     62  C   UNL A   1      48.901  30.640  27.531  1.00  0.00     0.031 C 
ATOM     63  C   UNL A   1      46.631  31.446  28.106  1.00  0.00     0.037 A 
BRANCH  50  64
ATOM     64  C   UNL A   1      40.871  29.487  29.175  1.00  0.00     0.058 A 
ATOM     65  C   UNL A   1      40.497  29.781  30.495  1.00  0.00     0.135 A 
ATOM     66  C   UNL A   1      39.877  29.516  28.185  1.00  0.00     0.135 A 
ATOM     67  F   UNL A   1      41.408  29.743  31.481  1.00  0.00    -0.206 F 
ATOM     68  C   UNL A   1      39.175  30.063  30.826  1.00  0.00     0.059 A 
ATOM     69  C   UNL A   1      38.554  29.816  28.490  1.00  0.00     0.059 A 
ATOM     70  F   UNL A   1      40.186  29.237  26.909  1.00  0.00    -0.206 F 
ATOM     71  C   UNL A   1      38.210  30.070  29.817  1.00  0.00     0.060 A 
BRANCH  71  72
ATOM     72  S   UNL A   1      36.495  30.417  30.257  1.00  0.00     0.124 S 
ATOM     73  O   UNL A   1      36.617  31.727  30.889  1.00  0.00    -0.237 OA
ATOM     74  O   UNL A   1      35.827  30.400  28.959  1.00  0.00    -0.237 OA
ATOM     75  O   UNL A   1      36.145  29.318  31.151  1.00  0.00    -0.744 OA
ENDBRANCH  71  72
ENDBRANCH  50  64
BRANCH  51  76
ATOM     76  C   UNL A   1      50.137  26.666  26.888  1.00  0.00     0.058 A 
ATOM     77  C   UNL A   1      51.093  26.431  27.887  1.00  0.00     0.135 A 
ATOM     78  C   UNL A   1      50.548  26.554  25.550  1.00  0.00     0.135 A 
ATOM     79  F   UNL A   1      50.754  26.547  29.180  1.00  0.00    -0.206 F 
ATOM     80  C   UNL A   1      52.411  26.113  27.575  1.00  0.00     0.059 A 
ATOM     81  C   UNL A   1      51.854  26.212  25.214  1.00  0.00     0.059 A 
ATOM     82  F   UNL A   1      49.672  26.769  24.557  1.00  0.00    -0.206 F 
ATOM     83  C   UNL A   1      52.782  26.006  26.233  1.00  0.00     0.060 A 
BRANCH  83  84
ATOM     84  S   UNL A   1      54.484  25.554  25.831  1.00  0.00     0.124 S 
ATOM     85  O   UNL A   1      54.300  24.767  24.618  1.00  0.00    -0.237 OA
ATOM     86  O   UNL A   1      55.117  26.859  25.658  1.00  0.00    -0.237 OA
ATOM     87  O   UNL A   1      54.917  24.811  27.011  1.00  0.00    -0.744 OA
ENDBRANCH  83  84
ENDBRANCH  51  76
BRANCH  63  88
ATOM     88  C   UNL A   1      47.171  32.849  28.142  1.00  0.00     0.058 A 
ATOM     89  C   UNL A   1      47.897  33.333  29.241  1.00  0.00     0.135 A 
ATOM     90  C   UNL A   1      47.013  33.700  27.035  1.00  0.00     0.135 A 
ATOM     91  F   UNL A   1      48.074  32.561  30.326  1.00  0.00    -0.206 F 
ATOM     92  C   UNL A   1      48.433  34.617  29.250  1.00  0.00     0.059 A 
ATOM     93  C   UNL A   1      47.558  34.981  27.014  1.00  0.00     0.059 A 
ATOM     94  F   UNL A   1      46.337  33.283  25.953  1.00  0.00    -0.206 F 
ATOM     95  C   UNL A   1      48.259  35.435  28.132  1.00  0.00     0.060 A 
BRANCH  95  96
ATOM     96  S   UNL A   1      48.990  37.086  28.135  1.00  0.00     0.124 S 
ATOM     97  O   UNL A   1      48.074  37.812  29.008  1.00  0.00    -0.237 OA
ATOM     98  O   UNL A   1      50.323  36.840  28.680  1.00  0.00    -0.237 OA
ATOM     99  O   UNL A   1      48.959  37.473  26.728  1.00  0.00    -0.744 OA
ENDBRANCH  95  96
ENDBRANCH  63  88
ENDBRANCH  37  38
ENDBRANCH  30  32
ENDBRANCH  29  30
ENDBRANCH  28  29
ENDBRANCH  27  28
ENDBRANCH  26  27
ENDBRANCH  25  26
ENDBRANCH   1  25
TORSDOF 27
ENDMDL
MODEL 3
REMARK VINA RESULT:      -8.4      3.411      9.107
REMARK SMILES C#CCN(CC(=O)OCCOCCOCCOC(=O)c1ccc(-c2c3nc(c(-c4c(F)cc(S(=O)(=O)[O-])cc4F)c4ccc([nH]4)c(-c4c(F)cc(S(=O)(=O)[O-])cc4F)c4nc(c(-c5c(F)cc(S(=O)(=O)[O-])cc5F)c5ccc2[nH]5)C=C4)C=C3)cc1)C(=O)CCc1ccc(Cl)cc1Cl
REMARK SMILES IDX 12 1 11 2 10 3 9 4 8 5 6 6 7 7 5 8 4 9 3 10 2 11 1 12 86 13
REMARK SMILES IDX 87 14 88 15 89 16 90 17 91 18 96 19 92 20 95 21 97 22 93 23
REMARK SMILES IDX 94 24 13 25 14 26 15 27 16 28 17 29 18 30 19 31 20 32 21 33
REMARK SMILES IDX 85 34 22 35 84 36 23 37 24 38 25 39 78 40 26 41 83 42 77 43
REMARK SMILES IDX 79 44 27 45 82 46 76 47 75 48 28 50 62 51 41 52 61 53 42 54
REMARK SMILES IDX 45 55 60 56 80 57 43 58 44 59 59 61 81 62 46 63 29 64 30 65
REMARK SMILES IDX 39 66 31 67 32 68 38 69 40 70 33 71 34 72 35 73 36 74 37 75
REMARK SMILES IDX 63 76 64 77 73 78 65 79 66 80 72 81 74 82 67 83 68 84 69 85
REMARK SMILES IDX 70 86 71 87 47 88 48 89 57 90 49 91 50 92 56 93 58 94 51 95
REMARK SMILES IDX 52 96 53 97 54 98 55 99
REMARK H PARENT 79 49 45 60
REMARK Flexibility Score: inf
ROOT
ATOM      1  C   UNL A   1      34.532  23.500  23.607  1.00  0.00     0.188 C 
ENDROOT
BRANCH   1   2
ATOM      2  O   UNL A   1      33.588  23.371  22.544  1.00  0.00    -0.376 OA
BRANCH   2   3
ATOM      3  C   UNL A   1      33.268  24.585  21.870  1.00  0.00     0.202 C 
BRANCH   3   4
ATOM      4  C   UNL A   1      33.310  25.805  22.793  1.00  0.00     0.261 C 
BRANCH   4   5
ATOM      5  O   UNL A   1      32.488  26.885  22.296  1.00  0.00    -0.462 OA
BRANCH   5   6
ATOM      6  C   UNL A   1      33.068  28.105  22.230  1.00  0.00     0.325 C 
ATOM      7  O   UNL A   1      34.206  28.304  21.818  1.00  0.00    -0.250 OA
BRANCH   6   8
ATOM      8  C   UNL A   1      32.125  29.247  22.617  1.00  0.00     0.243 C 
BRANCH   8   9
ATOM      9  N   UNL A   1      31.201  29.145  23.756  1.00  0.00    -0.320 N 
BRANCH   9  10
ATOM     10  C   UNL A   1      29.769  29.038  23.448  1.00  0.00     0.210 C 
BRANCH  10  11
ATOM     11  C   UNL A   1      29.368  30.168  22.514  1.00  0.00    -0.085 C 
ATOM     12  C   UNL A   1      29.024  31.137  21.712  1.00  0.00     0.006 C 
ENDBRANCH  10  11
ENDBRANCH   9  10
BRANCH   9  13
ATOM     13  C   UNL A   1      31.562  29.256  25.093  1.00  0.00     0.224 C 
ATOM     14  O   UNL A   1      31.530  30.340  25.687  1.00  0.00    -0.275 OA
BRANCH  13  15
ATOM     15  C   UNL A   1      32.069  28.052  25.864  1.00  0.00     0.105 C 
BRANCH  15  16
ATOM     16  C   UNL A   1      31.036  27.023  26.341  1.00  0.00     0.047 C 
BRANCH  16  17
ATOM     17  C   UNL A   1      31.343  25.604  25.914  1.00  0.00    -0.029 A 
ATOM     18  C   UNL A   1      32.285  24.873  26.657  1.00  0.00     0.007 A 
ATOM     19  C   UNL A   1      30.658  24.953  24.866  1.00  0.00     0.045 A 
ATOM     20  C   UNL A   1      32.460  23.507  26.430  1.00  0.00     0.021 A 
ATOM     21  C   UNL A   1      30.811  23.580  24.663  1.00  0.00     0.041 A 
ATOM     22  Cl  UNL A   1      29.538  25.779  23.838  1.00  0.00    -0.084 Cl
ATOM     23  C   UNL A   1      31.697  22.862  25.459  1.00  0.00     0.042 A 
ATOM     24  Cl  UNL A   1      31.828  21.157  25.272  1.00  0.00    -0.084 Cl
ENDBRANCH  16  17
ENDBRANCH  15  16
ENDBRANCH  13  15
ENDBRANCH   9  13
ENDBRANCH   8   9
ENDBRANCH   6   8
ENDBRANCH   5   6
ENDBRANCH   4   5
ENDBRANCH   3   4
ENDBRANCH   2   3
ENDBRANCH   1   2
BRANCH   1  25
ATOM     25  C   UNL A   1      35.326  22.206  23.860  1.00  0.00     0.188 C 
BRANCH  25  26
ATOM     26  O   UNL A   1      36.711  22.247  23.513  1.00  0.00    -0.376 OA
BRANCH  26  27
ATOM     27  C   UNL A   1      37.567  21.371  24.243  1.00  0.00     0.202 C 
BRANCH  27  28
ATOM     28  C   UNL A   1      37.578  21.625  25.749  1.00  0.00     0.261 C 
BRANCH  28  29
ATOM     29  O   UNL A   1      38.570  22.611  26.085  1.00  0.00    -0.460 OA
BRANCH  29  30
ATOM     30  C   UNL A   1      38.054  23.828  26.373  1.00  0.00     0.338 C 
ATOM     31  O   UNL A   1      36.909  24.196  26.189  1.00  0.00    -0.246 OA
BRANCH  30  32
ATOM     32  C   UNL A   1      39.109  24.683  26.952  1.00  0.00     0.060 A 
ATOM     33  C   UNL A   1      39.118  24.960  28.322  1.00  0.00     0.016 A 
ATOM     34  C   UNL A   1      40.009  25.327  26.101  1.00  0.00     0.016 A 
ATOM     35  C   UNL A   1      40.007  25.912  28.838  1.00  0.00     0.010 A 
ATOM     36  C   UNL A   1      40.907  26.266  26.623  1.00  0.00     0.010 A 
ATOM     37  C   UNL A   1      40.890  26.592  27.990  1.00  0.00    -0.014 A 
BRANCH  37  38
ATOM     38  C   UNL A   1      41.632  27.789  28.473  1.00  0.00     0.031 A 
ATOM     39  C   UNL A   1      40.843  28.928  29.063  1.00  0.00     0.074 A 
ATOM     40  C   UNL A   1      42.975  27.874  28.433  1.00  0.00     0.049 A 
ATOM     41  N   UNL A   1      41.232  30.134  29.382  1.00  0.00    -0.248 NA
ATOM     42  C   UNL A   1      39.421  28.660  29.337  1.00  0.00     0.031 C 
ATOM     43  C   UNL A   1      43.881  26.817  27.994  1.00  0.00     0.029 A 
ATOM     44  N   UNL A   1      43.810  28.915  28.767  1.00  0.00    -0.354 N 
ATOM     45  C   UNL A   1      40.099  30.783  29.857  1.00  0.00     0.074 A 
ATOM     46  C   UNL A   1      39.010  29.833  29.794  1.00  0.00     0.031 C 
ATOM     47  C   UNL A   1      45.148  27.264  28.082  1.00  0.00     0.029 A 
ATOM     48  C   UNL A   1      45.138  28.660  28.523  1.00  0.00     0.049 A 
ATOM     49  H   UNL A   1      43.485  29.764  29.145  1.00  0.00     0.167 HD
ATOM     50  C   UNL A   1      39.971  32.058  30.296  1.00  0.00     0.037 A 
ATOM     51  C   UNL A   1      46.215  29.470  28.604  1.00  0.00     0.037 A 
ATOM     52  C   UNL A   1      41.051  33.005  30.372  1.00  0.00     0.049 A 
ATOM     53  C   UNL A   1      46.038  30.914  29.006  1.00  0.00     0.074 A 
ATOM     54  C   UNL A   1      41.006  34.335  30.754  1.00  0.00     0.029 A 
ATOM     55  N   UNL A   1      42.373  32.722  30.070  1.00  0.00    -0.354 N 
ATOM     56  N   UNL A   1      44.948  31.546  29.370  1.00  0.00    -0.248 NA
ATOM     57  C   UNL A   1      47.241  31.765  28.985  1.00  0.00     0.031 C 
ATOM     58  C   UNL A   1      42.298  34.863  30.656  1.00  0.00     0.029 A 
ATOM     59  C   UNL A   1      43.153  33.851  30.249  1.00  0.00     0.049 A 
ATOM     60  H   UNL A   1      42.709  31.845  29.772  1.00  0.00     0.167 HD
ATOM     61  C   UNL A   1      45.335  32.857  29.637  1.00  0.00     0.074 A 
ATOM     62  C   UNL A   1      46.762  32.927  29.406  1.00  0.00     0.031 C 
ATOM     63  C   UNL A   1      44.576  33.908  30.032  1.00  0.00     0.037 A 
BRANCH  50  64
ATOM     64  C   UNL A   1      38.592  32.513  30.669  1.00  0.00     0.058 A 
ATOM     65  C   UNL A   1      37.776  33.216  29.771  1.00  0.00     0.135 A 
ATOM     66  C   UNL A   1      38.086  32.246  31.951  1.00  0.00     0.135 A 
ATOM     67  F   UNL A   1      38.225  33.515  28.541  1.00  0.00    -0.206 F 
ATOM     68  C   UNL A   1      36.512  33.665  30.141  1.00  0.00     0.059 A 
ATOM     69  C   UNL A   1      36.819  32.668  32.335  1.00  0.00     0.059 A 
ATOM     70  F   UNL A   1      38.832  31.582  32.847  1.00  0.00    -0.206 F 
ATOM     71  C   UNL A   1      36.046  33.393  31.428  1.00  0.00     0.060 A 
BRANCH  71  72
ATOM     72  S   UNL A   1      34.414  33.997  31.908  1.00  0.00     0.124 S 
ATOM     73  O   UNL A   1      34.761  35.190  32.675  1.00  0.00    -0.237 OA
ATOM     74  O   UNL A   1      33.776  34.238  30.618  1.00  0.00    -0.237 OA
ATOM     75  O   UNL A   1      33.858  32.893  32.682  1.00  0.00    -0.744 OA
ENDBRANCH  71  72
ENDBRANCH  50  64
BRANCH  51  76
ATOM     76  C   UNL A   1      47.566  28.962  28.240  1.00  0.00     0.058 A 
ATOM     77  C   UNL A   1      47.975  28.890  26.900  1.00  0.00     0.135 A 
ATOM     78  C   UNL A   1      48.458  28.502  29.221  1.00  0.00     0.135 A 
ATOM     79  F   UNL A   1      47.150  29.297  25.924  1.00  0.00    -0.206 F 
ATOM     80  C   UNL A   1      49.213  28.365  26.543  1.00  0.00     0.059 A 
ATOM     81  C   UNL A   1      49.711  27.997  28.891  1.00  0.00     0.059 A 
ATOM     82  F   UNL A   1      48.114  28.548  30.518  1.00  0.00    -0.206 F 
ATOM     83  C   UNL A   1      50.075  27.921  27.548  1.00  0.00     0.060 A 
BRANCH  83  84
ATOM     84  S   UNL A   1      51.698  27.277  27.084  1.00  0.00     0.124 S 
ATOM     85  O   UNL A   1      52.539  27.806  28.151  1.00  0.00    -0.237 OA
ATOM     86  O   UNL A   1      51.475  25.834  27.101  1.00  0.00    -0.237 OA
ATOM     87  O   UNL A   1      51.916  27.852  25.760  1.00  0.00    -0.744 OA
ENDBRANCH  83  84
ENDBRANCH  51  76
BRANCH  63  88
ATOM     88  C   UNL A   1      45.269  35.220  30.279  1.00  0.00     0.058 A 
ATOM     89  C   UNL A   1      45.816  35.541  31.530  1.00  0.00     0.135 A 
ATOM     90  C   UNL A   1      45.443  36.140  29.231  1.00  0.00     0.135 A 
ATOM     91  F   UNL A   1      45.675  34.697  32.566  1.00  0.00    -0.206 F 
ATOM     92  C   UNL A   1      46.496  36.737  31.741  1.00  0.00     0.059 A 
ATOM     93  C   UNL A   1      46.137  37.333  29.415  1.00  0.00     0.059 A 
ATOM     94  F   UNL A   1      44.950  35.877  28.011  1.00  0.00    -0.206 F 
ATOM     95  C   UNL A   1      46.652  37.628  30.677  1.00  0.00     0.060 A 
BRANCH  95  96
ATOM     96  S   UNL A   1      47.569  39.160  30.948  1.00  0.00     0.124 S 
ATOM     97  O   UNL A   1      46.488  40.130  31.084  1.00  0.00    -0.237 OA
ATOM     98  O   UNL A   1      48.316  38.869  32.169  1.00  0.00    -0.237 OA
ATOM     99  O   UNL A   1      48.380  39.287  29.742  1.00  0.00    -0.744 OA
ENDBRANCH  95  96
ENDBRANCH  63  88
ENDBRANCH  37  38
ENDBRANCH  30  32
ENDBRANCH  29  30
ENDBRANCH  28  29
ENDBRANCH  27  28
ENDBRANCH  26  27
ENDBRANCH  25  26
ENDBRANCH   1  25
TORSDOF 27
ENDMDL
