MODEL 1
REMARK VINA RESULT:     -11.3      0.000      0.000
REMARK SMILES Cc1c(C[NH2+]C[C@@H]2CCCO2)c(C(=O)OCCOCCOCCOC(=O)c2ccc(-c3c4nc(c(-c5c(F)cc(S(=O)(=O)[O-])cc5F)c5ccc([nH]5)c(-c5c(F)cc(S(=O)(=O)[O-])cc5F)c5nc(c(-c6c(F)cc(S(=O)(=O)[O-])cc6F)c6ccc3[nH]6)C=C5)C=C4)cc2)c(C)n1Cc1ccc(F)cc1
REMARK SMILES IDX 19 1 18 2 17 3 16 4 15 5 13 6 14 7 12 8 1 9 2 10 3 11 95 12
REMARK SMILES IDX 93 13 94 14 4 15 5 16 6 19 7 20 8 21 11 22 9 23 10 24 96 25
REMARK SMILES IDX 97 26 98 27 103 28 99 29 102 30 100 31 101 32 20 33 21 34
REMARK SMILES IDX 22 35 23 36 24 37 25 38 26 39 27 40 28 41 92 42 29 43 91 44
REMARK SMILES IDX 30 45 31 46 32 47 85 48 33 49 90 50 84 51 86 52 34 53 89 54
REMARK SMILES IDX 83 55 82 56 35 58 69 59 48 60 68 61 49 62 52 63 67 64 87 65
REMARK SMILES IDX 50 66 51 67 66 69 88 70 53 71 36 72 37 73 46 74 38 75 39 76
REMARK SMILES IDX 45 77 47 78 40 79 41 80 42 81 43 82 44 83 70 84 71 85 80 86
REMARK SMILES IDX 72 87 73 88 79 89 81 90 74 91 75 92 76 93 77 94 78 95 54 96
REMARK SMILES IDX 55 97 64 98 56 99 57 100 63 101 65 102 58 103 59 104 60 105
REMARK SMILES IDX 61 106 62 107
REMARK H PARENT 5 17 5 18 86 57 52 68
REMARK Flexibility Score: inf
ROOT
ATOM      1  C   UNL A   1      37.654  22.056  25.753  1.00  0.00     0.188 C 
ENDROOT
BRANCH   1   2
ATOM      2  O   UNL A   1      37.347  23.254  25.070  1.00  0.00    -0.376 OA
BRANCH   2   3
ATOM      3  C   UNL A   1      36.042  23.574  24.615  1.00  0.00     0.202 C 
BRANCH   3   4
ATOM      4  C   UNL A   1      35.308  22.886  23.458  1.00  0.00     0.261 C 
BRANCH   4   5
ATOM      5  O   UNL A   1      34.479  23.730  22.674  1.00  0.00    -0.460 OA
BRANCH   5   6
ATOM      6  C   UNL A   1      33.157  23.411  22.666  1.00  0.00     0.340 C 
ATOM      7  O   UNL A   1      32.663  22.430  22.090  1.00  0.00    -0.246 OA
BRANCH   6   8
ATOM      8  C   UNL A   1      32.381  24.406  23.376  1.00  0.00     0.089 A 
ATOM      9  C   UNL A   1      29.900  25.804  25.768  1.00  0.00     0.065 C 
ATOM     10  C   UNL A   1      30.975  25.492  24.777  1.00  0.00     0.025 A 
ATOM     11  C   UNL A   1      31.497  24.232  24.487  1.00  0.00     0.042 A 
ATOM     12  N   UNL A   1      31.635  26.430  23.990  1.00  0.00    -0.343 N 
ATOM     13  C   UNL A   1      32.410  25.759  23.060  1.00  0.00     0.030 A 
ATOM     14  C   UNL A   1      33.168  26.386  21.934  1.00  0.00     0.065 C 
BRANCH  11  15
ATOM     15  C   UNL A   1      31.197  22.944  25.219  1.00  0.00     0.300 C 
BRANCH  15  16
ATOM     16  N   UNL A   1      32.346  22.060  25.107  1.00  0.00    -0.340 N 
ATOM     17  H   UNL A   1      32.910  22.159  25.950  1.00  0.00     0.346 HD
ATOM     18  H   UNL A   1      32.847  22.337  24.262  1.00  0.00     0.346 HD
BRANCH  16  19
ATOM     19  C   UNL A   1      32.002  20.644  24.947  1.00  0.00     0.293 C 
BRANCH  19  20
ATOM     20  C   UNL A   1      33.038  19.576  25.371  1.00  0.00     0.173 C 
ATOM     21  C   UNL A   1      34.287  19.422  24.511  1.00  0.00     0.040 C 
ATOM     22  O   UNL A   1      32.401  18.290  25.440  1.00  0.00    -0.372 OA
ATOM     23  C   UNL A   1      34.581  17.943  24.578  1.00  0.00     0.031 C 
ATOM     24  C   UNL A   1      33.228  17.312  24.812  1.00  0.00     0.161 C 
ENDBRANCH  19  20
ENDBRANCH  16  19
ENDBRANCH  15  16
ENDBRANCH  11  15
BRANCH  12  25
ATOM     25  C   UNL A   1      31.420  27.882  24.009  1.00  0.00     0.157 C 
BRANCH  25  26
ATOM     26  C   UNL A   1      32.273  28.673  24.986  1.00  0.00    -0.028 A 
ATOM     27  C   UNL A   1      33.477  28.114  25.456  1.00  0.00     0.008 A 
ATOM     28  C   UNL A   1      31.846  29.878  25.569  1.00  0.00     0.008 A 
ATOM     29  C   UNL A   1      34.200  28.723  26.489  1.00  0.00     0.039 A 
ATOM     30  C   UNL A   1      32.560  30.481  26.609  1.00  0.00     0.039 A 
ATOM     31  C   UNL A   1      33.726  29.892  27.067  1.00  0.00     0.123 A 
ATOM     32  F   UNL A   1      34.390  30.446  28.089  1.00  0.00    -0.207 F 
ENDBRANCH  25  26
ENDBRANCH  12  25
ENDBRANCH   6   8
ENDBRANCH   5   6
ENDBRANCH   4   5
ENDBRANCH   3   4
ENDBRANCH   2   3
ENDBRANCH   1   2
BRANCH   1  33
ATOM     33  C   UNL A   1      39.077  21.473  25.722  1.00  0.00     0.188 C 
BRANCH  33  34
ATOM     34  O   UNL A   1      39.940  21.762  26.801  1.00  0.00    -0.376 OA
BRANCH  34  35
ATOM     35  C   UNL A   1      40.909  20.776  27.162  1.00  0.00     0.202 C 
BRANCH  35  36
ATOM     36  C   UNL A   1      41.975  20.262  26.134  1.00  0.00     0.261 C 
BRANCH  36  37
ATOM     37  O   UNL A   1      43.393  20.715  26.172  1.00  0.00    -0.460 OA
BRANCH  37  38
ATOM     38  C   UNL A   1      43.730  21.792  25.361  1.00  0.00     0.338 C 
ATOM     39  O   UNL A   1      43.949  21.637  24.164  1.00  0.00    -0.246 OA
BRANCH  38  40
ATOM     40  C   UNL A   1      43.777  23.232  25.982  1.00  0.00     0.060 A 
ATOM     41  C   UNL A   1      43.476  23.419  27.329  1.00  0.00     0.016 A 
ATOM     42  C   UNL A   1      43.769  24.450  25.256  1.00  0.00     0.016 A 
ATOM     43  C   UNL A   1      43.257  24.745  27.915  1.00  0.00     0.010 A 
ATOM     44  C   UNL A   1      43.476  25.803  25.851  1.00  0.00     0.010 A 
ATOM     45  C   UNL A   1      43.211  26.023  27.222  1.00  0.00    -0.014 A 
BRANCH  45  46
ATOM     46  C   UNL A   1      42.392  27.313  27.990  1.00  0.00     0.031 A 
ATOM     47  C   UNL A   1      43.528  28.269  28.160  1.00  0.00     0.074 A 
ATOM     48  C   UNL A   1      41.187  27.796  28.586  1.00  0.00     0.049 A 
ATOM     49  N   UNL A   1      44.623  27.871  28.748  1.00  0.00    -0.248 NA
ATOM     50  C   UNL A   1      43.679  29.494  27.372  1.00  0.00     0.031 C 
ATOM     51  C   UNL A   1      39.910  27.078  28.802  1.00  0.00     0.029 A 
ATOM     52  N   UNL A   1      40.781  29.084  29.176  1.00  0.00    -0.354 N 
ATOM     53  C   UNL A   1      45.463  28.949  28.746  1.00  0.00     0.074 A 
ATOM     54  C   UNL A   1      44.952  29.785  27.666  1.00  0.00     0.031 C 
ATOM     55  C   UNL A   1      38.903  27.887  29.272  1.00  0.00     0.029 A 
ATOM     56  C   UNL A   1      39.355  29.262  29.522  1.00  0.00     0.049 A 
ATOM     57  H   UNL A   1      41.437  29.801  29.334  1.00  0.00     0.167 HD
ATOM     58  C   UNL A   1      45.896  29.333  29.983  1.00  0.00     0.037 A 
ATOM     59  C   UNL A   1      38.610  30.353  30.054  1.00  0.00     0.037 A 
ATOM     60  C   UNL A   1      45.207  30.500  30.467  1.00  0.00     0.049 A 
ATOM     61  C   UNL A   1      39.568  31.124  30.857  1.00  0.00     0.074 A 
ATOM     62  C   UNL A   1      44.765  31.661  29.867  1.00  0.00     0.029 A 
ATOM     63  N   UNL A   1      44.480  30.353  31.629  1.00  0.00    -0.354 N 
ATOM     64  N   UNL A   1      39.983  30.708  32.012  1.00  0.00    -0.248 NA
ATOM     65  C   UNL A   1      39.986  32.473  30.485  1.00  0.00     0.031 C 
ATOM     66  C   UNL A   1      43.464  31.846  30.376  1.00  0.00     0.029 A 
ATOM     67  C   UNL A   1      43.318  31.079  31.525  1.00  0.00     0.049 A 
ATOM     68  H   UNL A   1      44.749  29.814  32.407  1.00  0.00     0.167 HD
ATOM     69  C   UNL A   1      41.085  31.471  32.235  1.00  0.00     0.074 A 
ATOM     70  C   UNL A   1      40.887  32.676  31.448  1.00  0.00     0.031 C 
ATOM     71  C   UNL A   1      42.230  30.773  32.419  1.00  0.00     0.037 A 
BRANCH  58  72
ATOM     72  C   UNL A   1      46.316  28.204  30.890  1.00  0.00     0.058 A 
ATOM     73  C   UNL A   1      45.334  27.464  31.554  1.00  0.00     0.135 A 
ATOM     74  C   UNL A   1      47.667  27.862  31.140  1.00  0.00     0.135 A 
ATOM     75  F   UNL A   1      44.034  27.701  31.314  1.00  0.00    -0.206 F 
ATOM     76  C   UNL A   1      45.672  26.464  32.463  1.00  0.00     0.059 A 
ATOM     77  C   UNL A   1      48.027  26.907  32.083  1.00  0.00     0.059 A 
ATOM     78  F   UNL A   1      48.658  28.434  30.438  1.00  0.00    -0.206 F 
ATOM     79  C   UNL A   1      47.019  26.211  32.739  1.00  0.00     0.060 A 
BRANCH  79  80
ATOM     80  S   UNL A   1      47.422  24.967  33.984  1.00  0.00     0.124 S 
ATOM     81  O   UNL A   1      47.427  25.754  35.215  1.00  0.00    -0.237 OA
ATOM     82  O   UNL A   1      46.305  24.040  33.844  1.00  0.00    -0.237 OA
ATOM     83  O   UNL A   1      48.731  24.474  33.570  1.00  0.00    -0.744 OA
ENDBRANCH  79  80
ENDBRANCH  58  72
BRANCH  59  84
ATOM     84  C   UNL A   1      37.159  31.020  30.352  1.00  0.00     0.058 A 
ATOM     85  C   UNL A   1      36.491  30.872  31.634  1.00  0.00     0.135 A 
ATOM     86  C   UNL A   1      36.655  32.126  29.641  1.00  0.00     0.135 A 
ATOM     87  F   UNL A   1      36.787  29.853  32.453  1.00  0.00    -0.206 F 
ATOM     88  C   UNL A   1      35.551  31.781  32.190  1.00  0.00     0.059 A 
ATOM     89  C   UNL A   1      35.678  33.040  30.173  1.00  0.00     0.059 A 
ATOM     90  F   UNL A   1      37.155  32.418  28.433  1.00  0.00    -0.206 F 
ATOM     91  C   UNL A   1      35.169  32.892  31.466  1.00  0.00     0.060 A 
BRANCH  91  92
ATOM     92  S   UNL A   1      34.138  34.177  32.274  1.00  0.00     0.124 S 
ATOM     93  O   UNL A   1      35.128  35.051  32.894  1.00  0.00    -0.237 OA
ATOM     94  O   UNL A   1      33.409  34.755  31.149  1.00  0.00    -0.237 OA
ATOM     95  O   UNL A   1      33.313  33.414  33.208  1.00  0.00    -0.744 OA
ENDBRANCH  91  92
ENDBRANCH  59  84
BRANCH  71  96
ATOM     96  C   UNL A   1      42.192  29.618  33.401  1.00  0.00     0.058 A 
ATOM     97  C   UNL A   1      41.652  28.328  33.190  1.00  0.00     0.135 A 
ATOM     98  C   UNL A   1      42.695  29.872  34.688  1.00  0.00     0.135 A 
ATOM     99  F   UNL A   1      41.227  27.923  31.983  1.00  0.00    -0.206 F 
ATOM    100  C   UNL A   1      41.547  27.389  34.220  1.00  0.00     0.059 A 
ATOM    101  C   UNL A   1      42.649  28.932  35.714  1.00  0.00     0.059 A 
ATOM    102  F   UNL A   1      43.255  31.062  34.959  1.00  0.00    -0.206 F 
ATOM    103  C   UNL A   1      42.036  27.706  35.483  1.00  0.00     0.060 A 
BRANCH 103 104
ATOM    104  S   UNL A   1      41.859  26.506  36.820  1.00  0.00     0.124 S 
ATOM    105  O   UNL A   1      41.838  25.242  36.087  1.00  0.00    -0.237 OA
ATOM    106  O   UNL A   1      43.052  26.743  37.624  1.00  0.00    -0.237 OA
ATOM    107  O   UNL A   1      40.589  26.875  37.441  1.00  0.00    -0.744 OA
ENDBRANCH 103 104
ENDBRANCH  71  96
ENDBRANCH  45  46
ENDBRANCH  38  40
ENDBRANCH  37  38
ENDBRANCH  36  37
ENDBRANCH  35  36
ENDBRANCH  34  35
ENDBRANCH  33  34
ENDBRANCH   1  33
TORSDOF 26
ENDMDL
MODEL 2
REMARK VINA RESULT:     -10.8      1.515      2.424
REMARK SMILES Cc1c(C[NH2+]C[C@@H]2CCCO2)c(C(=O)OCCOCCOCCOC(=O)c2ccc(-c3c4nc(c(-c5c(F)cc(S(=O)(=O)[O-])cc5F)c5ccc([nH]5)c(-c5c(F)cc(S(=O)(=O)[O-])cc5F)c5nc(c(-c6c(F)cc(S(=O)(=O)[O-])cc6F)c6ccc3[nH]6)C=C5)C=C4)cc2)c(C)n1Cc1ccc(F)cc1
REMARK SMILES IDX 19 1 18 2 17 3 16 4 15 5 13 6 14 7 12 8 1 9 2 10 3 11 95 12
REMARK SMILES IDX 93 13 94 14 4 15 5 16 6 19 7 20 8 21 11 22 9 23 10 24 96 25
REMARK SMILES IDX 97 26 98 27 103 28 99 29 102 30 100 31 101 32 20 33 21 34
REMARK SMILES IDX 22 35 23 36 24 37 25 38 26 39 27 40 28 41 92 42 29 43 91 44
REMARK SMILES IDX 30 45 31 46 32 47 85 48 33 49 90 50 84 51 86 52 34 53 89 54
REMARK SMILES IDX 83 55 82 56 35 58 69 59 48 60 68 61 49 62 52 63 67 64 87 65
REMARK SMILES IDX 50 66 51 67 66 69 88 70 53 71 36 72 37 73 46 74 38 75 39 76
REMARK SMILES IDX 45 77 47 78 40 79 41 80 42 81 43 82 44 83 70 84 71 85 80 86
REMARK SMILES IDX 72 87 73 88 79 89 81 90 74 91 75 92 76 93 77 94 78 95 54 96
REMARK SMILES IDX 55 97 64 98 56 99 57 100 63 101 65 102 58 103 59 104 60 105
REMARK SMILES IDX 61 106 62 107
REMARK H PARENT 5 17 5 18 86 57 52 68
REMARK Flexibility Score: inf
ROOT
ATOM      1  C   UNL A   1      38.256  19.395  25.059  1.00  0.00     0.188 C 
ENDROOT
BRANCH   1   2
ATOM      2  O   UNL A   1      37.257  20.360  24.800  1.00  0.00    -0.376 OA
BRANCH   2   3
ATOM      3  C   UNL A   1      37.545  21.730  24.568  1.00  0.00     0.202 C 
BRANCH   3   4
ATOM      4  C   UNL A   1      36.732  22.671  23.672  1.00  0.00     0.261 C 
BRANCH   4   5
ATOM      5  O   UNL A   1      35.436  22.999  24.149  1.00  0.00    -0.460 OA
BRANCH   5   6
ATOM      6  C   UNL A   1      35.396  23.632  25.352  1.00  0.00     0.340 C 
ATOM      7  O   UNL A   1      36.386  23.908  26.046  1.00  0.00    -0.246 OA
BRANCH   6   8
ATOM      8  C   UNL A   1      34.030  23.896  25.752  1.00  0.00     0.089 A 
ATOM      9  C   UNL A   1      30.522  23.194  26.767  1.00  0.00     0.065 C 
ATOM     10  C   UNL A   1      31.877  23.726  26.425  1.00  0.00     0.025 A 
ATOM     11  C   UNL A   1      33.028  22.975  26.191  1.00  0.00     0.042 A 
ATOM     12  N   UNL A   1      32.201  25.072  26.300  1.00  0.00    -0.343 N 
ATOM     13  C   UNL A   1      33.481  25.172  25.782  1.00  0.00     0.030 A 
ATOM     14  C   UNL A   1      34.160  26.435  25.361  1.00  0.00     0.065 C 
BRANCH  11  15
ATOM     15  C   UNL A   1      33.184  21.483  26.382  1.00  0.00     0.300 C 
BRANCH  15  16
ATOM     16  N   UNL A   1      33.898  20.934  25.242  1.00  0.00    -0.340 N 
ATOM     17  H   UNL A   1      34.509  20.189  25.575  1.00  0.00     0.346 HD
ATOM     18  H   UNL A   1      34.412  21.707  24.818  1.00  0.00     0.346 HD
BRANCH  16  19
ATOM     19  C   UNL A   1      33.030  20.384  24.196  1.00  0.00     0.293 C 
BRANCH  19  20
ATOM     20  C   UNL A   1      32.468  18.952  24.374  1.00  0.00     0.173 C 
ATOM     21  C   UNL A   1      32.865  18.190  25.633  1.00  0.00     0.040 C 
ATOM     22  O   UNL A   1      32.842  18.146  23.245  1.00  0.00    -0.372 OA
ATOM     23  C   UNL A   1      32.957  16.758  25.162  1.00  0.00     0.031 C 
ATOM     24  C   UNL A   1      33.309  16.877  23.697  1.00  0.00     0.161 C 
ENDBRANCH  19  20
ENDBRANCH  16  19
ENDBRANCH  15  16
ENDBRANCH  11  15
BRANCH  12  25
ATOM     25  C   UNL A   1      31.291  26.205  26.506  1.00  0.00     0.157 C 
BRANCH  25  26
ATOM     26  C   UNL A   1      30.669  26.802  25.256  1.00  0.00    -0.028 A 
ATOM     27  C   UNL A   1      31.148  28.033  24.769  1.00  0.00     0.008 A 
ATOM     28  C   UNL A   1      29.528  26.261  24.639  1.00  0.00     0.008 A 
ATOM     29  C   UNL A   1      30.489  28.706  23.733  1.00  0.00     0.039 A 
ATOM     30  C   UNL A   1      28.861  26.936  23.613  1.00  0.00     0.039 A 
ATOM     31  C   UNL A   1      29.342  28.158  23.176  1.00  0.00     0.123 A 
ATOM     32  F   UNL A   1      28.682  28.826  22.221  1.00  0.00    -0.207 F 
ENDBRANCH  25  26
ENDBRANCH  12  25
ENDBRANCH   6   8
ENDBRANCH   5   6
ENDBRANCH   4   5
ENDBRANCH   3   4
ENDBRANCH   2   3
ENDBRANCH   1   2
BRANCH   1  33
ATOM     33  C   UNL A   1      39.595  19.798  25.700  1.00  0.00     0.188 C 
BRANCH  33  34
ATOM     34  O   UNL A   1      40.640  18.850  25.715  1.00  0.00    -0.376 OA
BRANCH  34  35
ATOM     35  C   UNL A   1      41.977  19.332  25.863  1.00  0.00     0.202 C 
BRANCH  35  36
ATOM     36  C   UNL A   1      42.273  20.843  26.153  1.00  0.00     0.261 C 
BRANCH  36  37
ATOM     37  O   UNL A   1      43.578  21.474  25.807  1.00  0.00    -0.460 OA
BRANCH  37  38
ATOM     38  C   UNL A   1      43.530  22.650  25.067  1.00  0.00     0.338 C 
ATOM     39  O   UNL A   1      43.429  22.623  23.845  1.00  0.00    -0.246 OA
BRANCH  38  40
ATOM     40  C   UNL A   1      43.552  24.028  25.818  1.00  0.00     0.060 A 
ATOM     41  C   UNL A   1      43.022  24.129  27.102  1.00  0.00     0.016 A 
ATOM     42  C   UNL A   1      43.754  25.296  25.219  1.00  0.00     0.016 A 
ATOM     43  C   UNL A   1      42.783  25.418  27.760  1.00  0.00     0.010 A 
ATOM     44  C   UNL A   1      43.443  26.617  25.875  1.00  0.00     0.010 A 
ATOM     45  C   UNL A   1      42.945  26.746  27.192  1.00  0.00    -0.014 A 
BRANCH  45  46
ATOM     46  C   UNL A   1      42.083  28.031  27.918  1.00  0.00     0.031 A 
ATOM     47  C   UNL A   1      43.193  29.015  28.095  1.00  0.00     0.074 A 
ATOM     48  C   UNL A   1      40.854  28.498  28.481  1.00  0.00     0.049 A 
ATOM     49  N   UNL A   1      44.284  28.651  28.714  1.00  0.00    -0.248 NA
ATOM     50  C   UNL A   1      43.334  30.229  27.289  1.00  0.00     0.031 C 
ATOM     51  C   UNL A   1      39.589  27.755  28.682  1.00  0.00     0.029 A 
ATOM     52  N   UNL A   1      40.408  29.786  29.038  1.00  0.00    -0.354 N 
ATOM     53  C   UNL A   1      45.100  29.747  28.710  1.00  0.00     0.074 A 
ATOM     54  C   UNL A   1      44.595  30.553  27.604  1.00  0.00     0.031 C 
ATOM     55  C   UNL A   1      38.555  28.550  29.116  1.00  0.00     0.029 A 
ATOM     56  C   UNL A   1      38.971  29.939  29.351  1.00  0.00     0.049 A 
ATOM     57  H   UNL A   1      41.045  30.520  29.198  1.00  0.00     0.167 HD
ATOM     58  C   UNL A   1      45.497  30.163  29.949  1.00  0.00     0.037 A 
ATOM     59  C   UNL A   1      38.192  31.022  29.848  1.00  0.00     0.037 A 
ATOM     60  C   UNL A   1      44.773  31.322  30.397  1.00  0.00     0.049 A 
ATOM     61  C   UNL A   1      39.115  31.829  30.657  1.00  0.00     0.074 A 
ATOM     62  C   UNL A   1      44.320  32.463  29.767  1.00  0.00     0.029 A 
ATOM     63  N   UNL A   1      44.025  31.180  31.546  1.00  0.00    -0.354 N 
ATOM     64  N   UNL A   1      39.514  31.442  31.828  1.00  0.00    -0.248 NA
ATOM     65  C   UNL A   1      39.512  33.180  30.269  1.00  0.00     0.031 C 
ATOM     66  C   UNL A   1      43.004  32.627  30.245  1.00  0.00     0.029 A 
ATOM     67  C   UNL A   1      42.850  31.878  31.404  1.00  0.00     0.049 A 
ATOM     68  H   UNL A   1      44.289  30.660  32.339  1.00  0.00     0.167 HD
ATOM     69  C   UNL A   1      40.594  32.232  32.060  1.00  0.00     0.074 A 
ATOM     70  C   UNL A   1      40.387  33.419  31.248  1.00  0.00     0.031 C 
ATOM     71  C   UNL A   1      41.750  31.564  32.281  1.00  0.00     0.037 A 
BRANCH  58  72
ATOM     72  C   UNL A   1      45.923  29.059  30.885  1.00  0.00     0.058 A 
ATOM     73  C   UNL A   1      47.252  29.003  31.310  1.00  0.00     0.135 A 
ATOM     74  C   UNL A   1      45.051  28.041  31.342  1.00  0.00     0.135 A 
ATOM     75  F   UNL A   1      48.113  29.972  30.959  1.00  0.00    -0.206 F 
ATOM     76  C   UNL A   1      47.713  27.960  32.110  1.00  0.00     0.059 A 
ATOM     77  C   UNL A   1      45.502  26.963  32.094  1.00  0.00     0.059 A 
ATOM     78  F   UNL A   1      43.734  28.104  31.088  1.00  0.00    -0.206 F 
ATOM     79  C   UNL A   1      46.837  26.933  32.475  1.00  0.00     0.060 A 
BRANCH  79  80
ATOM     80  S   UNL A   1      47.486  25.553  33.441  1.00  0.00     0.124 S 
ATOM     81  O   UNL A   1      46.381  24.599  33.397  1.00  0.00    -0.237 OA
ATOM     82  O   UNL A   1      48.661  25.177  32.664  1.00  0.00    -0.237 OA
ATOM     83  O   UNL A   1      47.736  26.137  34.754  1.00  0.00    -0.744 OA
ENDBRANCH  79  80
ENDBRANCH  58  72
BRANCH  59  84
ATOM     84  C   UNL A   1      36.721  31.663  30.102  1.00  0.00     0.058 A 
ATOM     85  C   UNL A   1      36.051  31.568  31.389  1.00  0.00     0.135 A 
ATOM     86  C   UNL A   1      36.187  32.711  29.328  1.00  0.00     0.135 A 
ATOM     87  F   UNL A   1      36.373  30.607  32.266  1.00  0.00    -0.206 F 
ATOM     88  C   UNL A   1      35.082  32.479  31.890  1.00  0.00     0.059 A 
ATOM     89  C   UNL A   1      35.182  33.624  29.804  1.00  0.00     0.059 A 
ATOM     90  F   UNL A   1      36.683  32.947  28.106  1.00  0.00    -0.206 F 
ATOM     91  C   UNL A   1      34.671  33.536  31.102  1.00  0.00     0.060 A 
BRANCH  91  92
ATOM     92  S   UNL A   1      33.600  34.835  31.832  1.00  0.00     0.124 S 
ATOM     93  O   UNL A   1      34.561  35.821  32.314  1.00  0.00    -0.237 OA
ATOM     94  O   UNL A   1      32.787  35.255  30.694  1.00  0.00    -0.237 OA
ATOM     95  O   UNL A   1      32.866  34.122  32.876  1.00  0.00    -0.744 OA
ENDBRANCH  91  92
ENDBRANCH  59  84
BRANCH  71  96
ATOM     96  C   UNL A   1      41.716  30.426  33.283  1.00  0.00     0.058 A 
ATOM     97  C   UNL A   1      41.889  30.509  34.684  1.00  0.00     0.135 A 
ATOM     98  C   UNL A   1      41.553  29.133  32.758  1.00  0.00     0.135 A 
ATOM     99  F   UNL A   1      41.958  31.686  35.324  1.00  0.00    -0.206 F 
ATOM    100  C   UNL A   1      41.978  29.371  35.491  1.00  0.00     0.059 A 
ATOM    101  C   UNL A   1      41.585  27.988  33.550  1.00  0.00     0.059 A 
ATOM    102  F   UNL A   1      41.350  28.972  31.440  1.00  0.00    -0.206 F 
ATOM    103  C   UNL A   1      41.839  28.113  34.911  1.00  0.00     0.060 A 
BRANCH 103 104
ATOM    104  S   UNL A   1      41.998  26.645  35.951  1.00  0.00     0.124 S 
ATOM    105  O   UNL A   1      43.344  26.809  36.495  1.00  0.00    -0.237 OA
ATOM    106  O   UNL A   1      40.911  26.811  36.909  1.00  0.00    -0.237 OA
ATOM    107  O   UNL A   1      41.850  25.543  35.004  1.00  0.00    -0.744 OA
ENDBRANCH 103 104
ENDBRANCH  71  96
ENDBRANCH  45  46
ENDBRANCH  38  40
ENDBRANCH  37  38
ENDBRANCH  36  37
ENDBRANCH  35  36
ENDBRANCH  34  35
ENDBRANCH  33  34
ENDBRANCH   1  33
TORSDOF 26
ENDMDL
MODEL 3
REMARK VINA RESULT:     -10.8      4.019      9.592
REMARK SMILES Cc1c(C[NH2+]C[C@@H]2CCCO2)c(C(=O)OCCOCCOCCOC(=O)c2ccc(-c3c4nc(c(-c5c(F)cc(S(=O)(=O)[O-])cc5F)c5ccc([nH]5)c(-c5c(F)cc(S(=O)(=O)[O-])cc5F)c5nc(c(-c6c(F)cc(S(=O)(=O)[O-])cc6F)c6ccc3[nH]6)C=C5)C=C4)cc2)c(C)n1Cc1ccc(F)cc1
REMARK SMILES IDX 19 1 18 2 17 3 16 4 15 5 13 6 14 7 12 8 1 9 2 10 3 11 95 12
REMARK SMILES IDX 93 13 94 14 4 15 5 16 6 19 7 20 8 21 11 22 9 23 10 24 96 25
REMARK SMILES IDX 97 26 98 27 103 28 99 29 102 30 100 31 101 32 20 33 21 34
REMARK SMILES IDX 22 35 23 36 24 37 25 38 26 39 27 40 28 41 92 42 29 43 91 44
REMARK SMILES IDX 30 45 31 46 32 47 85 48 33 49 90 50 84 51 86 52 34 53 89 54
REMARK SMILES IDX 83 55 82 56 35 58 69 59 48 60 68 61 49 62 52 63 67 64 87 65
REMARK SMILES IDX 50 66 51 67 66 69 88 70 53 71 36 72 37 73 46 74 38 75 39 76
REMARK SMILES IDX 45 77 47 78 40 79 41 80 42 81 43 82 44 83 70 84 71 85 80 86
REMARK SMILES IDX 72 87 73 88 79 89 81 90 74 91 75 92 76 93 77 94 78 95 54 96
REMARK SMILES IDX 55 97 64 98 56 99 57 100 63 101 65 102 58 103 59 104 60 105
REMARK SMILES IDX 61 106 62 107
REMARK H PARENT 5 17 5 18 86 57 52 68
REMARK Flexibility Score: inf
ROOT
ATOM      1  C   UNL A   1      32.832  29.522  26.187  1.00  0.00     0.188 C 
ENDROOT
BRANCH   1   2
ATOM      2  O   UNL A   1      32.721  29.618  24.782  1.00  0.00    -0.376 OA
BRANCH   2   3
ATOM      3  C   UNL A   1      33.651  29.027  23.889  1.00  0.00     0.202 C 
BRANCH   3   4
ATOM      4  C   UNL A   1      33.355  27.867  22.931  1.00  0.00     0.261 C 
BRANCH   4   5
ATOM      5  O   UNL A   1      34.144  26.703  23.120  1.00  0.00    -0.460 OA
BRANCH   5   6
ATOM      6  C   UNL A   1      33.587  25.540  22.691  1.00  0.00     0.340 C 
ATOM      7  O   UNL A   1      33.217  25.312  21.530  1.00  0.00    -0.246 OA
BRANCH   6   8
ATOM      8  C   UNL A   1      33.424  24.609  23.788  1.00  0.00     0.089 A 
ATOM      9  C   UNL A   1      32.077  23.180  26.947  1.00  0.00     0.065 C 
ATOM     10  C   UNL A   1      32.738  23.521  25.649  1.00  0.00     0.025 A 
ATOM     11  C   UNL A   1      32.440  24.606  24.826  1.00  0.00     0.042 A 
ATOM     12  N   UNL A   1      33.757  22.787  25.052  1.00  0.00    -0.343 N 
ATOM     13  C   UNL A   1      34.250  23.508  23.978  1.00  0.00     0.030 A 
ATOM     14  C   UNL A   1      35.442  23.146  23.152  1.00  0.00     0.065 C 
BRANCH  11  15
ATOM     15  C   UNL A   1      31.291  25.575  24.994  1.00  0.00     0.300 C 
BRANCH  15  16
ATOM     16  N   UNL A   1      30.273  25.275  24.001  1.00  0.00    -0.340 N 
ATOM     17  H   UNL A   1      29.386  25.137  24.483  1.00  0.00     0.346 HD
ATOM     18  H   UNL A   1      30.586  24.440  23.503  1.00  0.00     0.346 HD
BRANCH  16  19
ATOM     19  C   UNL A   1      30.091  26.322  22.991  1.00  0.00     0.293 C 
BRANCH  19  20
ATOM     20  C   UNL A   1      29.440  27.660  23.419  1.00  0.00     0.173 C 
ATOM     21  C   UNL A   1      27.918  27.738  23.416  1.00  0.00     0.040 C 
ATOM     22  O   UNL A   1      29.928  28.720  22.581  1.00  0.00    -0.372 OA
ATOM     23  C   UNL A   1      27.640  29.164  23.006  1.00  0.00     0.031 C 
ATOM     24  C   UNL A   1      28.839  29.545  22.169  1.00  0.00     0.161 C 
ENDBRANCH  19  20
ENDBRANCH  16  19
ENDBRANCH  15  16
ENDBRANCH  11  15
BRANCH  12  25
ATOM     25  C   UNL A   1      34.343  21.543  25.565  1.00  0.00     0.157 C 
BRANCH  25  26
ATOM     26  C   UNL A   1      33.853  20.256  24.924  1.00  0.00    -0.028 A 
ATOM     27  C   UNL A   1      34.687  19.121  24.935  1.00  0.00     0.008 A 
ATOM     28  C   UNL A   1      32.663  20.180  24.180  1.00  0.00     0.008 A 
ATOM     29  C   UNL A   1      34.354  17.975  24.203  1.00  0.00     0.039 A 
ATOM     30  C   UNL A   1      32.336  19.042  23.438  1.00  0.00     0.039 A 
ATOM     31  C   UNL A   1      33.190  17.953  23.448  1.00  0.00     0.123 A 
ATOM     32  F   UNL A   1      32.899  16.876  22.707  1.00  0.00    -0.207 F 
ENDBRANCH  25  26
ENDBRANCH  12  25
ENDBRANCH   6   8
ENDBRANCH   5   6
ENDBRANCH   4   5
ENDBRANCH   3   4
ENDBRANCH   2   3
ENDBRANCH   1   2
BRANCH   1  33
ATOM     33  C   UNL A   1      33.899  30.324  26.950  1.00  0.00     0.188 C 
BRANCH  33  34
ATOM     34  O   UNL A   1      33.494  31.489  27.636  1.00  0.00    -0.376 OA
BRANCH  34  35
ATOM     35  C   UNL A   1      34.487  32.214  28.365  1.00  0.00     0.202 C 
BRANCH  35  36
ATOM     36  C   UNL A   1      34.186  33.628  28.969  1.00  0.00     0.261 C 
BRANCH  36  37
ATOM     37  O   UNL A   1      33.844  33.819  30.407  1.00  0.00    -0.460 OA
BRANCH  37  38
ATOM     38  C   UNL A   1      34.881  34.188  31.255  1.00  0.00     0.338 C 
ATOM     39  O   UNL A   1      34.876  35.277  31.820  1.00  0.00    -0.246 OA
BRANCH  38  40
ATOM     40  C   UNL A   1      36.044  33.172  31.529  1.00  0.00     0.060 A 
ATOM     41  C   UNL A   1      37.288  33.360  30.933  1.00  0.00     0.016 A 
ATOM     42  C   UNL A   1      35.897  31.867  32.064  1.00  0.00     0.016 A 
ATOM     43  C   UNL A   1      38.334  32.332  30.940  1.00  0.00     0.010 A 
ATOM     44  C   UNL A   1      36.952  30.792  32.009  1.00  0.00     0.010 A 
ATOM     45  C   UNL A   1      38.236  30.973  31.447  1.00  0.00    -0.014 A 
BRANCH  45  46
ATOM     46  C   UNL A   1      39.343  29.819  30.844  1.00  0.00     0.031 A 
ATOM     47  C   UNL A   1      40.140  29.559  32.081  1.00  0.00     0.074 A 
ATOM     48  C   UNL A   1      39.861  29.115  29.712  1.00  0.00     0.049 A 
ATOM     49  N   UNL A   1      40.671  30.561  32.728  1.00  0.00    -0.248 NA
ATOM     50  C   UNL A   1      40.045  28.322  32.859  1.00  0.00     0.031 C 
ATOM     51  C   UNL A   1      39.483  29.252  28.287  1.00  0.00     0.029 A 
ATOM     52  N   UNL A   1      40.889  28.075  29.536  1.00  0.00    -0.354 N 
ATOM     53  C   UNL A   1      41.319  30.015  33.799  1.00  0.00     0.074 A 
ATOM     54  C   UNL A   1      40.669  28.720  33.975  1.00  0.00     0.031 C 
ATOM     55  C   UNL A   1      40.076  28.315  27.475  1.00  0.00     0.029 A 
ATOM     56  C   UNL A   1      41.008  27.445  28.204  1.00  0.00     0.049 A 
ATOM     57  H   UNL A   1      41.477  27.809  30.280  1.00  0.00     0.167 HD
ATOM     58  C   UNL A   1      42.650  30.310  33.869  1.00  0.00     0.037 A 
ATOM     59  C   UNL A   1      41.833  26.406  27.687  1.00  0.00     0.037 A 
ATOM     60  C   UNL A   1      43.479  29.215  33.441  1.00  0.00     0.049 A 
ATOM     61  C   UNL A   1      43.062  26.448  28.490  1.00  0.00     0.074 A 
ATOM     62  C   UNL A   1      43.408  27.847  33.610  1.00  0.00     0.029 A 
ATOM     63  N   UNL A   1      44.287  29.438  32.348  1.00  0.00    -0.354 N 
ATOM     64  N   UNL A   1      43.952  27.377  28.331  1.00  0.00    -0.248 NA
ATOM     65  C   UNL A   1      43.434  25.367  29.399  1.00  0.00     0.031 C 
ATOM     66  C   UNL A   1      43.695  27.322  32.334  1.00  0.00     0.029 A 
ATOM     67  C   UNL A   1      44.315  28.304  31.573  1.00  0.00     0.049 A 
ATOM     68  H   UNL A   1      44.766  30.276  32.153  1.00  0.00     0.167 HD
ATOM     69  C   UNL A   1      44.699  27.283  29.462  1.00  0.00     0.074 A 
ATOM     70  C   UNL A   1      44.532  25.916  29.925  1.00  0.00     0.031 C 
ATOM     71  C   UNL A   1      44.751  28.415  30.203  1.00  0.00     0.037 A 
BRANCH  58  72
ATOM     72  C   UNL A   1      42.998  31.750  33.585  1.00  0.00     0.058 A 
ATOM     73  C   UNL A   1      43.363  32.583  34.646  1.00  0.00     0.135 A 
ATOM     74  C   UNL A   1      42.947  32.328  32.293  1.00  0.00     0.135 A 
ATOM     75  F   UNL A   1      43.487  32.081  35.885  1.00  0.00    -0.206 F 
ATOM     76  C   UNL A   1      43.617  33.938  34.447  1.00  0.00     0.059 A 
ATOM     77  C   UNL A   1      43.142  33.687  32.081  1.00  0.00     0.059 A 
ATOM     78  F   UNL A   1      42.739  31.562  31.210  1.00  0.00    -0.206 F 
ATOM     79  C   UNL A   1      43.478  34.485  33.168  1.00  0.00     0.060 A 
BRANCH  79  80
ATOM     80  S   UNL A   1      43.732  36.260  32.960  1.00  0.00     0.124 S 
ATOM     81  O   UNL A   1      42.752  36.822  33.887  1.00  0.00    -0.237 OA
ATOM     82  O   UNL A   1      45.125  36.407  33.366  1.00  0.00    -0.237 OA
ATOM     83  O   UNL A   1      43.440  36.489  31.550  1.00  0.00    -0.744 OA
ENDBRANCH  79  80
ENDBRANCH  58  72
BRANCH  59  84
ATOM     84  C   UNL A   1      42.130  25.340  26.498  1.00  0.00     0.058 A 
ATOM     85  C   UNL A   1      43.143  25.579  25.483  1.00  0.00     0.135 A 
ATOM     86  C   UNL A   1      41.816  23.970  26.589  1.00  0.00     0.135 A 
ATOM     87  F   UNL A   1      43.556  26.823  25.200  1.00  0.00    -0.206 F 
ATOM     88  C   UNL A   1      43.846  24.579  24.759  1.00  0.00     0.059 A 
ATOM     89  C   UNL A   1      42.493  22.944  25.840  1.00  0.00     0.059 A 
ATOM     90  F   UNL A   1      40.898  23.561  27.475  1.00  0.00    -0.206 F 
ATOM     91  C   UNL A   1      43.541  23.248  24.967  1.00  0.00     0.060 A 
BRANCH  91  92
ATOM     92  S   UNL A   1      44.601  21.957  24.208  1.00  0.00     0.124 S 
ATOM     93  O   UNL A   1      44.125  20.729  24.837  1.00  0.00    -0.237 OA
ATOM     94  O   UNL A   1      44.298  22.091  22.786  1.00  0.00    -0.237 OA
ATOM     95  O   UNL A   1      45.953  22.363  24.585  1.00  0.00    -0.744 OA
ENDBRANCH  91  92
ENDBRANCH  59  84
BRANCH  71  96
ATOM     96  C   UNL A   1      45.068  29.708  29.478  1.00  0.00     0.058 A 
ATOM     97  C   UNL A   1      44.187  30.492  28.696  1.00  0.00     0.135 A 
ATOM     98  C   UNL A   1      46.399  30.152  29.539  1.00  0.00     0.135 A 
ATOM     99  F   UNL A   1      42.872  30.237  28.631  1.00  0.00    -0.206 F 
ATOM    100  C   UNL A   1      44.631  31.594  27.958  1.00  0.00     0.059 A 
ATOM    101  C   UNL A   1      46.851  31.277  28.855  1.00  0.00     0.059 A 
ATOM    102  F   UNL A   1      47.288  29.480  30.288  1.00  0.00    -0.206 F 
ATOM    103  C   UNL A   1      45.969  31.970  28.033  1.00  0.00     0.060 A 
BRANCH 103 104
ATOM    104  S   UNL A   1      46.545  33.367  27.045  1.00  0.00     0.124 S 
ATOM    105  O   UNL A   1      47.449  32.713  26.101  1.00  0.00    -0.237 OA
ATOM    106  O   UNL A   1      45.309  33.885  26.470  1.00  0.00    -0.237 OA
ATOM    107  O   UNL A   1      47.201  34.227  28.025  1.00  0.00    -0.744 OA
ENDBRANCH 103 104
ENDBRANCH  71  96
ENDBRANCH  45  46
ENDBRANCH  38  40
ENDBRANCH  37  38
ENDBRANCH  36  37
ENDBRANCH  35  36
ENDBRANCH  34  35
ENDBRANCH  33  34
ENDBRANCH   1  33
TORSDOF 26
ENDMDL
