MODEL 1
REMARK VINA RESULT:     -11.6      0.000      0.000
REMARK SMILES O=C(OCCOCCOCCOC(=O)[C@@]12C[C@H]3C[C@@H](C1)C[C@](n1cc([N+](=O)[O-])cn1)(C3)C2)c1ccc(-c2c3nc(c(-c4c(F)cc(S(=O)(=O)[O-])cc4F)c4ccc([nH]4)c(-c4c(F)cc(S(=O)(=O)[O-])cc4F)c4nc(c(-c5c(F)cc(S(=O)(=O)[O-])cc5F)c5ccc2[nH]5)C=C4)C=C3)cc1
REMARK SMILES IDX 7 1 6 2 5 3 4 4 3 5 2 6 1 7 33 8 34 9 98 10 35 11 97 12
REMARK SMILES IDX 36 13 37 14 38 15 91 16 39 17 96 18 90 19 92 20 40 21 95 22
REMARK SMILES IDX 89 23 88 24 41 26 75 27 54 28 74 29 55 30 58 31 73 32 93 33
REMARK SMILES IDX 56 34 57 35 72 37 94 38 59 39 42 40 43 41 52 42 44 43 45 44
REMARK SMILES IDX 51 45 53 46 46 47 47 48 48 49 49 50 50 51 76 52 77 53 86 54
REMARK SMILES IDX 78 55 79 56 85 57 87 58 80 59 81 60 82 61 83 62 84 63 60 64
REMARK SMILES IDX 61 65 70 66 62 67 63 68 69 69 71 70 64 71 65 72 66 73 67 74
REMARK SMILES IDX 68 75 8 76 9 77 10 78 11 79 12 80 13 81 14 82 15 83 16 84
REMARK SMILES IDX 20 85 32 86 17 87 19 88 22 89 18 90 31 91 21 92 23 93 24 94
REMARK SMILES IDX 30 95 25 96 29 97 26 98 27 99 28 100
REMARK H PARENT 92 25 58 36
REMARK Flexibility Score: inf
ROOT
ATOM      1  C   UNL A   1      34.072  20.462  24.821  1.00  0.00     0.188 C 
ENDROOT
BRANCH   1   2
ATOM      2  O   UNL A   1      35.065  21.003  25.650  1.00  0.00    -0.376 OA
BRANCH   2   3
ATOM      3  C   UNL A   1      36.192  21.685  25.150  1.00  0.00     0.202 C 
BRANCH   3   4
ATOM      4  C   UNL A   1      37.642  21.440  25.581  1.00  0.00     0.261 C 
BRANCH   4   5
ATOM      5  O   UNL A   1      38.387  22.546  26.080  1.00  0.00    -0.460 OA
BRANCH   5   6
ATOM      6  C   UNL A   1      39.561  22.610  26.741  1.00  0.00     0.338 C 
ATOM      7  O   UNL A   1      40.010  21.570  27.222  1.00  0.00    -0.246 OA
BRANCH   6   8
ATOM      8  C   UNL A   1      40.286  23.870  27.057  1.00  0.00     0.060 A 
ATOM      9  C   UNL A   1      41.420  23.987  27.859  1.00  0.00     0.016 A 
ATOM     10  C   UNL A   1      39.696  25.038  26.528  1.00  0.00     0.016 A 
ATOM     11  C   UNL A   1      41.766  25.225  28.363  1.00  0.00     0.010 A 
ATOM     12  C   UNL A   1      40.059  26.281  27.002  1.00  0.00     0.010 A 
ATOM     13  C   UNL A   1      41.003  26.336  28.015  1.00  0.00    -0.014 A 
BRANCH  13  14
ATOM     14  C   UNL A   1      41.214  27.554  28.767  1.00  0.00     0.031 A 
ATOM     15  C   UNL A   1      42.320  28.382  28.242  1.00  0.00     0.074 A 
ATOM     16  C   UNL A   1      40.424  27.861  29.814  1.00  0.00     0.049 A 
ATOM     17  N   UNL A   1      43.487  28.565  28.767  1.00  0.00    -0.248 NA
ATOM     18  C   UNL A   1      42.199  28.883  26.865  1.00  0.00     0.031 C 
ATOM     19  C   UNL A   1      39.188  27.189  30.232  1.00  0.00     0.029 A 
ATOM     20  N   UNL A   1      40.500  28.907  30.678  1.00  0.00    -0.354 N 
ATOM     21  C   UNL A   1      44.131  29.458  27.917  1.00  0.00     0.074 A 
ATOM     22  C   UNL A   1      43.412  29.406  26.673  1.00  0.00     0.031 C 
ATOM     23  C   UNL A   1      38.515  27.983  31.093  1.00  0.00     0.029 A 
ATOM     24  C   UNL A   1      39.327  29.147  31.390  1.00  0.00     0.049 A 
ATOM     25  H   UNL A   1      41.314  29.448  30.792  1.00  0.00     0.167 HD
ATOM     26  C   UNL A   1      44.972  30.402  28.423  1.00  0.00     0.037 A 
ATOM     27  C   UNL A   1      39.032  30.276  32.087  1.00  0.00     0.037 A 
ATOM     28  C   UNL A   1      45.440  30.014  29.737  1.00  0.00     0.049 A 
ATOM     29  C   UNL A   1      40.327  30.949  32.382  1.00  0.00     0.074 A 
ATOM     30  C   UNL A   1      46.098  28.913  30.252  1.00  0.00     0.029 A 
ATOM     31  N   UNL A   1      44.905  30.668  30.822  1.00  0.00    -0.354 N 
ATOM     32  N   UNL A   1      41.237  30.445  33.175  1.00  0.00    -0.248 NA
ATOM     33  C   UNL A   1      40.819  31.921  31.416  1.00  0.00     0.031 C 
ATOM     34  C   UNL A   1      45.526  28.706  31.541  1.00  0.00     0.029 A 
ATOM     35  C   UNL A   1      44.609  29.731  31.776  1.00  0.00     0.049 A 
ATOM     36  H   UNL A   1      44.760  31.638  30.899  1.00  0.00     0.167 HD
ATOM     37  C   UNL A   1      42.445  30.694  32.537  1.00  0.00     0.074 A 
ATOM     38  C   UNL A   1      42.129  31.669  31.494  1.00  0.00     0.031 C 
ATOM     39  C   UNL A   1      43.519  29.869  32.716  1.00  0.00     0.037 A 
BRANCH  26  40
ATOM     40  C   UNL A   1      44.975  31.853  27.964  1.00  0.00     0.058 A 
ATOM     41  C   UNL A   1      46.175  32.385  27.445  1.00  0.00     0.135 A 
ATOM     42  C   UNL A   1      43.993  32.811  28.306  1.00  0.00     0.135 A 
ATOM     43  F   UNL A   1      47.168  31.574  27.044  1.00  0.00    -0.206 F 
ATOM     44  C   UNL A   1      46.437  33.754  27.421  1.00  0.00     0.059 A 
ATOM     45  C   UNL A   1      44.217  34.180  28.247  1.00  0.00     0.059 A 
ATOM     46  F   UNL A   1      42.791  32.490  28.791  1.00  0.00    -0.206 F 
ATOM     47  C   UNL A   1      45.460  34.641  27.856  1.00  0.00     0.060 A 
BRANCH  47  48
ATOM     48  S   UNL A   1      45.828  36.399  27.953  1.00  0.00     0.124 S 
ATOM     49  O   UNL A   1      46.320  36.509  29.325  1.00  0.00    -0.237 OA
ATOM     50  O   UNL A   1      46.833  36.548  26.902  1.00  0.00    -0.237 OA
ATOM     51  O   UNL A   1      44.546  37.026  27.686  1.00  0.00    -0.744 OA
ENDBRANCH  47  48
ENDBRANCH  26  40
BRANCH  27  52
ATOM     52  C   UNL A   1      37.719  30.981  32.149  1.00  0.00     0.058 A 
ATOM     53  C   UNL A   1      37.196  31.453  33.366  1.00  0.00     0.135 A 
ATOM     54  C   UNL A   1      37.077  31.449  30.983  1.00  0.00     0.135 A 
ATOM     55  F   UNL A   1      37.754  31.078  34.528  1.00  0.00    -0.206 F 
ATOM     56  C   UNL A   1      36.136  32.369  33.423  1.00  0.00     0.059 A 
ATOM     57  C   UNL A   1      36.012  32.349  31.015  1.00  0.00     0.059 A 
ATOM     58  F   UNL A   1      37.522  31.121  29.761  1.00  0.00    -0.206 F 
ATOM     59  C   UNL A   1      35.564  32.827  32.238  1.00  0.00     0.060 A 
BRANCH  59  60
ATOM     60  S   UNL A   1      34.315  34.136  32.288  1.00  0.00     0.124 S 
ATOM     61  O   UNL A   1      33.921  34.233  30.888  1.00  0.00    -0.237 OA
ATOM     62  O   UNL A   1      33.318  33.578  33.195  1.00  0.00    -0.237 OA
ATOM     63  O   UNL A   1      35.050  35.286  32.809  1.00  0.00    -0.744 OA
ENDBRANCH  59  60
ENDBRANCH  27  52
BRANCH  39  64
ATOM     64  C   UNL A   1      43.483  28.883  33.854  1.00  0.00     0.058 A 
ATOM     65  C   UNL A   1      43.854  29.174  35.178  1.00  0.00     0.135 A 
ATOM     66  C   UNL A   1      42.901  27.630  33.611  1.00  0.00     0.135 A 
ATOM     67  F   UNL A   1      44.316  30.387  35.514  1.00  0.00    -0.206 F 
ATOM     68  C   UNL A   1      43.696  28.241  36.206  1.00  0.00     0.059 A 
ATOM     69  C   UNL A   1      42.702  26.698  34.624  1.00  0.00     0.059 A 
ATOM     70  F   UNL A   1      42.465  27.318  32.380  1.00  0.00    -0.206 F 
ATOM     71  C   UNL A   1      43.116  27.004  35.918  1.00  0.00     0.060 A 
BRANCH  71  72
ATOM     72  S   UNL A   1      42.846  25.822  37.255  1.00  0.00     0.124 S 
ATOM     73  O   UNL A   1      43.746  24.734  36.891  1.00  0.00    -0.237 OA
ATOM     74  O   UNL A   1      43.226  26.592  38.438  1.00  0.00    -0.237 OA
ATOM     75  O   UNL A   1      41.421  25.514  37.157  1.00  0.00    -0.744 OA
ENDBRANCH  71  72
ENDBRANCH  39  64
ENDBRANCH  13  14
ENDBRANCH   6   8
ENDBRANCH   5   6
ENDBRANCH   4   5
ENDBRANCH   3   4
ENDBRANCH   2   3
ENDBRANCH   1   2
BRANCH   1  76
ATOM     76  C   UNL A   1      32.584  20.601  25.226  1.00  0.00     0.188 C 
BRANCH  76  77
ATOM     77  O   UNL A   1      31.882  21.840  25.214  1.00  0.00    -0.376 OA
BRANCH  77  78
ATOM     78  C   UNL A   1      32.155  22.832  26.179  1.00  0.00     0.202 C 
BRANCH  78  79
ATOM     79  C   UNL A   1      30.952  23.693  26.569  1.00  0.00     0.261 C 
BRANCH  79  80
ATOM     80  O   UNL A   1      31.139  25.109  26.402  1.00  0.00    -0.463 OA
BRANCH  80  81
ATOM     81  C   UNL A   1      30.916  25.576  25.145  1.00  0.00     0.312 C 
ATOM     82  O   UNL A   1      30.366  24.937  24.254  1.00  0.00    -0.252 OA
BRANCH  81  83
ATOM     83  C   UNL A   1      31.554  26.953  24.892  1.00  0.00     0.071 C 
ATOM     84  C   UNL A   1      31.809  27.816  26.147  1.00  0.00     0.022 C 
ATOM     85  C   UNL A   1      32.798  26.994  23.978  1.00  0.00     0.022 C 
ATOM     86  C   UNL A   1      30.408  27.587  24.143  1.00  0.00     0.049 C 
ATOM     87  C   UNL A   1      32.113  29.277  25.732  1.00  0.00    -0.007 C 
ATOM     88  C   UNL A   1      33.122  28.452  23.578  1.00  0.00    -0.007 C 
ATOM     89  C   UNL A   1      30.649  29.020  23.663  1.00  0.00     0.065 C 
ATOM     90  C   UNL A   1      33.371  29.283  24.849  1.00  0.00     0.007 C 
ATOM     91  C   UNL A   1      30.923  29.873  24.935  1.00  0.00     0.034 C 
ATOM     92  C   UNL A   1      31.929  29.049  22.794  1.00  0.00     0.034 C 
BRANCH  89  93
ATOM     93  N   UNL A   1      29.406  29.348  22.906  1.00  0.00    -0.259 N 
ATOM     94  C   UNL A   1      28.552  30.362  23.381  1.00  0.00     0.195 A 
ATOM     95  N   UNL A   1      29.474  29.433  21.546  1.00  0.00    -0.173 NA
ATOM     96  C   UNL A   1      28.752  31.383  22.459  1.00  0.00     0.307 A 
ATOM     97  C   UNL A   1      29.205  30.726  21.303  1.00  0.00     0.220 A 
BRANCH  96  98
ATOM     98  N   UNL A   1      28.727  32.793  22.716  1.00  0.00     0.066 N 
ATOM     99  O   UNL A   1      28.060  33.493  21.945  1.00  0.00    -0.258 OA
ATOM    100  O   UNL A   1      29.428  33.206  23.650  1.00  0.00    -0.258 OA
ENDBRANCH  96  98
ENDBRANCH  89  93
ENDBRANCH  81  83
ENDBRANCH  80  81
ENDBRANCH  79  80
ENDBRANCH  78  79
ENDBRANCH  77  78
ENDBRANCH  76  77
ENDBRANCH   1  76
TORSDOF 22
ENDMDL
MODEL 2
REMARK VINA RESULT:     -11.4      3.158      7.301
REMARK SMILES O=C(OCCOCCOCCOC(=O)[C@@]12C[C@H]3C[C@@H](C1)C[C@](n1cc([N+](=O)[O-])cn1)(C3)C2)c1ccc(-c2c3nc(c(-c4c(F)cc(S(=O)(=O)[O-])cc4F)c4ccc([nH]4)c(-c4c(F)cc(S(=O)(=O)[O-])cc4F)c4nc(c(-c5c(F)cc(S(=O)(=O)[O-])cc5F)c5ccc2[nH]5)C=C4)C=C3)cc1
REMARK SMILES IDX 7 1 6 2 5 3 4 4 3 5 2 6 1 7 33 8 34 9 98 10 35 11 97 12
REMARK SMILES IDX 36 13 37 14 38 15 91 16 39 17 96 18 90 19 92 20 40 21 95 22
REMARK SMILES IDX 89 23 88 24 41 26 75 27 54 28 74 29 55 30 58 31 73 32 93 33
REMARK SMILES IDX 56 34 57 35 72 37 94 38 59 39 42 40 43 41 52 42 44 43 45 44
REMARK SMILES IDX 51 45 53 46 46 47 47 48 48 49 49 50 50 51 76 52 77 53 86 54
REMARK SMILES IDX 78 55 79 56 85 57 87 58 80 59 81 60 82 61 83 62 84 63 60 64
REMARK SMILES IDX 61 65 70 66 62 67 63 68 69 69 71 70 64 71 65 72 66 73 67 74
REMARK SMILES IDX 68 75 8 76 9 77 10 78 11 79 12 80 13 81 14 82 15 83 16 84
REMARK SMILES IDX 20 85 32 86 17 87 19 88 22 89 18 90 31 91 21 92 23 93 24 94
REMARK SMILES IDX 30 95 25 96 29 97 26 98 27 99 28 100
REMARK H PARENT 92 25 58 36
REMARK Flexibility Score: inf
ROOT
ATOM      1  C   UNL A   1      34.269  20.153  24.701  1.00  0.00     0.188 C 
ENDROOT
BRANCH   1   2
ATOM      2  O   UNL A   1      35.618  20.129  25.084  1.00  0.00    -0.376 OA
BRANCH   2   3
ATOM      3  C   UNL A   1      36.353  21.295  25.375  1.00  0.00     0.202 C 
BRANCH   3   4
ATOM      4  C   UNL A   1      37.881  21.403  25.387  1.00  0.00     0.261 C 
BRANCH   4   5
ATOM      5  O   UNL A   1      38.635  20.196  25.447  1.00  0.00    -0.460 OA
BRANCH   5   6
ATOM      6  C   UNL A   1      39.924  19.962  25.770  1.00  0.00     0.338 C 
ATOM      7  O   UNL A   1      40.393  18.855  25.506  1.00  0.00    -0.246 OA
BRANCH   6   8
ATOM      8  C   UNL A   1      40.782  20.891  26.554  1.00  0.00     0.060 A 
ATOM      9  C   UNL A   1      40.934  20.899  27.939  1.00  0.00     0.016 A 
ATOM     10  C   UNL A   1      41.432  21.881  25.787  1.00  0.00     0.016 A 
ATOM     11  C   UNL A   1      41.454  22.019  28.556  1.00  0.00     0.010 A 
ATOM     12  C   UNL A   1      41.983  22.988  26.396  1.00  0.00     0.010 A 
ATOM     13  C   UNL A   1      41.862  23.095  27.772  1.00  0.00    -0.014 A 
BRANCH  13  14
ATOM     14  C   UNL A   1      42.137  24.346  28.446  1.00  0.00     0.031 A 
ATOM     15  C   UNL A   1      41.105  25.377  28.212  1.00  0.00     0.074 A 
ATOM     16  C   UNL A   1      43.231  24.482  29.222  1.00  0.00     0.049 A 
ATOM     17  N   UNL A   1      41.200  26.440  27.483  1.00  0.00    -0.248 NA
ATOM     18  C   UNL A   1      39.735  25.079  28.657  1.00  0.00     0.031 C 
ATOM     19  C   UNL A   1      44.158  23.432  29.658  1.00  0.00     0.029 A 
ATOM     20  N   UNL A   1      43.696  25.580  29.875  1.00  0.00    -0.354 N 
ATOM     21  C   UNL A   1      39.982  27.094  27.634  1.00  0.00     0.074 A 
ATOM     22  C   UNL A   1      39.064  26.106  28.134  1.00  0.00     0.031 C 
ATOM     23  C   UNL A   1      44.907  23.892  30.684  1.00  0.00     0.029 A 
ATOM     24  C   UNL A   1      44.611  25.297  30.887  1.00  0.00     0.049 A 
ATOM     25  H   UNL A   1      43.413  26.495  29.651  1.00  0.00     0.167 HD
ATOM     26  C   UNL A   1      39.934  28.455  27.663  1.00  0.00     0.037 A 
ATOM     27  C   UNL A   1      45.006  26.150  31.869  1.00  0.00     0.037 A 
ATOM     28  C   UNL A   1      41.113  29.019  27.044  1.00  0.00     0.049 A 
ATOM     29  C   UNL A   1      44.713  27.527  31.384  1.00  0.00     0.074 A 
ATOM     30  C   UNL A   1      41.716  28.902  25.806  1.00  0.00     0.029 A 
ATOM     31  N   UNL A   1      42.069  29.562  27.871  1.00  0.00    -0.354 N 
ATOM     32  N   UNL A   1      45.325  28.079  30.368  1.00  0.00    -0.248 NA
ATOM     33  C   UNL A   1      43.409  28.092  31.701  1.00  0.00     0.031 C 
ATOM     34  C   UNL A   1      43.117  28.929  26.068  1.00  0.00     0.029 A 
ATOM     35  C   UNL A   1      43.296  29.137  27.436  1.00  0.00     0.049 A 
ATOM     36  H   UNL A   1      41.900  30.152  28.641  1.00  0.00     0.167 HD
ATOM     37  C   UNL A   1      44.327  28.740  29.665  1.00  0.00     0.074 A 
ATOM     38  C   UNL A   1      43.181  28.773  30.573  1.00  0.00     0.031 C 
ATOM     39  C   UNL A   1      44.424  28.931  28.315  1.00  0.00     0.037 A 
BRANCH  26  40
ATOM     40  C   UNL A   1      39.093  29.241  28.659  1.00  0.00     0.058 A 
ATOM     41  C   UNL A   1      38.141  30.153  28.155  1.00  0.00     0.135 A 
ATOM     42  C   UNL A   1      39.396  29.389  30.033  1.00  0.00     0.135 A 
ATOM     43  F   UNL A   1      37.738  30.085  26.875  1.00  0.00    -0.206 F 
ATOM     44  C   UNL A   1      37.655  31.220  28.909  1.00  0.00     0.059 A 
ATOM     45  C   UNL A   1      38.888  30.418  30.814  1.00  0.00     0.059 A 
ATOM     46  F   UNL A   1      40.257  28.603  30.684  1.00  0.00    -0.206 F 
ATOM     47  C   UNL A   1      38.062  31.360  30.230  1.00  0.00     0.060 A 
BRANCH  47  48
ATOM     48  S   UNL A   1      37.547  32.800  31.175  1.00  0.00     0.124 S 
ATOM     49  O   UNL A   1      37.854  33.879  30.237  1.00  0.00    -0.237 OA
ATOM     50  O   UNL A   1      36.127  32.523  31.385  1.00  0.00    -0.237 OA
ATOM     51  O   UNL A   1      38.377  32.737  32.364  1.00  0.00    -0.744 OA
ENDBRANCH  47  48
ENDBRANCH  26  40
BRANCH  27  52
ATOM     52  C   UNL A   1      45.231  25.827  33.307  1.00  0.00     0.058 A 
ATOM     53  C   UNL A   1      44.156  25.576  34.180  1.00  0.00     0.135 A 
ATOM     54  C   UNL A   1      46.510  25.489  33.797  1.00  0.00     0.135 A 
ATOM     55  F   UNL A   1      42.899  25.848  33.794  1.00  0.00    -0.206 F 
ATOM     56  C   UNL A   1      44.333  24.982  35.437  1.00  0.00     0.059 A 
ATOM     57  C   UNL A   1      46.712  24.910  35.050  1.00  0.00     0.059 A 
ATOM     58  F   UNL A   1      47.607  25.622  33.036  1.00  0.00    -0.206 F 
ATOM     59  C   UNL A   1      45.617  24.634  35.855  1.00  0.00     0.060 A 
BRANCH  59  60
ATOM     60  S   UNL A   1      45.843  23.712  37.396  1.00  0.00     0.124 S 
ATOM     61  O   UNL A   1      45.538  22.348  36.980  1.00  0.00    -0.237 OA
ATOM     62  O   UNL A   1      47.239  23.986  37.719  1.00  0.00    -0.237 OA
ATOM     63  O   UNL A   1      44.869  24.320  38.299  1.00  0.00    -0.744 OA
ENDBRANCH  59  60
ENDBRANCH  27  52
BRANCH  39  64
ATOM     64  C   UNL A   1      45.760  28.711  27.656  1.00  0.00     0.058 A 
ATOM     65  C   UNL A   1      46.792  29.663  27.596  1.00  0.00     0.135 A 
ATOM     66  C   UNL A   1      46.054  27.418  27.197  1.00  0.00     0.135 A 
ATOM     67  F   UNL A   1      46.628  30.890  28.113  1.00  0.00    -0.206 F 
ATOM     68  C   UNL A   1      48.045  29.355  27.060  1.00  0.00     0.059 A 
ATOM     69  C   UNL A   1      47.304  27.079  26.691  1.00  0.00     0.059 A 
ATOM     70  F   UNL A   1      45.131  26.445  27.289  1.00  0.00    -0.206 F 
ATOM     71  C   UNL A   1      48.291  28.057  26.611  1.00  0.00     0.060 A 
BRANCH  71  72
ATOM     72  S   UNL A   1      49.931  27.636  25.982  1.00  0.00     0.124 S 
ATOM     73  O   UNL A   1      49.711  26.312  25.411  1.00  0.00    -0.237 OA
ATOM     74  O   UNL A   1      50.185  28.708  25.022  1.00  0.00    -0.237 OA
ATOM     75  O   UNL A   1      50.774  27.670  27.175  1.00  0.00    -0.744 OA
ENDBRANCH  71  72
ENDBRANCH  39  64
ENDBRANCH  13  14
ENDBRANCH   6   8
ENDBRANCH   5   6
ENDBRANCH   4   5
ENDBRANCH   3   4
ENDBRANCH   2   3
ENDBRANCH   1   2
BRANCH   1  76
ATOM     76  C   UNL A   1      33.297  21.135  25.398  1.00  0.00     0.188 C 
BRANCH  76  77
ATOM     77  O   UNL A   1      32.911  22.385  24.834  1.00  0.00    -0.376 OA
BRANCH  77  78
ATOM     78  C   UNL A   1      32.968  22.595  23.440  1.00  0.00     0.202 C 
BRANCH  78  79
ATOM     79  C   UNL A   1      34.271  23.222  22.940  1.00  0.00     0.261 C 
BRANCH  79  80
ATOM     80  O   UNL A   1      34.560  24.527  23.470  1.00  0.00    -0.463 OA
BRANCH  80  81
ATOM     81  C   UNL A   1      33.835  25.542  22.930  1.00  0.00     0.312 C 
ATOM     82  O   UNL A   1      33.754  25.774  21.728  1.00  0.00    -0.252 OA
BRANCH  81  83
ATOM     83  C   UNL A   1      33.228  26.479  23.989  1.00  0.00     0.071 C 
ATOM     84  C   UNL A   1      32.737  25.798  25.285  1.00  0.00     0.022 C 
ATOM     85  C   UNL A   1      34.030  27.749  24.347  1.00  0.00     0.022 C 
ATOM     86  C   UNL A   1      32.002  26.906  23.220  1.00  0.00     0.049 C 
ATOM     87  C   UNL A   1      31.846  26.776  26.092  1.00  0.00    -0.007 C 
ATOM     88  C   UNL A   1      33.155  28.720  25.172  1.00  0.00    -0.007 C 
ATOM     89  C   UNL A   1      31.093  27.907  23.937  1.00  0.00     0.065 C 
ATOM     90  C   UNL A   1      32.684  28.013  26.455  1.00  0.00     0.007 C 
ATOM     91  C   UNL A   1      30.621  27.215  25.248  1.00  0.00     0.034 C 
ATOM     92  C   UNL A   1      31.927  29.148  24.335  1.00  0.00     0.034 C 
BRANCH  89  93
ATOM     93  N   UNL A   1      30.032  28.198  22.929  1.00  0.00    -0.259 N 
ATOM     94  C   UNL A   1      28.775  28.667  23.359  1.00  0.00     0.195 A 
ATOM     95  N   UNL A   1      30.380  28.861  21.788  1.00  0.00    -0.173 NA
ATOM     96  C   UNL A   1      28.791  29.995  22.948  1.00  0.00     0.307 A 
ATOM     97  C   UNL A   1      29.714  30.023  21.889  1.00  0.00     0.220 A 
BRANCH  96  98
ATOM     98  N   UNL A   1      28.183  31.110  23.613  1.00  0.00     0.066 N 
ATOM     99  O   UNL A   1      26.969  31.039  23.834  1.00  0.00    -0.258 OA
ATOM    100  O   UNL A   1      28.910  32.084  23.857  1.00  0.00    -0.258 OA
ENDBRANCH  96  98
ENDBRANCH  89  93
ENDBRANCH  81  83
ENDBRANCH  80  81
ENDBRANCH  79  80
ENDBRANCH  78  79
ENDBRANCH  77  78
ENDBRANCH  76  77
ENDBRANCH   1  76
TORSDOF 22
ENDMDL
MODEL 3
REMARK VINA RESULT:     -11.4      2.736      4.251
REMARK SMILES O=C(OCCOCCOCCOC(=O)[C@@]12C[C@H]3C[C@@H](C1)C[C@](n1cc([N+](=O)[O-])cn1)(C3)C2)c1ccc(-c2c3nc(c(-c4c(F)cc(S(=O)(=O)[O-])cc4F)c4ccc([nH]4)c(-c4c(F)cc(S(=O)(=O)[O-])cc4F)c4nc(c(-c5c(F)cc(S(=O)(=O)[O-])cc5F)c5ccc2[nH]5)C=C4)C=C3)cc1
REMARK SMILES IDX 7 1 6 2 5 3 4 4 3 5 2 6 1 7 33 8 34 9 98 10 35 11 97 12
REMARK SMILES IDX 36 13 37 14 38 15 91 16 39 17 96 18 90 19 92 20 40 21 95 22
REMARK SMILES IDX 89 23 88 24 41 26 75 27 54 28 74 29 55 30 58 31 73 32 93 33
REMARK SMILES IDX 56 34 57 35 72 37 94 38 59 39 42 40 43 41 52 42 44 43 45 44
REMARK SMILES IDX 51 45 53 46 46 47 47 48 48 49 49 50 50 51 76 52 77 53 86 54
REMARK SMILES IDX 78 55 79 56 85 57 87 58 80 59 81 60 82 61 83 62 84 63 60 64
REMARK SMILES IDX 61 65 70 66 62 67 63 68 69 69 71 70 64 71 65 72 66 73 67 74
REMARK SMILES IDX 68 75 8 76 9 77 10 78 11 79 12 80 13 81 14 82 15 83 16 84
REMARK SMILES IDX 20 85 32 86 17 87 19 88 22 89 18 90 31 91 21 92 23 93 24 94
REMARK SMILES IDX 30 95 25 96 29 97 26 98 27 99 28 100
REMARK H PARENT 92 25 58 36
REMARK Flexibility Score: inf
ROOT
ATOM      1  C   UNL A   1      40.549  21.797  26.527  1.00  0.00     0.188 C 
ENDROOT
BRANCH   1   2
ATOM      2  O   UNL A   1      41.016  20.885  27.485  1.00  0.00    -0.376 OA
BRANCH   2   3
ATOM      3  C   UNL A   1      41.348  19.552  27.176  1.00  0.00     0.202 C 
BRANCH   3   4
ATOM      4  C   UNL A   1      42.614  19.099  26.442  1.00  0.00     0.261 C 
BRANCH   4   5
ATOM      5  O   UNL A   1      42.923  19.719  25.197  1.00  0.00    -0.460 OA
BRANCH   5   6
ATOM      6  C   UNL A   1      44.020  20.379  24.774  1.00  0.00     0.338 C 
ATOM      7  O   UNL A   1      44.874  19.744  24.156  1.00  0.00    -0.246 OA
BRANCH   6   8
ATOM      8  C   UNL A   1      44.346  21.788  25.123  1.00  0.00     0.060 A 
ATOM      9  C   UNL A   1      45.344  22.209  26.000  1.00  0.00     0.016 A 
ATOM     10  C   UNL A   1      43.496  22.752  24.538  1.00  0.00     0.016 A 
ATOM     11  C   UNL A   1      45.300  23.491  26.510  1.00  0.00     0.010 A 
ATOM     12  C   UNL A   1      43.468  24.044  25.019  1.00  0.00     0.010 A 
ATOM     13  C   UNL A   1      44.287  24.350  26.094  1.00  0.00    -0.014 A 
BRANCH  13  14
ATOM     14  C   UNL A   1      44.101  25.575  26.843  1.00  0.00     0.031 A 
ATOM     15  C   UNL A   1      45.167  26.572  26.610  1.00  0.00     0.074 A 
ATOM     16  C   UNL A   1      43.022  25.740  27.633  1.00  0.00     0.049 A 
ATOM     17  N   UNL A   1      46.109  26.925  27.421  1.00  0.00    -0.248 NA
ATOM     18  C   UNL A   1      45.342  27.070  25.238  1.00  0.00     0.031 C 
ATOM     19  C   UNL A   1      41.837  24.879  27.725  1.00  0.00     0.029 A 
ATOM     20  N   UNL A   1      42.704  26.772  28.459  1.00  0.00    -0.354 N 
ATOM     21  C   UNL A   1      46.811  27.920  26.749  1.00  0.00     0.074 A 
ATOM     22  C   UNL A   1      46.467  27.776  25.361  1.00  0.00     0.031 C 
ATOM     23  C   UNL A   1      40.845  25.546  28.355  1.00  0.00     0.029 A 
ATOM     24  C   UNL A   1      41.361  26.817  28.827  1.00  0.00     0.049 A 
ATOM     25  H   UNL A   1      43.366  27.430  28.771  1.00  0.00     0.167 HD
ATOM     26  C   UNL A   1      47.333  28.974  27.436  1.00  0.00     0.037 A 
ATOM     27  C   UNL A   1      40.722  27.876  29.390  1.00  0.00     0.037 A 
ATOM     28  C   UNL A   1      47.486  28.643  28.836  1.00  0.00     0.049 A 
ATOM     29  C   UNL A   1      41.772  28.736  30.000  1.00  0.00     0.074 A 
ATOM     30  C   UNL A   1      48.143  27.649  29.537  1.00  0.00     0.029 A 
ATOM     31  N   UNL A   1      46.588  29.190  29.723  1.00  0.00    -0.354 N 
ATOM     32  N   UNL A   1      42.504  28.367  31.019  1.00  0.00    -0.248 NA
ATOM     33  C   UNL A   1      42.349  29.787  29.174  1.00  0.00     0.031 C 
ATOM     34  C   UNL A   1      47.286  27.336  30.633  1.00  0.00     0.029 A 
ATOM     35  C   UNL A   1      46.195  28.203  30.588  1.00  0.00     0.049 A 
ATOM     36  H   UNL A   1      46.281  30.125  29.733  1.00  0.00     0.167 HD
ATOM     37  C   UNL A   1      43.785  28.809  30.720  1.00  0.00     0.074 A 
ATOM     38  C   UNL A   1      43.614  29.740  29.605  1.00  0.00     0.031 C 
ATOM     39  C   UNL A   1      44.886  28.157  31.200  1.00  0.00     0.037 A 
BRANCH  26  40
ATOM     40  C   UNL A   1      47.236  30.415  26.956  1.00  0.00     0.058 A 
ATOM     41  C   UNL A   1      48.382  31.233  27.067  1.00  0.00     0.135 A 
ATOM     42  C   UNL A   1      46.027  31.107  26.713  1.00  0.00     0.135 A 
ATOM     43  F   UNL A   1      49.596  30.689  27.254  1.00  0.00    -0.206 F 
ATOM     44  C   UNL A   1      48.307  32.624  27.097  1.00  0.00     0.059 A 
ATOM     45  C   UNL A   1      45.938  32.492  26.693  1.00  0.00     0.059 A 
ATOM     46  F   UNL A   1      44.849  30.497  26.559  1.00  0.00    -0.206 F 
ATOM     47  C   UNL A   1      47.072  33.242  26.941  1.00  0.00     0.060 A 
BRANCH  47  48
ATOM     48  S   UNL A   1      46.940  35.028  27.106  1.00  0.00     0.124 S 
ATOM     49  O   UNL A   1      48.279  35.368  27.585  1.00  0.00    -0.237 OA
ATOM     50  O   UNL A   1      46.633  35.429  25.733  1.00  0.00    -0.237 OA
ATOM     51  O   UNL A   1      45.861  35.199  28.062  1.00  0.00    -0.744 OA
ENDBRANCH  47  48
ENDBRANCH  26  40
BRANCH  27  52
ATOM     52  C   UNL A   1      39.348  28.368  29.081  1.00  0.00     0.058 A 
ATOM     53  C   UNL A   1      38.373  28.501  30.086  1.00  0.00     0.135 A 
ATOM     54  C   UNL A   1      39.043  28.979  27.846  1.00  0.00     0.135 A 
ATOM     55  F   UNL A   1      38.583  27.970  31.301  1.00  0.00    -0.206 F 
ATOM     56  C   UNL A   1      37.193  29.233  29.895  1.00  0.00     0.059 A 
ATOM     57  C   UNL A   1      37.869  29.700  27.628  1.00  0.00     0.059 A 
ATOM     58  F   UNL A   1      39.919  28.977  26.831  1.00  0.00    -0.206 F 
ATOM     59  C   UNL A   1      36.960  29.847  28.665  1.00  0.00     0.060 A 
BRANCH  59  60
ATOM     60  S   UNL A   1      35.529  30.936  28.459  1.00  0.00     0.124 S 
ATOM     61  O   UNL A   1      36.076  32.000  27.627  1.00  0.00    -0.237 OA
ATOM     62  O   UNL A   1      34.560  30.055  27.816  1.00  0.00    -0.237 OA
ATOM     63  O   UNL A   1      35.199  31.324  29.828  1.00  0.00    -0.744 OA
ENDBRANCH  59  60
ENDBRANCH  27  52
BRANCH  39  64
ATOM     64  C   UNL A   1      44.699  27.161  32.313  1.00  0.00     0.058 A 
ATOM     65  C   UNL A   1      44.399  25.800  32.130  1.00  0.00     0.135 A 
ATOM     66  C   UNL A   1      44.988  27.583  33.619  1.00  0.00     0.135 A 
ATOM     67  F   UNL A   1      44.218  25.294  30.901  1.00  0.00    -0.206 F 
ATOM     68  C   UNL A   1      44.343  24.909  33.205  1.00  0.00     0.059 A 
ATOM     69  C   UNL A   1      44.972  26.708  34.700  1.00  0.00     0.059 A 
ATOM     70  F   UNL A   1      45.347  28.856  33.851  1.00  0.00    -0.206 F 
ATOM     71  C   UNL A   1      44.634  25.374  34.488  1.00  0.00     0.060 A 
BRANCH  71  72
ATOM     72  S   UNL A   1      44.630  24.212  35.870  1.00  0.00     0.124 S 
ATOM     73  O   UNL A   1      44.160  22.984  35.239  1.00  0.00    -0.237 OA
ATOM     74  O   UNL A   1      46.030  24.215  36.288  1.00  0.00    -0.237 OA
ATOM     75  O   UNL A   1      43.704  24.819  36.825  1.00  0.00    -0.744 OA
ENDBRANCH  71  72
ENDBRANCH  39  64
ENDBRANCH  13  14
ENDBRANCH   6   8
ENDBRANCH   5   6
ENDBRANCH   4   5
ENDBRANCH   3   4
ENDBRANCH   2   3
ENDBRANCH   1   2
BRANCH   1  76
ATOM     76  C   UNL A   1      39.028  22.053  26.395  1.00  0.00     0.188 C 
BRANCH  76  77
ATOM     77  O   UNL A   1      38.326  21.974  25.158  1.00  0.00    -0.376 OA
BRANCH  77  78
ATOM     78  C   UNL A   1      37.426  20.916  24.908  1.00  0.00     0.202 C 
BRANCH  78  79
ATOM     79  C   UNL A   1      35.958  21.336  24.811  1.00  0.00     0.261 C 
BRANCH  79  80
ATOM     80  O   UNL A   1      35.725  22.754  24.873  1.00  0.00    -0.463 OA
BRANCH  80  81
ATOM     81  C   UNL A   1      34.870  23.240  23.936  1.00  0.00     0.312 C 
ATOM     82  O   UNL A   1      35.170  23.445  22.763  1.00  0.00    -0.252 OA
BRANCH  81  83
ATOM     83  C   UNL A   1      33.507  23.652  24.518  1.00  0.00     0.071 C 
ATOM     84  C   UNL A   1      32.392  22.586  24.434  1.00  0.00     0.022 C 
ATOM     85  C   UNL A   1      33.506  24.287  25.925  1.00  0.00     0.022 C 
ATOM     86  C   UNL A   1      33.165  24.731  23.521  1.00  0.00     0.049 C 
ATOM     87  C   UNL A   1      31.015  23.237  24.719  1.00  0.00    -0.007 C 
ATOM     88  C   UNL A   1      32.128  24.919  26.226  1.00  0.00    -0.007 C 
ATOM     89  C   UNL A   1      31.836  25.451  23.762  1.00  0.00     0.065 C 
ATOM     90  C   UNL A   1      31.041  23.833  26.136  1.00  0.00     0.007 C 
ATOM     91  C   UNL A   1      30.725  24.364  23.693  1.00  0.00     0.034 C 
ATOM     92  C   UNL A   1      31.833  26.035  25.195  1.00  0.00     0.034 C 
BRANCH  89  93
ATOM     93  N   UNL A   1      31.804  26.492  22.693  1.00  0.00    -0.259 N 
ATOM     94  C   UNL A   1      30.704  27.368  22.610  1.00  0.00     0.195 A 
ATOM     95  N   UNL A   1      32.945  27.193  22.432  1.00  0.00    -0.173 NA
ATOM     96  C   UNL A   1      31.247  28.575  23.036  1.00  0.00     0.307 A 
ATOM     97  C   UNL A   1      32.622  28.449  22.782  1.00  0.00     0.220 A 
BRANCH  96  98
ATOM     98  N   UNL A   1      30.580  29.605  23.778  1.00  0.00     0.066 N 
ATOM     99  O   UNL A   1      29.685  30.228  23.196  1.00  0.00    -0.258 OA
ATOM    100  O   UNL A   1      30.997  29.832  24.922  1.00  0.00    -0.258 OA
ENDBRANCH  96  98
ENDBRANCH  89  93
ENDBRANCH  81  83
ENDBRANCH  80  81
ENDBRANCH  79  80
ENDBRANCH  78  79
ENDBRANCH  77  78
ENDBRANCH  76  77
ENDBRANCH   1  76
TORSDOF 22
ENDMDL
