MODEL 1
REMARK VINA RESULT:     -11.2      0.000      0.000
REMARK SMILES O=C(Cn1nc(C(=O)OCCOCCOCCOC(=O)c2ccc(-c3c4nc(c(-c5c(F)cc(S(=O)(=O)[O-])cc5F)c5ccc([nH]5)c(-c5c(F)cc(S(=O)(=O)[O-])cc5F)c5nc(c(-c6c(F)cc(S(=O)(=O)[O-])cc6F)c6ccc3[nH]6)C=C5)C=C4)cc2)c2ccccc2c1=O)Nc1ccc2c(c1)C(=O)c1ccccc1C2=O
REMARK SMILES IDX 13 1 12 2 11 3 10 4 9 5 7 6 8 7 6 8 4 9 5 10 93 11 92 12
REMARK SMILES IDX 94 13 87 14 91 15 88 16 90 17 89 18 3 19 2 20 1 21 95 22
REMARK SMILES IDX 96 24 97 25 101 26 98 27 100 28 99 29 102 30 110 31 103 32
REMARK SMILES IDX 104 33 109 34 111 35 105 36 108 37 106 38 107 39 14 40 15 41
REMARK SMILES IDX 16 42 17 43 18 44 19 45 20 46 21 47 22 48 86 49 23 50 85 51
REMARK SMILES IDX 24 52 25 53 26 54 79 55 27 56 84 57 78 58 80 59 28 60 83 61
REMARK SMILES IDX 77 62 76 63 29 65 63 66 42 67 62 68 43 69 46 70 61 71 81 72
REMARK SMILES IDX 44 73 45 74 60 76 82 77 47 78 30 79 31 80 40 81 32 82 33 83
REMARK SMILES IDX 39 84 41 85 34 86 35 87 36 88 37 89 38 90 64 91 65 92 74 93
REMARK SMILES IDX 66 94 67 95 73 96 75 97 68 98 69 99 70 100 71 101 72 102
REMARK SMILES IDX 48 103 49 104 58 105 50 106 51 107 57 108 59 109 52 110
REMARK SMILES IDX 53 111 54 112 55 113 56 114
REMARK H PARENT 95 23 80 64 46 75
REMARK Flexibility Score: inf
ROOT
ATOM      1  C   UNL A   1      41.167  33.736  32.661  1.00  0.00     0.188 C 
ENDROOT
BRANCH   1   2
ATOM      2  O   UNL A   1      39.818  33.318  32.852  1.00  0.00    -0.376 OA
BRANCH   2   3
ATOM      3  C   UNL A   1      38.899  34.337  33.227  1.00  0.00     0.202 C 
BRANCH   3   4
ATOM      4  C   UNL A   1      37.813  34.545  32.174  1.00  0.00     0.261 C 
BRANCH   4   5
ATOM      5  O   UNL A   1      37.359  33.296  31.636  1.00  0.00    -0.458 OA
BRANCH   5   6
ATOM      6  C   UNL A   1      36.220  32.766  32.124  1.00  0.00     0.359 C 
ATOM      7  O   UNL A   1      36.067  32.058  33.093  1.00  0.00    -0.244 OA
BRANCH   6   8
ATOM      8  C   UNL A   1      35.086  33.319  31.273  1.00  0.00     0.176 A 
ATOM      9  N   UNL A   1      33.983  33.303  29.236  1.00  0.00    -0.219 N 
ATOM     10  N   UNL A   1      34.848  32.715  30.141  1.00  0.00    -0.161 NA
ATOM     11  C   UNL A   1      33.486  34.596  29.414  1.00  0.00     0.275 A 
ATOM     12  C   UNL A   1      33.589  35.167  30.769  1.00  0.00     0.051 A 
ATOM     13  O   UNL A   1      32.917  35.227  28.531  1.00  0.00    -0.267 OA
ATOM     14  C   UNL A   1      34.397  34.542  31.711  1.00  0.00     0.022 A 
ATOM     15  C   UNL A   1      32.865  36.318  31.110  1.00  0.00     0.014 A 
ATOM     16  C   UNL A   1      34.513  35.080  32.998  1.00  0.00     0.011 A 
ATOM     17  C   UNL A   1      32.965  36.845  32.396  1.00  0.00     0.001 A 
ATOM     18  C   UNL A   1      33.793  36.230  33.336  1.00  0.00     0.001 A 
BRANCH   9  19
ATOM     19  C   UNL A   1      33.946  32.689  27.889  1.00  0.00     0.248 C 
BRANCH  19  20
ATOM     20  C   UNL A   1      34.097  31.153  27.805  1.00  0.00     0.246 C 
ATOM     21  O   UNL A   1      35.157  30.585  28.062  1.00  0.00    -0.273 OA
ATOM     22  N   UNL A   1      32.930  30.496  27.489  1.00  0.00    -0.324 N 
ATOM     23  H   UNL A   1      32.078  30.941  27.703  1.00  0.00     0.169 HD
BRANCH  22  24
ATOM     24  C   UNL A   1      32.877  29.233  26.880  1.00  0.00     0.042 A 
ATOM     25  C   UNL A   1      32.163  28.209  27.511  1.00  0.00     0.027 A 
ATOM     26  C   UNL A   1      33.047  29.231  25.495  1.00  0.00     0.039 A 
ATOM     27  C   UNL A   1      31.441  27.296  26.735  1.00  0.00     0.015 A 
ATOM     28  C   UNL A   1      32.295  28.355  24.730  1.00  0.00     0.036 A 
ATOM     29  C   UNL A   1      31.422  27.461  25.345  1.00  0.00     0.034 A 
ATOM     30  C   UNL A   1      32.119  28.683  23.306  1.00  0.00     0.194 C 
ATOM     31  C   UNL A   1      30.234  27.022  24.577  1.00  0.00     0.194 C 
ATOM     32  O   UNL A   1      33.051  29.010  22.591  1.00  0.00    -0.289 OA
ATOM     33  C   UNL A   1      30.715  28.776  22.882  1.00  0.00     0.034 A 
ATOM     34  C   UNL A   1      29.771  27.977  23.535  1.00  0.00     0.034 A 
ATOM     35  O   UNL A   1      29.588  26.033  24.889  1.00  0.00    -0.289 OA
ATOM     36  C   UNL A   1      30.326  29.801  22.019  1.00  0.00     0.013 A 
ATOM     37  C   UNL A   1      28.412  28.219  23.344  1.00  0.00     0.013 A 
ATOM     38  C   UNL A   1      28.967  30.062  21.857  1.00  0.00     0.001 A 
ATOM     39  C   UNL A   1      28.015  29.280  22.521  1.00  0.00     0.001 A 
ENDBRANCH  22  24
ENDBRANCH  19  20
ENDBRANCH   9  19
ENDBRANCH   6   8
ENDBRANCH   5   6
ENDBRANCH   4   5
ENDBRANCH   3   4
ENDBRANCH   2   3
ENDBRANCH   1   2
BRANCH   1  40
ATOM     40  C   UNL A   1      41.866  33.027  31.484  1.00  0.00     0.188 C 
BRANCH  40  41
ATOM     41  O   UNL A   1      41.892  33.670  30.214  1.00  0.00    -0.376 OA
BRANCH  41  42
ATOM     42  C   UNL A   1      40.705  34.296  29.741  1.00  0.00     0.202 C 
BRANCH  42  43
ATOM     43  C   UNL A   1      40.890  35.618  28.997  1.00  0.00     0.261 C 
BRANCH  43  44
ATOM     44  O   UNL A   1      41.187  35.413  27.605  1.00  0.00    -0.460 OA
BRANCH  44  45
ATOM     45  C   UNL A   1      42.191  36.175  27.107  1.00  0.00     0.338 C 
ATOM     46  O   UNL A   1      42.173  37.376  26.901  1.00  0.00    -0.246 OA
BRANCH  45  47
ATOM     47  C   UNL A   1      43.418  35.359  27.004  1.00  0.00     0.060 A 
ATOM     48  C   UNL A   1      44.327  35.267  28.061  1.00  0.00     0.016 A 
ATOM     49  C   UNL A   1      43.631  34.644  25.819  1.00  0.00     0.016 A 
ATOM     50  C   UNL A   1      45.438  34.424  27.940  1.00  0.00     0.010 A 
ATOM     51  C   UNL A   1      44.747  33.819  25.694  1.00  0.00     0.010 A 
ATOM     52  C   UNL A   1      45.647  33.687  26.762  1.00  0.00    -0.014 A 
BRANCH  52  53
ATOM     53  C   UNL A   1      46.741  32.691  26.681  1.00  0.00     0.031 A 
ATOM     54  C   UNL A   1      48.151  33.107  26.394  1.00  0.00     0.074 A 
ATOM     55  C   UNL A   1      46.439  31.390  26.847  1.00  0.00     0.049 A 
ATOM     56  N   UNL A   1      49.224  32.367  26.305  1.00  0.00    -0.248 NA
ATOM     57  C   UNL A   1      48.385  34.540  26.166  1.00  0.00     0.031 C 
ATOM     58  C   UNL A   1      45.098  30.866  27.110  1.00  0.00     0.029 A 
ATOM     59  N   UNL A   1      47.236  30.275  26.819  1.00  0.00    -0.354 N 
ATOM     60  C   UNL A   1      50.269  33.238  26.030  1.00  0.00     0.074 A 
ATOM     61  C   UNL A   1      49.692  34.563  25.927  1.00  0.00     0.031 C 
ATOM     62  C   UNL A   1      45.165  29.530  27.226  1.00  0.00     0.029 A 
ATOM     63  C   UNL A   1      46.550  29.104  27.039  1.00  0.00     0.049 A 
ATOM     64  H   UNL A   1      48.206  30.309  26.657  1.00  0.00     0.167 HD
ATOM     65  C   UNL A   1      51.588  32.956  25.895  1.00  0.00     0.037 A 
ATOM     66  C   UNL A   1      46.988  27.833  27.093  1.00  0.00     0.037 A 
ATOM     67  C   UNL A   1      52.155  31.635  26.002  1.00  0.00     0.049 A 
ATOM     68  C   UNL A   1      48.452  27.547  26.920  1.00  0.00     0.074 A 
ATOM     69  C   UNL A   1      53.487  31.262  25.924  1.00  0.00     0.029 A 
ATOM     70  N   UNL A   1      51.430  30.471  26.207  1.00  0.00    -0.354 N 
ATOM     71  N   UNL A   1      49.435  28.389  26.708  1.00  0.00    -0.248 NA
ATOM     72  C   UNL A   1      48.868  26.140  27.001  1.00  0.00     0.031 C 
ATOM     73  C   UNL A   1      53.563  29.871  26.048  1.00  0.00     0.029 A 
ATOM     74  C   UNL A   1      52.283  29.378  26.238  1.00  0.00     0.049 A 
ATOM     75  H   UNL A   1      50.452  30.427  26.315  1.00  0.00     0.167 HD
ATOM     76  C   UNL A   1      50.588  27.616  26.644  1.00  0.00     0.074 A 
ATOM     77  C   UNL A   1      50.183  26.241  26.852  1.00  0.00     0.031 C 
ATOM     78  C   UNL A   1      51.866  28.012  26.432  1.00  0.00     0.037 A 
BRANCH  65  79
ATOM     79  C   UNL A   1      52.521  34.101  25.624  1.00  0.00     0.058 A 
ATOM     80  C   UNL A   1      53.226  34.726  26.663  1.00  0.00     0.135 A 
ATOM     81  C   UNL A   1      52.763  34.532  24.310  1.00  0.00     0.135 A 
ATOM     82  F   UNL A   1      53.016  34.360  27.938  1.00  0.00    -0.206 F 
ATOM     83  C   UNL A   1      54.130  35.752  26.411  1.00  0.00     0.059 A 
ATOM     84  C   UNL A   1      53.679  35.544  24.033  1.00  0.00     0.059 A 
ATOM     85  F   UNL A   1      52.109  33.970  23.282  1.00  0.00    -0.206 F 
ATOM     86  C   UNL A   1      54.349  36.154  25.093  1.00  0.00     0.060 A 
BRANCH  86  87
ATOM     87  S   UNL A   1      55.528  37.486  24.783  1.00  0.00     0.124 S 
ATOM     88  O   UNL A   1      56.494  37.268  25.856  1.00  0.00    -0.237 OA
ATOM     89  O   UNL A   1      55.997  37.181  23.436  1.00  0.00    -0.237 OA
ATOM     90  O   UNL A   1      54.715  38.692  24.905  1.00  0.00    -0.744 OA
ENDBRANCH  86  87
ENDBRANCH  65  79
BRANCH  66  91
ATOM     91  C   UNL A   1      46.024  26.739  27.364  1.00  0.00     0.058 A 
ATOM     92  C   UNL A   1      45.626  26.447  28.675  1.00  0.00     0.135 A 
ATOM     93  C   UNL A   1      45.455  25.994  26.320  1.00  0.00     0.135 A 
ATOM     94  F   UNL A   1      46.150  27.133  29.703  1.00  0.00    -0.206 F 
ATOM     95  C   UNL A   1      44.697  25.450  28.947  1.00  0.00     0.059 A 
ATOM     96  C   UNL A   1      44.511  25.003  26.564  1.00  0.00     0.059 A 
ATOM     97  F   UNL A   1      45.798  26.250  25.048  1.00  0.00    -0.206 F 
ATOM     98  C   UNL A   1      44.142  24.736  27.883  1.00  0.00     0.060 A 
BRANCH  98  99
ATOM     99  S   UNL A   1      42.886  23.489  28.243  1.00  0.00     0.124 S 
ATOM    100  O   UNL A   1      43.501  22.764  29.349  1.00  0.00    -0.237 OA
ATOM    101  O   UNL A   1      41.728  24.310  28.584  1.00  0.00    -0.237 OA
ATOM    102  O   UNL A   1      42.776  22.753  26.987  1.00  0.00    -0.744 OA
ENDBRANCH  98  99
ENDBRANCH  66  91
BRANCH  78 103
ATOM    103  C   UNL A   1      52.922  26.945  26.411  1.00  0.00     0.058 A 
ATOM    104  C   UNL A   1      53.197  26.213  25.246  1.00  0.00     0.135 A 
ATOM    105  C   UNL A   1      53.694  26.678  27.554  1.00  0.00     0.135 A 
ATOM    106  F   UNL A   1      52.481  26.426  24.130  1.00  0.00    -0.206 F 
ATOM    107  C   UNL A   1      54.190  25.240  25.217  1.00  0.00     0.059 A 
ATOM    108  C   UNL A   1      54.706  25.723  27.542  1.00  0.00     0.059 A 
ATOM    109  F   UNL A   1      53.475  27.356  28.691  1.00  0.00    -0.206 F 
ATOM    110  C   UNL A   1      54.940  25.002  26.370  1.00  0.00     0.060 A 
BRANCH 110 111
ATOM    111  S   UNL A   1      56.250  23.760  26.311  1.00  0.00     0.124 S 
ATOM    112  O   UNL A   1      57.031  24.100  27.495  1.00  0.00    -0.237 OA
ATOM    113  O   UNL A   1      55.499  22.509  26.384  1.00  0.00    -0.237 OA
ATOM    114  O   UNL A   1      56.903  24.017  25.031  1.00  0.00    -0.744 OA
ENDBRANCH 110 111
ENDBRANCH  78 103
ENDBRANCH  52  53
ENDBRANCH  45  47
ENDBRANCH  44  45
ENDBRANCH  43  44
ENDBRANCH  42  43
ENDBRANCH  41  42
ENDBRANCH  40  41
ENDBRANCH   1  40
TORSDOF 23
ENDMDL
MODEL 2
REMARK VINA RESULT:     -11.2      4.017      7.166
REMARK SMILES O=C(Cn1nc(C(=O)OCCOCCOCCOC(=O)c2ccc(-c3c4nc(c(-c5c(F)cc(S(=O)(=O)[O-])cc5F)c5ccc([nH]5)c(-c5c(F)cc(S(=O)(=O)[O-])cc5F)c5nc(c(-c6c(F)cc(S(=O)(=O)[O-])cc6F)c6ccc3[nH]6)C=C5)C=C4)cc2)c2ccccc2c1=O)Nc1ccc2c(c1)C(=O)c1ccccc1C2=O
REMARK SMILES IDX 13 1 12 2 11 3 10 4 9 5 7 6 8 7 6 8 4 9 5 10 93 11 92 12
REMARK SMILES IDX 94 13 87 14 91 15 88 16 90 17 89 18 3 19 2 20 1 21 95 22
REMARK SMILES IDX 96 24 97 25 101 26 98 27 100 28 99 29 102 30 110 31 103 32
REMARK SMILES IDX 104 33 109 34 111 35 105 36 108 37 106 38 107 39 14 40 15 41
REMARK SMILES IDX 16 42 17 43 18 44 19 45 20 46 21 47 22 48 86 49 23 50 85 51
REMARK SMILES IDX 24 52 25 53 26 54 79 55 27 56 84 57 78 58 80 59 28 60 83 61
REMARK SMILES IDX 77 62 76 63 29 65 63 66 42 67 62 68 43 69 46 70 61 71 81 72
REMARK SMILES IDX 44 73 45 74 60 76 82 77 47 78 30 79 31 80 40 81 32 82 33 83
REMARK SMILES IDX 39 84 41 85 34 86 35 87 36 88 37 89 38 90 64 91 65 92 74 93
REMARK SMILES IDX 66 94 67 95 73 96 75 97 68 98 69 99 70 100 71 101 72 102
REMARK SMILES IDX 48 103 49 104 58 105 50 106 51 107 57 108 59 109 52 110
REMARK SMILES IDX 53 111 54 112 55 113 56 114
REMARK H PARENT 95 23 80 64 46 75
REMARK Flexibility Score: inf
ROOT
ATOM      1  C   UNL A   1      33.835  37.804  32.483  1.00  0.00     0.188 C 
ENDROOT
BRANCH   1   2
ATOM      2  O   UNL A   1      32.821  37.463  31.540  1.00  0.00    -0.376 OA
BRANCH   2   3
ATOM      3  C   UNL A   1      33.278  36.916  30.309  1.00  0.00     0.202 C 
BRANCH   3   4
ATOM      4  C   UNL A   1      32.904  35.442  30.163  1.00  0.00     0.261 C 
BRANCH   4   5
ATOM      5  O   UNL A   1      34.053  34.637  29.867  1.00  0.00    -0.458 OA
BRANCH   5   6
ATOM      6  C   UNL A   1      34.448  34.535  28.583  1.00  0.00     0.359 C 
ATOM      7  O   UNL A   1      34.424  35.375  27.713  1.00  0.00    -0.244 OA
BRANCH   6   8
ATOM      8  C   UNL A   1      35.058  33.149  28.426  1.00  0.00     0.176 A 
ATOM      9  N   UNL A   1      34.718  30.903  27.969  1.00  0.00    -0.219 N 
ATOM     10  N   UNL A   1      34.290  32.218  27.930  1.00  0.00    -0.161 NA
ATOM     11  C   UNL A   1      35.863  30.515  28.670  1.00  0.00     0.275 A 
ATOM     12  C   UNL A   1      36.814  31.581  29.034  1.00  0.00     0.051 A 
ATOM     13  O   UNL A   1      36.136  29.346  28.920  1.00  0.00    -0.267 OA
ATOM     14  C   UNL A   1      36.419  32.909  28.927  1.00  0.00     0.022 A 
ATOM     15  C   UNL A   1      38.107  31.259  29.467  1.00  0.00     0.014 A 
ATOM     16  C   UNL A   1      37.309  33.931  29.280  1.00  0.00     0.011 A 
ATOM     17  C   UNL A   1      39.000  32.276  29.803  1.00  0.00     0.001 A 
ATOM     18  C   UNL A   1      38.598  33.609  29.715  1.00  0.00     0.001 A 
BRANCH   9  19
ATOM     19  C   UNL A   1      33.705  29.886  27.610  1.00  0.00     0.248 C 
BRANCH  19  20
ATOM     20  C   UNL A   1      33.017  30.025  26.233  1.00  0.00     0.246 C 
ATOM     21  O   UNL A   1      32.037  30.747  26.062  1.00  0.00    -0.273 OA
ATOM     22  N   UNL A   1      33.643  29.327  25.226  1.00  0.00    -0.324 N 
ATOM     23  H   UNL A   1      34.602  29.130  25.330  1.00  0.00     0.169 HD
BRANCH  22  24
ATOM     24  C   UNL A   1      33.002  28.880  24.060  1.00  0.00     0.042 A 
ATOM     25  C   UNL A   1      33.720  28.858  22.861  1.00  0.00     0.027 A 
ATOM     26  C   UNL A   1      31.936  28.004  24.266  1.00  0.00     0.039 A 
ATOM     27  C   UNL A   1      33.505  27.818  21.950  1.00  0.00     0.015 A 
ATOM     28  C   UNL A   1      31.757  26.949  23.385  1.00  0.00     0.036 A 
ATOM     29  C   UNL A   1      32.603  26.803  22.289  1.00  0.00     0.034 A 
ATOM     30  C   UNL A   1      30.975  25.797  23.862  1.00  0.00     0.194 C 
ATOM     31  C   UNL A   1      32.818  25.434  21.764  1.00  0.00     0.194 C 
ATOM     32  O   UNL A   1      29.902  25.925  24.427  1.00  0.00    -0.289 OA
ATOM     33  C   UNL A   1      31.687  24.514  23.778  1.00  0.00     0.034 A 
ATOM     34  C   UNL A   1      32.627  24.343  22.758  1.00  0.00     0.034 A 
ATOM     35  O   UNL A   1      33.278  25.230  20.652  1.00  0.00    -0.289 OA
ATOM     36  C   UNL A   1      31.582  23.603  24.829  1.00  0.00     0.013 A 
ATOM     37  C   UNL A   1      33.499  23.256  22.797  1.00  0.00     0.013 A 
ATOM     38  C   UNL A   1      32.476  22.535  24.883  1.00  0.00     0.001 A 
ATOM     39  C   UNL A   1      33.434  22.367  23.876  1.00  0.00     0.001 A 
ENDBRANCH  22  24
ENDBRANCH  19  20
ENDBRANCH   9  19
ENDBRANCH   6   8
ENDBRANCH   5   6
ENDBRANCH   4   5
ENDBRANCH   3   4
ENDBRANCH   2   3
ENDBRANCH   1   2
BRANCH   1  40
ATOM     40  C   UNL A   1      34.001  36.761  33.605  1.00  0.00     0.188 C 
BRANCH  40  41
ATOM     41  O   UNL A   1      35.028  35.782  33.484  1.00  0.00    -0.376 OA
BRANCH  41  42
ATOM     42  C   UNL A   1      34.817  34.496  34.055  1.00  0.00     0.202 C 
BRANCH  42  43
ATOM     43  C   UNL A   1      36.064  33.636  34.261  1.00  0.00     0.261 C 
BRANCH  43  44
ATOM     44  O   UNL A   1      36.607  33.789  35.583  1.00  0.00    -0.460 OA
BRANCH  44  45
ATOM     45  C   UNL A   1      37.407  32.778  36.003  1.00  0.00     0.338 C 
ATOM     46  O   UNL A   1      37.172  31.971  36.886  1.00  0.00    -0.246 OA
BRANCH  45  47
ATOM     47  C   UNL A   1      38.570  32.668  35.101  1.00  0.00     0.060 A 
ATOM     48  C   UNL A   1      39.772  33.330  35.370  1.00  0.00     0.016 A 
ATOM     49  C   UNL A   1      38.449  31.845  33.975  1.00  0.00     0.016 A 
ATOM     50  C   UNL A   1      40.868  33.136  34.521  1.00  0.00     0.010 A 
ATOM     51  C   UNL A   1      39.537  31.668  33.122  1.00  0.00     0.010 A 
ATOM     52  C   UNL A   1      40.759  32.296  33.400  1.00  0.00    -0.014 A 
BRANCH  52  53
ATOM     53  C   UNL A   1      41.952  31.978  32.580  1.00  0.00     0.031 A 
ATOM     54  C   UNL A   1      42.486  32.953  31.575  1.00  0.00     0.074 A 
ATOM     55  C   UNL A   1      42.539  30.777  32.737  1.00  0.00     0.049 A 
ATOM     56  N   UNL A   1      43.524  32.837  30.791  1.00  0.00    -0.248 NA
ATOM     57  C   UNL A   1      41.751  34.217  31.425  1.00  0.00     0.031 C 
ATOM     58  C   UNL A   1      42.093  29.740  33.668  1.00  0.00     0.029 A 
ATOM     59  N   UNL A   1      43.630  30.226  32.118  1.00  0.00    -0.354 N 
ATOM     60  C   UNL A   1      43.587  34.017  30.063  1.00  0.00     0.074 A 
ATOM     61  C   UNL A   1      42.453  34.822  30.473  1.00  0.00     0.031 C 
ATOM     62  C   UNL A   1      42.909  28.679  33.565  1.00  0.00     0.029 A 
ATOM     63  C   UNL A   1      43.929  28.958  32.557  1.00  0.00     0.049 A 
ATOM     64  H   UNL A   1      44.151  30.693  31.426  1.00  0.00     0.167 HD
ATOM     65  C   UNL A   1      44.516  34.397  29.151  1.00  0.00     0.037 A 
ATOM     66  C   UNL A   1      44.917  28.119  32.195  1.00  0.00     0.037 A 
ATOM     67  C   UNL A   1      45.643  33.593  28.751  1.00  0.00     0.049 A 
ATOM     68  C   UNL A   1      45.921  28.558  31.168  1.00  0.00     0.074 A 
ATOM     69  C   UNL A   1      46.659  33.915  27.868  1.00  0.00     0.029 A 
ATOM     70  N   UNL A   1      45.904  32.307  29.202  1.00  0.00    -0.354 N 
ATOM     71  N   UNL A   1      45.994  29.698  30.524  1.00  0.00    -0.248 NA
ATOM     72  C   UNL A   1      46.981  27.600  30.825  1.00  0.00     0.031 C 
ATOM     73  C   UNL A   1      47.516  32.814  27.759  1.00  0.00     0.029 A 
ATOM     74  C   UNL A   1      47.053  31.816  28.601  1.00  0.00     0.049 A 
ATOM     75  H   UNL A   1      45.354  31.815  29.855  1.00  0.00     0.167 HD
ATOM     76  C   UNL A   1      47.114  29.600  29.708  1.00  0.00     0.074 A 
ATOM     77  C   UNL A   1      47.697  28.296  29.950  1.00  0.00     0.031 C 
ATOM     78  C   UNL A   1      47.615  30.511  28.839  1.00  0.00     0.037 A 
BRANCH  65  79
ATOM     79  C   UNL A   1      44.363  35.753  28.524  1.00  0.00     0.058 A 
ATOM     80  C   UNL A   1      43.536  35.948  27.407  1.00  0.00     0.135 A 
ATOM     81  C   UNL A   1      44.992  36.876  29.082  1.00  0.00     0.135 A 
ATOM     82  F   UNL A   1      42.925  34.903  26.827  1.00  0.00    -0.206 F 
ATOM     83  C   UNL A   1      43.350  37.211  26.855  1.00  0.00     0.059 A 
ATOM     84  C   UNL A   1      44.805  38.152  28.558  1.00  0.00     0.059 A 
ATOM     85  F   UNL A   1      45.797  36.740  30.147  1.00  0.00    -0.206 F 
ATOM     86  C   UNL A   1      43.989  38.306  27.438  1.00  0.00     0.060 A 
BRANCH  86  87
ATOM     87  S   UNL A   1      43.735  39.939  26.709  1.00  0.00     0.124 S 
ATOM     88  O   UNL A   1      44.834  39.997  25.750  1.00  0.00    -0.237 OA
ATOM     89  O   UNL A   1      42.399  39.821  26.137  1.00  0.00    -0.237 OA
ATOM     90  O   UNL A   1      43.850  40.840  27.852  1.00  0.00    -0.744 OA
ENDBRANCH  86  87
ENDBRANCH  65  79
BRANCH  66  91
ATOM     91  C   UNL A   1      45.023  26.791  32.846  1.00  0.00     0.058 A 
ATOM     92  C   UNL A   1      45.637  26.657  34.099  1.00  0.00     0.135 A 
ATOM     93  C   UNL A   1      44.480  25.642  32.251  1.00  0.00     0.135 A 
ATOM     94  F   UNL A   1      46.172  27.730  34.701  1.00  0.00    -0.206 F 
ATOM     95  C   UNL A   1      45.714  25.427  34.742  1.00  0.00     0.059 A 
ATOM     96  C   UNL A   1      44.530  24.404  32.882  1.00  0.00     0.059 A 
ATOM     97  F   UNL A   1      43.871  25.728  31.059  1.00  0.00    -0.206 F 
ATOM     98  C   UNL A   1      45.153  24.307  34.127  1.00  0.00     0.060 A 
BRANCH  98  99
ATOM     99  S   UNL A   1      45.200  22.728  35.001  1.00  0.00     0.124 S 
ATOM    100  O   UNL A   1      43.888  22.177  34.681  1.00  0.00    -0.237 OA
ATOM    101  O   UNL A   1      46.340  22.064  34.376  1.00  0.00    -0.237 OA
ATOM    102  O   UNL A   1      45.398  23.122  36.393  1.00  0.00    -0.744 OA
ENDBRANCH  98  99
ENDBRANCH  66  91
BRANCH  78 103
ATOM    103  C   UNL A   1      48.854  30.129  28.081  1.00  0.00     0.058 A 
ATOM    104  C   UNL A   1      50.129  30.502  28.532  1.00  0.00     0.135 A 
ATOM    105  C   UNL A   1      48.770  29.348  26.916  1.00  0.00     0.135 A 
ATOM    106  F   UNL A   1      50.261  31.254  29.636  1.00  0.00    -0.206 F 
ATOM    107  C   UNL A   1      51.280  30.129  27.845  1.00  0.00     0.059 A 
ATOM    108  C   UNL A   1      49.908  28.948  26.224  1.00  0.00     0.059 A 
ATOM    109  F   UNL A   1      47.573  28.960  26.448  1.00  0.00    -0.206 F 
ATOM    110  C   UNL A   1      51.159  29.352  26.691  1.00  0.00     0.060 A 
BRANCH 110 111
ATOM    111  S   UNL A   1      52.662  28.846  25.827  1.00  0.00     0.124 S 
ATOM    112  O   UNL A   1      53.562  28.568  26.941  1.00  0.00    -0.237 OA
ATOM    113  O   UNL A   1      52.211  27.681  25.070  1.00  0.00    -0.237 OA
ATOM    114  O   UNL A   1      53.000  30.016  25.022  1.00  0.00    -0.744 OA
ENDBRANCH 110 111
ENDBRANCH  78 103
ENDBRANCH  52  53
ENDBRANCH  45  47
ENDBRANCH  44  45
ENDBRANCH  43  44
ENDBRANCH  42  43
ENDBRANCH  41  42
ENDBRANCH  40  41
ENDBRANCH   1  40
TORSDOF 23
ENDMDL
MODEL 3
REMARK VINA RESULT:     -11.2      4.847     10.560
REMARK SMILES O=C(Cn1nc(C(=O)OCCOCCOCCOC(=O)c2ccc(-c3c4nc(c(-c5c(F)cc(S(=O)(=O)[O-])cc5F)c5ccc([nH]5)c(-c5c(F)cc(S(=O)(=O)[O-])cc5F)c5nc(c(-c6c(F)cc(S(=O)(=O)[O-])cc6F)c6ccc3[nH]6)C=C5)C=C4)cc2)c2ccccc2c1=O)Nc1ccc2c(c1)C(=O)c1ccccc1C2=O
REMARK SMILES IDX 13 1 12 2 11 3 10 4 9 5 7 6 8 7 6 8 4 9 5 10 93 11 92 12
REMARK SMILES IDX 94 13 87 14 91 15 88 16 90 17 89 18 3 19 2 20 1 21 95 22
REMARK SMILES IDX 96 24 97 25 101 26 98 27 100 28 99 29 102 30 110 31 103 32
REMARK SMILES IDX 104 33 109 34 111 35 105 36 108 37 106 38 107 39 14 40 15 41
REMARK SMILES IDX 16 42 17 43 18 44 19 45 20 46 21 47 22 48 86 49 23 50 85 51
REMARK SMILES IDX 24 52 25 53 26 54 79 55 27 56 84 57 78 58 80 59 28 60 83 61
REMARK SMILES IDX 77 62 76 63 29 65 63 66 42 67 62 68 43 69 46 70 61 71 81 72
REMARK SMILES IDX 44 73 45 74 60 76 82 77 47 78 30 79 31 80 40 81 32 82 33 83
REMARK SMILES IDX 39 84 41 85 34 86 35 87 36 88 37 89 38 90 64 91 65 92 74 93
REMARK SMILES IDX 66 94 67 95 73 96 75 97 68 98 69 99 70 100 71 101 72 102
REMARK SMILES IDX 48 103 49 104 58 105 50 106 51 107 57 108 59 109 52 110
REMARK SMILES IDX 53 111 54 112 55 113 56 114
REMARK H PARENT 95 23 80 64 46 75
REMARK Flexibility Score: inf
ROOT
ATOM      1  C   UNL A   1      43.667  25.352  24.891  1.00  0.00     0.188 C 
ENDROOT
BRANCH   1   2
ATOM      2  O   UNL A   1      43.324  26.293  25.905  1.00  0.00    -0.376 OA
BRANCH   2   3
ATOM      3  C   UNL A   1      42.645  27.463  25.462  1.00  0.00     0.202 C 
BRANCH   3   4
ATOM      4  C   UNL A   1      41.429  27.782  26.330  1.00  0.00     0.261 C 
BRANCH   4   5
ATOM      5  O   UNL A   1      40.428  26.760  26.223  1.00  0.00    -0.458 OA
BRANCH   5   6
ATOM      6  C   UNL A   1      39.985  26.178  27.355  1.00  0.00     0.359 C 
ATOM      7  O   UNL A   1      39.318  26.657  28.243  1.00  0.00    -0.244 OA
BRANCH   6   8
ATOM      8  C   UNL A   1      40.397  24.715  27.279  1.00  0.00     0.176 A 
ATOM      9  N   UNL A   1      39.862  22.566  26.600  1.00  0.00    -0.219 N 
ATOM     10  N   UNL A   1      39.667  23.933  26.533  1.00  0.00    -0.161 NA
ATOM     11  C   UNL A   1      40.694  21.980  27.558  1.00  0.00     0.275 A 
ATOM     12  C   UNL A   1      41.655  22.868  28.237  1.00  0.00     0.051 A 
ATOM     13  O   UNL A   1      40.705  20.777  27.796  1.00  0.00    -0.267 OA
ATOM     14  C   UNL A   1      41.512  24.245  28.114  1.00  0.00     0.022 A 
ATOM     15  C   UNL A   1      42.712  22.328  28.983  1.00  0.00     0.014 A 
ATOM     16  C   UNL A   1      42.412  25.099  28.763  1.00  0.00     0.011 A 
ATOM     17  C   UNL A   1      43.618  23.178  29.615  1.00  0.00     0.001 A 
ATOM     18  C   UNL A   1      43.464  24.560  29.510  1.00  0.00     0.001 A 
BRANCH   9  19
ATOM     19  C   UNL A   1      38.848  21.736  25.912  1.00  0.00     0.248 C 
BRANCH  19  20
ATOM     20  C   UNL A   1      37.483  22.393  25.604  1.00  0.00     0.246 C 
ATOM     21  O   UNL A   1      36.932  23.157  26.395  1.00  0.00    -0.273 OA
ATOM     22  N   UNL A   1      36.994  22.098  24.353  1.00  0.00    -0.324 N 
ATOM     23  H   UNL A   1      37.640  21.847  23.653  1.00  0.00     0.169 HD
BRANCH  22  24
ATOM     24  C   UNL A   1      35.634  22.131  24.010  1.00  0.00     0.042 A 
ATOM     25  C   UNL A   1      34.719  21.439  24.810  1.00  0.00     0.027 A 
ATOM     26  C   UNL A   1      35.233  23.245  23.272  1.00  0.00     0.039 A 
ATOM     27  C   UNL A   1      33.451  21.988  25.035  1.00  0.00     0.015 A 
ATOM     28  C   UNL A   1      33.994  23.809  23.532  1.00  0.00     0.036 A 
ATOM     29  C   UNL A   1      33.152  23.238  24.483  1.00  0.00     0.034 A 
ATOM     30  C   UNL A   1      33.792  25.208  23.125  1.00  0.00     0.194 C 
ATOM     31  C   UNL A   1      32.199  24.132  25.182  1.00  0.00     0.194 C 
ATOM     32  O   UNL A   1      34.101  25.618  22.019  1.00  0.00    -0.289 OA
ATOM     33  C   UNL A   1      33.378  26.098  24.220  1.00  0.00     0.034 A 
ATOM     34  C   UNL A   1      32.616  25.558  25.260  1.00  0.00     0.034 A 
ATOM     35  O   UNL A   1      31.231  23.701  25.790  1.00  0.00    -0.289 OA
ATOM     36  C   UNL A   1      33.936  27.373  24.315  1.00  0.00     0.013 A 
ATOM     37  C   UNL A   1      32.425  26.292  26.429  1.00  0.00     0.013 A 
ATOM     38  C   UNL A   1      33.772  28.091  25.498  1.00  0.00     0.001 A 
ATOM     39  C   UNL A   1      33.026  27.551  26.552  1.00  0.00     0.001 A 
ENDBRANCH  22  24
ENDBRANCH  19  20
ENDBRANCH   9  19
ENDBRANCH   6   8
ENDBRANCH   5   6
ENDBRANCH   4   5
ENDBRANCH   3   4
ENDBRANCH   2   3
ENDBRANCH   1   2
BRANCH   1  40
ATOM     40  C   UNL A   1      43.485  23.886  25.331  1.00  0.00     0.188 C 
BRANCH  40  41
ATOM     41  O   UNL A   1      44.531  23.256  26.063  1.00  0.00    -0.376 OA
BRANCH  41  42
ATOM     42  C   UNL A   1      45.529  22.537  25.348  1.00  0.00     0.202 C 
BRANCH  42  43
ATOM     43  C   UNL A   1      46.674  23.367  24.768  1.00  0.00     0.261 C 
BRANCH  43  44
ATOM     44  O   UNL A   1      47.134  24.366  25.694  1.00  0.00    -0.460 OA
BRANCH  44  45
ATOM     45  C   UNL A   1      47.688  25.468  25.133  1.00  0.00     0.338 C 
ATOM     46  O   UNL A   1      48.367  25.518  24.121  1.00  0.00    -0.246 OA
BRANCH  45  47
ATOM     47  C   UNL A   1      47.201  26.672  25.835  1.00  0.00     0.060 A 
ATOM     48  C   UNL A   1      47.459  26.884  27.192  1.00  0.00     0.016 A 
ATOM     49  C   UNL A   1      46.496  27.624  25.089  1.00  0.00     0.016 A 
ATOM     50  C   UNL A   1      47.036  28.075  27.795  1.00  0.00     0.010 A 
ATOM     51  C   UNL A   1      46.062  28.802  25.695  1.00  0.00     0.010 A 
ATOM     52  C   UNL A   1      46.347  29.044  27.047  1.00  0.00    -0.014 A 
BRANCH  52  53
ATOM     53  C   UNL A   1      46.021  30.361  27.642  1.00  0.00     0.031 A 
ATOM     54  C   UNL A   1      46.958  31.523  27.518  1.00  0.00     0.074 A 
ATOM     55  C   UNL A   1      44.867  30.491  28.324  1.00  0.00     0.049 A 
ATOM     56  N   UNL A   1      46.817  32.743  27.965  1.00  0.00    -0.248 NA
ATOM     57  C   UNL A   1      48.222  31.281  26.808  1.00  0.00     0.031 C 
ATOM     58  C   UNL A   1      43.888  29.422  28.528  1.00  0.00     0.029 A 
ATOM     59  N   UNL A   1      44.326  31.571  28.971  1.00  0.00    -0.354 N 
ATOM     60  C   UNL A   1      47.962  33.426  27.579  1.00  0.00     0.074 A 
ATOM     61  C   UNL A   1      48.808  32.470  26.893  1.00  0.00     0.031 C 
ATOM     62  C   UNL A   1      42.860  29.903  29.246  1.00  0.00     0.029 A 
ATOM     63  C   UNL A   1      43.111  31.307  29.557  1.00  0.00     0.049 A 
ATOM     64  H   UNL A   1      44.764  32.451  29.011  1.00  0.00     0.167 HD
ATOM     65  C   UNL A   1      48.266  34.734  27.767  1.00  0.00     0.037 A 
ATOM     66  C   UNL A   1      42.289  32.109  30.259  1.00  0.00     0.037 A 
ATOM     67  C   UNL A   1      47.418  35.680  28.448  1.00  0.00     0.049 A 
ATOM     68  C   UNL A   1      42.660  33.549  30.469  1.00  0.00     0.074 A 
ATOM     69  C   UNL A   1      47.626  37.035  28.645  1.00  0.00     0.029 A 
ATOM     70  N   UNL A   1      46.204  35.375  29.045  1.00  0.00    -0.354 N 
ATOM     71  N   UNL A   1      43.725  34.192  30.055  1.00  0.00    -0.248 NA
ATOM     72  C   UNL A   1      41.714  34.374  31.234  1.00  0.00     0.031 C 
ATOM     73  C   UNL A   1      46.555  37.541  29.389  1.00  0.00     0.029 A 
ATOM     74  C   UNL A   1      45.662  36.510  29.628  1.00  0.00     0.049 A 
ATOM     75  H   UNL A   1      45.788  34.482  29.054  1.00  0.00     0.167 HD
ATOM     76  C   UNL A   1      43.573  35.500  30.498  1.00  0.00     0.074 A 
ATOM     77  C   UNL A   1      42.307  35.561  31.199  1.00  0.00     0.031 C 
ATOM     78  C   UNL A   1      44.408  36.555  30.335  1.00  0.00     0.037 A 
BRANCH  65  79
ATOM     79  C   UNL A   1      49.574  35.230  27.219  1.00  0.00     0.058 A 
ATOM     80  C   UNL A   1      50.759  35.133  27.965  1.00  0.00     0.135 A 
ATOM     81  C   UNL A   1      49.655  35.744  25.916  1.00  0.00     0.135 A 
ATOM     82  F   UNL A   1      50.730  34.664  29.222  1.00  0.00    -0.206 F 
ATOM     83  C   UNL A   1      51.980  35.543  27.441  1.00  0.00     0.059 A 
ATOM     84  C   UNL A   1      50.870  36.142  25.365  1.00  0.00     0.059 A 
ATOM     85  F   UNL A   1      48.549  35.863  25.166  1.00  0.00    -0.206 F 
ATOM     86  C   UNL A   1      52.025  36.047  26.140  1.00  0.00     0.060 A 
BRANCH  86  87
ATOM     87  S   UNL A   1      53.619  36.573  25.476  1.00  0.00     0.124 S 
ATOM     88  O   UNL A   1      54.073  35.350  24.821  1.00  0.00    -0.237 OA
ATOM     89  O   UNL A   1      53.242  37.666  24.587  1.00  0.00    -0.237 OA
ATOM     90  O   UNL A   1      54.369  36.964  26.665  1.00  0.00    -0.744 OA
ENDBRANCH  86  87
ENDBRANCH  65  79
BRANCH  66  91
ATOM     91  C   UNL A   1      41.009  31.568  30.778  1.00  0.00     0.058 A 
ATOM     92  C   UNL A   1      40.993  30.709  31.884  1.00  0.00     0.135 A 
ATOM     93  C   UNL A   1      39.780  31.930  30.205  1.00  0.00     0.135 A 
ATOM     94  F   UNL A   1      42.147  30.335  32.459  1.00  0.00    -0.206 F 
ATOM     95  C   UNL A   1      39.802  30.219  32.407  1.00  0.00     0.059 A 
ATOM     96  C   UNL A   1      38.574  31.467  30.720  1.00  0.00     0.059 A 
ATOM     97  F   UNL A   1      39.748  32.761  29.153  1.00  0.00    -0.206 F 
ATOM     98  C   UNL A   1      38.596  30.608  31.820  1.00  0.00     0.060 A 
BRANCH  98  99
ATOM     99  S   UNL A   1      37.052  30.021  32.549  1.00  0.00     0.124 S 
ATOM    100  O   UNL A   1      36.234  29.800  31.362  1.00  0.00    -0.237 OA
ATOM    101  O   UNL A   1      37.485  28.821  33.259  1.00  0.00    -0.237 OA
ATOM    102  O   UNL A   1      36.641  31.132  33.403  1.00  0.00    -0.744 OA
ENDBRANCH  98  99
ENDBRANCH  66  91
BRANCH  78 103
ATOM    103  C   UNL A   1      43.981  37.867  30.929  1.00  0.00     0.058 A 
ATOM    104  C   UNL A   1      44.146  38.137  32.296  1.00  0.00     0.135 A 
ATOM    105  C   UNL A   1      43.440  38.879  30.119  1.00  0.00     0.135 A 
ATOM    106  F   UNL A   1      44.651  37.199  33.114  1.00  0.00    -0.206 F 
ATOM    107  C   UNL A   1      43.773  39.359  32.845  1.00  0.00     0.059 A 
ATOM    108  C   UNL A   1      43.079  40.116  30.643  1.00  0.00     0.059 A 
ATOM    109  F   UNL A   1      43.270  38.672  28.804  1.00  0.00    -0.206 F 
ATOM    110  C   UNL A   1      43.241  40.343  32.010  1.00  0.00     0.060 A 
BRANCH 110 111
ATOM    111  S   UNL A   1      42.793  41.938  32.728  1.00  0.00     0.124 S 
ATOM    112  O   UNL A   1      41.889  41.535  33.800  1.00  0.00    -0.237 OA
ATOM    113  O   UNL A   1      44.087  42.465  33.154  1.00  0.00    -0.237 OA
ATOM    114  O   UNL A   1      42.170  42.648  31.615  1.00  0.00    -0.744 OA
ENDBRANCH 110 111
ENDBRANCH  78 103
ENDBRANCH  52  53
ENDBRANCH  45  47
ENDBRANCH  44  45
ENDBRANCH  43  44
ENDBRANCH  42  43
ENDBRANCH  41  42
ENDBRANCH  40  41
ENDBRANCH   1  40
TORSDOF 23
ENDMDL
