MODEL 1
REMARK VINA RESULT:      -9.9      0.000      0.000
REMARK SMILES O=C(OCCOCCOCCOC(=O)[C@H]1C=C[C@@H](NS(=O)(=O)c2ccc(Br)cc2)C1)c1ccc(-c2c3nc(c(-c4c(F)cc(S(=O)(=O)[O-])cc4F)c4ccc([nH]4)c(-c4c(F)cc(S(=O)(=O)[O-])cc4F)c4nc(c(-c5c(F)cc(S(=O)(=O)[O-])cc5F)c5ccc2[nH]5)C=C4)C=C3)cc1
REMARK SMILES IDX 7 1 6 2 5 3 4 4 3 5 2 6 1 7 31 8 32 9 96 10 33 11 95 12
REMARK SMILES IDX 34 13 35 14 36 15 89 16 37 17 94 18 88 19 90 20 38 21 93 22
REMARK SMILES IDX 87 23 86 24 39 26 73 27 52 28 72 29 53 30 56 31 71 32 91 33
REMARK SMILES IDX 54 34 55 35 70 37 92 38 57 39 40 40 41 41 50 42 42 43 43 44
REMARK SMILES IDX 49 45 51 46 44 47 45 48 46 49 47 50 48 51 74 52 75 53 84 54
REMARK SMILES IDX 76 55 77 56 83 57 85 58 78 59 79 60 80 61 81 62 82 63 58 64
REMARK SMILES IDX 59 65 68 66 60 67 61 68 67 69 69 70 62 71 63 72 64 73 65 74
REMARK SMILES IDX 66 75 8 76 9 77 10 78 11 79 12 80 13 81 14 82 15 83 16 84
REMARK SMILES IDX 30 85 17 86 18 87 19 88 20 90 21 91 22 92 23 93 24 94 29 95
REMARK SMILES IDX 25 96 28 97 26 98 27 99
REMARK H PARENT 90 25 56 36 19 89
REMARK Flexibility Score: inf
ROOT
ATOM      1  C   UNL A   1      41.078  21.503  27.674  1.00  0.00     0.188 C 
ENDROOT
BRANCH   1   2
ATOM      2  O   UNL A   1      40.848  20.095  27.573  1.00  0.00    -0.376 OA
BRANCH   2   3
ATOM      3  C   UNL A   1      42.024  19.337  27.269  1.00  0.00     0.202 C 
BRANCH   3   4
ATOM      4  C   UNL A   1      42.202  18.974  25.784  1.00  0.00     0.261 C 
BRANCH   4   5
ATOM      5  O   UNL A   1      43.570  19.067  25.345  1.00  0.00    -0.460 OA
BRANCH   5   6
ATOM      6  C   UNL A   1      44.159  20.084  24.657  1.00  0.00     0.338 C 
ATOM      7  O   UNL A   1      44.572  19.867  23.520  1.00  0.00    -0.246 OA
BRANCH   6   8
ATOM      8  C   UNL A   1      44.278  21.466  25.209  1.00  0.00     0.060 A 
ATOM      9  C   UNL A   1      44.190  22.622  24.437  1.00  0.00     0.016 A 
ATOM     10  C   UNL A   1      44.459  21.618  26.590  1.00  0.00     0.016 A 
ATOM     11  C   UNL A   1      44.494  23.870  24.954  1.00  0.00     0.010 A 
ATOM     12  C   UNL A   1      44.631  22.894  27.144  1.00  0.00     0.010 A 
ATOM     13  C   UNL A   1      44.719  24.025  26.314  1.00  0.00    -0.014 A 
BRANCH  13  14
ATOM     14  C   UNL A   1      45.161  25.338  26.840  1.00  0.00     0.031 A 
ATOM     15  C   UNL A   1      44.102  26.350  27.176  1.00  0.00     0.074 A 
ATOM     16  C   UNL A   1      46.467  25.613  27.038  1.00  0.00     0.049 A 
ATOM     17  N   UNL A   1      44.208  27.634  27.383  1.00  0.00    -0.248 NA
ATOM     18  C   UNL A   1      42.727  25.830  27.320  1.00  0.00     0.031 C 
ATOM     19  C   UNL A   1      47.588  24.681  26.863  1.00  0.00     0.029 A 
ATOM     20  N   UNL A   1      47.084  26.808  27.325  1.00  0.00    -0.354 N 
ATOM     21  C   UNL A   1      42.931  28.062  27.727  1.00  0.00     0.074 A 
ATOM     22  C   UNL A   1      42.043  26.931  27.588  1.00  0.00     0.031 C 
ATOM     23  C   UNL A   1      48.741  25.368  26.865  1.00  0.00     0.029 A 
ATOM     24  C   UNL A   1      48.429  26.778  27.023  1.00  0.00     0.049 A 
ATOM     25  H   UNL A   1      46.621  27.591  27.700  1.00  0.00     0.167 HD
ATOM     26  C   UNL A   1      42.553  29.274  28.195  1.00  0.00     0.037 A 
ATOM     27  C   UNL A   1      49.275  27.790  26.765  1.00  0.00     0.037 A 
ATOM     28  C   UNL A   1      43.463  30.380  28.313  1.00  0.00     0.049 A 
ATOM     29  C   UNL A   1      48.788  29.193  26.938  1.00  0.00     0.074 A 
ATOM     30  C   UNL A   1      43.238  31.645  28.820  1.00  0.00     0.029 A 
ATOM     31  N   UNL A   1      44.789  30.340  27.901  1.00  0.00    -0.354 N 
ATOM     32  N   UNL A   1      47.585  29.613  27.241  1.00  0.00    -0.248 NA
ATOM     33  C   UNL A   1      49.787  30.253  26.774  1.00  0.00     0.031 C 
ATOM     34  C   UNL A   1      44.425  32.379  28.692  1.00  0.00     0.029 A 
ATOM     35  C   UNL A   1      45.395  31.559  28.138  1.00  0.00     0.049 A 
ATOM     36  H   UNL A   1      45.230  29.558  27.499  1.00  0.00     0.167 HD
ATOM     37  C   UNL A   1      47.699  30.986  27.395  1.00  0.00     0.074 A 
ATOM     38  C   UNL A   1      49.073  31.329  27.076  1.00  0.00     0.031 C 
ATOM     39  C   UNL A   1      46.767  31.868  27.830  1.00  0.00     0.037 A 
BRANCH  26  40
ATOM     40  C   UNL A   1      41.136  29.419  28.671  1.00  0.00     0.058 A 
ATOM     41  C   UNL A   1      40.072  29.467  27.751  1.00  0.00     0.135 A 
ATOM     42  C   UNL A   1      40.821  29.505  30.034  1.00  0.00     0.135 A 
ATOM     43  F   UNL A   1      40.315  29.410  26.431  1.00  0.00    -0.206 F 
ATOM     44  C   UNL A   1      38.754  29.627  28.164  1.00  0.00     0.059 A 
ATOM     45  C   UNL A   1      39.505  29.639  30.472  1.00  0.00     0.059 A 
ATOM     46  F   UNL A   1      41.795  29.469  30.957  1.00  0.00    -0.206 F 
ATOM     47  C   UNL A   1      38.481  29.713  29.528  1.00  0.00     0.060 A 
BRANCH  47  48
ATOM     48  S   UNL A   1      36.761  29.912  30.042  1.00  0.00     0.124 S 
ATOM     49  O   UNL A   1      36.047  29.416  28.869  1.00  0.00    -0.237 OA
ATOM     50  O   UNL A   1      36.690  29.067  31.229  1.00  0.00    -0.237 OA
ATOM     51  O   UNL A   1      36.642  31.345  30.289  1.00  0.00    -0.744 OA
ENDBRANCH  47  48
ENDBRANCH  26  40
BRANCH  27  52
ATOM     52  C   UNL A   1      50.590  27.525  26.137  1.00  0.00     0.058 A 
ATOM     53  C   UNL A   1      50.802  27.544  24.756  1.00  0.00     0.135 A 
ATOM     54  C   UNL A   1      51.678  27.219  26.968  1.00  0.00     0.135 A 
ATOM     55  F   UNL A   1      49.790  27.824  23.925  1.00  0.00    -0.206 F 
ATOM     56  C   UNL A   1      52.056  27.262  24.216  1.00  0.00     0.059 A 
ATOM     57  C   UNL A   1      52.938  26.942  26.456  1.00  0.00     0.059 A 
ATOM     58  F   UNL A   1      51.506  27.182  28.295  1.00  0.00    -0.206 F 
ATOM     59  C   UNL A   1      53.116  26.958  25.075  1.00  0.00     0.060 A 
BRANCH  59  60
ATOM     60  S   UNL A   1      54.757  26.634  24.390  1.00  0.00     0.124 S 
ATOM     61  O   UNL A   1      55.521  27.756  24.920  1.00  0.00    -0.237 OA
ATOM     62  O   UNL A   1      55.075  25.324  24.948  1.00  0.00    -0.237 OA
ATOM     63  O   UNL A   1      54.518  26.650  22.950  1.00  0.00    -0.744 OA
ENDBRANCH  59  60
ENDBRANCH  27  52
BRANCH  39  64
ATOM     64  C   UNL A   1      47.261  33.243  28.145  1.00  0.00     0.058 A 
ATOM     65  C   UNL A   1      47.231  34.289  27.214  1.00  0.00     0.135 A 
ATOM     66  C   UNL A   1      47.793  33.498  29.419  1.00  0.00     0.135 A 
ATOM     67  F   UNL A   1      46.755  34.080  25.977  1.00  0.00    -0.206 F 
ATOM     68  C   UNL A   1      47.737  35.544  27.532  1.00  0.00     0.059 A 
ATOM     69  C   UNL A   1      48.280  34.749  29.765  1.00  0.00     0.059 A 
ATOM     70  F   UNL A   1      47.844  32.522  30.340  1.00  0.00    -0.206 F 
ATOM     71  C   UNL A   1      48.263  35.762  28.808  1.00  0.00     0.060 A 
BRANCH  71  72
ATOM     72  S   UNL A   1      48.909  37.394  29.218  1.00  0.00     0.124 S 
ATOM     73  O   UNL A   1      47.684  38.184  29.285  1.00  0.00    -0.237 OA
ATOM     74  O   UNL A   1      49.582  37.156  30.491  1.00  0.00    -0.237 OA
ATOM     75  O   UNL A   1      49.794  37.698  28.097  1.00  0.00    -0.744 OA
ENDBRANCH  71  72
ENDBRANCH  39  64
ENDBRANCH  13  14
ENDBRANCH   6   8
ENDBRANCH   5   6
ENDBRANCH   4   5
ENDBRANCH   3   4
ENDBRANCH   2   3
ENDBRANCH   1   2
BRANCH   1  76
ATOM     76  C   UNL A   1      40.531  22.260  26.457  1.00  0.00     0.188 C 
BRANCH  76  77
ATOM     77  O   UNL A   1      39.108  22.333  26.347  1.00  0.00    -0.376 OA
BRANCH  77  78
ATOM     78  C   UNL A   1      38.488  21.432  25.434  1.00  0.00     0.202 C 
BRANCH  78  79
ATOM     79  C   UNL A   1      37.174  21.879  24.771  1.00  0.00     0.261 C 
BRANCH  79  80
ATOM     80  O   UNL A   1      36.206  22.450  25.669  1.00  0.00    -0.463 OA
BRANCH  80  81
ATOM     81  C   UNL A   1      34.947  21.935  25.583  1.00  0.00     0.312 C 
ATOM     82  O   UNL A   1      34.331  21.439  26.520  1.00  0.00    -0.252 OA
BRANCH  81  83
ATOM     83  C   UNL A   1      34.336  22.026  24.188  1.00  0.00     0.123 C 
ATOM     84  C   UNL A   1      33.060  21.284  23.924  1.00  0.00    -0.015 C 
ATOM     85  C   UNL A   1      33.930  23.455  23.801  1.00  0.00     0.043 C 
ATOM     86  C   UNL A   1      32.274  21.975  23.092  1.00  0.00    -0.011 C 
ATOM     87  C   UNL A   1      32.904  23.263  22.669  1.00  0.00     0.093 C 
BRANCH  87  88
ATOM     88  N   UNL A   1      31.942  24.346  22.625  1.00  0.00    -0.204 NA
ATOM     89  H   UNL A   1      31.674  24.542  23.589  1.00  0.00     0.142 HD
BRANCH  88  90
ATOM     90  S   UNL A   1      32.367  25.819  21.930  1.00  0.00     0.241 S 
ATOM     91  O   UNL A   1      33.696  25.731  21.383  1.00  0.00    -0.207 OA
ATOM     92  O   UNL A   1      31.241  26.206  21.104  1.00  0.00    -0.207 OA
BRANCH  90  93
ATOM     93  C   UNL A   1      32.435  26.975  23.262  1.00  0.00     0.082 A 
ATOM     94  C   UNL A   1      31.219  27.349  23.848  1.00  0.00     0.023 A 
ATOM     95  C   UNL A   1      33.646  27.475  23.746  1.00  0.00     0.023 A 
ATOM     96  C   UNL A   1      31.212  28.252  24.910  1.00  0.00     0.017 A 
ATOM     97  C   UNL A   1      33.634  28.376  24.814  1.00  0.00     0.017 A 
ATOM     98  C   UNL A   1      32.419  28.765  25.383  1.00  0.00     0.018 A 
ATOM     99  Br  UNL A   1      32.409  29.994  26.819  1.00  0.00    -0.051 Br
ENDBRANCH  90  93
ENDBRANCH  88  90
ENDBRANCH  87  88
ENDBRANCH  81  83
ENDBRANCH  80  81
ENDBRANCH  79  80
ENDBRANCH  78  79
ENDBRANCH  77  78
ENDBRANCH  76  77
ENDBRANCH   1  76
TORSDOF 23
ENDMDL
MODEL 2
REMARK VINA RESULT:      -9.9      2.864      9.184
REMARK SMILES O=C(OCCOCCOCCOC(=O)[C@H]1C=C[C@@H](NS(=O)(=O)c2ccc(Br)cc2)C1)c1ccc(-c2c3nc(c(-c4c(F)cc(S(=O)(=O)[O-])cc4F)c4ccc([nH]4)c(-c4c(F)cc(S(=O)(=O)[O-])cc4F)c4nc(c(-c5c(F)cc(S(=O)(=O)[O-])cc5F)c5ccc2[nH]5)C=C4)C=C3)cc1
REMARK SMILES IDX 7 1 6 2 5 3 4 4 3 5 2 6 1 7 31 8 32 9 96 10 33 11 95 12
REMARK SMILES IDX 34 13 35 14 36 15 89 16 37 17 94 18 88 19 90 20 38 21 93 22
REMARK SMILES IDX 87 23 86 24 39 26 73 27 52 28 72 29 53 30 56 31 71 32 91 33
REMARK SMILES IDX 54 34 55 35 70 37 92 38 57 39 40 40 41 41 50 42 42 43 43 44
REMARK SMILES IDX 49 45 51 46 44 47 45 48 46 49 47 50 48 51 74 52 75 53 84 54
REMARK SMILES IDX 76 55 77 56 83 57 85 58 78 59 79 60 80 61 81 62 82 63 58 64
REMARK SMILES IDX 59 65 68 66 60 67 61 68 67 69 69 70 62 71 63 72 64 73 65 74
REMARK SMILES IDX 66 75 8 76 9 77 10 78 11 79 12 80 13 81 14 82 15 83 16 84
REMARK SMILES IDX 30 85 17 86 18 87 19 88 20 90 21 91 22 92 23 93 24 94 29 95
REMARK SMILES IDX 25 96 28 97 26 98 27 99
REMARK H PARENT 90 25 56 36 19 89
REMARK Flexibility Score: inf
ROOT
ATOM      1  C   UNL A   1      34.428  34.440  30.718  1.00  0.00     0.188 C 
ENDROOT
BRANCH   1   2
ATOM      2  O   UNL A   1      34.110  33.318  31.548  1.00  0.00    -0.376 OA
BRANCH   2   3
ATOM      3  C   UNL A   1      35.253  32.559  31.958  1.00  0.00     0.202 C 
BRANCH   3   4
ATOM      4  C   UNL A   1      35.714  31.482  30.959  1.00  0.00     0.261 C 
BRANCH   4   5
ATOM      5  O   UNL A   1      36.539  30.470  31.567  1.00  0.00    -0.460 OA
BRANCH   5   6
ATOM      6  C   UNL A   1      37.779  30.619  32.108  1.00  0.00     0.338 C 
ATOM      7  O   UNL A   1      37.878  30.799  33.320  1.00  0.00    -0.246 OA
BRANCH   6   8
ATOM      8  C   UNL A   1      39.028  30.523  31.296  1.00  0.00     0.060 A 
ATOM      9  C   UNL A   1      39.065  30.642  29.909  1.00  0.00     0.016 A 
ATOM     10  C   UNL A   1      40.244  30.333  31.965  1.00  0.00     0.016 A 
ATOM     11  C   UNL A   1      40.209  30.359  29.182  1.00  0.00     0.010 A 
ATOM     12  C   UNL A   1      41.434  30.183  31.240  1.00  0.00     0.010 A 
ATOM     13  C   UNL A   1      41.410  30.125  29.835  1.00  0.00    -0.014 A 
BRANCH  13  14
ATOM     14  C   UNL A   1      42.599  29.706  29.058  1.00  0.00     0.031 A 
ATOM     15  C   UNL A   1      42.758  28.241  28.756  1.00  0.00     0.074 A 
ATOM     16  C   UNL A   1      43.500  30.605  28.610  1.00  0.00     0.049 A 
ATOM     17  N   UNL A   1      43.806  27.580  28.349  1.00  0.00    -0.248 NA
ATOM     18  C   UNL A   1      41.549  27.410  28.918  1.00  0.00     0.031 C 
ATOM     19  C   UNL A   1      43.406  32.065  28.732  1.00  0.00     0.029 A 
ATOM     20  N   UNL A   1      44.742  30.407  28.054  1.00  0.00    -0.354 N 
ATOM     21  C   UNL A   1      43.372  26.273  28.161  1.00  0.00     0.074 A 
ATOM     22  C   UNL A   1      42.000  26.204  28.608  1.00  0.00     0.031 C 
ATOM     23  C   UNL A   1      44.596  32.612  28.440  1.00  0.00     0.029 A 
ATOM     24  C   UNL A   1      45.526  31.539  28.131  1.00  0.00     0.049 A 
ATOM     25  H   UNL A   1      45.037  29.560  27.649  1.00  0.00     0.167 HD
ATOM     26  C   UNL A   1      44.040  25.245  27.590  1.00  0.00     0.037 A 
ATOM     27  C   UNL A   1      46.864  31.663  28.096  1.00  0.00     0.037 A 
ATOM     28  C   UNL A   1      45.408  25.347  27.164  1.00  0.00     0.049 A 
ATOM     29  C   UNL A   1      47.688  30.451  27.802  1.00  0.00     0.074 A 
ATOM     30  C   UNL A   1      46.195  24.410  26.521  1.00  0.00     0.029 A 
ATOM     31  N   UNL A   1      46.197  26.474  27.353  1.00  0.00    -0.354 N 
ATOM     32  N   UNL A   1      47.298  29.211  27.644  1.00  0.00    -0.248 NA
ATOM     33  C   UNL A   1      49.130  30.667  27.643  1.00  0.00     0.031 C 
ATOM     34  C   UNL A   1      47.469  24.965  26.344  1.00  0.00     0.029 A 
ATOM     35  C   UNL A   1      47.463  26.258  26.844  1.00  0.00     0.049 A 
ATOM     36  H   UNL A   1      45.897  27.305  27.787  1.00  0.00     0.167 HD
ATOM     37  C   UNL A   1      48.433  28.508  27.274  1.00  0.00     0.074 A 
ATOM     38  C   UNL A   1      49.536  29.450  27.309  1.00  0.00     0.031 C 
ATOM     39  C   UNL A   1      48.536  27.217  26.874  1.00  0.00     0.037 A 
BRANCH  26  40
ATOM     40  C   UNL A   1      43.272  23.978  27.337  1.00  0.00     0.058 A 
ATOM     41  C   UNL A   1      42.737  23.706  26.064  1.00  0.00     0.135 A 
ATOM     42  C   UNL A   1      43.066  23.028  28.347  1.00  0.00     0.135 A 
ATOM     43  F   UNL A   1      42.887  24.590  25.064  1.00  0.00    -0.206 F 
ATOM     44  C   UNL A   1      42.001  22.555  25.811  1.00  0.00     0.059 A 
ATOM     45  C   UNL A   1      42.353  21.854  28.108  1.00  0.00     0.059 A 
ATOM     46  F   UNL A   1      43.548  23.237  29.581  1.00  0.00    -0.206 F 
ATOM     47  C   UNL A   1      41.813  21.634  26.841  1.00  0.00     0.060 A 
BRANCH  47  48
ATOM     48  S   UNL A   1      40.861  20.141  26.488  1.00  0.00     0.124 S 
ATOM     49  O   UNL A   1      40.798  19.516  27.806  1.00  0.00    -0.237 OA
ATOM     50  O   UNL A   1      39.604  20.683  25.985  1.00  0.00    -0.237 OA
ATOM     51  O   UNL A   1      41.678  19.442  25.500  1.00  0.00    -0.744 OA
ENDBRANCH  47  48
ENDBRANCH  26  40
BRANCH  27  52
ATOM     52  C   UNL A   1      47.511  32.923  28.531  1.00  0.00     0.058 A 
ATOM     53  C   UNL A   1      47.830  33.205  29.862  1.00  0.00     0.135 A 
ATOM     54  C   UNL A   1      47.803  33.894  27.562  1.00  0.00     0.135 A 
ATOM     55  F   UNL A   1      47.563  32.309  30.822  1.00  0.00    -0.206 F 
ATOM     56  C   UNL A   1      48.417  34.418  30.220  1.00  0.00     0.059 A 
ATOM     57  C   UNL A   1      48.393  35.105  27.892  1.00  0.00     0.059 A 
ATOM     58  F   UNL A   1      47.500  33.659  26.279  1.00  0.00    -0.206 F 
ATOM     59  C   UNL A   1      48.690  35.363  29.227  1.00  0.00     0.060 A 
BRANCH  59  60
ATOM     60  S   UNL A   1      49.490  36.921  29.672  1.00  0.00     0.124 S 
ATOM     61  O   UNL A   1      48.458  37.889  29.324  1.00  0.00    -0.237 OA
ATOM     62  O   UNL A   1      49.746  36.745  31.098  1.00  0.00    -0.237 OA
ATOM     63  O   UNL A   1      50.681  36.929  28.828  1.00  0.00    -0.744 OA
ENDBRANCH  59  60
ENDBRANCH  27  52
BRANCH  39  64
ATOM     64  C   UNL A   1      49.850  26.816  26.285  1.00  0.00     0.058 A 
ATOM     65  C   UNL A   1      50.899  26.301  27.056  1.00  0.00     0.135 A 
ATOM     66  C   UNL A   1      50.051  26.973  24.904  1.00  0.00     0.135 A 
ATOM     67  F   UNL A   1      50.757  26.159  28.383  1.00  0.00    -0.206 F 
ATOM     68  C   UNL A   1      52.120  25.976  26.477  1.00  0.00     0.059 A 
ATOM     69  C   UNL A   1      51.252  26.632  24.302  1.00  0.00     0.059 A 
ATOM     70  F   UNL A   1      49.072  27.467  24.129  1.00  0.00    -0.206 F 
ATOM     71  C   UNL A   1      52.287  26.149  25.101  1.00  0.00     0.060 A 
BRANCH  71  72
ATOM     72  S   UNL A   1      53.870  25.717  24.353  1.00  0.00     0.124 S 
ATOM     73  O   UNL A   1      54.785  26.587  25.084  1.00  0.00    -0.237 OA
ATOM     74  O   UNL A   1      53.978  24.291  24.647  1.00  0.00    -0.237 OA
ATOM     75  O   UNL A   1      53.678  26.046  22.943  1.00  0.00    -0.744 OA
ENDBRANCH  71  72
ENDBRANCH  39  64
ENDBRANCH  13  14
ENDBRANCH   6   8
ENDBRANCH   5   6
ENDBRANCH   4   5
ENDBRANCH   3   4
ENDBRANCH   2   3
ENDBRANCH   1   2
BRANCH   1  76
ATOM     76  C   UNL A   1      33.221  34.898  29.891  1.00  0.00     0.188 C 
BRANCH  76  77
ATOM     77  O   UNL A   1      33.244  34.561  28.502  1.00  0.00    -0.376 OA
BRANCH  77  78
ATOM     78  C   UNL A   1      34.230  33.620  28.086  1.00  0.00     0.202 C 
BRANCH  78  79
ATOM     79  C   UNL A   1      33.784  32.162  27.883  1.00  0.00     0.261 C 
BRANCH  79  80
ATOM     80  O   UNL A   1      34.772  31.303  27.287  1.00  0.00    -0.463 OA
BRANCH  80  81
ATOM     81  C   UNL A   1      34.559  29.966  27.441  1.00  0.00     0.312 C 
ATOM     82  O   UNL A   1      35.173  29.248  28.223  1.00  0.00    -0.252 OA
BRANCH  81  83
ATOM     83  C   UNL A   1      33.459  29.406  26.543  1.00  0.00     0.123 C 
ATOM     84  C   UNL A   1      33.860  28.522  25.401  1.00  0.00    -0.015 C 
ATOM     85  C   UNL A   1      32.478  28.494  27.291  1.00  0.00     0.043 C 
ATOM     86  C   UNL A   1      32.955  27.555  25.212  1.00  0.00    -0.011 C 
ATOM     87  C   UNL A   1      31.822  27.654  26.180  1.00  0.00     0.093 C 
BRANCH  87  88
ATOM     88  N   UNL A   1      31.409  26.351  26.663  1.00  0.00    -0.204 NA
ATOM     89  H   UNL A   1      31.126  26.472  27.636  1.00  0.00     0.142 HD
BRANCH  88  90
ATOM     90  S   UNL A   1      30.159  25.527  25.893  1.00  0.00     0.241 S 
ATOM     91  O   UNL A   1      29.135  25.196  26.850  1.00  0.00    -0.207 OA
ATOM     92  O   UNL A   1      29.854  26.294  24.703  1.00  0.00    -0.207 OA
BRANCH  90  93
ATOM     93  C   UNL A   1      30.859  24.002  25.343  1.00  0.00     0.082 A 
ATOM     94  C   UNL A   1      31.063  23.851  23.966  1.00  0.00     0.023 A 
ATOM     95  C   UNL A   1      31.234  22.995  26.236  1.00  0.00     0.023 A 
ATOM     96  C   UNL A   1      31.621  22.673  23.474  1.00  0.00     0.017 A 
ATOM     97  C   UNL A   1      31.796  21.817  25.738  1.00  0.00     0.017 A 
ATOM     98  C   UNL A   1      31.979  21.660  24.363  1.00  0.00     0.018 A 
ATOM     99  Br  UNL A   1      32.730  20.058  23.695  1.00  0.00    -0.051 Br
ENDBRANCH  90  93
ENDBRANCH  88  90
ENDBRANCH  87  88
ENDBRANCH  81  83
ENDBRANCH  80  81
ENDBRANCH  79  80
ENDBRANCH  78  79
ENDBRANCH  77  78
ENDBRANCH  76  77
ENDBRANCH   1  76
TORSDOF 23
ENDMDL
MODEL 3
REMARK VINA RESULT:      -9.5      2.789      9.522
REMARK SMILES O=C(OCCOCCOCCOC(=O)[C@H]1C=C[C@@H](NS(=O)(=O)c2ccc(Br)cc2)C1)c1ccc(-c2c3nc(c(-c4c(F)cc(S(=O)(=O)[O-])cc4F)c4ccc([nH]4)c(-c4c(F)cc(S(=O)(=O)[O-])cc4F)c4nc(c(-c5c(F)cc(S(=O)(=O)[O-])cc5F)c5ccc2[nH]5)C=C4)C=C3)cc1
REMARK SMILES IDX 7 1 6 2 5 3 4 4 3 5 2 6 1 7 31 8 32 9 96 10 33 11 95 12
REMARK SMILES IDX 34 13 35 14 36 15 89 16 37 17 94 18 88 19 90 20 38 21 93 22
REMARK SMILES IDX 87 23 86 24 39 26 73 27 52 28 72 29 53 30 56 31 71 32 91 33
REMARK SMILES IDX 54 34 55 35 70 37 92 38 57 39 40 40 41 41 50 42 42 43 43 44
REMARK SMILES IDX 49 45 51 46 44 47 45 48 46 49 47 50 48 51 74 52 75 53 84 54
REMARK SMILES IDX 76 55 77 56 83 57 85 58 78 59 79 60 80 61 81 62 82 63 58 64
REMARK SMILES IDX 59 65 68 66 60 67 61 68 67 69 69 70 62 71 63 72 64 73 65 74
REMARK SMILES IDX 66 75 8 76 9 77 10 78 11 79 12 80 13 81 14 82 15 83 16 84
REMARK SMILES IDX 30 85 17 86 18 87 19 88 20 90 21 91 22 92 23 93 24 94 29 95
REMARK SMILES IDX 25 96 28 97 26 98 27 99
REMARK H PARENT 90 25 56 36 19 89
REMARK Flexibility Score: inf
ROOT
ATOM      1  C   UNL A   1      34.300  33.747  29.089  1.00  0.00     0.188 C 
ENDROOT
BRANCH   1   2
ATOM      2  O   UNL A   1      33.995  33.300  30.413  1.00  0.00    -0.376 OA
BRANCH   2   3
ATOM      3  C   UNL A   1      35.123  33.295  31.296  1.00  0.00     0.202 C 
BRANCH   3   4
ATOM      4  C   UNL A   1      36.349  32.517  30.786  1.00  0.00     0.261 C 
BRANCH   4   5
ATOM      5  O   UNL A   1      36.072  31.122  30.560  1.00  0.00    -0.460 OA
BRANCH   5   6
ATOM      6  C   UNL A   1      36.534  30.333  29.551  1.00  0.00     0.338 C 
ATOM      7  O   UNL A   1      35.720  29.783  28.811  1.00  0.00    -0.246 OA
BRANCH   6   8
ATOM      8  C   UNL A   1      37.989  30.147  29.276  1.00  0.00     0.060 A 
ATOM      9  C   UNL A   1      38.505  29.769  28.039  1.00  0.00     0.016 A 
ATOM     10  C   UNL A   1      38.900  30.397  30.311  1.00  0.00     0.016 A 
ATOM     11  C   UNL A   1      39.836  29.425  27.877  1.00  0.00     0.010 A 
ATOM     12  C   UNL A   1      40.271  30.183  30.114  1.00  0.00     0.010 A 
ATOM     13  C   UNL A   1      40.739  29.626  28.911  1.00  0.00    -0.014 A 
BRANCH  13  14
ATOM     14  C   UNL A   1      42.133  29.146  28.772  1.00  0.00     0.031 A 
ATOM     15  C   UNL A   1      43.212  30.174  28.571  1.00  0.00     0.074 A 
ATOM     16  C   UNL A   1      42.436  27.833  28.850  1.00  0.00     0.049 A 
ATOM     17  N   UNL A   1      44.440  30.027  28.156  1.00  0.00    -0.248 NA
ATOM     18  C   UNL A   1      42.854  31.566  28.908  1.00  0.00     0.031 C 
ATOM     19  C   UNL A   1      41.503  26.742  29.158  1.00  0.00     0.029 A 
ATOM     20  N   UNL A   1      43.610  27.180  28.559  1.00  0.00    -0.354 N 
ATOM     21  C   UNL A   1      45.011  31.292  28.229  1.00  0.00     0.074 A 
ATOM     22  C   UNL A   1      43.970  32.215  28.614  1.00  0.00     0.031 C 
ATOM     23  C   UNL A   1      42.082  25.567  28.866  1.00  0.00     0.029 A 
ATOM     24  C   UNL A   1      43.409  25.833  28.338  1.00  0.00     0.049 A 
ATOM     25  H   UNL A   1      44.490  27.620  28.514  1.00  0.00     0.167 HD
ATOM     26  C   UNL A   1      46.310  31.633  28.067  1.00  0.00     0.037 A 
ATOM     27  C   UNL A   1      44.160  24.952  27.658  1.00  0.00     0.037 A 
ATOM     28  C   UNL A   1      47.319  30.688  27.676  1.00  0.00     0.049 A 
ATOM     29  C   UNL A   1      45.493  25.393  27.143  1.00  0.00     0.074 A 
ATOM     30  C   UNL A   1      48.680  30.875  27.527  1.00  0.00     0.029 A 
ATOM     31  N   UNL A   1      47.058  29.361  27.362  1.00  0.00    -0.354 N 
ATOM     32  N   UNL A   1      46.037  26.584  27.185  1.00  0.00    -0.248 NA
ATOM     33  C   UNL A   1      46.328  24.357  26.526  1.00  0.00     0.031 C 
ATOM     34  C   UNL A   1      49.238  29.664  27.099  1.00  0.00     0.029 A 
ATOM     35  C   UNL A   1      48.230  28.716  27.016  1.00  0.00     0.049 A 
ATOM     36  H   UNL A   1      46.168  28.942  27.383  1.00  0.00     0.167 HD
ATOM     37  C   UNL A   1      47.318  26.426  26.682  1.00  0.00     0.074 A 
ATOM     38  C   UNL A   1      47.437  25.038  26.273  1.00  0.00     0.031 C 
ATOM     39  C   UNL A   1      48.325  27.331  26.631  1.00  0.00     0.037 A 
BRANCH  26  40
ATOM     40  C   UNL A   1      46.697  33.049  28.386  1.00  0.00     0.058 A 
ATOM     41  C   UNL A   1      46.714  34.032  27.379  1.00  0.00     0.135 A 
ATOM     42  C   UNL A   1      47.045  33.443  29.685  1.00  0.00     0.135 A 
ATOM     43  F   UNL A   1      46.409  33.707  26.111  1.00  0.00    -0.206 F 
ATOM     44  C   UNL A   1      47.093  35.343  27.642  1.00  0.00     0.059 A 
ATOM     45  C   UNL A   1      47.404  34.758  29.977  1.00  0.00     0.059 A 
ATOM     46  F   UNL A   1      47.051  32.548  30.685  1.00  0.00    -0.206 F 
ATOM     47  C   UNL A   1      47.438  35.697  28.945  1.00  0.00     0.060 A 
BRANCH  47  48
ATOM     48  S   UNL A   1      47.918  37.408  29.266  1.00  0.00     0.124 S 
ATOM     49  O   UNL A   1      49.373  37.323  29.182  1.00  0.00    -0.237 OA
ATOM     50  O   UNL A   1      47.262  38.126  28.179  1.00  0.00    -0.237 OA
ATOM     51  O   UNL A   1      47.381  37.668  30.599  1.00  0.00    -0.744 OA
ENDBRANCH  47  48
ENDBRANCH  26  40
BRANCH  27  52
ATOM     52  C   UNL A   1      43.599  23.640  27.259  1.00  0.00     0.058 A 
ATOM     53  C   UNL A   1      43.028  23.396  26.007  1.00  0.00     0.135 A 
ATOM     54  C   UNL A   1      43.623  22.591  28.190  1.00  0.00     0.135 A 
ATOM     55  F   UNL A   1      42.978  24.371  25.089  1.00  0.00    -0.206 F 
ATOM     56  C   UNL A   1      42.491  22.149  25.691  1.00  0.00     0.059 A 
ATOM     57  C   UNL A   1      43.102  21.339  27.897  1.00  0.00     0.059 A 
ATOM     58  F   UNL A   1      44.154  22.796  29.401  1.00  0.00    -0.206 F 
ATOM     59  C   UNL A   1      42.530  21.129  26.646  1.00  0.00     0.060 A 
BRANCH  59  60
ATOM     60  S   UNL A   1      41.877  19.495  26.234  1.00  0.00     0.124 S 
ATOM     61  O   UNL A   1      42.228  18.731  27.425  1.00  0.00    -0.237 OA
ATOM     62  O   UNL A   1      40.456  19.765  26.043  1.00  0.00    -0.237 OA
ATOM     63  O   UNL A   1      42.607  19.149  25.018  1.00  0.00    -0.744 OA
ENDBRANCH  59  60
ENDBRANCH  27  52
BRANCH  39  64
ATOM     64  C   UNL A   1      49.674  26.794  26.279  1.00  0.00     0.058 A 
ATOM     65  C   UNL A   1      50.524  26.207  27.224  1.00  0.00     0.135 A 
ATOM     66  C   UNL A   1      50.119  26.894  24.950  1.00  0.00     0.135 A 
ATOM     67  F   UNL A   1      50.148  26.116  28.509  1.00  0.00    -0.206 F 
ATOM     68  C   UNL A   1      51.789  25.755  26.865  1.00  0.00     0.059 A 
ATOM     69  C   UNL A   1      51.367  26.427  24.566  1.00  0.00     0.059 A 
ATOM     70  F   UNL A   1      49.336  27.454  24.014  1.00  0.00    -0.206 F 
ATOM     71  C   UNL A   1      52.201  25.874  25.535  1.00  0.00     0.060 A 
BRANCH  71  72
ATOM     72  S   UNL A   1      53.839  25.277  25.073  1.00  0.00     0.124 S 
ATOM     73  O   UNL A   1      54.593  25.516  26.299  1.00  0.00    -0.237 OA
ATOM     74  O   UNL A   1      53.583  23.878  24.747  1.00  0.00    -0.237 OA
ATOM     75  O   UNL A   1      54.198  26.123  23.938  1.00  0.00    -0.744 OA
ENDBRANCH  71  72
ENDBRANCH  39  64
ENDBRANCH  13  14
ENDBRANCH   6   8
ENDBRANCH   5   6
ENDBRANCH   4   5
ENDBRANCH   3   4
ENDBRANCH   2   3
ENDBRANCH   1   2
BRANCH   1  76
ATOM     76  C   UNL A   1      33.383  33.101  28.043  1.00  0.00     0.188 C 
BRANCH  76  77
ATOM     77  O   UNL A   1      33.642  31.730  27.737  1.00  0.00    -0.376 OA
BRANCH  77  78
ATOM     78  C   UNL A   1      32.623  31.027  27.030  1.00  0.00     0.202 C 
BRANCH  78  79
ATOM     79  C   UNL A   1      32.976  29.640  26.464  1.00  0.00     0.261 C 
BRANCH  79  80
ATOM     80  O   UNL A   1      31.846  28.795  26.186  1.00  0.00    -0.463 OA
BRANCH  80  81
ATOM     81  C   UNL A   1      31.468  28.730  24.878  1.00  0.00     0.312 C 
ATOM     82  O   UNL A   1      30.811  29.589  24.299  1.00  0.00    -0.252 OA
BRANCH  81  83
ATOM     83  C   UNL A   1      31.942  27.471  24.158  1.00  0.00     0.123 C 
ATOM     84  C   UNL A   1      33.403  27.336  23.854  1.00  0.00    -0.015 C 
ATOM     85  C   UNL A   1      31.689  26.188  24.962  1.00  0.00     0.043 C 
ATOM     86  C   UNL A   1      33.795  26.063  23.971  1.00  0.00    -0.011 C 
ATOM     87  C   UNL A   1      32.665  25.163  24.354  1.00  0.00     0.093 C 
BRANCH  87  88
ATOM     88  N   UNL A   1      33.073  24.168  25.325  1.00  0.00    -0.204 NA
ATOM     89  H   UNL A   1      32.328  23.473  25.367  1.00  0.00     0.142 HD
BRANCH  88  90
ATOM     90  S   UNL A   1      34.513  23.323  25.107  1.00  0.00     0.241 S 
ATOM     91  O   UNL A   1      35.102  23.686  23.844  1.00  0.00    -0.207 OA
ATOM     92  O   UNL A   1      35.249  23.468  26.347  1.00  0.00    -0.207 OA
BRANCH  90  93
ATOM     93  C   UNL A   1      34.056  21.621  24.990  1.00  0.00     0.082 A 
ATOM     94  C   UNL A   1      32.691  21.318  25.067  1.00  0.00     0.023 A 
ATOM     95  C   UNL A   1      35.002  20.613  24.789  1.00  0.00     0.023 A 
ATOM     96  C   UNL A   1      32.271  19.993  24.971  1.00  0.00     0.017 A 
ATOM     97  C   UNL A   1      34.575  19.287  24.690  1.00  0.00     0.017 A 
ATOM     98  C   UNL A   1      33.215  18.984  24.788  1.00  0.00     0.018 A 
ATOM     99  Br  UNL A   1      32.645  17.186  24.665  1.00  0.00    -0.051 Br
ENDBRANCH  90  93
ENDBRANCH  88  90
ENDBRANCH  87  88
ENDBRANCH  81  83
ENDBRANCH  80  81
ENDBRANCH  79  80
ENDBRANCH  78  79
ENDBRANCH  77  78
ENDBRANCH  76  77
ENDBRANCH   1  76
TORSDOF 23
ENDMDL
