MODEL 1
REMARK VINA RESULT:     -10.2      0.000      0.000
REMARK SMILES Cc1cc(C(=O)N[C@H]2C=C[C@H](C(=O)OCCOCCOCCOC(=O)c3ccc(-c4c5nc(c(-c6c(F)cc(S(=O)(=O)[O-])cc6F)c6ccc([nH]6)c(-c6c(F)cc(S(=O)(=O)[O-])cc6F)c6nc(c(-c7c(F)cc(S(=O)(=O)[O-])cc7F)c7ccc4[nH]7)C=C6)C=C5)cc3)C2)ccc1F
REMARK SMILES IDX 19 1 18 2 17 3 16 4 15 5 14 6 12 7 13 8 11 9 8 10 9 11 92 12
REMARK SMILES IDX 10 13 7 14 5 15 6 16 4 18 1 19 2 20 3 21 95 22 94 23 96 24
REMARK SMILES IDX 93 25 20 26 21 27 22 28 23 29 24 30 25 31 26 32 27 33 91 34
REMARK SMILES IDX 28 35 90 36 29 37 30 38 31 39 84 40 32 41 89 42 83 43 85 44
REMARK SMILES IDX 33 45 88 46 82 47 81 48 34 50 68 51 47 52 67 53 48 54 51 55
REMARK SMILES IDX 66 56 86 57 49 58 50 59 65 61 87 62 52 63 35 64 36 65 45 66
REMARK SMILES IDX 37 67 38 68 44 69 46 70 39 71 40 72 41 73 42 74 43 75 69 76
REMARK SMILES IDX 70 77 79 78 71 79 72 80 78 81 80 82 73 83 74 84 75 85 76 86
REMARK SMILES IDX 77 87 53 88 54 89 63 90 55 91 56 92 62 93 64 94 57 95 58 96
REMARK SMILES IDX 59 97 60 98 61 99
REMARK H PARENT 7 17 85 49 51 60
REMARK Flexibility Score: inf
ROOT
ATOM      1  C   UNL A   1      36.334  31.560  29.366  1.00  0.00     0.188 C 
ENDROOT
BRANCH   1   2
ATOM      2  C   UNL A   1      34.865  31.885  28.995  1.00  0.00     0.188 C 
BRANCH   2   3
ATOM      3  O   UNL A   1      34.373  31.621  27.682  1.00  0.00    -0.376 OA
BRANCH   3   4
ATOM      4  C   UNL A   1      33.801  30.339  27.441  1.00  0.00     0.202 C 
BRANCH   4   5
ATOM      5  C   UNL A   1      32.367  30.293  26.882  1.00  0.00     0.261 C 
BRANCH   5   6
ATOM      6  O   UNL A   1      32.051  29.057  26.213  1.00  0.00    -0.463 OA
BRANCH   6   7
ATOM      7  C   UNL A   1      31.834  27.970  26.999  1.00  0.00     0.312 C 
ATOM      8  O   UNL A   1      31.030  27.948  27.925  1.00  0.00    -0.252 OA
BRANCH   7   9
ATOM      9  C   UNL A   1      32.598  26.737  26.480  1.00  0.00     0.124 C 
ATOM     10  C   UNL A   1      31.932  26.740  24.177  1.00  0.00     0.106 C 
ATOM     11  C   UNL A   1      31.381  25.530  24.868  1.00  0.00    -0.006 C 
ATOM     12  C   UNL A   1      33.139  27.033  25.072  1.00  0.00     0.048 C 
ATOM     13  C   UNL A   1      31.706  25.564  26.170  1.00  0.00    -0.014 C 
BRANCH  10  14
ATOM     14  N   UNL A   1      32.231  26.512  22.795  1.00  0.00    -0.346 N 
ATOM     15  C   UNL A   1      33.022  25.557  22.201  1.00  0.00     0.251 C 
ATOM     16  O   UNL A   1      33.279  25.715  21.004  1.00  0.00    -0.269 OA
ATOM     17  H   UNL A   1      31.800  27.140  22.171  1.00  0.00     0.164 HD
BRANCH  15  18
ATOM     18  C   UNL A   1      33.545  24.320  22.885  1.00  0.00     0.040 A 
ATOM     19  C   UNL A   1      36.232  23.010  25.268  1.00  0.00     0.047 C 
ATOM     20  C   UNL A   1      35.055  23.039  24.336  1.00  0.00    -0.015 A 
ATOM     21  C   UNL A   1      34.728  24.211  23.629  1.00  0.00     0.020 A 
ATOM     22  C   UNL A   1      34.218  21.933  24.226  1.00  0.00     0.126 A 
ATOM     23  C   UNL A   1      33.077  21.981  23.438  1.00  0.00     0.040 A 
ATOM     24  F   UNL A   1      34.511  20.803  24.884  1.00  0.00    -0.207 F 
ATOM     25  C   UNL A   1      32.739  23.169  22.781  1.00  0.00     0.017 A 
ENDBRANCH  15  18
ENDBRANCH  10  14
ENDBRANCH   7   9
ENDBRANCH   6   7
ENDBRANCH   5   6
ENDBRANCH   4   5
ENDBRANCH   3   4
ENDBRANCH   2   3
ENDBRANCH   1   2
BRANCH   1  26
ATOM     26  O   UNL A   1      36.586  31.425  30.765  1.00  0.00    -0.376 OA
BRANCH  26  27
ATOM     27  C   UNL A   1      36.670  30.065  31.194  1.00  0.00     0.202 C 
BRANCH  27  28
ATOM     28  C   UNL A   1      37.204  29.129  30.103  1.00  0.00     0.261 C 
BRANCH  28  29
ATOM     29  O   UNL A   1      38.387  28.440  30.517  1.00  0.00    -0.460 OA
BRANCH  29  30
ATOM     30  C   UNL A   1      39.067  27.916  29.481  1.00  0.00     0.338 C 
ATOM     31  O   UNL A   1      39.330  26.744  29.276  1.00  0.00    -0.246 OA
BRANCH  30  32
ATOM     32  C   UNL A   1      39.520  29.004  28.597  1.00  0.00     0.060 A 
ATOM     33  C   UNL A   1      40.021  28.555  27.357  1.00  0.00     0.016 A 
ATOM     34  C   UNL A   1      40.153  29.993  29.336  1.00  0.00     0.016 A 
ATOM     35  C   UNL A   1      41.350  28.752  27.073  1.00  0.00     0.010 A 
ATOM     36  C   UNL A   1      41.488  30.156  29.081  1.00  0.00     0.010 A 
ATOM     37  C   UNL A   1      42.083  29.426  28.030  1.00  0.00    -0.014 A 
BRANCH  37  38
ATOM     38  C   UNL A   1      43.513  29.288  28.149  1.00  0.00     0.031 A 
ATOM     39  C   UNL A   1      44.353  30.258  27.450  1.00  0.00     0.074 A 
ATOM     40  C   UNL A   1      43.963  28.485  29.135  1.00  0.00     0.049 A 
ATOM     41  N   UNL A   1      45.633  30.297  27.528  1.00  0.00    -0.248 NA
ATOM     42  C   UNL A   1      43.789  31.241  26.526  1.00  0.00     0.031 C 
ATOM     43  C   UNL A   1      45.193  28.625  29.899  1.00  0.00     0.029 A 
ATOM     44  N   UNL A   1      43.454  27.249  29.525  1.00  0.00    -0.354 N 
ATOM     45  C   UNL A   1      46.028  31.480  26.955  1.00  0.00     0.074 A 
ATOM     46  C   UNL A   1      44.884  31.934  26.206  1.00  0.00     0.031 C 
ATOM     47  C   UNL A   1      45.456  27.462  30.520  1.00  0.00     0.029 A 
ATOM     48  C   UNL A   1      44.528  26.472  29.992  1.00  0.00     0.049 A 
ATOM     49  H   UNL A   1      42.511  26.971  29.482  1.00  0.00     0.167 HD
ATOM     50  C   UNL A   1      47.228  31.998  27.331  1.00  0.00     0.037 A 
ATOM     51  C   UNL A   1      44.933  25.384  29.262  1.00  0.00     0.037 A 
ATOM     52  C   UNL A   1      48.025  30.971  28.012  1.00  0.00     0.049 A 
ATOM     53  C   UNL A   1      46.285  25.544  28.579  1.00  0.00     0.074 A 
ATOM     54  C   UNL A   1      48.311  30.670  29.332  1.00  0.00     0.029 A 
ATOM     55  N   UNL A   1      48.396  29.855  27.279  1.00  0.00    -0.354 N 
ATOM     56  N   UNL A   1      47.016  26.625  28.613  1.00  0.00    -0.248 NA
ATOM     57  C   UNL A   1      46.885  24.502  27.741  1.00  0.00     0.031 C 
ATOM     58  C   UNL A   1      48.735  29.303  29.384  1.00  0.00     0.029 A 
ATOM     59  C   UNL A   1      48.740  28.795  28.096  1.00  0.00     0.049 A 
ATOM     60  H   UNL A   1      48.412  29.821  26.295  1.00  0.00     0.167 HD
ATOM     61  C   UNL A   1      48.084  26.484  27.772  1.00  0.00     0.074 A 
ATOM     62  C   UNL A   1      47.979  25.125  27.269  1.00  0.00     0.031 C 
ATOM     63  C   UNL A   1      48.960  27.490  27.490  1.00  0.00     0.037 A 
BRANCH  50  64
ATOM     64  C   UNL A   1      47.618  33.457  27.244  1.00  0.00     0.058 A 
ATOM     65  C   UNL A   1      46.807  34.431  27.868  1.00  0.00     0.135 A 
ATOM     66  C   UNL A   1      48.682  33.990  26.480  1.00  0.00     0.135 A 
ATOM     67  F   UNL A   1      45.750  34.078  28.614  1.00  0.00    -0.206 F 
ATOM     68  C   UNL A   1      47.020  35.804  27.727  1.00  0.00     0.059 A 
ATOM     69  C   UNL A   1      48.939  35.356  26.359  1.00  0.00     0.059 A 
ATOM     70  F   UNL A   1      49.507  33.233  25.752  1.00  0.00    -0.206 F 
ATOM     71  C   UNL A   1      48.088  36.260  26.968  1.00  0.00     0.060 A 
BRANCH  71  72
ATOM     72  S   UNL A   1      48.342  38.028  26.759  1.00  0.00     0.124 S 
ATOM     73  O   UNL A   1      47.581  38.575  27.878  1.00  0.00    -0.237 OA
ATOM     74  O   UNL A   1      49.793  38.146  26.853  1.00  0.00    -0.237 OA
ATOM     75  O   UNL A   1      47.782  38.300  25.436  1.00  0.00    -0.744 OA
ENDBRANCH  71  72
ENDBRANCH  50  64
BRANCH  51  76
ATOM     76  C   UNL A   1      43.783  24.629  28.682  1.00  0.00     0.058 A 
ATOM     77  C   UNL A   1      43.468  24.837  27.326  1.00  0.00     0.135 A 
ATOM     78  C   UNL A   1      43.310  23.457  29.286  1.00  0.00     0.135 A 
ATOM     79  F   UNL A   1      43.879  25.954  26.703  1.00  0.00    -0.206 F 
ATOM     80  C   UNL A   1      42.842  23.853  26.562  1.00  0.00     0.059 A 
ATOM     81  C   UNL A   1      42.679  22.459  28.540  1.00  0.00     0.059 A 
ATOM     82  F   UNL A   1      43.570  23.209  30.579  1.00  0.00    -0.206 F 
ATOM     83  C   UNL A   1      42.498  22.645  27.168  1.00  0.00     0.060 A 
BRANCH  83  84
ATOM     84  S   UNL A   1      42.001  21.252  26.127  1.00  0.00     0.124 S 
ATOM     85  O   UNL A   1      40.640  21.616  25.754  1.00  0.00    -0.237 OA
ATOM     86  O   UNL A   1      42.978  21.288  25.044  1.00  0.00    -0.237 OA
ATOM     87  O   UNL A   1      42.127  20.095  27.012  1.00  0.00    -0.744 OA
ENDBRANCH  83  84
ENDBRANCH  51  76
BRANCH  63  88
ATOM     88  C   UNL A   1      50.111  27.274  26.560  1.00  0.00     0.058 A 
ATOM     89  C   UNL A   1      49.965  27.443  25.176  1.00  0.00     0.135 A 
ATOM     90  C   UNL A   1      51.354  26.797  27.018  1.00  0.00     0.135 A 
ATOM     91  F   UNL A   1      48.802  27.878  24.662  1.00  0.00    -0.206 F 
ATOM     92  C   UNL A   1      51.004  27.177  24.290  1.00  0.00     0.059 A 
ATOM     93  C   UNL A   1      52.392  26.480  26.149  1.00  0.00     0.059 A 
ATOM     94  F   UNL A   1      51.598  26.648  28.330  1.00  0.00    -0.206 F 
ATOM     95  C   UNL A   1      52.214  26.695  24.786  1.00  0.00     0.060 A 
BRANCH  95  96
ATOM     96  S   UNL A   1      53.561  26.336  23.642  1.00  0.00     0.124 S 
ATOM     97  O   UNL A   1      52.889  25.601  22.573  1.00  0.00    -0.237 OA
ATOM     98  O   UNL A   1      54.011  27.680  23.297  1.00  0.00    -0.237 OA
ATOM     99  O   UNL A   1      54.485  25.547  24.449  1.00  0.00    -0.744 OA
ENDBRANCH  95  96
ENDBRANCH  63  88
ENDBRANCH  37  38
ENDBRANCH  30  32
ENDBRANCH  29  30
ENDBRANCH  28  29
ENDBRANCH  27  28
ENDBRANCH  26  27
ENDBRANCH   1  26
TORSDOF 22
ENDMDL
MODEL 2
REMARK VINA RESULT:     -10.0      4.982      8.506
REMARK SMILES Cc1cc(C(=O)N[C@H]2C=C[C@H](C(=O)OCCOCCOCCOC(=O)c3ccc(-c4c5nc(c(-c6c(F)cc(S(=O)(=O)[O-])cc6F)c6ccc([nH]6)c(-c6c(F)cc(S(=O)(=O)[O-])cc6F)c6nc(c(-c7c(F)cc(S(=O)(=O)[O-])cc7F)c7ccc4[nH]7)C=C6)C=C5)cc3)C2)ccc1F
REMARK SMILES IDX 19 1 18 2 17 3 16 4 15 5 14 6 12 7 13 8 11 9 8 10 9 11 92 12
REMARK SMILES IDX 10 13 7 14 5 15 6 16 4 18 1 19 2 20 3 21 95 22 94 23 96 24
REMARK SMILES IDX 93 25 20 26 21 27 22 28 23 29 24 30 25 31 26 32 27 33 91 34
REMARK SMILES IDX 28 35 90 36 29 37 30 38 31 39 84 40 32 41 89 42 83 43 85 44
REMARK SMILES IDX 33 45 88 46 82 47 81 48 34 50 68 51 47 52 67 53 48 54 51 55
REMARK SMILES IDX 66 56 86 57 49 58 50 59 65 61 87 62 52 63 35 64 36 65 45 66
REMARK SMILES IDX 37 67 38 68 44 69 46 70 39 71 40 72 41 73 42 74 43 75 69 76
REMARK SMILES IDX 70 77 79 78 71 79 72 80 78 81 80 82 73 83 74 84 75 85 76 86
REMARK SMILES IDX 77 87 53 88 54 89 63 90 55 91 56 92 62 93 64 94 57 95 58 96
REMARK SMILES IDX 59 97 60 98 61 99
REMARK H PARENT 7 17 85 49 51 60
REMARK Flexibility Score: inf
ROOT
ATOM      1  C   UNL A   1      33.746  35.097  28.403  1.00  0.00     0.188 C 
ENDROOT
BRANCH   1   2
ATOM      2  C   UNL A   1      32.818  33.872  28.199  1.00  0.00     0.188 C 
BRANCH   2   3
ATOM      3  O   UNL A   1      33.233  32.775  27.386  1.00  0.00    -0.376 OA
BRANCH   3   4
ATOM      4  C   UNL A   1      32.295  31.724  27.174  1.00  0.00     0.202 C 
BRANCH   4   5
ATOM      5  C   UNL A   1      32.817  30.277  27.254  1.00  0.00     0.261 C 
BRANCH   5   6
ATOM      6  O   UNL A   1      33.589  29.881  26.103  1.00  0.00    -0.463 OA
BRANCH   6   7
ATOM      7  C   UNL A   1      33.209  28.740  25.472  1.00  0.00     0.312 C 
ATOM      8  O   UNL A   1      33.997  27.939  24.978  1.00  0.00    -0.252 OA
BRANCH   7   9
ATOM      9  C   UNL A   1      31.692  28.503  25.597  1.00  0.00     0.124 C 
ATOM     10  C   UNL A   1      31.654  26.178  26.182  1.00  0.00     0.106 C 
ATOM     11  C   UNL A   1      31.042  26.376  24.829  1.00  0.00    -0.006 C 
ATOM     12  C   UNL A   1      31.424  27.566  26.786  1.00  0.00     0.048 C 
ATOM     13  C   UNL A   1      31.120  27.671  24.481  1.00  0.00    -0.014 C 
BRANCH  10  14
ATOM     14  N   UNL A   1      31.077  25.087  26.908  1.00  0.00    -0.346 N 
ATOM     15  C   UNL A   1      31.332  23.737  26.837  1.00  0.00     0.251 C 
ATOM     16  O   UNL A   1      30.541  22.992  27.423  1.00  0.00    -0.269 OA
ATOM     17  H   UNL A   1      30.388  25.344  27.562  1.00  0.00     0.164 HD
BRANCH  15  18
ATOM     18  C   UNL A   1      32.522  23.117  26.152  1.00  0.00     0.040 A 
ATOM     19  C   UNL A   1      36.095  23.781  24.965  1.00  0.00     0.047 C 
ATOM     20  C   UNL A   1      34.796  23.075  25.228  1.00  0.00    -0.015 A 
ATOM     21  C   UNL A   1      33.689  23.776  25.741  1.00  0.00     0.020 A 
ATOM     22  C   UNL A   1      34.695  21.699  25.049  1.00  0.00     0.126 A 
ATOM     23  C   UNL A   1      33.528  21.025  25.375  1.00  0.00     0.040 A 
ATOM     24  F   UNL A   1      35.732  21.009  24.555  1.00  0.00    -0.207 F 
ATOM     25  C   UNL A   1      32.454  21.728  25.932  1.00  0.00     0.017 A 
ENDBRANCH  15  18
ENDBRANCH  10  14
ENDBRANCH   7   9
ENDBRANCH   6   7
ENDBRANCH   5   6
ENDBRANCH   4   5
ENDBRANCH   3   4
ENDBRANCH   2   3
ENDBRANCH   1   2
BRANCH   1  26
ATOM     26  O   UNL A   1      34.866  34.867  29.259  1.00  0.00    -0.376 OA
BRANCH  26  27
ATOM     27  C   UNL A   1      36.081  34.636  28.546  1.00  0.00     0.202 C 
BRANCH  27  28
ATOM     28  C   UNL A   1      36.996  33.620  29.242  1.00  0.00     0.261 C 
BRANCH  28  29
ATOM     29  O   UNL A   1      36.851  32.306  28.698  1.00  0.00    -0.460 OA
BRANCH  29  30
ATOM     30  C   UNL A   1      35.909  31.586  29.333  1.00  0.00     0.338 C 
ATOM     31  O   UNL A   1      35.036  31.990  30.080  1.00  0.00    -0.246 OA
BRANCH  30  32
ATOM     32  C   UNL A   1      36.102  30.157  29.030  1.00  0.00     0.060 A 
ATOM     33  C   UNL A   1      36.320  29.360  30.173  1.00  0.00     0.016 A 
ATOM     34  C   UNL A   1      36.852  30.008  27.871  1.00  0.00     0.016 A 
ATOM     35  C   UNL A   1      37.539  28.745  30.326  1.00  0.00     0.010 A 
ATOM     36  C   UNL A   1      38.083  29.434  28.035  1.00  0.00     0.010 A 
ATOM     37  C   UNL A   1      38.446  28.932  29.302  1.00  0.00    -0.014 A 
BRANCH  37  38
ATOM     38  C   UNL A   1      39.870  28.808  29.498  1.00  0.00     0.031 A 
ATOM     39  C   UNL A   1      40.481  27.505  29.253  1.00  0.00     0.074 A 
ATOM     40  C   UNL A   1      40.570  29.958  29.582  1.00  0.00     0.049 A 
ATOM     41  N   UNL A   1      41.742  27.273  29.318  1.00  0.00    -0.248 NA
ATOM     42  C   UNL A   1      39.677  26.316  28.978  1.00  0.00     0.031 C 
ATOM     43  C   UNL A   1      41.937  30.196  29.145  1.00  0.00     0.029 A 
ATOM     44  N   UNL A   1      40.218  31.122  30.260  1.00  0.00    -0.354 N 
ATOM     45  C   UNL A   1      41.942  26.026  28.779  1.00  0.00     0.074 A 
ATOM     46  C   UNL A   1      40.637  25.417  28.749  1.00  0.00     0.031 C 
ATOM     47  C   UNL A   1      42.386  31.328  29.712  1.00  0.00     0.029 A 
ATOM     48  C   UNL A   1      41.404  31.731  30.708  1.00  0.00     0.049 A 
ATOM     49  H   UNL A   1      39.304  31.458  30.400  1.00  0.00     0.167 HD
ATOM     50  C   UNL A   1      43.174  25.743  28.277  1.00  0.00     0.037 A 
ATOM     51  C   UNL A   1      41.673  31.762  32.053  1.00  0.00     0.037 A 
ATOM     52  C   UNL A   1      44.151  26.726  28.761  1.00  0.00     0.049 A 
ATOM     53  C   UNL A   1      42.820  30.862  32.492  1.00  0.00     0.074 A 
ATOM     54  C   UNL A   1      44.749  27.854  28.228  1.00  0.00     0.029 A 
ATOM     55  N   UNL A   1      44.387  26.779  30.125  1.00  0.00    -0.354 N 
ATOM     56  N   UNL A   1      43.493  30.070  31.702  1.00  0.00    -0.248 NA
ATOM     57  C   UNL A   1      43.252  30.742  33.888  1.00  0.00     0.031 C 
ATOM     58  C   UNL A   1      45.230  28.647  29.319  1.00  0.00     0.029 A 
ATOM     59  C   UNL A   1      44.956  27.981  30.501  1.00  0.00     0.049 A 
ATOM     60  H   UNL A   1      44.175  26.049  30.751  1.00  0.00     0.167 HD
ATOM     61  C   UNL A   1      44.340  29.295  32.443  1.00  0.00     0.074 A 
ATOM     62  C   UNL A   1      44.178  29.771  33.805  1.00  0.00     0.031 C 
ATOM     63  C   UNL A   1      45.084  28.277  31.920  1.00  0.00     0.037 A 
BRANCH  50  64
ATOM     64  C   UNL A   1      43.471  24.696  27.226  1.00  0.00     0.058 A 
ATOM     65  C   UNL A   1      44.244  23.565  27.572  1.00  0.00     0.135 A 
ATOM     66  C   UNL A   1      43.149  24.781  25.851  1.00  0.00     0.135 A 
ATOM     67  F   UNL A   1      44.639  23.356  28.836  1.00  0.00    -0.206 F 
ATOM     68  C   UNL A   1      44.673  22.621  26.637  1.00  0.00     0.059 A 
ATOM     69  C   UNL A   1      43.531  23.829  24.907  1.00  0.00     0.059 A 
ATOM     70  F   UNL A   1      42.495  25.818  25.319  1.00  0.00    -0.206 F 
ATOM     71  C   UNL A   1      44.314  22.761  25.304  1.00  0.00     0.060 A 
BRANCH  71  72
ATOM     72  S   UNL A   1      44.897  21.563  24.094  1.00  0.00     0.124 S 
ATOM     73  O   UNL A   1      46.338  21.577  24.329  1.00  0.00    -0.237 OA
ATOM     74  O   UNL A   1      44.195  20.350  24.497  1.00  0.00    -0.237 OA
ATOM     75  O   UNL A   1      44.470  22.131  22.817  1.00  0.00    -0.744 OA
ENDBRANCH  71  72
ENDBRANCH  50  64
BRANCH  51  76
ATOM     76  C   UNL A   1      40.452  32.026  32.871  1.00  0.00     0.058 A 
ATOM     77  C   UNL A   1      40.094  33.365  33.118  1.00  0.00     0.135 A 
ATOM     78  C   UNL A   1      39.457  31.050  33.019  1.00  0.00     0.135 A 
ATOM     79  F   UNL A   1      41.015  34.338  33.011  1.00  0.00    -0.206 F 
ATOM     80  C   UNL A   1      38.772  33.736  33.353  1.00  0.00     0.059 A 
ATOM     81  C   UNL A   1      38.127  31.401  33.256  1.00  0.00     0.059 A 
ATOM     82  F   UNL A   1      39.741  29.756  32.806  1.00  0.00    -0.206 F 
ATOM     83  C   UNL A   1      37.786  32.749  33.369  1.00  0.00     0.060 A 
BRANCH  83  84
ATOM     84  S   UNL A   1      36.047  33.247  33.335  1.00  0.00     0.124 S 
ATOM     85  O   UNL A   1      35.390  32.035  32.863  1.00  0.00    -0.237 OA
ATOM     86  O   UNL A   1      35.781  33.604  34.724  1.00  0.00    -0.237 OA
ATOM     87  O   UNL A   1      36.029  34.379  32.408  1.00  0.00    -0.744 OA
ENDBRANCH  83  84
ENDBRANCH  51  76
BRANCH  63  88
ATOM     88  C   UNL A   1      45.995  27.464  32.783  1.00  0.00     0.058 A 
ATOM     89  C   UNL A   1      47.371  27.730  32.834  1.00  0.00     0.135 A 
ATOM     90  C   UNL A   1      45.534  26.342  33.496  1.00  0.00     0.135 A 
ATOM     91  F   UNL A   1      47.888  28.774  32.165  1.00  0.00    -0.206 F 
ATOM     92  C   UNL A   1      48.244  26.939  33.575  1.00  0.00     0.059 A 
ATOM     93  C   UNL A   1      46.393  25.510  34.206  1.00  0.00     0.059 A 
ATOM     94  F   UNL A   1      44.227  26.038  33.540  1.00  0.00    -0.206 F 
ATOM     95  C   UNL A   1      47.746  25.830  34.257  1.00  0.00     0.060 A 
BRANCH  95  96
ATOM     96  S   UNL A   1      48.874  24.795  35.208  1.00  0.00     0.124 S 
ATOM     97  O   UNL A   1      49.014  23.611  34.365  1.00  0.00    -0.237 OA
ATOM     98  O   UNL A   1      50.051  25.653  35.291  1.00  0.00    -0.237 OA
ATOM     99  O   UNL A   1      48.158  24.581  36.461  1.00  0.00    -0.744 OA
ENDBRANCH  95  96
ENDBRANCH  63  88
ENDBRANCH  37  38
ENDBRANCH  30  32
ENDBRANCH  29  30
ENDBRANCH  28  29
ENDBRANCH  27  28
ENDBRANCH  26  27
ENDBRANCH   1  26
TORSDOF 22
ENDMDL
MODEL 3
REMARK VINA RESULT:     -10.0      6.886     10.407
REMARK SMILES Cc1cc(C(=O)N[C@H]2C=C[C@H](C(=O)OCCOCCOCCOC(=O)c3ccc(-c4c5nc(c(-c6c(F)cc(S(=O)(=O)[O-])cc6F)c6ccc([nH]6)c(-c6c(F)cc(S(=O)(=O)[O-])cc6F)c6nc(c(-c7c(F)cc(S(=O)(=O)[O-])cc7F)c7ccc4[nH]7)C=C6)C=C5)cc3)C2)ccc1F
REMARK SMILES IDX 19 1 18 2 17 3 16 4 15 5 14 6 12 7 13 8 11 9 8 10 9 11 92 12
REMARK SMILES IDX 10 13 7 14 5 15 6 16 4 18 1 19 2 20 3 21 95 22 94 23 96 24
REMARK SMILES IDX 93 25 20 26 21 27 22 28 23 29 24 30 25 31 26 32 27 33 91 34
REMARK SMILES IDX 28 35 90 36 29 37 30 38 31 39 84 40 32 41 89 42 83 43 85 44
REMARK SMILES IDX 33 45 88 46 82 47 81 48 34 50 68 51 47 52 67 53 48 54 51 55
REMARK SMILES IDX 66 56 86 57 49 58 50 59 65 61 87 62 52 63 35 64 36 65 45 66
REMARK SMILES IDX 37 67 38 68 44 69 46 70 39 71 40 72 41 73 42 74 43 75 69 76
REMARK SMILES IDX 70 77 79 78 71 79 72 80 78 81 80 82 73 83 74 84 75 85 76 86
REMARK SMILES IDX 77 87 53 88 54 89 63 90 55 91 56 92 62 93 64 94 57 95 58 96
REMARK SMILES IDX 59 97 60 98 61 99
REMARK H PARENT 7 17 85 49 51 60
REMARK Flexibility Score: inf
ROOT
ATOM      1  C   UNL A   1      40.390  26.783  26.973  1.00  0.00     0.188 C 
ENDROOT
BRANCH   1   2
ATOM      2  C   UNL A   1      40.228  25.294  26.571  1.00  0.00     0.188 C 
BRANCH   2   3
ATOM      3  O   UNL A   1      38.961  24.648  26.681  1.00  0.00    -0.376 OA
BRANCH   3   4
ATOM      4  C   UNL A   1      38.951  23.224  26.717  1.00  0.00     0.202 C 
BRANCH   4   5
ATOM      5  C   UNL A   1      38.142  22.490  25.632  1.00  0.00     0.261 C 
BRANCH   5   6
ATOM      6  O   UNL A   1      36.777  22.941  25.529  1.00  0.00    -0.463 OA
BRANCH   6   7
ATOM      7  C   UNL A   1      36.314  23.218  24.283  1.00  0.00     0.312 C 
ATOM      8  O   UNL A   1      36.736  22.683  23.263  1.00  0.00    -0.252 OA
BRANCH   7   9
ATOM      9  C   UNL A   1      35.093  24.157  24.330  1.00  0.00     0.124 C 
ATOM     10  C   UNL A   1      33.321  22.566  24.603  1.00  0.00     0.106 C 
ATOM     11  C   UNL A   1      33.204  23.240  23.270  1.00  0.00    -0.006 C 
ATOM     12  C   UNL A   1      34.095  23.635  25.377  1.00  0.00     0.048 C 
ATOM     13  C   UNL A   1      34.232  24.086  23.098  1.00  0.00    -0.014 C 
BRANCH  10  14
ATOM     14  N   UNL A   1      32.055  22.197  25.161  1.00  0.00    -0.346 N 
ATOM     15  C   UNL A   1      31.054  22.977  25.691  1.00  0.00     0.251 C 
ATOM     16  O   UNL A   1      30.155  22.389  26.299  1.00  0.00    -0.269 OA
ATOM     17  H   UNL A   1      31.872  21.230  25.166  1.00  0.00     0.164 HD
BRANCH  15  18
ATOM     18  C   UNL A   1      30.950  24.472  25.536  1.00  0.00     0.040 A 
ATOM     19  C   UNL A   1      31.925  27.816  27.114  1.00  0.00     0.047 C 
ATOM     20  C   UNL A   1      31.328  26.815  26.168  1.00  0.00    -0.015 A 
ATOM     21  C   UNL A   1      31.348  25.440  26.469  1.00  0.00     0.020 A 
ATOM     22  C   UNL A   1      30.822  27.225  24.938  1.00  0.00     0.126 A 
ATOM     23  C   UNL A   1      30.351  26.299  24.019  1.00  0.00     0.040 A 
ATOM     24  F   UNL A   1      30.785  28.529  24.629  1.00  0.00    -0.207 F 
ATOM     25  C   UNL A   1      30.425  24.933  24.313  1.00  0.00     0.017 A 
ENDBRANCH  15  18
ENDBRANCH  10  14
ENDBRANCH   7   9
ENDBRANCH   6   7
ENDBRANCH   5   6
ENDBRANCH   4   5
ENDBRANCH   3   4
ENDBRANCH   2   3
ENDBRANCH   1   2
BRANCH   1  26
ATOM     26  O   UNL A   1      40.332  27.037  28.377  1.00  0.00    -0.376 OA
BRANCH  26  27
ATOM     27  C   UNL A   1      41.621  27.146  28.984  1.00  0.00     0.202 C 
BRANCH  27  28
ATOM     28  C   UNL A   1      42.728  27.477  27.974  1.00  0.00     0.261 C 
BRANCH  28  29
ATOM     29  O   UNL A   1      43.526  26.335  27.658  1.00  0.00    -0.460 OA
BRANCH  29  30
ATOM     30  C   UNL A   1      44.816  26.497  28.005  1.00  0.00     0.338 C 
ATOM     31  O   UNL A   1      45.528  27.465  27.808  1.00  0.00    -0.246 OA
BRANCH  30  32
ATOM     32  C   UNL A   1      45.304  25.264  28.649  1.00  0.00     0.060 A 
ATOM     33  C   UNL A   1      44.277  24.363  28.999  1.00  0.00     0.016 A 
ATOM     34  C   UNL A   1      46.358  25.553  29.504  1.00  0.00     0.016 A 
ATOM     35  C   UNL A   1      44.054  24.103  30.330  1.00  0.00     0.010 A 
ATOM     36  C   UNL A   1      46.116  25.334  30.833  1.00  0.00     0.010 A 
ATOM     37  C   UNL A   1      44.903  24.728  31.222  1.00  0.00    -0.014 A 
BRANCH  37  38
ATOM     38  C   UNL A   1      44.534  24.980  32.593  1.00  0.00     0.031 A 
ATOM     39  C   UNL A   1      44.087  26.326  32.943  1.00  0.00     0.074 A 
ATOM     40  C   UNL A   1      44.327  23.899  33.372  1.00  0.00     0.049 A 
ATOM     41  N   UNL A   1      43.661  26.669  34.104  1.00  0.00    -0.248 NA
ATOM     42  C   UNL A   1      44.158  27.433  31.991  1.00  0.00     0.031 C 
ATOM     43  C   UNL A   1      43.393  23.771  34.479  1.00  0.00     0.029 A 
ATOM     44  N   UNL A   1      45.075  22.725  33.415  1.00  0.00    -0.354 N 
ATOM     45  C   UNL A   1      43.101  27.914  33.968  1.00  0.00     0.074 A 
ATOM     46  C   UNL A   1      43.586  28.407  32.704  1.00  0.00     0.031 C 
ATOM     47  C   UNL A   1      43.729  22.695  35.212  1.00  0.00     0.029 A 
ATOM     48  C   UNL A   1      45.023  22.233  34.731  1.00  0.00     0.049 A 
ATOM     49  H   UNL A   1      45.554  22.314  32.660  1.00  0.00     0.167 HD
ATOM     50  C   UNL A   1      42.166  28.292  34.879  1.00  0.00     0.037 A 
ATOM     51  C   UNL A   1      46.158  22.258  35.501  1.00  0.00     0.037 A 
ATOM     52  C   UNL A   1      42.222  27.410  36.051  1.00  0.00     0.049 A 
ATOM     53  C   UNL A   1      46.129  23.265  36.643  1.00  0.00     0.074 A 
ATOM     54  C   UNL A   1      41.486  26.327  36.495  1.00  0.00     0.029 A 
ATOM     55  N   UNL A   1      43.388  27.411  36.800  1.00  0.00    -0.354 N 
ATOM     56  N   UNL A   1      45.150  24.093  36.884  1.00  0.00    -0.248 NA
ATOM     57  C   UNL A   1      47.250  23.456  37.567  1.00  0.00     0.031 C 
ATOM     58  C   UNL A   1      42.297  25.604  37.431  1.00  0.00     0.029 A 
ATOM     59  C   UNL A   1      43.501  26.273  37.576  1.00  0.00     0.049 A 
ATOM     60  H   UNL A   1      44.056  28.135  36.781  1.00  0.00     0.167 HD
ATOM     61  C   UNL A   1      45.514  24.957  37.878  1.00  0.00     0.074 A 
ATOM     62  C   UNL A   1      46.827  24.501  38.299  1.00  0.00     0.031 C 
ATOM     63  C   UNL A   1      44.756  26.023  38.267  1.00  0.00     0.037 A 
BRANCH  50  64
ATOM     64  C   UNL A   1      41.093  29.335  34.652  1.00  0.00     0.058 A 
ATOM     65  C   UNL A   1      40.960  30.404  35.566  1.00  0.00     0.135 A 
ATOM     66  C   UNL A   1      40.093  29.298  33.652  1.00  0.00     0.135 A 
ATOM     67  F   UNL A   1      41.825  30.562  36.578  1.00  0.00    -0.206 F 
ATOM     68  C   UNL A   1      39.920  31.334  35.505  1.00  0.00     0.059 A 
ATOM     69  C   UNL A   1      39.070  30.239  33.547  1.00  0.00     0.059 A 
ATOM     70  F   UNL A   1      40.004  28.319  32.748  1.00  0.00    -0.206 F 
ATOM     71  C   UNL A   1      38.975  31.243  34.492  1.00  0.00     0.060 A 
BRANCH  71  72
ATOM     72  S   UNL A   1      37.616  32.420  34.435  1.00  0.00     0.124 S 
ATOM     73  O   UNL A   1      37.161  32.420  35.822  1.00  0.00    -0.237 OA
ATOM     74  O   UNL A   1      38.279  33.637  33.980  1.00  0.00    -0.237 OA
ATOM     75  O   UNL A   1      36.687  31.824  33.476  1.00  0.00    -0.744 OA
ENDBRANCH  71  72
ENDBRANCH  50  64
BRANCH  51  76
ATOM     76  C   UNL A   1      47.381  21.908  34.719  1.00  0.00     0.058 A 
ATOM     77  C   UNL A   1      48.331  22.919  34.484  1.00  0.00     0.135 A 
ATOM     78  C   UNL A   1      47.805  20.577  34.599  1.00  0.00     0.135 A 
ATOM     79  F   UNL A   1      47.972  24.211  34.565  1.00  0.00    -0.206 F 
ATOM     80  C   UNL A   1      49.679  22.624  34.288  1.00  0.00     0.059 A 
ATOM     81  C   UNL A   1      49.150  20.260  34.401  1.00  0.00     0.059 A 
ATOM     82  F   UNL A   1      46.942  19.571  34.802  1.00  0.00    -0.206 F 
ATOM     83  C   UNL A   1      50.086  21.290  34.300  1.00  0.00     0.060 A 
BRANCH  83  84
ATOM     84  S   UNL A   1      51.854  20.915  34.385  1.00  0.00     0.124 S 
ATOM     85  O   UNL A   1      52.221  21.456  35.688  1.00  0.00    -0.237 OA
ATOM     86  O   UNL A   1      51.886  19.460  34.280  1.00  0.00    -0.237 OA
ATOM     87  O   UNL A   1      52.414  21.614  33.229  1.00  0.00    -0.744 OA
ENDBRANCH  83  84
ENDBRANCH  51  76
BRANCH  63  88
ATOM     88  C   UNL A   1      45.209  26.933  39.364  1.00  0.00     0.058 A 
ATOM     89  C   UNL A   1      44.858  26.687  40.700  1.00  0.00     0.135 A 
ATOM     90  C   UNL A   1      45.914  28.122  39.097  1.00  0.00     0.135 A 
ATOM     91  F   UNL A   1      44.169  25.582  41.030  1.00  0.00    -0.206 F 
ATOM     92  C   UNL A   1      45.209  27.562  41.723  1.00  0.00     0.059 A 
ATOM     93  C   UNL A   1      46.236  29.033  40.097  1.00  0.00     0.059 A 
ATOM     94  F   UNL A   1      46.329  28.416  37.855  1.00  0.00    -0.206 F 
ATOM     95  C   UNL A   1      45.898  28.733  41.412  1.00  0.00     0.060 A 
BRANCH  95  96
ATOM     96  S   UNL A   1      46.344  29.876  42.733  1.00  0.00     0.124 S 
ATOM     97  O   UNL A   1      47.271  29.088  43.541  1.00  0.00    -0.237 OA
ATOM     98  O   UNL A   1      46.940  30.972  41.976  1.00  0.00    -0.237 OA
ATOM     99  O   UNL A   1      45.064  30.169  43.369  1.00  0.00    -0.744 OA
ENDBRANCH  95  96
ENDBRANCH  63  88
ENDBRANCH  37  38
ENDBRANCH  30  32
ENDBRANCH  29  30
ENDBRANCH  28  29
ENDBRANCH  27  28
ENDBRANCH  26  27
ENDBRANCH   1  26
TORSDOF 22
ENDMDL
