MODEL 1
REMARK VINA RESULT:     -12.4      0.000      0.000
REMARK SMILES O=C(OCCOCCOCCOC(=O)c1ccc(-c2c3nc(c(-c4c(F)cc(S(=O)(=O)[O-])cc4F)c4ccc([nH]4)c(-c4c(F)cc(S(=O)(=O)[O-])cc4F)c4nc(c(-c5c(F)cc(S(=O)(=O)[O-])cc5F)c5ccc2[nH]5)C=C4)C=C3)cc1)C1=Cc2cc(Cl)cc(-c3ccc(Cl)cc3)c2O[C@@H]1C(F)(F)F
REMARK SMILES IDX 8 1 7 2 6 3 5 4 4 5 3 6 2 7 1 8 81 9 82 10 98 11 83 12 97 13
REMARK SMILES IDX 84 14 96 15 85 16 88 17 86 18 87 19 99 20 100 21 101 22
REMARK SMILES IDX 102 23 89 24 90 25 95 26 91 27 94 28 92 29 93 30 9 31 10 32
REMARK SMILES IDX 11 33 12 34 13 35 14 36 15 37 16 38 80 39 17 40 79 41 18 42
REMARK SMILES IDX 19 43 20 44 73 45 21 46 78 47 72 48 74 49 22 50 77 51 71 52
REMARK SMILES IDX 70 53 23 55 57 56 36 57 56 58 37 59 40 60 55 61 75 62 38 63
REMARK SMILES IDX 39 64 54 66 76 67 41 68 24 69 25 70 34 71 26 72 27 73 33 74
REMARK SMILES IDX 35 75 28 76 29 77 30 78 31 79 32 80 58 81 59 82 68 83 60 84
REMARK SMILES IDX 61 85 67 86 69 87 62 88 63 89 64 90 65 91 66 92 42 93 43 94
REMARK SMILES IDX 52 95 44 96 45 97 51 98 53 99 46 100 47 101 48 102 49 103
REMARK SMILES IDX 50 104
REMARK H PARENT 74 54 40 65
REMARK Flexibility Score: inf
ROOT
ATOM      1  C   UNL A   1      34.938  33.398  28.524  1.00  0.00     0.188 C 
ENDROOT
BRANCH   1   2
ATOM      2  C   UNL A   1      33.670  32.734  27.959  1.00  0.00     0.188 C 
BRANCH   2   3
ATOM      3  O   UNL A   1      33.405  31.241  28.038  1.00  0.00    -0.376 OA
BRANCH   3   4
ATOM      4  C   UNL A   1      33.803  30.029  26.803  1.00  0.00     0.202 C 
BRANCH   4   5
ATOM      5  C   UNL A   1      33.018  27.999  26.892  1.00  0.00     0.261 C 
BRANCH   5   6
ATOM      6  O   UNL A   1      32.543  27.164  25.695  1.00  0.00    -0.460 OA
BRANCH   6   7
ATOM      7  C   UNL A   1      32.400  25.863  26.001  1.00  0.00     0.338 C 
ATOM      8  O   UNL A   1      32.286  25.361  27.089  1.00  0.00    -0.246 OA
BRANCH   7   9
ATOM      9  C   UNL A   1      32.947  25.358  24.757  1.00  0.00     0.087 C 
ATOM     10  C   UNL A   1      34.369  25.094  24.751  1.00  0.00     0.027 C 
ATOM     11  C   UNL A   1      31.574  24.044  24.529  1.00  0.00     0.316 C 
ATOM     12  C   UNL A   1      35.073  23.456  24.825  1.00  0.00     0.019 A 
ATOM     13  O   UNL A   1      32.307  22.234  24.784  1.00  0.00    -0.475 OA
ATOM     14  C   UNL A   1      36.431  23.380  24.996  1.00  0.00     0.032 A 
ATOM     15  C   UNL A   1      34.122  22.011  24.905  1.00  0.00     0.135 A 
ATOM     16  C   UNL A   1      36.941  22.093  25.163  1.00  0.00     0.042 A 
ATOM     17  C   UNL A   1      34.726  20.769  25.015  1.00  0.00     0.026 A 
ATOM     18  Cl  UNL A   1      38.648  21.935  25.406  1.00  0.00    -0.084 Cl
ATOM     19  C   UNL A   1      36.150  20.885  25.151  1.00  0.00     0.033 A 
BRANCH  11  20
ATOM     20  C   UNL A   1      30.967  24.860  23.139  1.00  0.00     0.430 C 
ATOM     21  F   UNL A   1      30.699  26.178  23.185  1.00  0.00    -0.167 F 
ATOM     22  F   UNL A   1      31.799  24.649  22.091  1.00  0.00    -0.167 F 
ATOM     23  F   UNL A   1      29.765  24.331  22.753  1.00  0.00    -0.167 F 
ENDBRANCH  11  20
BRANCH  17  24
ATOM     24  C   UNL A   1      34.215  19.405  24.929  1.00  0.00    -0.015 A 
ATOM     25  C   UNL A   1      32.937  19.065  25.388  1.00  0.00     0.010 A 
ATOM     26  C   UNL A   1      35.101  18.352  24.620  1.00  0.00     0.010 A 
ATOM     27  C   UNL A   1      32.527  17.726  25.438  1.00  0.00     0.021 A 
ATOM     28  C   UNL A   1      34.689  17.014  24.645  1.00  0.00     0.021 A 
ATOM     29  C   UNL A   1      33.390  16.710  25.033  1.00  0.00     0.041 A 
ATOM     30  Cl  UNL A   1      32.852  15.076  25.007  1.00  0.00    -0.084 Cl
ENDBRANCH  17  24
ENDBRANCH   7   9
ENDBRANCH   6   7
ENDBRANCH   5   6
ENDBRANCH   4   5
ENDBRANCH   3   4
ENDBRANCH   2   3
ENDBRANCH   1   2
BRANCH   1  31
ATOM     31  O   UNL A   1      34.803  34.328  29.564  1.00  0.00    -0.376 OA
BRANCH  31  32
ATOM     32  C   UNL A   1      35.360  33.902  30.789  1.00  0.00     0.202 C 
BRANCH  32  33
ATOM     33  C   UNL A   1      35.569  32.406  31.053  1.00  0.00     0.261 C 
BRANCH  33  34
ATOM     34  O   UNL A   1      36.941  31.999  31.173  1.00  0.00    -0.460 OA
BRANCH  34  35
ATOM     35  C   UNL A   1      37.154  30.730  31.601  1.00  0.00     0.338 C 
ATOM     36  O   UNL A   1      36.435  30.061  32.321  1.00  0.00    -0.246 OA
BRANCH  35  37
ATOM     37  C   UNL A   1      38.334  30.193  30.898  1.00  0.00     0.060 A 
ATOM     38  C   UNL A   1      39.392  29.635  31.633  1.00  0.00     0.016 A 
ATOM     39  C   UNL A   1      38.407  30.289  29.511  1.00  0.00     0.016 A 
ATOM     40  C   UNL A   1      40.515  29.140  30.975  1.00  0.00     0.010 A 
ATOM     41  C   UNL A   1      39.553  29.839  28.857  1.00  0.00     0.010 A 
ATOM     42  C   UNL A   1      40.615  29.274  29.585  1.00  0.00    -0.014 A 
BRANCH  42  43
ATOM     43  C   UNL A   1      41.907  29.012  28.915  1.00  0.00     0.031 A 
ATOM     44  C   UNL A   1      42.168  27.621  28.415  1.00  0.00     0.074 A 
ATOM     45  C   UNL A   1      42.826  29.983  28.772  1.00  0.00     0.049 A 
ATOM     46  N   UNL A   1      43.251  27.123  27.883  1.00  0.00    -0.248 NA
ATOM     47  C   UNL A   1      41.058  26.658  28.540  1.00  0.00     0.031 C 
ATOM     48  C   UNL A   1      42.655  31.373  29.189  1.00  0.00     0.029 A 
ATOM     49  N   UNL A   1      44.095  29.942  28.251  1.00  0.00    -0.354 N 
ATOM     50  C   UNL A   1      42.962  25.790  27.623  1.00  0.00     0.074 A 
ATOM     51  C   UNL A   1      41.607  25.550  28.065  1.00  0.00     0.031 C 
ATOM     52  C   UNL A   1      43.787  32.050  28.925  1.00  0.00     0.029 A 
ATOM     53  C   UNL A   1      44.775  31.132  28.361  1.00  0.00     0.049 A 
ATOM     54  H   UNL A   1      44.481  29.136  27.838  1.00  0.00     0.167 HD
ATOM     55  C   UNL A   1      43.763  24.851  27.069  1.00  0.00     0.037 A 
ATOM     56  C   UNL A   1      46.060  31.429  28.073  1.00  0.00     0.037 A 
ATOM     57  C   UNL A   1      45.115  25.103  26.647  1.00  0.00     0.049 A 
ATOM     58  C   UNL A   1      46.951  30.341  27.521  1.00  0.00     0.074 A 
ATOM     59  C   UNL A   1      46.005  24.226  26.052  1.00  0.00     0.029 A 
ATOM     60  N   UNL A   1      45.778  26.313  26.788  1.00  0.00    -0.354 N 
ATOM     61  N   UNL A   1      46.655  29.093  27.237  1.00  0.00    -0.248 NA
ATOM     62  C   UNL A   1      48.352  30.697  27.253  1.00  0.00     0.031 C 
ATOM     63  C   UNL A   1      47.228  24.885  25.902  1.00  0.00     0.029 A 
ATOM     64  C   UNL A   1      47.079  26.195  26.331  1.00  0.00     0.049 A 
ATOM     65  H   UNL A   1      45.382  27.134  27.160  1.00  0.00     0.167 HD
ATOM     66  C   UNL A   1      47.825  28.527  26.738  1.00  0.00     0.074 A 
ATOM     67  C   UNL A   1      48.825  29.573  26.733  1.00  0.00     0.031 C 
ATOM     68  C   UNL A   1      48.058  27.254  26.328  1.00  0.00     0.037 A 
BRANCH  55  69
ATOM     69  C   UNL A   1      43.221  23.457  26.922  1.00  0.00     0.058 A 
ATOM     70  C   UNL A   1      42.842  22.935  25.676  1.00  0.00     0.135 A 
ATOM     71  C   UNL A   1      43.148  22.609  28.040  1.00  0.00     0.135 A 
ATOM     72  F   UNL A   1      42.865  23.710  24.581  1.00  0.00    -0.206 F 
ATOM     73  C   UNL A   1      42.412  21.619  25.543  1.00  0.00     0.059 A 
ATOM     74  C   UNL A   1      42.750  21.280  27.924  1.00  0.00     0.059 A 
ATOM     75  F   UNL A   1      43.485  23.063  29.258  1.00  0.00    -0.206 F 
ATOM     76  C   UNL A   1      42.382  20.796  26.671  1.00  0.00     0.060 A 
BRANCH  76  77
ATOM     77  S   UNL A   1      41.882  19.074  26.466  1.00  0.00     0.124 S 
ATOM     78  O   UNL A   1      42.185  18.521  27.783  1.00  0.00    -0.237 OA
ATOM     79  O   UNL A   1      40.464  19.201  26.143  1.00  0.00    -0.237 OA
ATOM     80  O   UNL A   1      42.730  18.598  25.377  1.00  0.00    -0.744 OA
ENDBRANCH  76  77
ENDBRANCH  55  69
BRANCH  56  81
ATOM     81  C   UNL A   1      46.605  32.791  28.340  1.00  0.00     0.058 A 
ATOM     82  C   UNL A   1      47.129  33.137  29.596  1.00  0.00     0.135 A 
ATOM     83  C   UNL A   1      46.565  33.795  27.358  1.00  0.00     0.135 A 
ATOM     84  F   UNL A   1      47.175  32.223  30.577  1.00  0.00    -0.206 F 
ATOM     85  C   UNL A   1      47.561  34.430  29.879  1.00  0.00     0.059 A 
ATOM     86  C   UNL A   1      47.027  35.084  27.605  1.00  0.00     0.059 A 
ATOM     87  F   UNL A   1      46.079  33.525  26.137  1.00  0.00    -0.206 F 
ATOM     88  C   UNL A   1      47.507  35.398  28.875  1.00  0.00     0.060 A 
BRANCH  88  89
ATOM     89  S   UNL A   1      48.083  37.069  29.245  1.00  0.00     0.124 S 
ATOM     90  O   UNL A   1      47.179  37.878  28.438  1.00  0.00    -0.237 OA
ATOM     91  O   UNL A   1      47.892  37.146  30.690  1.00  0.00    -0.237 OA
ATOM     92  O   UNL A   1      49.476  37.051  28.805  1.00  0.00    -0.744 OA
ENDBRANCH  88  89
ENDBRANCH  56  81
BRANCH  68  93
ATOM     93  C   UNL A   1      49.434  26.928  25.808  1.00  0.00     0.058 A 
ATOM     94  C   UNL A   1      49.773  27.097  24.457  1.00  0.00     0.135 A 
ATOM     95  C   UNL A   1      50.441  26.499  26.687  1.00  0.00     0.135 A 
ATOM     96  F   UNL A   1      48.848  27.500  23.571  1.00  0.00    -0.206 F 
ATOM     97  C   UNL A   1      51.055  26.825  23.990  1.00  0.00     0.059 A 
ATOM     98  C   UNL A   1      51.740  26.258  26.250  1.00  0.00     0.059 A 
ATOM     99  F   UNL A   1      50.177  26.334  27.994  1.00  0.00    -0.206 F 
ATOM    100  C   UNL A   1      52.034  26.412  24.896  1.00  0.00     0.060 A 
BRANCH 100 101
ATOM    101  S   UNL A   1      53.702  26.098  24.281  1.00  0.00     0.124 S 
ATOM    102  O   UNL A   1      53.475  26.015  22.842  1.00  0.00    -0.237 OA
ATOM    103  O   UNL A   1      54.428  27.277  24.742  1.00  0.00    -0.237 OA
ATOM    104  O   UNL A   1      54.075  24.845  24.930  1.00  0.00    -0.744 OA
ENDBRANCH 100 101
ENDBRANCH  68  93
ENDBRANCH  42  43
ENDBRANCH  35  37
ENDBRANCH  34  35
ENDBRANCH  33  34
ENDBRANCH  32  33
ENDBRANCH  31  32
ENDBRANCH   1  31
TORSDOF 22
ENDMDL
MODEL 2
REMARK VINA RESULT:     -11.9      0.806      7.860
REMARK SMILES O=C(OCCOCCOCCOC(=O)c1ccc(-c2c3nc(c(-c4c(F)cc(S(=O)(=O)[O-])cc4F)c4ccc([nH]4)c(-c4c(F)cc(S(=O)(=O)[O-])cc4F)c4nc(c(-c5c(F)cc(S(=O)(=O)[O-])cc5F)c5ccc2[nH]5)C=C4)C=C3)cc1)C1=Cc2cc(Cl)cc(-c3ccc(Cl)cc3)c2O[C@@H]1C(F)(F)F
REMARK SMILES IDX 8 1 7 2 6 3 5 4 4 5 3 6 2 7 1 8 81 9 82 10 98 11 83 12 97 13
REMARK SMILES IDX 84 14 96 15 85 16 88 17 86 18 87 19 99 20 100 21 101 22
REMARK SMILES IDX 102 23 89 24 90 25 95 26 91 27 94 28 92 29 93 30 9 31 10 32
REMARK SMILES IDX 11 33 12 34 13 35 14 36 15 37 16 38 80 39 17 40 79 41 18 42
REMARK SMILES IDX 19 43 20 44 73 45 21 46 78 47 72 48 74 49 22 50 77 51 71 52
REMARK SMILES IDX 70 53 23 55 57 56 36 57 56 58 37 59 40 60 55 61 75 62 38 63
REMARK SMILES IDX 39 64 54 66 76 67 41 68 24 69 25 70 34 71 26 72 27 73 33 74
REMARK SMILES IDX 35 75 28 76 29 77 30 78 31 79 32 80 58 81 59 82 68 83 60 84
REMARK SMILES IDX 61 85 67 86 69 87 62 88 63 89 64 90 65 91 66 92 42 93 43 94
REMARK SMILES IDX 52 95 44 96 45 97 51 98 53 99 46 100 47 101 48 102 49 103
REMARK SMILES IDX 50 104
REMARK H PARENT 74 54 40 65
REMARK Flexibility Score: inf
ROOT
ATOM      1  C   UNL A   1      35.625  33.193  28.185  1.00  0.00     0.188 C 
ENDROOT
BRANCH   1   2
ATOM      2  C   UNL A   1      34.758  32.026  27.680  1.00  0.00     0.188 C 
BRANCH   2   3
ATOM      3  O   UNL A   1      34.972  30.584  28.104  1.00  0.00    -0.376 OA
BRANCH   3   4
ATOM      4  C   UNL A   1      34.683  29.137  27.117  1.00  0.00     0.202 C 
BRANCH   4   5
ATOM      5  C   UNL A   1      32.738  28.157  27.057  1.00  0.00     0.261 C 
BRANCH   5   6
ATOM      6  O   UNL A   1      32.175  27.345  25.883  1.00  0.00    -0.460 OA
BRANCH   6   7
ATOM      7  C   UNL A   1      32.075  26.035  26.166  1.00  0.00     0.338 C 
ATOM      8  O   UNL A   1      31.951  25.512  27.244  1.00  0.00    -0.246 OA
BRANCH   7   9
ATOM      9  C   UNL A   1      32.677  25.572  24.931  1.00  0.00     0.087 C 
ATOM     10  C   UNL A   1      34.106  25.355  24.965  1.00  0.00     0.027 C 
ATOM     11  C   UNL A   1      31.357  24.216  24.639  1.00  0.00     0.316 C 
ATOM     12  C   UNL A   1      34.863  23.741  25.033  1.00  0.00     0.019 A 
ATOM     13  O   UNL A   1      32.144  22.427  24.885  1.00  0.00    -0.475 OA
ATOM     14  C   UNL A   1      36.218  23.708  25.243  1.00  0.00     0.032 A 
ATOM     15  C   UNL A   1      33.960  22.264  25.058  1.00  0.00     0.135 A 
ATOM     16  C   UNL A   1      36.766  22.436  25.405  1.00  0.00     0.042 A 
ATOM     17  C   UNL A   1      34.603  21.041  25.165  1.00  0.00     0.026 A 
ATOM     18  Cl  UNL A   1      38.470  22.331  25.697  1.00  0.00    -0.084 Cl
ATOM     19  C   UNL A   1      36.017  21.203  25.347  1.00  0.00     0.033 A 
BRANCH  11  20
ATOM     20  C   UNL A   1      30.765  25.037  23.245  1.00  0.00     0.430 C 
ATOM     21  F   UNL A   1      30.350  26.314  23.330  1.00  0.00    -0.167 F 
ATOM     22  F   UNL A   1      31.688  24.972  22.256  1.00  0.00    -0.167 F 
ATOM     23  F   UNL A   1      29.660  24.403  22.743  1.00  0.00    -0.167 F 
ENDBRANCH  11  20
BRANCH  17  24
ATOM     24  C   UNL A   1      34.142  19.663  25.041  1.00  0.00    -0.015 A 
ATOM     25  C   UNL A   1      32.888  19.257  25.514  1.00  0.00     0.010 A 
ATOM     26  C   UNL A   1      35.060  18.656  24.674  1.00  0.00     0.010 A 
ATOM     27  C   UNL A   1      32.530  17.902  25.523  1.00  0.00     0.021 A 
ATOM     28  C   UNL A   1      34.699  17.303  24.659  1.00  0.00     0.021 A 
ATOM     29  C   UNL A   1      33.422  16.936  25.062  1.00  0.00     0.041 A 
ATOM     30  Cl  UNL A   1      32.945  15.284  24.988  1.00  0.00    -0.084 Cl
ENDBRANCH  17  24
ENDBRANCH   7   9
ENDBRANCH   6   7
ENDBRANCH   5   6
ENDBRANCH   4   5
ENDBRANCH   3   4
ENDBRANCH   2   3
ENDBRANCH   1   2
BRANCH   1  31
ATOM     31  O   UNL A   1      34.989  34.302  28.761  1.00  0.00    -0.376 OA
BRANCH  31  32
ATOM     32  C   UNL A   1      34.641  34.122  30.117  1.00  0.00     0.202 C 
BRANCH  32  33
ATOM     33  C   UNL A   1      35.020  32.822  30.836  1.00  0.00     0.261 C 
BRANCH  33  34
ATOM     34  O   UNL A   1      36.432  32.582  30.946  1.00  0.00    -0.460 OA
BRANCH  34  35
ATOM     35  C   UNL A   1      36.805  31.572  31.770  1.00  0.00     0.338 C 
ATOM     36  O   UNL A   1      36.215  31.161  32.752  1.00  0.00    -0.246 OA
BRANCH  35  37
ATOM     37  C   UNL A   1      37.979  30.900  31.181  1.00  0.00     0.060 A 
ATOM     38  C   UNL A   1      38.890  30.228  32.012  1.00  0.00     0.016 A 
ATOM     39  C   UNL A   1      38.197  30.982  29.809  1.00  0.00     0.016 A 
ATOM     40  C   UNL A   1      40.008  29.605  31.463  1.00  0.00     0.010 A 
ATOM     41  C   UNL A   1      39.343  30.400  29.266  1.00  0.00     0.010 A 
ATOM     42  C   UNL A   1      40.257  29.721  30.091  1.00  0.00    -0.014 A 
BRANCH  42  43
ATOM     43  C   UNL A   1      41.570  29.309  29.547  1.00  0.00     0.031 A 
ATOM     44  C   UNL A   1      42.637  30.358  29.425  1.00  0.00     0.074 A 
ATOM     45  C   UNL A   1      41.795  28.042  29.158  1.00  0.00     0.049 A 
ATOM     46  N   UNL A   1      43.828  30.267  28.896  1.00  0.00    -0.248 NA
ATOM     47  C   UNL A   1      42.315  31.691  29.965  1.00  0.00     0.031 C 
ATOM     48  C   UNL A   1      40.838  26.943  29.270  1.00  0.00     0.029 A 
ATOM     49  N   UNL A   1      42.897  27.470  28.574  1.00  0.00    -0.354 N 
ATOM     50  C   UNL A   1      44.391  31.530  29.025  1.00  0.00     0.074 A 
ATOM     51  C   UNL A   1      43.411  32.374  29.670  1.00  0.00     0.031 C 
ATOM     52  C   UNL A   1      41.388  25.832  28.751  1.00  0.00     0.029 A 
ATOM     53  C   UNL A   1      42.718  26.150  28.233  1.00  0.00     0.049 A 
ATOM     54  H   UNL A   1      43.736  27.960  28.414  1.00  0.00     0.167 HD
ATOM     55  C   UNL A   1      45.617  31.945  28.632  1.00  0.00     0.037 A 
ATOM     56  C   UNL A   1      43.524  25.313  27.547  1.00  0.00     0.037 A 
ATOM     57  C   UNL A   1      46.576  31.096  27.978  1.00  0.00     0.049 A 
ATOM     58  C   UNL A   1      44.859  25.825  27.059  1.00  0.00     0.074 A 
ATOM     59  C   UNL A   1      47.856  31.411  27.559  1.00  0.00     0.029 A 
ATOM     60  N   UNL A   1      46.356  29.770  27.632  1.00  0.00    -0.354 N 
ATOM     61  N   UNL A   1      45.402  27.009  27.225  1.00  0.00    -0.248 NA
ATOM     62  C   UNL A   1      45.691  24.891  26.287  1.00  0.00     0.031 C 
ATOM     63  C   UNL A   1      48.382  30.300  26.895  1.00  0.00     0.029 A 
ATOM     64  C   UNL A   1      47.461  29.266  26.967  1.00  0.00     0.049 A 
ATOM     65  H   UNL A   1      45.535  29.264  27.829  1.00  0.00     0.167 HD
ATOM     66  C   UNL A   1      46.643  26.952  26.598  1.00  0.00     0.074 A 
ATOM     67  C   UNL A   1      46.783  25.610  26.074  1.00  0.00     0.031 C 
ATOM     68  C   UNL A   1      47.583  27.922  26.460  1.00  0.00     0.037 A 
BRANCH  55  69
ATOM     69  C   UNL A   1      45.982  33.385  28.859  1.00  0.00     0.058 A 
ATOM     70  C   UNL A   1      46.650  33.809  30.017  1.00  0.00     0.135 A 
ATOM     71  C   UNL A   1      45.719  34.343  27.865  1.00  0.00     0.135 A 
ATOM     72  F   UNL A   1      46.901  32.942  31.010  1.00  0.00    -0.206 F 
ATOM     73  C   UNL A   1      47.048  35.131  30.181  1.00  0.00     0.059 A 
ATOM     74  C   UNL A   1      46.135  35.664  27.995  1.00  0.00     0.059 A 
ATOM     75  F   UNL A   1      45.070  33.993  26.743  1.00  0.00    -0.206 F 
ATOM     76  C   UNL A   1      46.798  36.048  29.159  1.00  0.00     0.060 A 
BRANCH  76  77
ATOM     77  S   UNL A   1      47.378  37.745  29.364  1.00  0.00     0.124 S 
ATOM     78  O   UNL A   1      46.729  38.415  28.240  1.00  0.00    -0.237 OA
ATOM     79  O   UNL A   1      46.867  38.088  30.687  1.00  0.00    -0.237 OA
ATOM     80  O   UNL A   1      48.830  37.624  29.266  1.00  0.00    -0.744 OA
ENDBRANCH  76  77
ENDBRANCH  55  69
BRANCH  56  81
ATOM     81  C   UNL A   1      43.085  23.922  27.232  1.00  0.00     0.058 A 
ATOM     82  C   UNL A   1      43.281  22.869  28.141  1.00  0.00     0.135 A 
ATOM     83  C   UNL A   1      42.507  23.605  25.992  1.00  0.00     0.135 A 
ATOM     84  F   UNL A   1      43.845  23.110  29.334  1.00  0.00    -0.206 F 
ATOM     85  C   UNL A   1      42.951  21.555  27.821  1.00  0.00     0.059 A 
ATOM     86  C   UNL A   1      42.134  22.306  25.665  1.00  0.00     0.059 A 
ATOM     87  F   UNL A   1      42.291  24.569  25.083  1.00  0.00    -0.206 F 
ATOM     88  C   UNL A   1      42.376  21.283  26.579  1.00  0.00     0.060 A 
BRANCH  88  89
ATOM     89  S   UNL A   1      41.939  19.577  26.177  1.00  0.00     0.124 S 
ATOM     90  O   UNL A   1      43.118  19.137  25.441  1.00  0.00    -0.237 OA
ATOM     91  O   UNL A   1      41.755  18.989  27.500  1.00  0.00    -0.237 OA
ATOM     92  O   UNL A   1      40.719  19.720  25.387  1.00  0.00    -0.744 OA
ENDBRANCH  88  89
ENDBRANCH  56  81
BRANCH  68  93
ATOM     93  C   UNL A   1      48.858  27.562  25.743  1.00  0.00     0.058 A 
ATOM     94  C   UNL A   1      48.947  27.570  24.343  1.00  0.00     0.135 A 
ATOM     95  C   UNL A   1      50.022  27.265  26.471  1.00  0.00     0.135 A 
ATOM     96  F   UNL A   1      47.865  27.843  23.597  1.00  0.00    -0.206 F 
ATOM     97  C   UNL A   1      50.137  27.268  23.688  1.00  0.00     0.059 A 
ATOM     98  C   UNL A   1      51.232  26.998  25.838  1.00  0.00     0.059 A 
ATOM     99  F   UNL A   1      49.999  27.257  27.814  1.00  0.00    -0.206 F 
ATOM    100  C   UNL A   1      51.277  26.989  24.445  1.00  0.00     0.060 A 
BRANCH 100 101
ATOM    101  S   UNL A   1      52.821  26.636  23.581  1.00  0.00     0.124 S 
ATOM    102  O   UNL A   1      53.621  27.810  23.912  1.00  0.00    -0.237 OA
ATOM    103  O   UNL A   1      53.244  25.385  24.204  1.00  0.00    -0.237 OA
ATOM    104  O   UNL A   1      52.414  26.528  22.184  1.00  0.00    -0.744 OA
ENDBRANCH 100 101
ENDBRANCH  68  93
ENDBRANCH  42  43
ENDBRANCH  35  37
ENDBRANCH  34  35
ENDBRANCH  33  34
ENDBRANCH  32  33
ENDBRANCH  31  32
ENDBRANCH   1  31
TORSDOF 22
ENDMDL
MODEL 3
REMARK VINA RESULT:     -10.6      1.620      8.068
REMARK SMILES O=C(OCCOCCOCCOC(=O)c1ccc(-c2c3nc(c(-c4c(F)cc(S(=O)(=O)[O-])cc4F)c4ccc([nH]4)c(-c4c(F)cc(S(=O)(=O)[O-])cc4F)c4nc(c(-c5c(F)cc(S(=O)(=O)[O-])cc5F)c5ccc2[nH]5)C=C4)C=C3)cc1)C1=Cc2cc(Cl)cc(-c3ccc(Cl)cc3)c2O[C@@H]1C(F)(F)F
REMARK SMILES IDX 8 1 7 2 6 3 5 4 4 5 3 6 2 7 1 8 81 9 82 10 98 11 83 12 97 13
REMARK SMILES IDX 84 14 96 15 85 16 88 17 86 18 87 19 99 20 100 21 101 22
REMARK SMILES IDX 102 23 89 24 90 25 95 26 91 27 94 28 92 29 93 30 9 31 10 32
REMARK SMILES IDX 11 33 12 34 13 35 14 36 15 37 16 38 80 39 17 40 79 41 18 42
REMARK SMILES IDX 19 43 20 44 73 45 21 46 78 47 72 48 74 49 22 50 77 51 71 52
REMARK SMILES IDX 70 53 23 55 57 56 36 57 56 58 37 59 40 60 55 61 75 62 38 63
REMARK SMILES IDX 39 64 54 66 76 67 41 68 24 69 25 70 34 71 26 72 27 73 33 74
REMARK SMILES IDX 35 75 28 76 29 77 30 78 31 79 32 80 58 81 59 82 68 83 60 84
REMARK SMILES IDX 61 85 67 86 69 87 62 88 63 89 64 90 65 91 66 92 42 93 43 94
REMARK SMILES IDX 52 95 44 96 45 97 51 98 53 99 46 100 47 101 48 102 49 103
REMARK SMILES IDX 50 104
REMARK H PARENT 74 54 40 65
REMARK Flexibility Score: inf
ROOT
ATOM      1  C   UNL A   1      35.657  33.724  28.258  1.00  0.00     0.188 C 
ENDROOT
BRANCH   1   2
ATOM      2  C   UNL A   1      35.068  32.446  27.636  1.00  0.00     0.188 C 
BRANCH   2   3
ATOM      3  O   UNL A   1      35.239  31.066  28.245  1.00  0.00    -0.376 OA
BRANCH   3   4
ATOM      4  C   UNL A   1      34.693  29.527  27.549  1.00  0.00     0.202 C 
BRANCH   4   5
ATOM      5  C   UNL A   1      32.587  28.970  27.504  1.00  0.00     0.261 C 
BRANCH   5   6
ATOM      6  O   UNL A   1      31.795  28.543  26.261  1.00  0.00    -0.460 OA
BRANCH   6   7
ATOM      7  C   UNL A   1      31.285  27.306  26.377  1.00  0.00     0.338 C 
ATOM      8  O   UNL A   1      30.962  26.723  27.380  1.00  0.00    -0.246 OA
BRANCH   7   9
ATOM      9  C   UNL A   1      31.764  26.828  25.094  1.00  0.00     0.087 C 
ATOM     10  C   UNL A   1      33.189  26.600  24.995  1.00  0.00     0.027 C 
ATOM     11  C   UNL A   1      30.412  25.482  24.938  1.00  0.00     0.316 C 
ATOM     12  C   UNL A   1      33.936  24.980  25.004  1.00  0.00     0.019 A 
ATOM     13  O   UNL A   1      31.205  23.689  25.124  1.00  0.00    -0.475 OA
ATOM     14  C   UNL A   1      35.304  24.937  25.087  1.00  0.00     0.032 A 
ATOM     15  C   UNL A   1      33.028  23.511  25.127  1.00  0.00     0.135 A 
ATOM     16  C   UNL A   1      35.855  23.662  25.206  1.00  0.00     0.042 A 
ATOM     17  C   UNL A   1      33.668  22.283  25.182  1.00  0.00     0.026 A 
ATOM     18  Cl  UNL A   1      37.578  23.544  25.338  1.00  0.00    -0.084 Cl
ATOM     19  C   UNL A   1      35.095  22.434  25.229  1.00  0.00     0.033 A 
BRANCH  11  20
ATOM     20  C   UNL A   1      29.698  26.298  23.600  1.00  0.00     0.430 C 
ATOM     21  F   UNL A   1      30.420  26.555  22.494  1.00  0.00    -0.167 F 
ATOM     22  F   UNL A   1      28.579  25.639  23.213  1.00  0.00    -0.167 F 
ATOM     23  F   UNL A   1      29.269  27.546  23.965  1.00  0.00    -0.167 F 
ENDBRANCH  11  20
BRANCH  17  24
ATOM     24  C   UNL A   1      33.186  20.908  25.113  1.00  0.00    -0.015 A 
ATOM     25  C   UNL A   1      33.278  20.037  26.204  1.00  0.00     0.010 A 
ATOM     26  C   UNL A   1      32.856  20.353  23.857  1.00  0.00     0.010 A 
ATOM     27  C   UNL A   1      32.951  18.681  26.067  1.00  0.00     0.021 A 
ATOM     28  C   UNL A   1      32.506  19.004  23.721  1.00  0.00     0.021 A 
ATOM     29  C   UNL A   1      32.533  18.179  24.837  1.00  0.00     0.041 A 
ATOM     30  Cl  UNL A   1      32.044  16.535  24.695  1.00  0.00    -0.084 Cl
ENDBRANCH  17  24
ENDBRANCH   7   9
ENDBRANCH   6   7
ENDBRANCH   5   6
ENDBRANCH   4   5
ENDBRANCH   3   4
ENDBRANCH   2   3
ENDBRANCH   1   2
BRANCH   1  31
ATOM     31  O   UNL A   1      34.795  34.792  28.541  1.00  0.00    -0.376 OA
BRANCH  31  32
ATOM     32  C   UNL A   1      34.015  34.607  29.703  1.00  0.00     0.202 C 
BRANCH  32  33
ATOM     33  C   UNL A   1      34.426  33.553  30.737  1.00  0.00     0.261 C 
BRANCH  33  34
ATOM     34  O   UNL A   1      35.773  33.672  31.220  1.00  0.00    -0.460 OA
BRANCH  34  35
ATOM     35  C   UNL A   1      36.169  32.745  32.127  1.00  0.00     0.338 C 
ATOM     36  O   UNL A   1      35.604  32.429  33.158  1.00  0.00    -0.246 OA
BRANCH  35  37
ATOM     37  C   UNL A   1      37.329  32.020  31.576  1.00  0.00     0.060 A 
ATOM     38  C   UNL A   1      38.007  31.080  32.368  1.00  0.00     0.016 A 
ATOM     39  C   UNL A   1      37.769  32.312  30.287  1.00  0.00     0.016 A 
ATOM     40  C   UNL A   1      39.113  30.404  31.858  1.00  0.00     0.010 A 
ATOM     41  C   UNL A   1      38.906  31.670  29.795  1.00  0.00     0.010 A 
ATOM     42  C   UNL A   1      39.587  30.724  30.581  1.00  0.00    -0.014 A 
BRANCH  42  43
ATOM     43  C   UNL A   1      40.909  30.223  30.143  1.00  0.00     0.031 A 
ATOM     44  C   UNL A   1      42.056  31.191  30.131  1.00  0.00     0.074 A 
ATOM     45  C   UNL A   1      41.074  28.948  29.752  1.00  0.00     0.049 A 
ATOM     46  N   UNL A   1      43.278  31.019  29.703  1.00  0.00    -0.248 NA
ATOM     47  C   UNL A   1      41.786  32.538  30.665  1.00  0.00     0.031 C 
ATOM     48  C   UNL A   1      40.034  27.921  29.763  1.00  0.00     0.029 A 
ATOM     49  N   UNL A   1      42.178  28.303  29.253  1.00  0.00    -0.354 N 
ATOM     50  C   UNL A   1      43.918  32.236  29.902  1.00  0.00     0.074 A 
ATOM     51  C   UNL A   1      42.951  33.142  30.477  1.00  0.00     0.031 C 
ATOM     52  C   UNL A   1      40.545  26.778  29.272  1.00  0.00     0.029 A 
ATOM     53  C   UNL A   1      41.933  27.003  28.875  1.00  0.00     0.049 A 
ATOM     54  H   UNL A   1      43.061  28.730  29.174  1.00  0.00     0.167 HD
ATOM     55  C   UNL A   1      45.200  32.563  29.622  1.00  0.00     0.037 A 
ATOM     56  C   UNL A   1      42.732  26.116  28.245  1.00  0.00     0.037 A 
ATOM     57  C   UNL A   1      46.148  31.653  29.037  1.00  0.00     0.049 A 
ATOM     58  C   UNL A   1      44.138  26.535  27.882  1.00  0.00     0.074 A 
ATOM     59  C   UNL A   1      47.479  31.878  28.733  1.00  0.00     0.029 A 
ATOM     60  N   UNL A   1      45.863  30.351  28.649  1.00  0.00    -0.354 N 
ATOM     61  N   UNL A   1      44.749  27.673  28.115  1.00  0.00    -0.248 NA
ATOM     62  C   UNL A   1      44.963  25.550  27.167  1.00  0.00     0.031 C 
ATOM     63  C   UNL A   1      47.978  30.739  28.097  1.00  0.00     0.029 A 
ATOM     64  C   UNL A   1      46.982  29.775  28.073  1.00  0.00     0.049 A 
ATOM     65  H   UNL A   1      44.994  29.905  28.768  1.00  0.00     0.167 HD
ATOM     66  C   UNL A   1      46.033  27.532  27.594  1.00  0.00     0.074 A 
ATOM     67  C   UNL A   1      46.120  26.189  27.060  1.00  0.00     0.031 C 
ATOM     68  C   UNL A   1      47.049  28.432  27.553  1.00  0.00     0.037 A 
BRANCH  55  69
ATOM     69  C   UNL A   1      45.648  33.970  29.904  1.00  0.00     0.058 A 
ATOM     70  C   UNL A   1      45.533  34.992  28.950  1.00  0.00     0.135 A 
ATOM     71  C   UNL A   1      46.135  34.312  31.177  1.00  0.00     0.135 A 
ATOM     72  F   UNL A   1      45.100  34.716  27.711  1.00  0.00    -0.206 F 
ATOM     73  C   UNL A   1      45.882  36.305  29.249  1.00  0.00     0.059 A 
ATOM     74  C   UNL A   1      46.461  35.624  31.507  1.00  0.00     0.059 A 
ATOM     75  F   UNL A   1      46.278  33.369  32.123  1.00  0.00    -0.206 F 
ATOM     76  C   UNL A   1      46.332  36.612  30.534  1.00  0.00     0.060 A 
BRANCH  76  77
ATOM     77  S   UNL A   1      46.720  38.332  30.921  1.00  0.00     0.124 S 
ATOM     78  O   UNL A   1      47.976  38.519  30.199  1.00  0.00    -0.237 OA
ATOM     79  O   UNL A   1      45.565  39.039  30.376  1.00  0.00    -0.237 OA
ATOM     80  O   UNL A   1      46.829  38.340  32.376  1.00  0.00    -0.744 OA
ENDBRANCH  76  77
ENDBRANCH  55  69
BRANCH  56  81
ATOM     81  C   UNL A   1      42.223  24.766  27.870  1.00  0.00     0.058 A 
ATOM     82  C   UNL A   1      42.436  23.648  28.693  1.00  0.00     0.135 A 
ATOM     83  C   UNL A   1      41.555  24.553  26.652  1.00  0.00     0.135 A 
ATOM     84  F   UNL A   1      43.083  23.789  29.860  1.00  0.00    -0.206 F 
ATOM     85  C   UNL A   1      42.037  22.370  28.310  1.00  0.00     0.059 A 
ATOM     86  C   UNL A   1      41.114  23.292  26.266  1.00  0.00     0.059 A 
ATOM     87  F   UNL A   1      41.318  25.583  25.825  1.00  0.00    -0.206 F 
ATOM     88  C   UNL A   1      41.375  22.202  27.093  1.00  0.00     0.060 A 
BRANCH  88  89
ATOM     89  S   UNL A   1      40.849  20.543  26.611  1.00  0.00     0.124 S 
ATOM     90  O   UNL A   1      40.745  19.879  27.905  1.00  0.00    -0.237 OA
ATOM     91  O   UNL A   1      39.588  20.808  25.925  1.00  0.00    -0.237 OA
ATOM     92  O   UNL A   1      41.937  20.082  25.751  1.00  0.00    -0.744 OA
ENDBRANCH  88  89
ENDBRANCH  56  81
BRANCH  68  93
ATOM     93  C   UNL A   1      48.351  27.987  26.941  1.00  0.00     0.058 A 
ATOM     94  C   UNL A   1      49.440  27.584  27.730  1.00  0.00     0.135 A 
ATOM     95  C   UNL A   1      48.488  27.906  25.546  1.00  0.00     0.135 A 
ATOM     96  F   UNL A   1      49.366  27.645  29.069  1.00  0.00    -0.206 F 
ATOM     97  C   UNL A   1      50.629  27.144  27.157  1.00  0.00     0.059 A 
ATOM     98  C   UNL A   1      49.654  27.432  24.952  1.00  0.00     0.059 A 
ATOM     99  F   UNL A   1      47.474  28.264  24.742  1.00  0.00    -0.206 F 
ATOM    100  C   UNL A   1      50.724  27.065  25.766  1.00  0.00     0.060 A 
BRANCH 100 101
ATOM    101  S   UNL A   1      52.260  26.457  25.040  1.00  0.00     0.124 S 
ATOM    102  O   UNL A   1      52.291  25.080  25.521  1.00  0.00    -0.237 OA
ATOM    103  O   UNL A   1      52.015  26.625  23.611  1.00  0.00    -0.237 OA
ATOM    104  O   UNL A   1      53.277  27.340  25.603  1.00  0.00    -0.744 OA
ENDBRANCH 100 101
ENDBRANCH  68  93
ENDBRANCH  42  43
ENDBRANCH  35  37
ENDBRANCH  34  35
ENDBRANCH  33  34
ENDBRANCH  32  33
ENDBRANCH  31  32
ENDBRANCH   1  31
TORSDOF 22
ENDMDL
