MODEL 1
REMARK VINA RESULT:     -10.8      0.000      0.000
REMARK SMILES C[C@H]([C@@H]1CCCO1)n1c(SCC(=O)OCCOCCOCCOC(=O)c2ccc(-c3c4nc(c(-c5c(F)cc(S(=O)(=O)[O-])cc5F)c5ccc([nH]5)c(-c5c(F)cc(S(=O)(=O)[O-])cc5F)c5nc(c(-c6c(F)cc(S(=O)(=O)[O-])cc6F)c6ccc3[nH]6)C=C5)C=C4)cc2)nc2cnccc21
REMARK SMILES IDX 18 1 17 2 16 3 15 4 14 5 12 6 13 7 11 8 10 9 9 10 8 11 98 12
REMARK SMILES IDX 92 13 93 14 97 15 94 16 96 17 95 18 2 19 1 20 3 21 4 22 7 23
REMARK SMILES IDX 5 24 6 25 19 26 20 27 21 28 22 29 23 30 24 31 25 32 26 33
REMARK SMILES IDX 27 34 91 35 28 36 90 37 29 38 30 39 31 40 84 41 32 42 89 43
REMARK SMILES IDX 83 44 85 45 33 46 88 47 82 48 81 49 34 51 68 52 47 53 67 54
REMARK SMILES IDX 48 55 51 56 66 57 86 58 49 59 50 60 65 62 87 63 52 64 35 65
REMARK SMILES IDX 36 66 45 67 37 68 38 69 44 70 46 71 39 72 40 73 41 74 42 75
REMARK SMILES IDX 43 76 69 77 70 78 79 79 71 80 72 81 78 82 80 83 73 84 74 85
REMARK SMILES IDX 75 86 76 87 77 88 53 89 54 90 63 91 55 92 56 93 62 94 64 95
REMARK SMILES IDX 57 96 58 97 59 98 60 99 61 100
REMARK H PARENT 85 50 51 61
REMARK Flexibility Score: inf
ROOT
ATOM      1  C   UNL A   1      36.021  23.856  25.411  1.00  0.00     0.188 C 
ENDROOT
BRANCH   1   2
ATOM      2  O   UNL A   1      34.723  24.003  25.975  1.00  0.00    -0.376 OA
BRANCH   2   3
ATOM      3  C   UNL A   1      34.461  23.007  26.971  1.00  0.00     0.202 C 
BRANCH   3   4
ATOM      4  C   UNL A   1      33.032  22.417  27.047  1.00  0.00     0.261 C 
BRANCH   4   5
ATOM      5  O   UNL A   1      32.653  21.635  25.889  1.00  0.00    -0.463 OA
BRANCH   5   6
ATOM      6  C   UNL A   1      31.884  22.270  24.952  1.00  0.00     0.316 C 
ATOM      7  O   UNL A   1      31.911  22.018  23.753  1.00  0.00    -0.251 OA
BRANCH   6   8
ATOM      8  C   UNL A   1      31.007  23.367  25.531  1.00  0.00     0.200 C 
BRANCH   8   9
ATOM      9  S   UNL A   1      30.659  24.793  24.497  1.00  0.00    -0.076 SA
BRANCH   9  10
ATOM     10  C   UNL A   1      31.523  26.304  24.738  1.00  0.00     0.170 A 
ATOM     11  N   UNL A   1      31.325  27.573  24.214  1.00  0.00    -0.313 N 
ATOM     12  C   UNL A   1      31.619  28.495  25.229  1.00  0.00     0.072 A 
ATOM     13  N   UNL A   1      32.177  26.407  25.887  1.00  0.00    -0.221 NA
ATOM     14  C   UNL A   1      32.211  27.738  26.222  1.00  0.00     0.108 A 
ATOM     15  C   UNL A   1      31.459  29.881  25.367  1.00  0.00     0.049 A 
ATOM     16  C   UNL A   1      32.680  28.388  27.371  1.00  0.00     0.141 A 
ATOM     17  C   UNL A   1      31.936  30.436  26.543  1.00  0.00     0.113 A 
ATOM     18  N   UNL A   1      32.536  29.735  27.526  1.00  0.00    -0.262 NA
BRANCH  11  19
ATOM     19  C   UNL A   1      31.105  28.053  22.861  1.00  0.00     0.116 C 
ATOM     20  C   UNL A   1      32.166  28.981  22.308  1.00  0.00     0.034 C 
BRANCH  19  21
ATOM     21  C   UNL A   1      29.678  28.471  22.527  1.00  0.00     0.141 C 
ATOM     22  C   UNL A   1      29.330  29.927  22.559  1.00  0.00     0.036 C 
ATOM     23  O   UNL A   1      28.687  27.845  23.355  1.00  0.00    -0.376 OA
ATOM     24  C   UNL A   1      27.827  29.923  22.592  1.00  0.00     0.031 C 
ATOM     25  C   UNL A   1      27.457  28.531  23.060  1.00  0.00     0.160 C 
ENDBRANCH  19  21
ENDBRANCH  11  19
ENDBRANCH   9  10
ENDBRANCH   8   9
ENDBRANCH   6   8
ENDBRANCH   5   6
ENDBRANCH   4   5
ENDBRANCH   3   4
ENDBRANCH   2   3
ENDBRANCH   1   2
BRANCH   1  26
ATOM     26  C   UNL A   1      36.094  23.416  23.952  1.00  0.00     0.188 C 
BRANCH  26  27
ATOM     27  O   UNL A   1      36.932  22.297  23.729  1.00  0.00    -0.376 OA
BRANCH  27  28
ATOM     28  C   UNL A   1      36.792  21.271  24.719  1.00  0.00     0.202 C 
BRANCH  28  29
ATOM     29  C   UNL A   1      38.091  20.939  25.485  1.00  0.00     0.261 C 
BRANCH  29  30
ATOM     30  O   UNL A   1      38.566  22.060  26.278  1.00  0.00    -0.460 OA
BRANCH  30  31
ATOM     31  C   UNL A   1      39.858  21.957  26.708  1.00  0.00     0.338 C 
ATOM     32  O   UNL A   1      40.559  20.956  26.606  1.00  0.00    -0.246 OA
BRANCH  31  33
ATOM     33  C   UNL A   1      40.401  23.304  27.058  1.00  0.00     0.060 A 
ATOM     34  C   UNL A   1      41.307  23.533  28.100  1.00  0.00     0.016 A 
ATOM     35  C   UNL A   1      39.852  24.404  26.403  1.00  0.00     0.016 A 
ATOM     36  C   UNL A   1      41.481  24.838  28.627  1.00  0.00     0.010 A 
ATOM     37  C   UNL A   1      39.968  25.676  26.975  1.00  0.00     0.010 A 
ATOM     38  C   UNL A   1      40.692  25.902  28.169  1.00  0.00    -0.014 A 
BRANCH  38  39
ATOM     39  C   UNL A   1      40.746  27.309  28.692  1.00  0.00     0.031 A 
ATOM     40  C   UNL A   1      41.739  28.020  27.890  1.00  0.00     0.074 A 
ATOM     41  C   UNL A   1      40.152  28.040  29.688  1.00  0.00     0.049 A 
ATOM     42  N   UNL A   1      42.993  27.765  28.052  1.00  0.00    -0.248 NA
ATOM     43  C   UNL A   1      41.423  28.809  26.698  1.00  0.00     0.031 C 
ATOM     44  C   UNL A   1      39.160  27.623  30.682  1.00  0.00     0.029 A 
ATOM     45  N   UNL A   1      40.282  29.395  29.993  1.00  0.00    -0.354 N 
ATOM     46  C   UNL A   1      43.612  28.704  27.282  1.00  0.00     0.074 A 
ATOM     47  C   UNL A   1      42.665  29.027  26.240  1.00  0.00     0.031 C 
ATOM     48  C   UNL A   1      38.637  28.703  31.328  1.00  0.00     0.029 A 
ATOM     49  C   UNL A   1      39.338  29.912  30.904  1.00  0.00     0.049 A 
ATOM     50  H   UNL A   1      40.988  29.955  29.598  1.00  0.00     0.167 HD
ATOM     51  C   UNL A   1      44.627  29.421  27.830  1.00  0.00     0.037 A 
ATOM     52  C   UNL A   1      39.338  31.100  31.590  1.00  0.00     0.037 A 
ATOM     53  C   UNL A   1      45.001  28.921  29.150  1.00  0.00     0.049 A 
ATOM     54  C   UNL A   1      40.754  31.380  31.891  1.00  0.00     0.074 A 
ATOM     55  C   UNL A   1      45.246  27.665  29.684  1.00  0.00     0.029 A 
ATOM     56  N   UNL A   1      44.772  29.741  30.232  1.00  0.00    -0.354 N 
ATOM     57  N   UNL A   1      41.452  30.722  32.772  1.00  0.00    -0.248 NA
ATOM     58  C   UNL A   1      41.515  32.206  30.971  1.00  0.00     0.031 C 
ATOM     59  C   UNL A   1      44.746  27.698  31.018  1.00  0.00     0.029 A 
ATOM     60  C   UNL A   1      44.307  28.991  31.287  1.00  0.00     0.049 A 
ATOM     61  H   UNL A   1      44.919  30.714  30.249  1.00  0.00     0.167 HD
ATOM     62  C   UNL A   1      42.697  30.631  32.188  1.00  0.00     0.074 A 
ATOM     63  C   UNL A   1      42.726  31.693  31.188  1.00  0.00     0.031 C 
ATOM     64  C   UNL A   1      43.443  29.501  32.338  1.00  0.00     0.037 A 
BRANCH  51  65
ATOM     65  C   UNL A   1      45.000  30.783  27.344  1.00  0.00     0.058 A 
ATOM     66  C   UNL A   1      46.287  30.977  26.822  1.00  0.00     0.135 A 
ATOM     67  C   UNL A   1      44.213  31.942  27.522  1.00  0.00     0.135 A 
ATOM     68  F   UNL A   1      47.125  29.939  26.675  1.00  0.00    -0.206 F 
ATOM     69  C   UNL A   1      46.763  32.241  26.495  1.00  0.00     0.059 A 
ATOM     70  C   UNL A   1      44.637  33.200  27.131  1.00  0.00     0.059 A 
ATOM     71  F   UNL A   1      43.040  31.923  28.167  1.00  0.00    -0.206 F 
ATOM     72  C   UNL A   1      45.925  33.343  26.644  1.00  0.00     0.060 A 
BRANCH  72  73
ATOM     73  S   UNL A   1      46.550  34.978  26.246  1.00  0.00     0.124 S 
ATOM     74  O   UNL A   1      47.114  35.385  27.526  1.00  0.00    -0.237 OA
ATOM     75  O   UNL A   1      47.507  34.683  25.185  1.00  0.00    -0.237 OA
ATOM     76  O   UNL A   1      45.352  35.697  25.820  1.00  0.00    -0.744 OA
ENDBRANCH  72  73
ENDBRANCH  51  65
BRANCH  52  77
ATOM     77  C   UNL A   1      38.292  32.148  31.883  1.00  0.00     0.058 A 
ATOM     78  C   UNL A   1      37.631  32.832  30.830  1.00  0.00     0.135 A 
ATOM     79  C   UNL A   1      37.709  32.316  33.148  1.00  0.00     0.135 A 
ATOM     80  F   UNL A   1      38.104  32.769  29.575  1.00  0.00    -0.206 F 
ATOM     81  C   UNL A   1      36.430  33.539  31.002  1.00  0.00     0.059 A 
ATOM     82  C   UNL A   1      36.509  33.024  33.350  1.00  0.00     0.059 A 
ATOM     83  F   UNL A   1      38.252  31.737  34.225  1.00  0.00    -0.206 F 
ATOM     84  C   UNL A   1      35.856  33.604  32.265  1.00  0.00     0.060 A 
BRANCH  84  85
ATOM     85  S   UNL A   1      34.212  34.349  32.450  1.00  0.00     0.124 S 
ATOM     86  O   UNL A   1      33.499  33.335  33.219  1.00  0.00    -0.237 OA
ATOM     87  O   UNL A   1      34.512  35.589  33.160  1.00  0.00    -0.237 OA
ATOM     88  O   UNL A   1      33.760  34.518  31.072  1.00  0.00    -0.744 OA
ENDBRANCH  84  85
ENDBRANCH  52  77
BRANCH  64  89
ATOM     89  C   UNL A   1      43.198  28.617  33.545  1.00  0.00     0.058 A 
ATOM     90  C   UNL A   1      43.881  28.674  34.775  1.00  0.00     0.135 A 
ATOM     91  C   UNL A   1      42.120  27.718  33.473  1.00  0.00     0.135 A 
ATOM     92  F   UNL A   1      44.881  29.540  34.980  1.00  0.00    -0.206 F 
ATOM     93  C   UNL A   1      43.517  27.877  35.866  1.00  0.00     0.059 A 
ATOM     94  C   UNL A   1      41.716  26.940  34.557  1.00  0.00     0.059 A 
ATOM     95  F   UNL A   1      41.408  27.615  32.338  1.00  0.00    -0.206 F 
ATOM     96  C   UNL A   1      42.422  27.024  35.753  1.00  0.00     0.060 A 
BRANCH  96  97
ATOM     97  S   UNL A   1      41.880  26.094  37.204  1.00  0.00     0.124 S 
ATOM     98  O   UNL A   1      42.926  26.395  38.175  1.00  0.00    -0.237 OA
ATOM     99  O   UNL A   1      40.571  26.681  37.481  1.00  0.00    -0.237 OA
ATOM    100  O   UNL A   1      41.847  24.712  36.731  1.00  0.00    -0.744 OA
ENDBRANCH  96  97
ENDBRANCH  64  89
ENDBRANCH  38  39
ENDBRANCH  31  33
ENDBRANCH  30  31
ENDBRANCH  29  30
ENDBRANCH  28  29
ENDBRANCH  27  28
ENDBRANCH  26  27
ENDBRANCH   1  26
TORSDOF 24
ENDMDL
MODEL 2
REMARK VINA RESULT:     -10.7      1.800      3.080
REMARK SMILES C[C@H]([C@@H]1CCCO1)n1c(SCC(=O)OCCOCCOCCOC(=O)c2ccc(-c3c4nc(c(-c5c(F)cc(S(=O)(=O)[O-])cc5F)c5ccc([nH]5)c(-c5c(F)cc(S(=O)(=O)[O-])cc5F)c5nc(c(-c6c(F)cc(S(=O)(=O)[O-])cc6F)c6ccc3[nH]6)C=C5)C=C4)cc2)nc2cnccc21
REMARK SMILES IDX 18 1 17 2 16 3 15 4 14 5 12 6 13 7 11 8 10 9 9 10 8 11 98 12
REMARK SMILES IDX 92 13 93 14 97 15 94 16 96 17 95 18 2 19 1 20 3 21 4 22 7 23
REMARK SMILES IDX 5 24 6 25 19 26 20 27 21 28 22 29 23 30 24 31 25 32 26 33
REMARK SMILES IDX 27 34 91 35 28 36 90 37 29 38 30 39 31 40 84 41 32 42 89 43
REMARK SMILES IDX 83 44 85 45 33 46 88 47 82 48 81 49 34 51 68 52 47 53 67 54
REMARK SMILES IDX 48 55 51 56 66 57 86 58 49 59 50 60 65 62 87 63 52 64 35 65
REMARK SMILES IDX 36 66 45 67 37 68 38 69 44 70 46 71 39 72 40 73 41 74 42 75
REMARK SMILES IDX 43 76 69 77 70 78 79 79 71 80 72 81 78 82 80 83 73 84 74 85
REMARK SMILES IDX 75 86 76 87 77 88 53 89 54 90 63 91 55 92 56 93 62 94 64 95
REMARK SMILES IDX 57 96 58 97 59 98 60 99 61 100
REMARK H PARENT 85 50 51 61
REMARK Flexibility Score: inf
ROOT
ATOM      1  C   UNL A   1      37.758  21.740  25.879  1.00  0.00     0.188 C 
ENDROOT
BRANCH   1   2
ATOM      2  O   UNL A   1      37.497  20.677  24.970  1.00  0.00    -0.376 OA
BRANCH   2   3
ATOM      3  C   UNL A   1      36.110  20.317  24.957  1.00  0.00     0.202 C 
BRANCH   3   4
ATOM      4  C   UNL A   1      35.066  21.456  25.045  1.00  0.00     0.261 C 
BRANCH   4   5
ATOM      5  O   UNL A   1      33.791  21.138  24.438  1.00  0.00    -0.463 OA
BRANCH   5   6
ATOM      6  C   UNL A   1      32.782  20.784  25.291  1.00  0.00     0.316 C 
ATOM      7  O   UNL A   1      32.152  19.735  25.218  1.00  0.00    -0.251 OA
BRANCH   6   8
ATOM      8  C   UNL A   1      32.471  21.846  26.333  1.00  0.00     0.200 C 
BRANCH   8   9
ATOM      9  S   UNL A   1      31.108  22.968  26.003  1.00  0.00    -0.076 SA
BRANCH   9  10
ATOM     10  C   UNL A   1      31.115  23.985  24.571  1.00  0.00     0.170 A 
ATOM     11  N   UNL A   1      31.200  25.362  24.419  1.00  0.00    -0.313 N 
ATOM     12  C   UNL A   1      31.976  25.608  23.277  1.00  0.00     0.072 A 
ATOM     13  N   UNL A   1      31.539  23.399  23.460  1.00  0.00    -0.221 NA
ATOM     14  C   UNL A   1      32.104  24.372  22.673  1.00  0.00     0.108 A 
ATOM     15  C   UNL A   1      32.540  26.758  22.708  1.00  0.00     0.049 A 
ATOM     16  C   UNL A   1      32.792  24.289  21.455  1.00  0.00     0.141 A 
ATOM     17  C   UNL A   1      33.217  26.580  21.513  1.00  0.00     0.113 A 
ATOM     18  N   UNL A   1      33.348  25.395  20.884  1.00  0.00    -0.262 NA
BRANCH  11  19
ATOM     19  C   UNL A   1      30.500  26.464  25.053  1.00  0.00     0.116 C 
ATOM     20  C   UNL A   1      29.268  26.969  24.330  1.00  0.00     0.034 C 
BRANCH  19  21
ATOM     21  C   UNL A   1      31.380  27.569  25.627  1.00  0.00     0.141 C 
ATOM     22  C   UNL A   1      31.369  27.800  27.106  1.00  0.00     0.036 C 
ATOM     23  O   UNL A   1      31.125  28.860  25.057  1.00  0.00    -0.376 OA
ATOM     24  C   UNL A   1      31.992  29.161  27.248  1.00  0.00     0.031 C 
ATOM     25  C   UNL A   1      31.860  29.789  25.876  1.00  0.00     0.160 C 
ENDBRANCH  19  21
ENDBRANCH  11  19
ENDBRANCH   9  10
ENDBRANCH   8   9
ENDBRANCH   6   8
ENDBRANCH   5   6
ENDBRANCH   4   5
ENDBRANCH   3   4
ENDBRANCH   2   3
ENDBRANCH   1   2
BRANCH   1  26
ATOM     26  C   UNL A   1      39.221  22.077  26.147  1.00  0.00     0.188 C 
BRANCH  26  27
ATOM     27  O   UNL A   1      39.849  21.217  27.079  1.00  0.00    -0.376 OA
BRANCH  27  28
ATOM     28  C   UNL A   1      40.692  20.232  26.470  1.00  0.00     0.202 C 
BRANCH  28  29
ATOM     29  C   UNL A   1      42.172  20.651  26.333  1.00  0.00     0.261 C 
BRANCH  29  30
ATOM     30  O   UNL A   1      42.417  21.986  26.850  1.00  0.00    -0.460 OA
BRANCH  30  31
ATOM     31  C   UNL A   1      42.963  22.861  25.954  1.00  0.00     0.338 C 
ATOM     32  O   UNL A   1      43.174  22.622  24.770  1.00  0.00    -0.246 OA
BRANCH  31  33
ATOM     33  C   UNL A   1      43.005  24.239  26.529  1.00  0.00     0.060 A 
ATOM     34  C   UNL A   1      43.464  24.533  27.818  1.00  0.00     0.016 A 
ATOM     35  C   UNL A   1      42.410  25.259  25.789  1.00  0.00     0.016 A 
ATOM     36  C   UNL A   1      43.124  25.761  28.440  1.00  0.00     0.010 A 
ATOM     37  C   UNL A   1      42.013  26.436  26.433  1.00  0.00     0.010 A 
ATOM     38  C   UNL A   1      42.260  26.665  27.806  1.00  0.00    -0.014 A 
BRANCH  38  39
ATOM     39  C   UNL A   1      41.785  27.965  28.390  1.00  0.00     0.031 A 
ATOM     40  C   UNL A   1      42.736  28.991  27.966  1.00  0.00     0.074 A 
ATOM     41  C   UNL A   1      40.761  28.398  29.192  1.00  0.00     0.049 A 
ATOM     42  N   UNL A   1      43.913  29.026  28.491  1.00  0.00    -0.248 NA
ATOM     43  C   UNL A   1      42.569  29.826  26.776  1.00  0.00     0.031 C 
ATOM     44  C   UNL A   1      39.679  27.631  29.813  1.00  0.00     0.029 A 
ATOM     45  N   UNL A   1      40.431  29.694  29.590  1.00  0.00    -0.354 N 
ATOM     46  C   UNL A   1      44.450  30.177  27.995  1.00  0.00     0.074 A 
ATOM     47  C   UNL A   1      43.784  30.393  26.732  1.00  0.00     0.031 C 
ATOM     48  C   UNL A   1      38.726  28.461  30.322  1.00  0.00     0.029 A 
ATOM     49  C   UNL A   1      39.166  29.847  30.193  1.00  0.00     0.049 A 
ATOM     50  H   UNL A   1      41.044  30.453  29.458  1.00  0.00     0.167 HD
ATOM     51  C   UNL A   1      45.037  31.041  28.862  1.00  0.00     0.037 A 
ATOM     52  C   UNL A   1      38.654  30.903  30.905  1.00  0.00     0.037 A 
ATOM     53  C   UNL A   1      45.144  30.481  30.206  1.00  0.00     0.049 A 
ATOM     54  C   UNL A   1      39.800  31.474  31.638  1.00  0.00     0.074 A 
ATOM     55  C   UNL A   1      45.556  29.263  30.727  1.00  0.00     0.029 A 
ATOM     56  N   UNL A   1      44.408  31.077  31.207  1.00  0.00    -0.354 N 
ATOM     57  N   UNL A   1      40.370  30.897  32.656  1.00  0.00    -0.248 NA
ATOM     58  C   UNL A   1      40.538  32.570  31.037  1.00  0.00     0.031 C 
ATOM     59  C   UNL A   1      44.710  29.004  31.844  1.00  0.00     0.029 A 
ATOM     60  C   UNL A   1      43.883  30.108  32.031  1.00  0.00     0.049 A 
ATOM     61  H   UNL A   1      44.278  32.046  31.316  1.00  0.00     0.167 HD
ATOM     62  C   UNL A   1      41.707  31.183  32.476  1.00  0.00     0.074 A 
ATOM     63  C   UNL A   1      41.731  32.340  31.588  1.00  0.00     0.031 C 
ATOM     64  C   UNL A   1      42.654  30.257  32.791  1.00  0.00     0.037 A 
BRANCH  51  65
ATOM     65  C   UNL A   1      45.153  32.504  28.583  1.00  0.00     0.058 A 
ATOM     66  C   UNL A   1      46.431  33.082  28.570  1.00  0.00     0.135 A 
ATOM     67  C   UNL A   1      44.060  33.393  28.493  1.00  0.00     0.135 A 
ATOM     68  F   UNL A   1      47.525  32.318  28.709  1.00  0.00    -0.206 F 
ATOM     69  C   UNL A   1      46.612  34.456  28.472  1.00  0.00     0.059 A 
ATOM     70  C   UNL A   1      44.218  34.756  28.317  1.00  0.00     0.059 A 
ATOM     71  F   UNL A   1      42.793  32.995  28.666  1.00  0.00    -0.206 F 
ATOM     72  C   UNL A   1      45.499  35.281  28.336  1.00  0.00     0.060 A 
BRANCH  72  73
ATOM     73  S   UNL A   1      45.733  37.059  28.236  1.00  0.00     0.124 S 
ATOM     74  O   UNL A   1      44.796  37.408  27.176  1.00  0.00    -0.237 OA
ATOM     75  O   UNL A   1      45.369  37.485  29.583  1.00  0.00    -0.237 OA
ATOM     76  O   UNL A   1      47.149  37.190  27.904  1.00  0.00    -0.744 OA
ENDBRANCH  72  73
ENDBRANCH  51  65
BRANCH  52  77
ATOM     77  C   UNL A   1      37.328  31.622  30.916  1.00  0.00     0.058 A 
ATOM     78  C   UNL A   1      36.407  31.437  31.979  1.00  0.00     0.135 A 
ATOM     79  C   UNL A   1      37.035  32.702  30.068  1.00  0.00     0.135 A 
ATOM     80  F   UNL A   1      36.564  30.425  32.847  1.00  0.00    -0.206 F 
ATOM     81  C   UNL A   1      35.341  32.313  32.240  1.00  0.00     0.059 A 
ATOM     82  C   UNL A   1      35.970  33.592  30.303  1.00  0.00     0.059 A 
ATOM     83  F   UNL A   1      37.819  32.969  29.017  1.00  0.00    -0.206 F 
ATOM     84  C   UNL A   1      35.148  33.412  31.412  1.00  0.00     0.060 A 
BRANCH  84  85
ATOM     85  S   UNL A   1      33.896  34.646  31.861  1.00  0.00     0.124 S 
ATOM     86  O   UNL A   1      34.713  35.745  32.365  1.00  0.00    -0.237 OA
ATOM     87  O   UNL A   1      33.226  34.885  30.587  1.00  0.00    -0.237 OA
ATOM     88  O   UNL A   1      33.088  33.958  32.866  1.00  0.00    -0.744 OA
ENDBRANCH  84  85
ENDBRANCH  52  77
BRANCH  64  89
ATOM     89  C   UNL A   1      42.325  29.193  33.820  1.00  0.00     0.058 A 
ATOM     90  C   UNL A   1      41.757  27.930  33.564  1.00  0.00     0.135 A 
ATOM     91  C   UNL A   1      42.714  29.443  35.147  1.00  0.00     0.135 A 
ATOM     92  F   UNL A   1      41.411  27.557  32.326  1.00  0.00    -0.206 F 
ATOM     93  C   UNL A   1      41.578  26.977  34.572  1.00  0.00     0.059 A 
ATOM     94  C   UNL A   1      42.579  28.496  36.161  1.00  0.00     0.059 A 
ATOM     95  F   UNL A   1      43.278  30.620  35.470  1.00  0.00    -0.206 F 
ATOM     96  C   UNL A   1      42.008  27.262  35.865  1.00  0.00     0.060 A 
BRANCH  96  97
ATOM     97  S   UNL A   1      41.891  25.980  37.133  1.00  0.00     0.124 S 
ATOM     98  O   UNL A   1      42.887  26.414  38.107  1.00  0.00    -0.237 OA
ATOM     99  O   UNL A   1      40.498  26.090  37.561  1.00  0.00    -0.237 OA
ATOM    100  O   UNL A   1      42.217  24.753  36.410  1.00  0.00    -0.744 OA
ENDBRANCH  96  97
ENDBRANCH  64  89
ENDBRANCH  38  39
ENDBRANCH  31  33
ENDBRANCH  30  31
ENDBRANCH  29  30
ENDBRANCH  28  29
ENDBRANCH  27  28
ENDBRANCH  26  27
ENDBRANCH   1  26
TORSDOF 24
ENDMDL
MODEL 3
REMARK VINA RESULT:     -10.2      1.696      3.178
REMARK SMILES C[C@H]([C@@H]1CCCO1)n1c(SCC(=O)OCCOCCOCCOC(=O)c2ccc(-c3c4nc(c(-c5c(F)cc(S(=O)(=O)[O-])cc5F)c5ccc([nH]5)c(-c5c(F)cc(S(=O)(=O)[O-])cc5F)c5nc(c(-c6c(F)cc(S(=O)(=O)[O-])cc6F)c6ccc3[nH]6)C=C5)C=C4)cc2)nc2cnccc21
REMARK SMILES IDX 18 1 17 2 16 3 15 4 14 5 12 6 13 7 11 8 10 9 9 10 8 11 98 12
REMARK SMILES IDX 92 13 93 14 97 15 94 16 96 17 95 18 2 19 1 20 3 21 4 22 7 23
REMARK SMILES IDX 5 24 6 25 19 26 20 27 21 28 22 29 23 30 24 31 25 32 26 33
REMARK SMILES IDX 27 34 91 35 28 36 90 37 29 38 30 39 31 40 84 41 32 42 89 43
REMARK SMILES IDX 83 44 85 45 33 46 88 47 82 48 81 49 34 51 68 52 47 53 67 54
REMARK SMILES IDX 48 55 51 56 66 57 86 58 49 59 50 60 65 62 87 63 52 64 35 65
REMARK SMILES IDX 36 66 45 67 37 68 38 69 44 70 46 71 39 72 40 73 41 74 42 75
REMARK SMILES IDX 43 76 69 77 70 78 79 79 71 80 72 81 78 82 80 83 73 84 74 85
REMARK SMILES IDX 75 86 76 87 77 88 53 89 54 90 63 91 55 92 56 93 62 94 64 95
REMARK SMILES IDX 57 96 58 97 59 98 60 99 61 100
REMARK H PARENT 85 50 51 61
REMARK Flexibility Score: inf
ROOT
ATOM      1  C   UNL A   1      37.607  22.092  25.372  1.00  0.00     0.188 C 
ENDROOT
BRANCH   1   2
ATOM      2  O   UNL A   1      36.572  21.898  24.415  1.00  0.00    -0.376 OA
BRANCH   2   3
ATOM      3  C   UNL A   1      35.490  22.816  24.609  1.00  0.00     0.202 C 
BRANCH   3   4
ATOM      4  C   UNL A   1      35.167  23.807  23.465  1.00  0.00     0.261 C 
BRANCH   4   5
ATOM      5  O   UNL A   1      34.158  24.789  23.802  1.00  0.00    -0.463 OA
BRANCH   5   6
ATOM      6  C   UNL A   1      33.076  24.860  22.968  1.00  0.00     0.316 C 
ATOM      7  O   UNL A   1      32.980  24.249  21.910  1.00  0.00    -0.251 OA
BRANCH   6   8
ATOM      8  C   UNL A   1      31.999  25.816  23.454  1.00  0.00     0.200 C 
BRANCH   8   9
ATOM      9  S   UNL A   1      31.914  27.439  22.691  1.00  0.00    -0.076 SA
BRANCH   9  10
ATOM     10  C   UNL A   1      30.553  28.504  23.005  1.00  0.00     0.170 A 
ATOM     11  N   UNL A   1      30.431  29.633  23.803  1.00  0.00    -0.313 N 
ATOM     12  C   UNL A   1      29.587  30.529  23.130  1.00  0.00     0.072 A 
ATOM     13  N   UNL A   1      29.631  28.543  22.054  1.00  0.00    -0.221 NA
ATOM     14  C   UNL A   1      29.056  29.790  22.090  1.00  0.00     0.108 A 
ATOM     15  C   UNL A   1      29.219  31.866  23.335  1.00  0.00     0.049 A 
ATOM     16  C   UNL A   1      28.114  30.396  21.249  1.00  0.00     0.141 A 
ATOM     17  C   UNL A   1      28.295  32.389  22.445  1.00  0.00     0.113 A 
ATOM     18  N   UNL A   1      27.741  31.695  21.431  1.00  0.00    -0.262 NA
BRANCH  11  19
ATOM     19  C   UNL A   1      30.812  29.911  25.175  1.00  0.00     0.116 C 
ATOM     20  C   UNL A   1      30.910  31.374  25.552  1.00  0.00     0.034 C 
BRANCH  19  21
ATOM     21  C   UNL A   1      31.934  29.047  25.742  1.00  0.00     0.141 C 
ATOM     22  C   UNL A   1      32.108  28.979  27.227  1.00  0.00     0.036 C 
ATOM     23  O   UNL A   1      33.233  29.393  25.240  1.00  0.00    -0.376 OA
ATOM     24  C   UNL A   1      33.490  28.409  27.387  1.00  0.00     0.031 C 
ATOM     25  C   UNL A   1      34.163  28.651  26.051  1.00  0.00     0.160 C 
ENDBRANCH  19  21
ENDBRANCH  11  19
ENDBRANCH   9  10
ENDBRANCH   8   9
ENDBRANCH   6   8
ENDBRANCH   5   6
ENDBRANCH   4   5
ENDBRANCH   3   4
ENDBRANCH   2   3
ENDBRANCH   1   2
BRANCH   1  26
ATOM     26  C   UNL A   1      38.552  20.919  25.616  1.00  0.00     0.188 C 
BRANCH  26  27
ATOM     27  O   UNL A   1      39.768  21.280  26.244  1.00  0.00    -0.376 OA
BRANCH  27  28
ATOM     28  C   UNL A   1      40.608  20.160  26.548  1.00  0.00     0.202 C 
BRANCH  28  29
ATOM     29  C   UNL A   1      42.118  20.421  26.353  1.00  0.00     0.261 C 
BRANCH  29  30
ATOM     30  O   UNL A   1      42.603  21.508  27.185  1.00  0.00    -0.460 OA
BRANCH  30  31
ATOM     31  C   UNL A   1      42.977  22.633  26.506  1.00  0.00     0.338 C 
ATOM     32  O   UNL A   1      43.692  22.653  25.510  1.00  0.00    -0.246 OA
BRANCH  31  33
ATOM     33  C   UNL A   1      42.173  23.808  26.959  1.00  0.00     0.060 A 
ATOM     34  C   UNL A   1      41.575  24.726  26.088  1.00  0.00     0.016 A 
ATOM     35  C   UNL A   1      42.151  24.078  28.326  1.00  0.00     0.016 A 
ATOM     36  C   UNL A   1      41.170  26.002  26.557  1.00  0.00     0.010 A 
ATOM     37  C   UNL A   1      41.822  25.365  28.768  1.00  0.00     0.010 A 
ATOM     38  C   UNL A   1      41.433  26.392  27.877  1.00  0.00    -0.014 A 
BRANCH  38  39
ATOM     39  C   UNL A   1      41.105  27.734  28.466  1.00  0.00     0.031 A 
ATOM     40  C   UNL A   1      42.093  28.677  27.945  1.00  0.00     0.074 A 
ATOM     41  C   UNL A   1      40.185  28.258  29.337  1.00  0.00     0.049 A 
ATOM     42  N   UNL A   1      43.308  28.632  28.374  1.00  0.00    -0.248 NA
ATOM     43  C   UNL A   1      41.894  29.502  26.753  1.00  0.00     0.031 C 
ATOM     44  C   UNL A   1      39.102  27.586  30.059  1.00  0.00     0.029 A 
ATOM     45  N   UNL A   1      39.986  29.581  29.729  1.00  0.00    -0.354 N 
ATOM     46  C   UNL A   1      43.888  29.729  27.811  1.00  0.00     0.074 A 
ATOM     47  C   UNL A   1      43.140  29.975  26.600  1.00  0.00     0.031 C 
ATOM     48  C   UNL A   1      38.258  28.495  30.622  1.00  0.00     0.029 A 
ATOM     49  C   UNL A   1      38.789  29.841  30.428  1.00  0.00     0.049 A 
ATOM     50  H   UNL A   1      40.641  30.289  29.533  1.00  0.00     0.167 HD
ATOM     51  C   UNL A   1      44.606  30.561  28.609  1.00  0.00     0.037 A 
ATOM     52  C   UNL A   1      38.416  30.945  31.153  1.00  0.00     0.037 A 
ATOM     53  C   UNL A   1      44.779  30.017  29.953  1.00  0.00     0.049 A 
ATOM     54  C   UNL A   1      39.657  31.439  31.780  1.00  0.00     0.074 A 
ATOM     55  C   UNL A   1      45.139  28.780  30.467  1.00  0.00     0.029 A 
ATOM     56  N   UNL A   1      44.173  30.683  30.995  1.00  0.00    -0.354 N 
ATOM     57  N   UNL A   1      40.263  30.837  32.762  1.00  0.00    -0.248 NA
ATOM     58  C   UNL A   1      40.424  32.465  31.097  1.00  0.00     0.031 C 
ATOM     59  C   UNL A   1      44.369  28.605  31.654  1.00  0.00     0.029 A 
ATOM     60  C   UNL A   1      43.645  29.772  31.879  1.00  0.00     0.049 A 
ATOM     61  H   UNL A   1      44.125  31.662  31.091  1.00  0.00     0.167 HD
ATOM     62  C   UNL A   1      41.598  31.018  32.471  1.00  0.00     0.074 A 
ATOM     63  C   UNL A   1      41.637  32.154  31.557  1.00  0.00     0.031 C 
ATOM     64  C   UNL A   1      42.496  30.027  32.731  1.00  0.00     0.037 A 
BRANCH  51  65
ATOM     65  C   UNL A   1      44.808  32.005  28.288  1.00  0.00     0.058 A 
ATOM     66  C   UNL A   1      46.108  32.453  28.013  1.00  0.00     0.135 A 
ATOM     67  C   UNL A   1      43.812  32.999  28.401  1.00  0.00     0.135 A 
ATOM     68  F   UNL A   1      47.128  31.582  27.946  1.00  0.00    -0.206 F 
ATOM     69  C   UNL A   1      46.401  33.802  27.859  1.00  0.00     0.059 A 
ATOM     70  C   UNL A   1      44.066  34.341  28.175  1.00  0.00     0.059 A 
ATOM     71  F   UNL A   1      42.572  32.730  28.828  1.00  0.00    -0.206 F 
ATOM     72  C   UNL A   1      45.371  34.735  27.932  1.00  0.00     0.060 A 
BRANCH  72  73
ATOM     73  S   UNL A   1      45.755  36.481  27.758  1.00  0.00     0.124 S 
ATOM     74  O   UNL A   1      46.906  36.429  26.865  1.00  0.00    -0.237 OA
ATOM     75  O   UNL A   1      44.519  37.003  27.184  1.00  0.00    -0.237 OA
ATOM     76  O   UNL A   1      46.030  36.899  29.129  1.00  0.00    -0.744 OA
ENDBRANCH  72  73
ENDBRANCH  51  65
BRANCH  52  77
ATOM     77  C   UNL A   1      37.153  31.763  31.253  1.00  0.00     0.058 A 
ATOM     78  C   UNL A   1      36.496  31.942  32.498  1.00  0.00     0.135 A 
ATOM     79  C   UNL A   1      36.708  32.614  30.228  1.00  0.00     0.135 A 
ATOM     80  F   UNL A   1      36.815  31.174  33.552  1.00  0.00    -0.206 F 
ATOM     81  C   UNL A   1      35.549  32.951  32.734  1.00  0.00     0.059 A 
ATOM     82  C   UNL A   1      35.756  33.629  30.436  1.00  0.00     0.059 A 
ATOM     83  F   UNL A   1      37.237  32.529  29.002  1.00  0.00    -0.206 F 
ATOM     84  C   UNL A   1      35.206  33.815  31.702  1.00  0.00     0.060 A 
BRANCH  84  85
ATOM     85  S   UNL A   1      34.133  35.234  32.059  1.00  0.00     0.124 S 
ATOM     86  O   UNL A   1      34.987  36.062  32.903  1.00  0.00    -0.237 OA
ATOM     87  O   UNL A   1      33.860  35.758  30.724  1.00  0.00    -0.237 OA
ATOM     88  O   UNL A   1      32.987  34.630  32.733  1.00  0.00    -0.744 OA
ENDBRANCH  84  85
ENDBRANCH  52  77
BRANCH  64  89
ATOM     89  C   UNL A   1      42.172  29.009  33.806  1.00  0.00     0.058 A 
ATOM     90  C   UNL A   1      41.596  27.739  33.610  1.00  0.00     0.135 A 
ATOM     91  C   UNL A   1      42.574  29.313  35.119  1.00  0.00     0.135 A 
ATOM     92  F   UNL A   1      41.238  27.315  32.392  1.00  0.00    -0.206 F 
ATOM     93  C   UNL A   1      41.424  26.829  34.658  1.00  0.00     0.059 A 
ATOM     94  C   UNL A   1      42.445  28.410  36.173  1.00  0.00     0.059 A 
ATOM     95  F   UNL A   1      43.146  30.500  35.386  1.00  0.00    -0.206 F 
ATOM     96  C   UNL A   1      41.866  27.167  35.935  1.00  0.00     0.060 A 
BRANCH  96  97
ATOM     97  S   UNL A   1      41.756  25.940  37.257  1.00  0.00     0.124 S 
ATOM     98  O   UNL A   1      41.960  24.688  36.536  1.00  0.00    -0.237 OA
ATOM     99  O   UNL A   1      42.843  26.342  38.147  1.00  0.00    -0.237 OA
ATOM    100  O   UNL A   1      40.414  26.138  37.797  1.00  0.00    -0.744 OA
ENDBRANCH  96  97
ENDBRANCH  64  89
ENDBRANCH  38  39
ENDBRANCH  31  33
ENDBRANCH  30  31
ENDBRANCH  29  30
ENDBRANCH  28  29
ENDBRANCH  27  28
ENDBRANCH  26  27
ENDBRANCH   1  26
TORSDOF 24
ENDMDL
