MODEL 1
REMARK VINA RESULT:     -11.0      0.000      0.000
REMARK SMILES Cc1ccccc1/C=C1\SC(=O)N(CC(=O)Nc2ccccc2C(=O)OCCOCCOCCOC(=O)c2ccc(-c3c4nc(c(-c5c(F)cc(S(=O)(=O)[O-])cc5F)c5ccc([nH]5)c(-c5c(F)cc(S(=O)(=O)[O-])cc5F)c5nc(c(-c6c(F)cc(S(=O)(=O)[O-])cc6F)c6ccc3[nH]6)C=C5)C=C4)cc2)C1=O
REMARK SMILES IDX 30 1 29 2 28 3 27 4 26 5 24 6 25 7 23 8 18 9 19 10 20 11
REMARK SMILES IDX 22 12 21 13 17 14 15 15 16 16 14 18 13 19 8 20 9 21 10 22
REMARK SMILES IDX 104 23 11 24 105 25 12 26 7 27 1 28 2 29 3 30 4 31 6 32 5 33
REMARK SMILES IDX 31 34 32 35 33 36 34 37 35 38 36 39 37 40 38 41 39 42 103 43
REMARK SMILES IDX 40 44 102 45 41 46 42 47 43 48 96 49 44 50 101 51 95 52
REMARK SMILES IDX 97 53 45 54 100 55 94 56 93 57 46 59 80 60 59 61 79 62 60 63
REMARK SMILES IDX 63 64 78 65 98 66 61 67 62 68 77 70 99 71 64 72 47 73 48 74
REMARK SMILES IDX 57 75 49 76 50 77 56 78 58 79 51 80 52 81 53 82 54 83 55 84
REMARK SMILES IDX 81 85 82 86 91 87 83 88 84 89 90 90 92 91 85 92 86 93 87 94
REMARK SMILES IDX 88 95 89 96 65 97 66 98 75 99 67 100 68 101 74 102 76 103
REMARK SMILES IDX 69 104 70 105 71 106 72 107 73 108
REMARK H PARENT 17 17 97 58 63 69
REMARK Flexibility Score: inf
ROOT
ATOM      1  C   UNL A   1      47.902  26.115  35.718  1.00  0.00     0.188 C 
ENDROOT
BRANCH   1   2
ATOM      2  O   UNL A   1      48.609  26.164  34.466  1.00  0.00    -0.376 OA
BRANCH   2   3
ATOM      3  C   UNL A   1      47.971  25.486  33.363  1.00  0.00     0.202 C 
BRANCH   3   4
ATOM      4  C   UNL A   1      46.757  26.393  32.567  1.00  0.00     0.261 C 
BRANCH   4   5
ATOM      5  O   UNL A   1      45.207  25.945  31.409  1.00  0.00    -0.460 OA
BRANCH   5   6
ATOM      6  C   UNL A   1      44.433  26.439  29.902  1.00  0.00     0.340 C 
ATOM      7  O   UNL A   1      43.417  25.752  29.687  1.00  0.00    -0.246 OA
BRANCH   6   8
ATOM      8  C   UNL A   1      44.648  27.258  28.620  1.00  0.00     0.083 A 
ATOM      9  C   UNL A   1      45.979  27.296  28.188  1.00  0.00     0.055 A 
ATOM     10  C   UNL A   1      46.337  27.994  26.988  1.00  0.00     0.027 A 
ATOM     11  C   UNL A   1      45.390  28.565  26.140  1.00  0.00     0.002 A 
ATOM     12  C   UNL A   1      43.790  28.135  27.880  1.00  0.00     0.018 A 
ATOM     13  C   UNL A   1      44.098  28.654  26.599  1.00  0.00     0.001 A 
BRANCH   9  14
ATOM     14  N   UNL A   1      47.069  26.735  28.870  1.00  0.00    -0.324 N 
ATOM     15  C   UNL A   1      48.036  25.784  28.695  1.00  0.00     0.244 C 
ATOM     16  O   UNL A   1      48.756  25.765  29.714  1.00  0.00    -0.273 OA
ATOM     17  H   UNL A   1      47.170  27.159  29.752  1.00  0.00     0.170 HD
BRANCH  15  18
ATOM     18  C   UNL A   1      48.540  25.023  27.370  1.00  0.00     0.230 C 
BRANCH  18  19
ATOM     19  N   UNL A   1      48.976  25.422  26.007  1.00  0.00    -0.259 N 
ATOM     20  C   UNL A   1      49.217  27.223  21.874  1.00  0.00     0.029 C 
ATOM     21  C   UNL A   1      49.300  26.742  23.145  1.00  0.00     0.083 C 
ATOM     22  S   UNL A   1      51.335  26.844  24.021  1.00  0.00    -0.022 SA
ATOM     23  C   UNL A   1      48.120  25.805  24.450  1.00  0.00     0.268 C 
ATOM     24  C   UNL A   1      50.673  25.795  25.966  1.00  0.00     0.294 C 
ATOM     25  O   UNL A   1      47.170  25.140  24.001  1.00  0.00    -0.268 OA
ATOM     26  O   UNL A   1      51.456  25.024  26.527  1.00  0.00    -0.261 OA
BRANCH  20  27
ATOM     27  C   UNL A   1      50.164  28.037  20.950  1.00  0.00    -0.021 A 
ATOM     28  C   UNL A   1      50.924  26.210  19.295  1.00  0.00     0.045 C 
ATOM     29  C   UNL A   1      51.011  27.566  19.921  1.00  0.00    -0.044 A 
ATOM     30  C   UNL A   1      51.974  28.420  19.304  1.00  0.00     0.004 A 
ATOM     31  C   UNL A   1      52.029  29.778  19.573  1.00  0.00     0.000 A 
ATOM     32  C   UNL A   1      50.177  29.450  21.100  1.00  0.00     0.008 A 
ATOM     33  C   UNL A   1      51.086  30.304  20.434  1.00  0.00     0.001 A 
ENDBRANCH  20  27
ENDBRANCH  18  19
ENDBRANCH  15  18
ENDBRANCH   9  14
ENDBRANCH   6   8
ENDBRANCH   5   6
ENDBRANCH   4   5
ENDBRANCH   3   4
ENDBRANCH   2   3
ENDBRANCH   1   2
BRANCH   1  34
ATOM     34  C   UNL A   1      48.517  25.051  36.714  1.00  0.00     0.188 C 
BRANCH  34  35
ATOM     35  O   UNL A   1      48.578  23.754  36.101  1.00  0.00    -0.376 OA
BRANCH  35  36
ATOM     36  C   UNL A   1      47.522  22.796  36.190  1.00  0.00     0.202 C 
BRANCH  36  37
ATOM     37  C   UNL A   1      46.359  22.749  35.140  1.00  0.00     0.261 C 
BRANCH  37  38
ATOM     38  O   UNL A   1      45.073  23.302  35.681  1.00  0.00    -0.460 OA
BRANCH  38  39
ATOM     39  C   UNL A   1      44.109  23.716  34.769  1.00  0.00     0.338 C 
ATOM     40  O   UNL A   1      43.930  23.186  33.677  1.00  0.00    -0.246 OA
BRANCH  39  41
ATOM     41  C   UNL A   1      43.531  25.122  35.104  1.00  0.00     0.060 A 
ATOM     42  C   UNL A   1      42.147  25.290  35.201  1.00  0.00     0.016 A 
ATOM     43  C   UNL A   1      44.236  26.314  34.958  1.00  0.00     0.016 A 
ATOM     44  C   UNL A   1      41.525  26.556  34.896  1.00  0.00     0.010 A 
ATOM     45  C   UNL A   1      43.567  27.558  34.630  1.00  0.00     0.010 A 
ATOM     46  C   UNL A   1      42.180  27.665  34.323  1.00  0.00    -0.014 A 
BRANCH  46  47
ATOM     47  C   UNL A   1      41.615  28.981  33.371  1.00  0.00     0.031 A 
ATOM     48  C   UNL A   1      41.102  30.041  34.275  1.00  0.00     0.074 A 
ATOM     49  C   UNL A   1      41.272  29.343  31.996  1.00  0.00     0.049 A 
ATOM     50  N   UNL A   1      40.097  30.813  33.993  1.00  0.00    -0.248 NA
ATOM     51  C   UNL A   1      41.538  30.190  35.666  1.00  0.00     0.031 C 
ATOM     52  C   UNL A   1      41.183  30.637  31.297  1.00  0.00     0.029 A 
ATOM     53  N   UNL A   1      40.993  28.607  30.825  1.00  0.00    -0.354 N 
ATOM     54  C   UNL A   1      40.280  31.861  34.852  1.00  0.00     0.074 A 
ATOM     55  C   UNL A   1      40.805  31.245  36.035  1.00  0.00     0.031 C 
ATOM     56  C   UNL A   1      40.858  30.517  29.963  1.00  0.00     0.029 A 
ATOM     57  C   UNL A   1      40.682  29.115  29.575  1.00  0.00     0.049 A 
ATOM     58  H   UNL A   1      41.022  27.626  30.905  1.00  0.00     0.167 HD
ATOM     59  C   UNL A   1      40.506  33.089  34.296  1.00  0.00     0.037 A 
ATOM     60  C   UNL A   1      39.944  28.476  28.567  1.00  0.00     0.037 A 
ATOM     61  C   UNL A   1      39.937  33.211  32.912  1.00  0.00     0.049 A 
ATOM     62  C   UNL A   1      38.629  29.185  28.777  1.00  0.00     0.074 A 
ATOM     63  C   UNL A   1      40.353  33.851  31.755  1.00  0.00     0.029 A 
ATOM     64  N   UNL A   1      38.820  32.429  32.493  1.00  0.00    -0.354 N 
ATOM     65  N   UNL A   1      38.376  29.792  29.913  1.00  0.00    -0.248 NA
ATOM     66  C   UNL A   1      37.636  29.475  27.754  1.00  0.00     0.031 C 
ATOM     67  C   UNL A   1      39.583  33.365  30.652  1.00  0.00     0.029 A 
ATOM     68  C   UNL A   1      38.621  32.470  31.116  1.00  0.00     0.049 A 
ATOM     69  H   UNL A   1      38.252  31.916  33.111  1.00  0.00     0.167 HD
ATOM     70  C   UNL A   1      37.507  30.796  29.670  1.00  0.00     0.074 A 
ATOM     71  C   UNL A   1      36.943  30.460  28.362  1.00  0.00     0.031 C 
ATOM     72  C   UNL A   1      37.423  31.920  30.442  1.00  0.00     0.037 A 
BRANCH  59  73
ATOM     73  C   UNL A   1      41.530  34.057  34.965  1.00  0.00     0.058 A 
ATOM     74  C   UNL A   1      41.107  35.154  35.737  1.00  0.00     0.135 A 
ATOM     75  C   UNL A   1      42.954  33.993  34.842  1.00  0.00     0.135 A 
ATOM     76  F   UNL A   1      39.803  35.414  35.898  1.00  0.00    -0.206 F 
ATOM     77  C   UNL A   1      41.998  36.041  36.376  1.00  0.00     0.059 A 
ATOM     78  C   UNL A   1      43.854  34.801  35.537  1.00  0.00     0.059 A 
ATOM     79  F   UNL A   1      43.591  33.195  33.980  1.00  0.00    -0.206 F 
ATOM     80  C   UNL A   1      43.371  35.834  36.305  1.00  0.00     0.060 A 
BRANCH  80  81
ATOM     81  S   UNL A   1      44.526  36.874  37.217  1.00  0.00     0.124 S 
ATOM     82  O   UNL A   1      45.496  37.221  36.185  1.00  0.00    -0.237 OA
ATOM     83  O   UNL A   1      43.667  37.958  37.680  1.00  0.00    -0.237 OA
ATOM     84  O   UNL A   1      45.022  35.989  38.269  1.00  0.00    -0.744 OA
ENDBRANCH  80  81
ENDBRANCH  59  73
BRANCH  60  85
ATOM     85  C   UNL A   1      40.098  27.025  27.836  1.00  0.00     0.058 A 
ATOM     86  C   UNL A   1      40.761  26.893  26.579  1.00  0.00     0.135 A 
ATOM     87  C   UNL A   1      39.840  25.738  28.379  1.00  0.00     0.135 A 
ATOM     88  F   UNL A   1      40.955  27.991  25.826  1.00  0.00    -0.206 F 
ATOM     89  C   UNL A   1      41.419  25.684  26.111  1.00  0.00     0.059 A 
ATOM     90  C   UNL A   1      40.501  24.517  27.942  1.00  0.00     0.059 A 
ATOM     91  F   UNL A   1      39.031  25.621  29.444  1.00  0.00    -0.206 F 
ATOM     92  C   UNL A   1      41.391  24.520  26.870  1.00  0.00     0.060 A 
BRANCH  92  93
ATOM     93  S   UNL A   1      42.606  23.142  26.557  1.00  0.00     0.124 S 
ATOM     94  O   UNL A   1      42.001  22.414  25.450  1.00  0.00    -0.237 OA
ATOM     95  O   UNL A   1      43.856  23.832  26.244  1.00  0.00    -0.237 OA
ATOM     96  O   UNL A   1      42.670  22.395  27.804  1.00  0.00    -0.744 OA
ENDBRANCH  92  93
ENDBRANCH  60  85
BRANCH  72  97
ATOM     97  C   UNL A   1      36.177  32.737  30.477  1.00  0.00     0.058 A 
ATOM     98  C   UNL A   1      35.345  32.802  31.607  1.00  0.00     0.135 A 
ATOM     99  C   UNL A   1      35.921  33.666  29.447  1.00  0.00     0.135 A 
ATOM    100  F   UNL A   1      35.546  32.025  32.683  1.00  0.00    -0.206 F 
ATOM    101  C   UNL A   1      34.303  33.713  31.692  1.00  0.00     0.059 A 
ATOM    102  C   UNL A   1      34.936  34.624  29.544  1.00  0.00     0.059 A 
ATOM    103  F   UNL A   1      36.638  33.713  28.319  1.00  0.00    -0.206 F 
ATOM    104  C   UNL A   1      34.124  34.632  30.663  1.00  0.00     0.060 A 
BRANCH 104 105
ATOM    105  S   UNL A   1      32.875  35.903  30.811  1.00  0.00     0.124 S 
ATOM    106  O   UNL A   1      32.409  36.002  29.432  1.00  0.00    -0.237 OA
ATOM    107  O   UNL A   1      31.936  35.313  31.760  1.00  0.00    -0.237 OA
ATOM    108  O   UNL A   1      33.625  37.050  31.313  1.00  0.00    -0.744 OA
ENDBRANCH 104 105
ENDBRANCH  72  97
ENDBRANCH  46  47
ENDBRANCH  39  41
ENDBRANCH  38  39
ENDBRANCH  37  38
ENDBRANCH  36  37
ENDBRANCH  35  36
ENDBRANCH  34  35
ENDBRANCH   1  34
TORSDOF 24
ENDMDL
MODEL 2
REMARK VINA RESULT:     -11.0      5.297     12.211
REMARK SMILES Cc1ccccc1/C=C1\SC(=O)N(CC(=O)Nc2ccccc2C(=O)OCCOCCOCCOC(=O)c2ccc(-c3c4nc(c(-c5c(F)cc(S(=O)(=O)[O-])cc5F)c5ccc([nH]5)c(-c5c(F)cc(S(=O)(=O)[O-])cc5F)c5nc(c(-c6c(F)cc(S(=O)(=O)[O-])cc6F)c6ccc3[nH]6)C=C5)C=C4)cc2)C1=O
REMARK SMILES IDX 30 1 29 2 28 3 27 4 26 5 24 6 25 7 23 8 18 9 19 10 20 11
REMARK SMILES IDX 22 12 21 13 17 14 15 15 16 16 14 18 13 19 8 20 9 21 10 22
REMARK SMILES IDX 104 23 11 24 105 25 12 26 7 27 1 28 2 29 3 30 4 31 6 32 5 33
REMARK SMILES IDX 31 34 32 35 33 36 34 37 35 38 36 39 37 40 38 41 39 42 103 43
REMARK SMILES IDX 40 44 102 45 41 46 42 47 43 48 96 49 44 50 101 51 95 52
REMARK SMILES IDX 97 53 45 54 100 55 94 56 93 57 46 59 80 60 59 61 79 62 60 63
REMARK SMILES IDX 63 64 78 65 98 66 61 67 62 68 77 70 99 71 64 72 47 73 48 74
REMARK SMILES IDX 57 75 49 76 50 77 56 78 58 79 51 80 52 81 53 82 54 83 55 84
REMARK SMILES IDX 81 85 82 86 91 87 83 88 84 89 90 90 92 91 85 92 86 93 87 94
REMARK SMILES IDX 88 95 89 96 65 97 66 98 75 99 67 100 68 101 74 102 76 103
REMARK SMILES IDX 69 104 70 105 71 106 72 107 73 108
REMARK H PARENT 17 17 97 58 63 69
REMARK Flexibility Score: inf
ROOT
ATOM      1  C   UNL A   1      36.521  21.098  25.673  1.00  0.00     0.188 C 
ENDROOT
BRANCH   1   2
ATOM      2  O   UNL A   1      35.426  22.029  25.722  1.00  0.00    -0.376 OA
BRANCH   2   3
ATOM      3  C   UNL A   1      35.336  22.945  24.609  1.00  0.00     0.202 C 
BRANCH   3   4
ATOM      4  C   UNL A   1      34.825  24.526  25.019  1.00  0.00     0.261 C 
BRANCH   4   5
ATOM      5  O   UNL A   1      34.160  26.092  23.994  1.00  0.00    -0.460 OA
BRANCH   5   6
ATOM      6  C   UNL A   1      33.811  27.810  24.189  1.00  0.00     0.340 C 
ATOM      7  O   UNL A   1      34.263  28.460  23.228  1.00  0.00    -0.246 OA
BRANCH   6   8
ATOM      8  C   UNL A   1      33.349  28.863  25.207  1.00  0.00     0.083 A 
ATOM      9  C   UNL A   1      32.130  29.470  24.882  1.00  0.00     0.055 A 
ATOM     10  C   UNL A   1      31.548  30.452  25.750  1.00  0.00     0.027 A 
ATOM     11  C   UNL A   1      32.090  30.772  26.993  1.00  0.00     0.002 A 
ATOM     12  C   UNL A   1      34.001  29.476  26.327  1.00  0.00     0.018 A 
ATOM     13  C   UNL A   1      33.345  30.291  27.281  1.00  0.00     0.001 A 
BRANCH   9  14
ATOM     14  N   UNL A   1      31.400  29.242  23.706  1.00  0.00    -0.324 N 
ATOM     15  C   UNL A   1      30.768  28.225  23.045  1.00  0.00     0.244 C 
ATOM     16  O   UNL A   1      30.267  28.687  22.000  1.00  0.00    -0.273 OA
ATOM     17  H   UNL A   1      31.316  30.079  23.194  1.00  0.00     0.170 HD
BRANCH  15  18
ATOM     18  C   UNL A   1      30.321  26.762  23.544  1.00  0.00     0.230 C 
BRANCH  18  19
ATOM     19  N   UNL A   1      30.970  25.434  23.684  1.00  0.00    -0.259 N 
ATOM     20  C   UNL A   1      31.975  21.187  24.843  1.00  0.00     0.029 C 
ATOM     21  C   UNL A   1      31.698  22.419  24.333  1.00  0.00     0.083 C 
ATOM     22  S   UNL A   1      32.239  22.658  22.196  1.00  0.00    -0.022 SA
ATOM     23  C   UNL A   1      31.059  24.185  25.001  1.00  0.00     0.268 C 
ATOM     24  C   UNL A   1      31.620  24.879  22.171  1.00  0.00     0.294 C 
ATOM     25  O   UNL A   1      31.249  24.455  26.201  1.00  0.00    -0.268 OA
ATOM     26  O   UNL A   1      32.269  25.675  21.485  1.00  0.00    -0.261 OA
BRANCH  20  27
ATOM     27  C   UNL A   1      32.382  19.818  24.231  1.00  0.00    -0.021 A 
ATOM     28  C   UNL A   1      32.926  18.472  26.364  1.00  0.00     0.045 C 
ATOM     29  C   UNL A   1      32.928  18.690  24.883  1.00  0.00    -0.044 A 
ATOM     30  C   UNL A   1      33.441  17.582  24.143  1.00  0.00     0.004 A 
ATOM     31  C   UNL A   1      33.299  17.489  22.769  1.00  0.00     0.000 A 
ATOM     32  C   UNL A   1      32.150  19.621  22.843  1.00  0.00     0.008 A 
ATOM     33  C   UNL A   1      32.597  18.489  22.124  1.00  0.00     0.001 A 
ENDBRANCH  20  27
ENDBRANCH  18  19
ENDBRANCH  15  18
ENDBRANCH   9  14
ENDBRANCH   6   8
ENDBRANCH   5   6
ENDBRANCH   4   5
ENDBRANCH   3   4
ENDBRANCH   2   3
ENDBRANCH   1   2
BRANCH   1  34
ATOM     34  C   UNL A   1      37.820  21.732  25.028  1.00  0.00     0.188 C 
BRANCH  34  35
ATOM     35  O   UNL A   1      38.664  22.303  26.039  1.00  0.00    -0.376 OA
BRANCH  35  36
ATOM     36  C   UNL A   1      38.664  23.694  26.365  1.00  0.00     0.202 C 
BRANCH  36  37
ATOM     37  C   UNL A   1      39.595  24.281  27.481  1.00  0.00     0.261 C 
BRANCH  37  38
ATOM     38  O   UNL A   1      40.979  24.574  26.980  1.00  0.00    -0.460 OA
BRANCH  38  39
ATOM     39  C   UNL A   1      41.144  25.656  26.122  1.00  0.00     0.338 C 
ATOM     40  O   UNL A   1      41.737  25.592  25.050  1.00  0.00    -0.246 OA
BRANCH  39  41
ATOM     41  C   UNL A   1      40.828  27.018  26.808  1.00  0.00     0.060 A 
ATOM     42  C   UNL A   1      41.881  27.846  27.206  1.00  0.00     0.016 A 
ATOM     43  C   UNL A   1      39.607  27.332  27.399  1.00  0.00     0.016 A 
ATOM     44  C   UNL A   1      41.742  28.746  28.326  1.00  0.00     0.010 A 
ATOM     45  C   UNL A   1      39.522  28.227  28.537  1.00  0.00     0.010 A 
ATOM     46  C   UNL A   1      40.650  28.769  29.216  1.00  0.00    -0.014 A 
BRANCH  46  47
ATOM     47  C   UNL A   1      40.499  29.275  30.854  1.00  0.00     0.031 A 
ATOM     48  C   UNL A   1      40.255  30.738  30.883  1.00  0.00     0.074 A 
ATOM     49  C   UNL A   1      40.729  28.818  32.224  1.00  0.00     0.049 A 
ATOM     50  N   UNL A   1      40.698  31.530  31.811  1.00  0.00    -0.248 NA
ATOM     51  C   UNL A   1      39.667  31.476  29.762  1.00  0.00     0.031 C 
ATOM     52  C   UNL A   1      40.169  29.233  33.522  1.00  0.00     0.029 A 
ATOM     53  N   UNL A   1      41.484  27.774  32.801  1.00  0.00    -0.354 N 
ATOM     54  C   UNL A   1      39.885  32.622  31.680  1.00  0.00     0.074 A 
ATOM     55  C   UNL A   1      39.662  32.714  30.267  1.00  0.00     0.031 C 
ATOM     56  C   UNL A   1      40.642  28.495  34.585  1.00  0.00     0.029 A 
ATOM     57  C   UNL A   1      41.594  27.469  34.147  1.00  0.00     0.049 A 
ATOM     58  H   UNL A   1      41.986  27.200  32.178  1.00  0.00     0.167 HD
ATOM     59  C   UNL A   1      39.084  32.933  32.743  1.00  0.00     0.037 A 
ATOM     60  C   UNL A   1      42.660  26.809  34.776  1.00  0.00     0.037 A 
ATOM     61  C   UNL A   1      39.633  32.431  34.047  1.00  0.00     0.049 A 
ATOM     62  C   UNL A   1      43.344  28.016  35.368  1.00  0.00     0.074 A 
ATOM     63  C   UNL A   1      39.057  31.914  35.198  1.00  0.00     0.029 A 
ATOM     64  N   UNL A   1      41.032  32.228  34.239  1.00  0.00    -0.354 N 
ATOM     65  N   UNL A   1      43.106  29.215  34.891  1.00  0.00    -0.248 NA
ATOM     66  C   UNL A   1      44.117  28.046  36.601  1.00  0.00     0.031 C 
ATOM     67  C   UNL A   1      40.077  31.306  35.995  1.00  0.00     0.029 A 
ATOM     68  C   UNL A   1      41.317  31.501  35.392  1.00  0.00     0.049 A 
ATOM     69  H   UNL A   1      41.721  32.565  33.622  1.00  0.00     0.167 HD
ATOM     70  C   UNL A   1      43.306  30.109  35.883  1.00  0.00     0.074 A 
ATOM     71  C   UNL A   1      44.094  29.369  36.868  1.00  0.00     0.031 C 
ATOM     72  C   UNL A   1      42.683  31.324  35.935  1.00  0.00     0.037 A 
BRANCH  59  73
ATOM     73  C   UNL A   1      37.635  33.450  32.486  1.00  0.00     0.058 A 
ATOM     74  C   UNL A   1      37.152  34.617  33.105  1.00  0.00     0.135 A 
ATOM     75  C   UNL A   1      36.643  32.811  31.677  1.00  0.00     0.135 A 
ATOM     76  F   UNL A   1      37.920  35.306  33.959  1.00  0.00    -0.206 F 
ATOM     77  C   UNL A   1      35.857  35.132  32.885  1.00  0.00     0.059 A 
ATOM     78  C   UNL A   1      35.392  33.348  31.372  1.00  0.00     0.059 A 
ATOM     79  F   UNL A   1      36.773  31.579  31.176  1.00  0.00    -0.206 F 
ATOM     80  C   UNL A   1      34.997  34.513  31.985  1.00  0.00     0.060 A 
BRANCH  80  81
ATOM     81  S   UNL A   1      33.387  35.221  31.588  1.00  0.00     0.124 S 
ATOM     82  O   UNL A   1      33.184  34.753  30.222  1.00  0.00    -0.237 OA
ATOM     83  O   UNL A   1      32.528  34.627  32.605  1.00  0.00    -0.237 OA
ATOM     84  O   UNL A   1      33.605  36.659  31.729  1.00  0.00    -0.744 OA
ENDBRANCH  80  81
ENDBRANCH  59  73
BRANCH  60  85
ATOM     85  C   UNL A   1      43.399  25.382  34.488  1.00  0.00     0.058 A 
ATOM     86  C   UNL A   1      44.740  25.326  34.000  1.00  0.00     0.135 A 
ATOM     87  C   UNL A   1      42.970  24.081  34.862  1.00  0.00     0.135 A 
ATOM     88  F   UNL A   1      45.279  26.426  33.447  1.00  0.00    -0.206 F 
ATOM     89  C   UNL A   1      45.653  24.215  34.212  1.00  0.00     0.059 A 
ATOM     90  C   UNL A   1      43.866  22.961  35.102  1.00  0.00     0.059 A 
ATOM     91  F   UNL A   1      41.673  23.869  35.138  1.00  0.00    -0.206 F 
ATOM     92  C   UNL A   1      45.237  23.072  34.886  1.00  0.00     0.060 A 
BRANCH  92  93
ATOM     93  S   UNL A   1      46.477  21.876  35.600  1.00  0.00     0.124 S 
ATOM     94  O   UNL A   1      47.159  21.364  34.418  1.00  0.00    -0.237 OA
ATOM     95  O   UNL A   1      47.296  22.699  36.489  1.00  0.00    -0.237 OA
ATOM     96  O   UNL A   1      45.688  20.885  36.315  1.00  0.00    -0.744 OA
ENDBRANCH  92  93
ENDBRANCH  60  85
BRANCH  72  97
ATOM     97  C   UNL A   1      43.269  32.457  36.706  1.00  0.00     0.058 A 
ATOM     98  C   UNL A   1      44.135  33.400  36.127  1.00  0.00     0.135 A 
ATOM     99  C   UNL A   1      42.778  32.754  37.994  1.00  0.00     0.135 A 
ATOM    100  F   UNL A   1      44.598  33.265  34.875  1.00  0.00    -0.206 F 
ATOM    101  C   UNL A   1      44.513  34.551  36.803  1.00  0.00     0.059 A 
ATOM    102  C   UNL A   1      43.086  33.924  38.651  1.00  0.00     0.059 A 
ATOM    103  F   UNL A   1      41.947  31.942  38.658  1.00  0.00    -0.206 F 
ATOM    104  C   UNL A   1      43.963  34.810  38.054  1.00  0.00     0.060 A 
BRANCH 104 105
ATOM    105  S   UNL A   1      44.330  36.351  38.885  1.00  0.00     0.124 S 
ATOM    106  O   UNL A   1      45.783  36.396  38.768  1.00  0.00    -0.237 OA
ATOM    107  O   UNL A   1      43.594  37.324  38.084  1.00  0.00    -0.237 OA
ATOM    108  O   UNL A   1      43.807  36.135  40.231  1.00  0.00    -0.744 OA
ENDBRANCH 104 105
ENDBRANCH  72  97
ENDBRANCH  46  47
ENDBRANCH  39  41
ENDBRANCH  38  39
ENDBRANCH  37  38
ENDBRANCH  36  37
ENDBRANCH  35  36
ENDBRANCH  34  35
ENDBRANCH   1  34
TORSDOF 24
ENDMDL
MODEL 3
REMARK VINA RESULT:     -10.3      4.820     11.759
REMARK SMILES Cc1ccccc1/C=C1\SC(=O)N(CC(=O)Nc2ccccc2C(=O)OCCOCCOCCOC(=O)c2ccc(-c3c4nc(c(-c5c(F)cc(S(=O)(=O)[O-])cc5F)c5ccc([nH]5)c(-c5c(F)cc(S(=O)(=O)[O-])cc5F)c5nc(c(-c6c(F)cc(S(=O)(=O)[O-])cc6F)c6ccc3[nH]6)C=C5)C=C4)cc2)C1=O
REMARK SMILES IDX 30 1 29 2 28 3 27 4 26 5 24 6 25 7 23 8 18 9 19 10 20 11
REMARK SMILES IDX 22 12 21 13 17 14 15 15 16 16 14 18 13 19 8 20 9 21 10 22
REMARK SMILES IDX 104 23 11 24 105 25 12 26 7 27 1 28 2 29 3 30 4 31 6 32 5 33
REMARK SMILES IDX 31 34 32 35 33 36 34 37 35 38 36 39 37 40 38 41 39 42 103 43
REMARK SMILES IDX 40 44 102 45 41 46 42 47 43 48 96 49 44 50 101 51 95 52
REMARK SMILES IDX 97 53 45 54 100 55 94 56 93 57 46 59 80 60 59 61 79 62 60 63
REMARK SMILES IDX 63 64 78 65 98 66 61 67 62 68 77 70 99 71 64 72 47 73 48 74
REMARK SMILES IDX 57 75 49 76 50 77 56 78 58 79 51 80 52 81 53 82 54 83 55 84
REMARK SMILES IDX 81 85 82 86 91 87 83 88 84 89 90 90 92 91 85 92 86 93 87 94
REMARK SMILES IDX 88 95 89 96 65 97 66 98 75 99 67 100 68 101 74 102 76 103
REMARK SMILES IDX 69 104 70 105 71 106 72 107 73 108
REMARK H PARENT 17 17 97 58 63 69
REMARK Flexibility Score: inf
ROOT
ATOM      1  C   UNL A   1      39.499  23.461  26.559  1.00  0.00     0.188 C 
ENDROOT
BRANCH   1   2
ATOM      2  O   UNL A   1      38.153  23.920  26.778  1.00  0.00    -0.376 OA
BRANCH   2   3
ATOM      3  C   UNL A   1      37.239  23.719  25.678  1.00  0.00     0.202 C 
BRANCH   3   4
ATOM      4  C   UNL A   1      35.689  23.148  26.125  1.00  0.00     0.261 C 
BRANCH   4   5
ATOM      5  O   UNL A   1      33.838  23.848  25.960  1.00  0.00    -0.460 OA
BRANCH   5   6
ATOM      6  C   UNL A   1      32.933  25.168  25.217  1.00  0.00     0.340 C 
ATOM      7  O   UNL A   1      31.708  24.985  25.346  1.00  0.00    -0.246 OA
BRANCH   6   8
ATOM      8  C   UNL A   1      33.064  26.367  24.266  1.00  0.00     0.083 A 
ATOM      9  C   UNL A   1      32.615  27.575  24.812  1.00  0.00     0.055 A 
ATOM     10  C   UNL A   1      32.701  28.793  24.060  1.00  0.00     0.027 A 
ATOM     11  C   UNL A   1      33.325  28.866  22.816  1.00  0.00     0.002 A 
ATOM     12  C   UNL A   1      33.387  26.464  22.873  1.00  0.00     0.018 A 
ATOM     13  C   UNL A   1      33.658  27.682  22.203  1.00  0.00     0.001 A 
BRANCH   9  14
ATOM     14  N   UNL A   1      32.010  27.722  26.069  1.00  0.00    -0.324 N 
ATOM     15  C   UNL A   1      31.942  28.616  27.101  1.00  0.00     0.244 C 
ATOM     16  O   UNL A   1      31.187  28.149  27.976  1.00  0.00    -0.273 OA
ATOM     17  H   UNL A   1      31.460  26.931  26.273  1.00  0.00     0.170 HD
BRANCH  15  18
ATOM     18  C   UNL A   1      32.363  30.167  27.181  1.00  0.00     0.230 C 
BRANCH  18  19
ATOM     19  N   UNL A   1      33.587  30.927  27.543  1.00  0.00    -0.259 N 
ATOM     20  C   UNL A   1      36.544  33.741  29.473  1.00  0.00     0.029 C 
ATOM     21  C   UNL A   1      35.769  32.771  28.913  1.00  0.00     0.083 C 
ATOM     22  S   UNL A   1      36.852  30.887  28.475  1.00  0.00    -0.022 SA
ATOM     23  C   UNL A   1      33.913  32.586  28.210  1.00  0.00     0.268 C 
ATOM     24  C   UNL A   1      35.000  29.916  27.502  1.00  0.00     0.294 C 
ATOM     25  O   UNL A   1      33.335  33.616  27.819  1.00  0.00    -0.268 OA
ATOM     26  O   UNL A   1      35.155  29.165  26.535  1.00  0.00    -0.261 OA
BRANCH  20  27
ATOM     27  C   UNL A   1      37.969  33.779  30.091  1.00  0.00    -0.021 A 
ATOM     28  C   UNL A   1      37.703  32.108  32.038  1.00  0.00     0.045 C 
ATOM     29  C   UNL A   1      38.428  33.179  31.285  1.00  0.00    -0.044 A 
ATOM     30  C   UNL A   1      39.715  33.483  31.820  1.00  0.00     0.004 A 
ATOM     31  C   UNL A   1      40.633  34.258  31.130  1.00  0.00     0.000 A 
ATOM     32  C   UNL A   1      38.983  34.462  29.367  1.00  0.00     0.008 A 
ATOM     33  C   UNL A   1      40.283  34.702  29.870  1.00  0.00     0.001 A 
ENDBRANCH  20  27
ENDBRANCH  18  19
ENDBRANCH  15  18
ENDBRANCH   9  14
ENDBRANCH   6   8
ENDBRANCH   5   6
ENDBRANCH   4   5
ENDBRANCH   3   4
ENDBRANCH   2   3
ENDBRANCH   1   2
BRANCH   1  34
ATOM     34  C   UNL A   1      39.597  21.882  26.527  1.00  0.00     0.188 C 
BRANCH  34  35
ATOM     35  O   UNL A   1      40.528  21.410  27.513  1.00  0.00    -0.376 OA
BRANCH  35  36
ATOM     36  C   UNL A   1      41.894  21.110  27.219  1.00  0.00     0.202 C 
BRANCH  36  37
ATOM     37  C   UNL A   1      42.498  21.327  25.789  1.00  0.00     0.261 C 
BRANCH  37  38
ATOM     38  O   UNL A   1      43.237  22.627  25.668  1.00  0.00    -0.460 OA
BRANCH  38  39
ATOM     39  C   UNL A   1      44.625  22.582  25.593  1.00  0.00     0.338 C 
ATOM     40  O   UNL A   1      45.263  21.559  25.368  1.00  0.00    -0.246 OA
BRANCH  39  41
ATOM     41  C   UNL A   1      45.298  23.860  26.175  1.00  0.00     0.060 A 
ATOM     42  C   UNL A   1      46.447  23.734  26.959  1.00  0.00     0.016 A 
ATOM     43  C   UNL A   1      44.661  25.092  26.298  1.00  0.00     0.016 A 
ATOM     44  C   UNL A   1      46.759  24.696  27.989  1.00  0.00     0.010 A 
ATOM     45  C   UNL A   1      44.996  26.017  27.365  1.00  0.00     0.010 A 
ATOM     46  C   UNL A   1      45.898  25.723  28.426  1.00  0.00    -0.014 A 
BRANCH  46  47
ATOM     47  C   UNL A   1      45.766  26.568  29.919  1.00  0.00     0.031 A 
ATOM     48  C   UNL A   1      44.996  25.735  30.875  1.00  0.00     0.074 A 
ATOM     49  C   UNL A   1      45.962  27.890  30.514  1.00  0.00     0.049 A 
ATOM     50  N   UNL A   1      44.191  26.215  31.774  1.00  0.00    -0.248 NA
ATOM     51  C   UNL A   1      44.899  24.276  30.772  1.00  0.00     0.031 C 
ATOM     52  C   UNL A   1      46.180  28.338  31.899  1.00  0.00     0.029 A 
ATOM     53  N   UNL A   1      46.104  29.193  29.991  1.00  0.00    -0.354 N 
ATOM     54  C   UNL A   1      44.085  25.178  32.659  1.00  0.00     0.074 A 
ATOM     55  C   UNL A   1      44.120  24.013  31.825  1.00  0.00     0.031 C 
ATOM     56  C   UNL A   1      46.361  29.700  32.013  1.00  0.00     0.029 A 
ATOM     57  C   UNL A   1      46.290  30.363  30.708  1.00  0.00     0.049 A 
ATOM     58  H   UNL A   1      46.068  29.280  29.011  1.00  0.00     0.167 HD
ATOM     59  C   UNL A   1      44.541  25.395  33.928  1.00  0.00     0.037 A 
ATOM     60  C   UNL A   1      45.948  31.662  30.301  1.00  0.00     0.037 A 
ATOM     61  C   UNL A   1      44.522  26.847  34.311  1.00  0.00     0.049 A 
ATOM     62  C   UNL A   1      44.674  31.811  31.094  1.00  0.00     0.074 A 
ATOM     63  C   UNL A   1      45.354  27.651  35.074  1.00  0.00     0.029 A 
ATOM     64  N   UNL A   1      43.609  27.764  33.711  1.00  0.00    -0.354 N 
ATOM     65  N   UNL A   1      44.045  30.751  31.545  1.00  0.00    -0.248 NA
ATOM     66  C   UNL A   1      44.134  33.052  31.628  1.00  0.00     0.031 C 
ATOM     67  C   UNL A   1      45.023  29.022  34.835  1.00  0.00     0.029 A 
ATOM     68  C   UNL A   1      43.928  29.092  33.977  1.00  0.00     0.049 A 
ATOM     69  H   UNL A   1      42.836  27.486  33.168  1.00  0.00     0.167 HD
ATOM     70  C   UNL A   1      43.361  31.107  32.652  1.00  0.00     0.074 A 
ATOM     71  C   UNL A   1      43.301  32.567  32.572  1.00  0.00     0.031 C 
ATOM     72  C   UNL A   1      43.040  30.232  33.651  1.00  0.00     0.037 A 
BRANCH  59  73
ATOM     73  C   UNL A   1      45.284  24.249  34.682  1.00  0.00     0.058 A 
ATOM     74  C   UNL A   1      44.688  23.577  35.765  1.00  0.00     0.135 A 
ATOM     75  C   UNL A   1      46.616  23.794  34.424  1.00  0.00     0.135 A 
ATOM     76  F   UNL A   1      43.469  23.923  36.198  1.00  0.00    -0.206 F 
ATOM     77  C   UNL A   1      45.315  22.522  36.461  1.00  0.00     0.059 A 
ATOM     78  C   UNL A   1      47.219  22.695  35.036  1.00  0.00     0.059 A 
ATOM     79  F   UNL A   1      47.471  24.423  33.612  1.00  0.00    -0.206 F 
ATOM     80  C   UNL A   1      46.565  22.060  36.064  1.00  0.00     0.060 A 
BRANCH  80  81
ATOM     81  S   UNL A   1      47.331  20.631  36.852  1.00  0.00     0.124 S 
ATOM     82  O   UNL A   1      47.561  21.123  38.206  1.00  0.00    -0.237 OA
ATOM     83  O   UNL A   1      46.303  19.608  36.706  1.00  0.00    -0.237 OA
ATOM     84  O   UNL A   1      48.537  20.410  36.055  1.00  0.00    -0.744 OA
ENDBRANCH  80  81
ENDBRANCH  59  73
BRANCH  60  85
ATOM     85  C   UNL A   1      46.308  32.532  28.967  1.00  0.00     0.058 A 
ATOM     86  C   UNL A   1      46.718  33.896  29.059  1.00  0.00     0.135 A 
ATOM     87  C   UNL A   1      46.490  32.065  27.638  1.00  0.00     0.135 A 
ATOM     88  F   UNL A   1      46.480  34.574  30.196  1.00  0.00    -0.206 F 
ATOM     89  C   UNL A   1      47.547  34.580  28.079  1.00  0.00     0.059 A 
ATOM     90  C   UNL A   1      47.331  32.720  26.648  1.00  0.00     0.059 A 
ATOM     91  F   UNL A   1      45.964  30.883  27.277  1.00  0.00    -0.206 F 
ATOM     92  C   UNL A   1      47.960  33.932  26.921  1.00  0.00     0.060 A 
BRANCH  92  93
ATOM     93  S   UNL A   1      49.391  34.581  25.918  1.00  0.00     0.124 S 
ATOM     94  O   UNL A   1      49.899  33.387  25.257  1.00  0.00    -0.237 OA
ATOM     95  O   UNL A   1      48.785  35.576  25.035  1.00  0.00    -0.237 OA
ATOM     96  O   UNL A   1      50.305  35.168  26.887  1.00  0.00    -0.744 OA
ENDBRANCH  92  93
ENDBRANCH  60  85
BRANCH  72  97
ATOM     97  C   UNL A   1      41.896  30.498  34.569  1.00  0.00     0.058 A 
ATOM     98  C   UNL A   1      41.981  31.396  35.646  1.00  0.00     0.135 A 
ATOM     99  C   UNL A   1      40.609  30.027  34.236  1.00  0.00     0.135 A 
ATOM    100  F   UNL A   1      43.140  31.973  36.000  1.00  0.00    -0.206 F 
ATOM    101  C   UNL A   1      40.859  31.777  36.366  1.00  0.00     0.059 A 
ATOM    102  C   UNL A   1      39.475  30.448  34.894  1.00  0.00     0.059 A 
ATOM    103  F   UNL A   1      40.388  29.169  33.234  1.00  0.00    -0.206 F 
ATOM    104  C   UNL A   1      39.610  31.312  35.965  1.00  0.00     0.060 A 
BRANCH 104 105
ATOM    105  S   UNL A   1      38.136  31.895  36.792  1.00  0.00     0.124 S 
ATOM    106  O   UNL A   1      37.369  32.418  35.667  1.00  0.00    -0.237 OA
ATOM    107  O   UNL A   1      37.616  30.678  37.407  1.00  0.00    -0.237 OA
ATOM    108  O   UNL A   1      38.651  32.890  37.728  1.00  0.00    -0.744 OA
ENDBRANCH 104 105
ENDBRANCH  72  97
ENDBRANCH  46  47
ENDBRANCH  39  41
ENDBRANCH  38  39
ENDBRANCH  37  38
ENDBRANCH  36  37
ENDBRANCH  35  36
ENDBRANCH  34  35
ENDBRANCH   1  34
TORSDOF 24
ENDMDL
