MODEL 1
REMARK VINA RESULT:     -10.7      0.000      0.000
REMARK SMILES O=C(OCCOCCOCCOC(=O)[C@H]1C[C@](O)(c2ccc(Cl)cc2)[C@@H](c2ccc(Cl)cc2)O1)c1ccc(-c2c3nc(c(-c4c(F)cc(S(=O)(=O)[O-])cc4F)c4ccc([nH]4)c(-c4c(F)cc(S(=O)(=O)[O-])cc4F)c4nc(c(-c5c(F)cc(S(=O)(=O)[O-])cc5F)c5ccc2[nH]5)C=C4)C=C3)cc1
REMARK SMILES IDX 7 1 6 2 5 3 4 4 3 5 2 6 1 7 35 8 36 9 100 10 37 11 99 12
REMARK SMILES IDX 38 13 39 14 40 15 93 16 41 17 98 18 92 19 94 20 42 21 97 22
REMARK SMILES IDX 91 23 90 24 43 26 77 27 56 28 76 29 57 30 60 31 75 32 95 33
REMARK SMILES IDX 58 34 59 35 74 37 96 38 61 39 44 40 45 41 54 42 46 43 47 44
REMARK SMILES IDX 53 45 55 46 48 47 49 48 50 49 51 50 52 51 78 52 79 53 88 54
REMARK SMILES IDX 80 55 81 56 87 57 89 58 82 59 83 60 84 61 85 62 86 63 62 64
REMARK SMILES IDX 63 65 72 66 64 67 65 68 71 69 73 70 66 71 67 72 68 73 69 74
REMARK SMILES IDX 70 75 8 76 9 77 10 78 11 79 12 80 13 81 14 82 15 83 16 84
REMARK SMILES IDX 34 85 17 86 26 87 19 88 20 89 25 90 21 91 24 92 22 93 23 94
REMARK SMILES IDX 18 95 27 97 28 98 33 99 29 100 32 101 30 102 31 103
REMARK H PARENT 94 25 60 36 18 96
REMARK Flexibility Score: inf
ROOT
ATOM      1  C   UNL A   1      42.286  21.612  27.591  1.00  0.00     0.188 C 
ENDROOT
BRANCH   1   2
ATOM      2  O   UNL A   1      43.161  21.939  26.510  1.00  0.00    -0.376 OA
BRANCH   2   3
ATOM      3  C   UNL A   1      43.749  23.239  26.576  1.00  0.00     0.202 C 
BRANCH   3   4
ATOM      4  C   UNL A   1      43.737  24.061  25.275  1.00  0.00     0.261 C 
BRANCH   4   5
ATOM      5  O   UNL A   1      43.369  25.440  25.459  1.00  0.00    -0.460 OA
BRANCH   5   6
ATOM      6  C   UNL A   1      42.199  25.916  25.962  1.00  0.00     0.338 C 
ATOM      7  O   UNL A   1      41.154  25.720  25.346  1.00  0.00    -0.246 OA
BRANCH   6   8
ATOM      8  C   UNL A   1      42.137  26.668  27.249  1.00  0.00     0.060 A 
ATOM      9  C   UNL A   1      41.281  26.326  28.290  1.00  0.00     0.016 A 
ATOM     10  C   UNL A   1      43.025  27.735  27.453  1.00  0.00     0.016 A 
ATOM     11  C   UNL A   1      41.167  27.112  29.423  1.00  0.00     0.010 A 
ATOM     12  C   UNL A   1      42.989  28.477  28.643  1.00  0.00     0.010 A 
ATOM     13  C   UNL A   1      42.017  28.198  29.612  1.00  0.00    -0.014 A 
BRANCH  13  14
ATOM     14  C   UNL A   1      41.751  29.072  30.776  1.00  0.00     0.031 A 
ATOM     15  C   UNL A   1      40.544  29.965  30.740  1.00  0.00     0.074 A 
ATOM     16  C   UNL A   1      42.472  28.914  31.904  1.00  0.00     0.049 A 
ATOM     17  N   UNL A   1      40.104  30.795  31.647  1.00  0.00    -0.248 NA
ATOM     18  C   UNL A   1      39.712  29.909  29.526  1.00  0.00     0.031 C 
ATOM     19  C   UNL A   1      43.601  27.988  32.060  1.00  0.00     0.029 A 
ATOM     20  N   UNL A   1      42.338  29.480  33.144  1.00  0.00    -0.354 N 
ATOM     21  C   UNL A   1      38.961  31.373  31.106  1.00  0.00     0.074 A 
ATOM     22  C   UNL A   1      38.785  30.817  29.784  1.00  0.00     0.031 C 
ATOM     23  C   UNL A   1      44.021  28.017  33.334  1.00  0.00     0.029 A 
ATOM     24  C   UNL A   1      43.253  29.019  34.063  1.00  0.00     0.049 A 
ATOM     25  H   UNL A   1      41.653  30.153  33.357  1.00  0.00     0.167 HD
ATOM     26  C   UNL A   1      38.131  32.279  31.670  1.00  0.00     0.037 A 
ATOM     27  C   UNL A   1      43.464  29.393  35.339  1.00  0.00     0.037 A 
ATOM     28  C   UNL A   1      38.327  32.810  32.991  1.00  0.00     0.049 A 
ATOM     29  C   UNL A   1      42.573  30.461  35.916  1.00  0.00     0.074 A 
ATOM     30  C   UNL A   1      37.617  33.802  33.641  1.00  0.00     0.029 A 
ATOM     31  N   UNL A   1      39.307  32.373  33.872  1.00  0.00    -0.354 N 
ATOM     32  N   UNL A   1      41.553  31.070  35.356  1.00  0.00    -0.248 NA
ATOM     33  C   UNL A   1      42.867  30.905  37.283  1.00  0.00     0.031 C 
ATOM     34  C   UNL A   1      38.188  33.985  34.905  1.00  0.00     0.029 A 
ATOM     35  C   UNL A   1      39.225  33.076  35.059  1.00  0.00     0.049 A 
ATOM     36  H   UNL A   1      39.966  31.666  33.678  1.00  0.00     0.167 HD
ATOM     37  C   UNL A   1      41.082  31.970  36.304  1.00  0.00     0.074 A 
ATOM     38  C   UNL A   1      41.907  31.797  37.484  1.00  0.00     0.031 C 
ATOM     39  C   UNL A   1      40.068  32.868  36.210  1.00  0.00     0.037 A 
BRANCH  26  40
ATOM     40  C   UNL A   1      36.986  32.775  30.834  1.00  0.00     0.058 A 
ATOM     41  C   UNL A   1      37.135  33.836  29.926  1.00  0.00     0.135 A 
ATOM     42  C   UNL A   1      35.712  32.199  30.964  1.00  0.00     0.135 A 
ATOM     43  F   UNL A   1      38.323  34.445  29.788  1.00  0.00    -0.206 F 
ATOM     44  C   UNL A   1      36.056  34.324  29.195  1.00  0.00     0.059 A 
ATOM     45  C   UNL A   1      34.623  32.657  30.226  1.00  0.00     0.059 A 
ATOM     46  F   UNL A   1      35.510  31.193  31.828  1.00  0.00    -0.206 F 
ATOM     47  C   UNL A   1      34.802  33.730  29.355  1.00  0.00     0.060 A 
BRANCH  47  48
ATOM     48  S   UNL A   1      33.409  34.388  28.414  1.00  0.00     0.124 S 
ATOM     49  O   UNL A   1      32.530  34.854  29.481  1.00  0.00    -0.237 OA
ATOM     50  O   UNL A   1      34.039  35.430  27.611  1.00  0.00    -0.237 OA
ATOM     51  O   UNL A   1      32.928  33.230  27.666  1.00  0.00    -0.744 OA
ENDBRANCH  47  48
ENDBRANCH  26  40
BRANCH  27  52
ATOM     52  C   UNL A   1      44.599  28.819  36.117  1.00  0.00     0.058 A 
ATOM     53  C   UNL A   1      45.888  29.369  36.065  1.00  0.00     0.135 A 
ATOM     54  C   UNL A   1      44.409  27.688  36.928  1.00  0.00     0.135 A 
ATOM     55  F   UNL A   1      46.129  30.446  35.302  1.00  0.00    -0.206 F 
ATOM     56  C   UNL A   1      46.951  28.806  36.770  1.00  0.00     0.059 A 
ATOM     57  C   UNL A   1      45.445  27.128  37.666  1.00  0.00     0.059 A 
ATOM     58  F   UNL A   1      43.193  27.126  37.029  1.00  0.00    -0.206 F 
ATOM     59  C   UNL A   1      46.718  27.683  37.567  1.00  0.00     0.060 A 
BRANCH  59  60
ATOM     60  S   UNL A   1      48.084  26.967  38.507  1.00  0.00     0.124 S 
ATOM     61  O   UNL A   1      47.581  27.065  39.871  1.00  0.00    -0.237 OA
ATOM     62  O   UNL A   1      48.172  25.621  37.951  1.00  0.00    -0.237 OA
ATOM     63  O   UNL A   1      49.205  27.845  38.177  1.00  0.00    -0.744 OA
ENDBRANCH  59  60
ENDBRANCH  27  52
BRANCH  39  64
ATOM     64  C   UNL A   1      39.799  33.708  37.423  1.00  0.00     0.058 A 
ATOM     65  C   UNL A   1      38.885  33.300  38.407  1.00  0.00     0.135 A 
ATOM     66  C   UNL A   1      40.491  34.913  37.618  1.00  0.00     0.135 A 
ATOM     67  F   UNL A   1      38.197  32.157  38.260  1.00  0.00    -0.206 F 
ATOM     68  C   UNL A   1      38.643  34.077  39.533  1.00  0.00     0.059 A 
ATOM     69  C   UNL A   1      40.284  35.692  38.750  1.00  0.00     0.059 A 
ATOM     70  F   UNL A   1      41.383  35.336  36.710  1.00  0.00    -0.206 F 
ATOM     71  C   UNL A   1      39.346  35.273  39.694  1.00  0.00     0.060 A 
BRANCH  71  72
ATOM     72  S   UNL A   1      39.038  36.266  41.169  1.00  0.00     0.124 S 
ATOM     73  O   UNL A   1      38.758  37.574  40.586  1.00  0.00    -0.237 OA
ATOM     74  O   UNL A   1      37.897  35.584  41.773  1.00  0.00    -0.237 OA
ATOM     75  O   UNL A   1      40.289  36.162  41.913  1.00  0.00    -0.744 OA
ENDBRANCH  71  72
ENDBRANCH  39  64
ENDBRANCH  13  14
ENDBRANCH   6   8
ENDBRANCH   5   6
ENDBRANCH   4   5
ENDBRANCH   3   4
ENDBRANCH   2   3
ENDBRANCH   1   2
BRANCH   1  76
ATOM     76  C   UNL A   1      41.132  22.617  27.709  1.00  0.00     0.188 C 
BRANCH  76  77
ATOM     77  O   UNL A   1      40.217  22.669  26.612  1.00  0.00    -0.376 OA
BRANCH  77  78
ATOM     78  C   UNL A   1      39.797  21.426  26.056  1.00  0.00     0.202 C 
BRANCH  78  79
ATOM     79  C   UNL A   1      38.407  21.357  25.401  1.00  0.00     0.261 C 
BRANCH  79  80
ATOM     80  O   UNL A   1      37.450  22.269  25.956  1.00  0.00    -0.461 OA
BRANCH  80  81
ATOM     81  C   UNL A   1      36.679  22.944  25.053  1.00  0.00     0.335 C 
ATOM     82  O   UNL A   1      36.958  23.077  23.869  1.00  0.00    -0.249 OA
BRANCH  81  83
ATOM     83  C   UNL A   1      35.426  23.517  25.738  1.00  0.00     0.232 C 
ATOM     84  C   UNL A   1      34.672  24.484  24.848  1.00  0.00     0.087 C 
ATOM     85  O   UNL A   1      34.477  22.549  26.174  1.00  0.00    -0.355 OA
ATOM     86  C   UNL A   1      33.520  23.676  24.232  1.00  0.00     0.123 C 
ATOM     87  C   UNL A   1      33.458  22.399  25.151  1.00  0.00     0.186 C 
BRANCH  86  88
ATOM     88  C   UNL A   1      32.285  24.588  24.120  1.00  0.00    -0.013 A 
ATOM     89  C   UNL A   1      31.178  24.116  23.371  1.00  0.00     0.008 A 
ATOM     90  C   UNL A   1      32.166  25.853  24.711  1.00  0.00     0.008 A 
ATOM     91  C   UNL A   1      30.006  24.866  23.229  1.00  0.00     0.021 A 
ATOM     92  C   UNL A   1      30.992  26.608  24.568  1.00  0.00     0.021 A 
ATOM     93  C   UNL A   1      29.917  26.110  23.834  1.00  0.00     0.041 A 
ATOM     94  Cl  UNL A   1      28.476  27.040  23.698  1.00  0.00    -0.084 Cl
ENDBRANCH  86  88
BRANCH  86  95
ATOM     95  O   UNL A   1      33.867  23.344  22.887  1.00  0.00    -0.382 OA
ATOM     96  H   UNL A   1      34.785  23.030  22.857  1.00  0.00     0.212 HD
ENDBRANCH  86  95
BRANCH  87  97
ATOM     97  C   UNL A   1      33.649  20.979  24.620  1.00  0.00    -0.016 A 
ATOM     98  C   UNL A   1      34.745  20.167  24.952  1.00  0.00     0.008 A 
ATOM     99  C   UNL A   1      32.594  20.378  23.906  1.00  0.00     0.008 A 
ATOM    100  C   UNL A   1      34.769  18.804  24.638  1.00  0.00     0.021 A 
ATOM    101  C   UNL A   1      32.619  19.016  23.579  1.00  0.00     0.021 A 
ATOM    102  C   UNL A   1      33.698  18.230  23.967  1.00  0.00     0.041 A 
ATOM    103  Cl  UNL A   1      33.694  16.540  23.643  1.00  0.00    -0.084 Cl
ENDBRANCH  87  97
ENDBRANCH  81  83
ENDBRANCH  80  81
ENDBRANCH  79  80
ENDBRANCH  78  79
ENDBRANCH  77  78
ENDBRANCH  76  77
ENDBRANCH   1  76
TORSDOF 23
ENDMDL
MODEL 2
REMARK VINA RESULT:     -10.7      1.245      8.098
REMARK SMILES O=C(OCCOCCOCCOC(=O)[C@H]1C[C@](O)(c2ccc(Cl)cc2)[C@@H](c2ccc(Cl)cc2)O1)c1ccc(-c2c3nc(c(-c4c(F)cc(S(=O)(=O)[O-])cc4F)c4ccc([nH]4)c(-c4c(F)cc(S(=O)(=O)[O-])cc4F)c4nc(c(-c5c(F)cc(S(=O)(=O)[O-])cc5F)c5ccc2[nH]5)C=C4)C=C3)cc1
REMARK SMILES IDX 7 1 6 2 5 3 4 4 3 5 2 6 1 7 35 8 36 9 100 10 37 11 99 12
REMARK SMILES IDX 38 13 39 14 40 15 93 16 41 17 98 18 92 19 94 20 42 21 97 22
REMARK SMILES IDX 91 23 90 24 43 26 77 27 56 28 76 29 57 30 60 31 75 32 95 33
REMARK SMILES IDX 58 34 59 35 74 37 96 38 61 39 44 40 45 41 54 42 46 43 47 44
REMARK SMILES IDX 53 45 55 46 48 47 49 48 50 49 51 50 52 51 78 52 79 53 88 54
REMARK SMILES IDX 80 55 81 56 87 57 89 58 82 59 83 60 84 61 85 62 86 63 62 64
REMARK SMILES IDX 63 65 72 66 64 67 65 68 71 69 73 70 66 71 67 72 68 73 69 74
REMARK SMILES IDX 70 75 8 76 9 77 10 78 11 79 12 80 13 81 14 82 15 83 16 84
REMARK SMILES IDX 34 85 17 86 26 87 19 88 20 89 25 90 21 91 24 92 22 93 23 94
REMARK SMILES IDX 18 95 27 97 28 98 33 99 29 100 32 101 30 102 31 103
REMARK H PARENT 94 25 60 36 18 96
REMARK Flexibility Score: inf
ROOT
ATOM      1  C   UNL A   1      40.404  20.803  26.682  1.00  0.00     0.188 C 
ENDROOT
BRANCH   1   2
ATOM      2  O   UNL A   1      41.521  20.809  25.792  1.00  0.00    -0.376 OA
BRANCH   2   3
ATOM      3  C   UNL A   1      42.717  21.383  26.321  1.00  0.00     0.202 C 
BRANCH   3   4
ATOM      4  C   UNL A   1      43.166  22.718  25.700  1.00  0.00     0.261 C 
BRANCH   4   5
ATOM      5  O   UNL A   1      42.235  23.798  25.899  1.00  0.00    -0.460 OA
BRANCH   5   6
ATOM      6  C   UNL A   1      42.514  25.129  25.912  1.00  0.00     0.338 C 
ATOM      7  O   UNL A   1      43.177  25.614  24.997  1.00  0.00    -0.246 OA
BRANCH   6   8
ATOM      8  C   UNL A   1      42.037  26.029  27.001  1.00  0.00     0.060 A 
ATOM      9  C   UNL A   1      42.375  27.376  27.079  1.00  0.00     0.016 A 
ATOM     10  C   UNL A   1      41.153  25.518  27.963  1.00  0.00     0.016 A 
ATOM     11  C   UNL A   1      42.010  28.154  28.162  1.00  0.00     0.010 A 
ATOM     12  C   UNL A   1      40.692  26.327  29.012  1.00  0.00     0.010 A 
ATOM     13  C   UNL A   1      41.166  27.639  29.143  1.00  0.00    -0.014 A 
BRANCH  13  14
ATOM     14  C   UNL A   1      40.926  28.477  30.339  1.00  0.00     0.031 A 
ATOM     15  C   UNL A   1      41.901  28.397  31.478  1.00  0.00     0.074 A 
ATOM     16  C   UNL A   1      39.965  29.422  30.305  1.00  0.00     0.049 A 
ATOM     17  N   UNL A   1      41.905  29.048  32.610  1.00  0.00    -0.248 NA
ATOM     18  C   UNL A   1      43.032  27.466  31.320  1.00  0.00     0.031 C 
ATOM     19  C   UNL A   1      39.036  29.640  29.189  1.00  0.00     0.029 A 
ATOM     20  N   UNL A   1      39.638  30.405  31.201  1.00  0.00    -0.354 N 
ATOM     21  C   UNL A   1      43.020  28.592  33.303  1.00  0.00     0.074 A 
ATOM     22  C   UNL A   1      43.659  27.593  32.478  1.00  0.00     0.031 C 
ATOM     23  C   UNL A   1      38.281  30.719  29.449  1.00  0.00     0.029 A 
ATOM     24  C   UNL A   1      38.610  31.217  30.779  1.00  0.00     0.049 A 
ATOM     25  H   UNL A   1      40.095  30.519  32.066  1.00  0.00     0.167 HD
ATOM     26  C   UNL A   1      43.471  28.982  34.517  1.00  0.00     0.037 A 
ATOM     27  C   UNL A   1      37.986  32.226  31.415  1.00  0.00     0.037 A 
ATOM     28  C   UNL A   1      42.818  29.984  35.314  1.00  0.00     0.049 A 
ATOM     29  C   UNL A   1      38.459  32.587  32.798  1.00  0.00     0.074 A 
ATOM     30  C   UNL A   1      43.116  30.401  36.598  1.00  0.00     0.029 A 
ATOM     31  N   UNL A   1      41.735  30.740  34.886  1.00  0.00    -0.354 N 
ATOM     32  N   UNL A   1      39.458  32.079  33.482  1.00  0.00    -0.248 NA
ATOM     33  C   UNL A   1      37.718  33.640  33.501  1.00  0.00     0.031 C 
ATOM     34  C   UNL A   1      42.192  31.389  36.957  1.00  0.00     0.029 A 
ATOM     35  C   UNL A   1      41.348  31.619  35.880  1.00  0.00     0.049 A 
ATOM     36  H   UNL A   1      41.304  30.661  34.004  1.00  0.00     0.167 HD
ATOM     37  C   UNL A   1      39.467  32.751  34.698  1.00  0.00     0.074 A 
ATOM     38  C   UNL A   1      38.395  33.727  34.638  1.00  0.00     0.031 C 
ATOM     39  C   UNL A   1      40.274  32.576  35.775  1.00  0.00     0.037 A 
BRANCH  26  40
ATOM     40  C   UNL A   1      44.686  28.282  35.055  1.00  0.00     0.058 A 
ATOM     41  C   UNL A   1      45.983  28.774  34.834  1.00  0.00     0.135 A 
ATOM     42  C   UNL A   1      44.554  27.085  35.777  1.00  0.00     0.135 A 
ATOM     43  F   UNL A   1      46.168  29.895  34.119  1.00  0.00    -0.206 F 
ATOM     44  C   UNL A   1      47.107  28.090  35.288  1.00  0.00     0.059 A 
ATOM     45  C   UNL A   1      45.664  26.396  36.260  1.00  0.00     0.059 A 
ATOM     46  F   UNL A   1      43.339  26.563  36.002  1.00  0.00    -0.206 F 
ATOM     47  C   UNL A   1      46.937  26.899  35.998  1.00  0.00     0.060 A 
BRANCH  47  48
ATOM     48  S   UNL A   1      48.405  26.015  36.564  1.00  0.00     0.124 S 
ATOM     49  O   UNL A   1      48.269  26.123  38.013  1.00  0.00    -0.237 OA
ATOM     50  O   UNL A   1      48.201  24.682  36.006  1.00  0.00    -0.237 OA
ATOM     51  O   UNL A   1      49.506  26.774  35.979  1.00  0.00    -0.744 OA
ENDBRANCH  47  48
ENDBRANCH  26  40
BRANCH  27  52
ATOM     52  C   UNL A   1      36.811  32.900  30.792  1.00  0.00     0.058 A 
ATOM     53  C   UNL A   1      35.496  32.621  31.191  1.00  0.00     0.135 A 
ATOM     54  C   UNL A   1      36.991  33.841  29.764  1.00  0.00     0.135 A 
ATOM     55  F   UNL A   1      35.265  31.727  32.164  1.00  0.00    -0.206 F 
ATOM     56  C   UNL A   1      34.402  33.232  30.580  1.00  0.00     0.059 A 
ATOM     57  C   UNL A   1      35.918  34.487  29.160  1.00  0.00     0.059 A 
ATOM     58  F   UNL A   1      38.227  34.159  29.349  1.00  0.00    -0.206 F 
ATOM     59  C   UNL A   1      34.625  34.163  29.563  1.00  0.00     0.060 A 
BRANCH  59  60
ATOM     60  S   UNL A   1      33.214  34.980  28.788  1.00  0.00     0.124 S 
ATOM     61  O   UNL A   1      32.765  33.960  27.850  1.00  0.00    -0.237 OA
ATOM     62  O   UNL A   1      32.337  35.233  29.927  1.00  0.00    -0.237 OA
ATOM     63  O   UNL A   1      33.811  36.174  28.192  1.00  0.00    -0.744 OA
ENDBRANCH  59  60
ENDBRANCH  27  52
BRANCH  39  64
ATOM     64  C   UNL A   1      40.031  33.471  36.953  1.00  0.00     0.058 A 
ATOM     65  C   UNL A   1      40.672  34.713  37.073  1.00  0.00     0.135 A 
ATOM     66  C   UNL A   1      39.117  33.097  37.950  1.00  0.00     0.135 A 
ATOM     67  F   UNL A   1      41.557  35.110  36.145  1.00  0.00    -0.206 F 
ATOM     68  C   UNL A   1      40.439  35.543  38.161  1.00  0.00     0.059 A 
ATOM     69  C   UNL A   1      38.848  33.924  39.034  1.00  0.00     0.059 A 
ATOM     70  F   UNL A   1      38.470  31.924  37.870  1.00  0.00    -0.206 F 
ATOM     71  C   UNL A   1      39.526  35.138  39.139  1.00  0.00     0.060 A 
BRANCH  71  72
ATOM     72  S   UNL A   1      39.216  36.232  40.539  1.00  0.00     0.124 S 
ATOM     73  O   UNL A   1      38.774  37.448  39.867  1.00  0.00    -0.237 OA
ATOM     74  O   UNL A   1      38.188  35.508  41.282  1.00  0.00    -0.237 OA
ATOM     75  O   UNL A   1      40.516  36.314  41.199  1.00  0.00    -0.744 OA
ENDBRANCH  71  72
ENDBRANCH  39  64
ENDBRANCH  13  14
ENDBRANCH   6   8
ENDBRANCH   5   6
ENDBRANCH   4   5
ENDBRANCH   3   4
ENDBRANCH   2   3
ENDBRANCH   1   2
BRANCH   1  76
ATOM     76  C   UNL A   1      39.475  22.000  26.434  1.00  0.00     0.188 C 
BRANCH  76  77
ATOM     77  O   UNL A   1      38.458  21.823  25.445  1.00  0.00    -0.376 OA
BRANCH  77  78
ATOM     78  C   UNL A   1      37.356  22.724  25.477  1.00  0.00     0.202 C 
BRANCH  78  79
ATOM     79  C   UNL A   1      35.986  22.179  25.918  1.00  0.00     0.261 C 
BRANCH  79  80
ATOM     80  O   UNL A   1      35.118  23.166  26.490  1.00  0.00    -0.461 OA
BRANCH  80  81
ATOM     81  C   UNL A   1      34.022  22.684  27.148  1.00  0.00     0.335 C 
ATOM     82  O   UNL A   1      34.022  21.679  27.848  1.00  0.00    -0.249 OA
BRANCH  81  83
ATOM     83  C   UNL A   1      32.797  23.574  26.877  1.00  0.00     0.232 C 
ATOM     84  C   UNL A   1      33.147  24.811  26.076  1.00  0.00     0.087 C 
ATOM     85  O   UNL A   1      31.726  22.938  26.186  1.00  0.00    -0.355 OA
ATOM     86  C   UNL A   1      32.777  24.487  24.620  1.00  0.00     0.123 C 
ATOM     87  C   UNL A   1      31.848  23.225  24.769  1.00  0.00     0.186 C 
BRANCH  86  88
ATOM     88  C   UNL A   1      32.223  25.761  23.958  1.00  0.00    -0.013 A 
ATOM     89  C   UNL A   1      30.971  26.252  24.407  1.00  0.00     0.008 A 
ATOM     90  C   UNL A   1      32.869  26.485  22.946  1.00  0.00     0.008 A 
ATOM     91  C   UNL A   1      30.398  27.413  23.878  1.00  0.00     0.021 A 
ATOM     92  C   UNL A   1      32.295  27.648  22.413  1.00  0.00     0.021 A 
ATOM     93  C   UNL A   1      31.068  28.110  22.884  1.00  0.00     0.041 A 
ATOM     94  Cl  UNL A   1      30.397  29.556  22.237  1.00  0.00    -0.084 Cl
ENDBRANCH  86  88
BRANCH  86  95
ATOM     95  O   UNL A   1      33.976  24.181  23.905  1.00  0.00    -0.382 OA
ATOM     96  H   UNL A   1      34.387  23.390  24.286  1.00  0.00     0.212 HD
ENDBRANCH  86  95
BRANCH  87  97
ATOM     97  C   UNL A   1      32.165  21.875  24.127  1.00  0.00    -0.016 A 
ATOM     98  C   UNL A   1      32.445  20.712  24.862  1.00  0.00     0.008 A 
ATOM     99  C   UNL A   1      31.996  21.733  22.735  1.00  0.00     0.008 A 
ATOM    100  C   UNL A   1      32.501  19.455  24.251  1.00  0.00     0.021 A 
ATOM    101  C   UNL A   1      32.063  20.478  22.118  1.00  0.00     0.021 A 
ATOM    102  C   UNL A   1      32.293  19.341  22.884  1.00  0.00     0.041 A 
ATOM    103  Cl  UNL A   1      32.290  17.787  22.143  1.00  0.00    -0.084 Cl
ENDBRANCH  87  97
ENDBRANCH  81  83
ENDBRANCH  80  81
ENDBRANCH  79  80
ENDBRANCH  78  79
ENDBRANCH  77  78
ENDBRANCH  76  77
ENDBRANCH   1  76
TORSDOF 23
ENDMDL
MODEL 3
REMARK VINA RESULT:     -10.5      0.896      8.022
REMARK SMILES O=C(OCCOCCOCCOC(=O)[C@H]1C[C@](O)(c2ccc(Cl)cc2)[C@@H](c2ccc(Cl)cc2)O1)c1ccc(-c2c3nc(c(-c4c(F)cc(S(=O)(=O)[O-])cc4F)c4ccc([nH]4)c(-c4c(F)cc(S(=O)(=O)[O-])cc4F)c4nc(c(-c5c(F)cc(S(=O)(=O)[O-])cc5F)c5ccc2[nH]5)C=C4)C=C3)cc1
REMARK SMILES IDX 7 1 6 2 5 3 4 4 3 5 2 6 1 7 35 8 36 9 100 10 37 11 99 12
REMARK SMILES IDX 38 13 39 14 40 15 93 16 41 17 98 18 92 19 94 20 42 21 97 22
REMARK SMILES IDX 91 23 90 24 43 26 77 27 56 28 76 29 57 30 60 31 75 32 95 33
REMARK SMILES IDX 58 34 59 35 74 37 96 38 61 39 44 40 45 41 54 42 46 43 47 44
REMARK SMILES IDX 53 45 55 46 48 47 49 48 50 49 51 50 52 51 78 52 79 53 88 54
REMARK SMILES IDX 80 55 81 56 87 57 89 58 82 59 83 60 84 61 85 62 86 63 62 64
REMARK SMILES IDX 63 65 72 66 64 67 65 68 71 69 73 70 66 71 67 72 68 73 69 74
REMARK SMILES IDX 70 75 8 76 9 77 10 78 11 79 12 80 13 81 14 82 15 83 16 84
REMARK SMILES IDX 34 85 17 86 26 87 19 88 20 89 25 90 21 91 24 92 22 93 23 94
REMARK SMILES IDX 18 95 27 97 28 98 33 99 29 100 32 101 30 102 31 103
REMARK H PARENT 94 25 60 36 18 96
REMARK Flexibility Score: inf
ROOT
ATOM      1  C   UNL A   1      43.923  22.000  25.639  1.00  0.00     0.188 C 
ENDROOT
BRANCH   1   2
ATOM      2  O   UNL A   1      44.968  22.386  26.534  1.00  0.00    -0.376 OA
BRANCH   2   3
ATOM      3  C   UNL A   1      45.601  23.629  26.230  1.00  0.00     0.202 C 
BRANCH   3   4
ATOM      4  C   UNL A   1      44.953  24.471  25.116  1.00  0.00     0.261 C 
BRANCH   4   5
ATOM      5  O   UNL A   1      44.281  25.652  25.591  1.00  0.00    -0.460 OA
BRANCH   5   6
ATOM      6  C   UNL A   1      42.945  25.813  25.781  1.00  0.00     0.338 C 
ATOM      7  O   UNL A   1      42.157  25.279  25.004  1.00  0.00    -0.246 OA
BRANCH   6   8
ATOM      8  C   UNL A   1      42.395  26.617  26.911  1.00  0.00     0.060 A 
ATOM      9  C   UNL A   1      42.651  27.974  27.076  1.00  0.00     0.016 A 
ATOM     10  C   UNL A   1      41.525  25.998  27.821  1.00  0.00     0.016 A 
ATOM     11  C   UNL A   1      42.221  28.662  28.196  1.00  0.00     0.010 A 
ATOM     12  C   UNL A   1      40.998  26.714  28.906  1.00  0.00     0.010 A 
ATOM     13  C   UNL A   1      41.391  28.040  29.125  1.00  0.00    -0.014 A 
BRANCH  13  14
ATOM     14  C   UNL A   1      41.080  28.789  30.363  1.00  0.00     0.031 A 
ATOM     15  C   UNL A   1      42.019  28.669  31.529  1.00  0.00     0.074 A 
ATOM     16  C   UNL A   1      40.084  29.698  30.356  1.00  0.00     0.049 A 
ATOM     17  N   UNL A   1      41.960  29.245  32.699  1.00  0.00    -0.248 NA
ATOM     18  C   UNL A   1      43.190  27.793  31.351  1.00  0.00     0.031 C 
ATOM     19  C   UNL A   1      39.185  29.956  29.225  1.00  0.00     0.029 A 
ATOM     20  N   UNL A   1      39.690  30.608  31.302  1.00  0.00    -0.354 N 
ATOM     21  C   UNL A   1      43.068  28.786  33.401  1.00  0.00     0.074 A 
ATOM     22  C   UNL A   1      43.773  27.867  32.536  1.00  0.00     0.031 C 
ATOM     23  C   UNL A   1      38.380  30.987  29.527  1.00  0.00     0.029 A 
ATOM     24  C   UNL A   1      38.647  31.408  30.897  1.00  0.00     0.049 A 
ATOM     25  H   UNL A   1      40.114  30.682  32.187  1.00  0.00     0.167 HD
ATOM     26  C   UNL A   1      43.464  29.111  34.652  1.00  0.00     0.037 A 
ATOM     27  C   UNL A   1      37.963  32.350  31.574  1.00  0.00     0.037 A 
ATOM     28  C   UNL A   1      42.748  30.034  35.488  1.00  0.00     0.049 A 
ATOM     29  C   UNL A   1      38.376  32.636  32.993  1.00  0.00     0.074 A 
ATOM     30  C   UNL A   1      42.987  30.376  36.806  1.00  0.00     0.029 A 
ATOM     31  N   UNL A   1      41.650  30.776  35.072  1.00  0.00    -0.354 N 
ATOM     32  N   UNL A   1      39.371  32.121  33.678  1.00  0.00    -0.248 NA
ATOM     33  C   UNL A   1      37.572  33.614  33.735  1.00  0.00     0.031 C 
ATOM     34  C   UNL A   1      42.014  31.305  37.195  1.00  0.00     0.029 A 
ATOM     35  C   UNL A   1      41.197  31.573  36.107  1.00  0.00     0.049 A 
ATOM     36  H   UNL A   1      41.252  30.740  34.172  1.00  0.00     0.167 HD
ATOM     37  C   UNL A   1      39.314  32.712  34.934  1.00  0.00     0.074 A 
ATOM     38  C   UNL A   1      38.208  33.650  34.899  1.00  0.00     0.031 C 
ATOM     39  C   UNL A   1      40.092  32.495  36.025  1.00  0.00     0.037 A 
BRANCH  26  40
ATOM     40  C   UNL A   1      44.687  28.422  35.187  1.00  0.00     0.058 A 
ATOM     41  C   UNL A   1      44.620  27.161  35.802  1.00  0.00     0.135 A 
ATOM     42  C   UNL A   1      45.943  29.045  35.109  1.00  0.00     0.135 A 
ATOM     43  F   UNL A   1      43.439  26.537  35.934  1.00  0.00    -0.206 F 
ATOM     44  C   UNL A   1      45.749  26.555  36.343  1.00  0.00     0.059 A 
ATOM     45  C   UNL A   1      47.090  28.447  35.624  1.00  0.00     0.059 A 
ATOM     46  F   UNL A   1      46.062  30.258  34.546  1.00  0.00    -0.206 F 
ATOM     47  C   UNL A   1      46.980  27.208  36.253  1.00  0.00     0.060 A 
BRANCH  47  48
ATOM     48  S   UNL A   1      48.432  26.416  36.976  1.00  0.00     0.124 S 
ATOM     49  O   UNL A   1      49.167  26.010  35.783  1.00  0.00    -0.237 OA
ATOM     50  O   UNL A   1      49.027  27.501  37.748  1.00  0.00    -0.237 OA
ATOM     51  O   UNL A   1      47.867  25.326  37.765  1.00  0.00    -0.744 OA
ENDBRANCH  47  48
ENDBRANCH  26  40
BRANCH  27  52
ATOM     52  C   UNL A   1      36.784  33.020  30.954  1.00  0.00     0.058 A 
ATOM     53  C   UNL A   1      35.468  32.676  31.297  1.00  0.00     0.135 A 
ATOM     54  C   UNL A   1      36.960  34.024  29.987  1.00  0.00     0.135 A 
ATOM     55  F   UNL A   1      35.240  31.720  32.210  1.00  0.00    -0.206 F 
ATOM     56  C   UNL A   1      34.372  33.285  30.688  1.00  0.00     0.059 A 
ATOM     57  C   UNL A   1      35.885  34.668  29.389  1.00  0.00     0.059 A 
ATOM     58  F   UNL A   1      38.197  34.405  29.628  1.00  0.00    -0.206 F 
ATOM     59  C   UNL A   1      34.592  34.279  29.733  1.00  0.00     0.060 A 
BRANCH  59  60
ATOM     60  S   UNL A   1      33.176  35.094  28.962  1.00  0.00     0.124 S 
ATOM     61  O   UNL A   1      32.314  35.329  30.113  1.00  0.00    -0.237 OA
ATOM     62  O   UNL A   1      33.786  36.279  28.366  1.00  0.00    -0.237 OA
ATOM     63  O   UNL A   1      32.703  34.096  28.006  1.00  0.00    -0.744 OA
ENDBRANCH  59  60
ENDBRANCH  27  52
BRANCH  39  64
ATOM     64  C   UNL A   1      39.775  33.303  37.249  1.00  0.00     0.058 A 
ATOM     65  C   UNL A   1      38.817  32.875  38.180  1.00  0.00     0.135 A 
ATOM     66  C   UNL A   1      40.466  34.497  37.508  1.00  0.00     0.135 A 
ATOM     67  F   UNL A   1      38.129  31.741  37.971  1.00  0.00    -0.206 F 
ATOM     68  C   UNL A   1      38.532  33.621  39.316  1.00  0.00     0.059 A 
ATOM     69  C   UNL A   1      40.216  35.245  38.652  1.00  0.00     0.059 A 
ATOM     70  F   UNL A   1      41.400  34.938  36.652  1.00  0.00    -0.206 F 
ATOM     71  C   UNL A   1      39.235  34.807  39.542  1.00  0.00     0.060 A 
BRANCH  71  72
ATOM     72  S   UNL A   1      38.870  35.759  41.030  1.00  0.00     0.124 S 
ATOM     73  O   UNL A   1      37.545  35.258  41.379  1.00  0.00    -0.237 OA
ATOM     74  O   UNL A   1      39.953  35.368  41.927  1.00  0.00    -0.237 OA
ATOM     75  O   UNL A   1      38.918  37.143  40.566  1.00  0.00    -0.744 OA
ENDBRANCH  71  72
ENDBRANCH  39  64
ENDBRANCH  13  14
ENDBRANCH   6   8
ENDBRANCH   5   6
ENDBRANCH   4   5
ENDBRANCH   3   4
ENDBRANCH   2   3
ENDBRANCH   1   2
BRANCH   1  76
ATOM     76  C   UNL A   1      42.551  22.021  26.326  1.00  0.00     0.188 C 
BRANCH  76  77
ATOM     77  O   UNL A   1      41.568  21.117  25.815  1.00  0.00    -0.376 OA
BRANCH  77  78
ATOM     78  C   UNL A   1      40.300  21.103  26.462  1.00  0.00     0.202 C 
BRANCH  78  79
ATOM     79  C   UNL A   1      39.304  22.227  26.129  1.00  0.00     0.261 C 
BRANCH  79  80
ATOM     80  O   UNL A   1      37.931  21.814  26.124  1.00  0.00    -0.461 OA
BRANCH  80  81
ATOM     81  C   UNL A   1      37.143  22.381  25.162  1.00  0.00     0.335 C 
ATOM     82  O   UNL A   1      37.351  22.294  23.959  1.00  0.00    -0.249 OA
BRANCH  81  83
ATOM     83  C   UNL A   1      35.973  23.144  25.807  1.00  0.00     0.232 C 
ATOM     84  C   UNL A   1      35.410  24.215  24.895  1.00  0.00     0.087 C 
ATOM     85  O   UNL A   1      34.870  22.337  26.207  1.00  0.00    -0.355 OA
ATOM     86  C   UNL A   1      34.166  23.596  24.239  1.00  0.00     0.123 C 
ATOM     87  C   UNL A   1      33.875  22.347  25.150  1.00  0.00     0.186 C 
BRANCH  86  88
ATOM     88  C   UNL A   1      33.094  24.690  24.087  1.00  0.00    -0.013 A 
ATOM     89  C   UNL A   1      33.508  26.042  24.182  1.00  0.00     0.008 A 
ATOM     90  C   UNL A   1      31.733  24.452  23.853  1.00  0.00     0.008 A 
ATOM     91  C   UNL A   1      32.609  27.104  24.038  1.00  0.00     0.021 A 
ATOM     92  C   UNL A   1      30.829  25.515  23.711  1.00  0.00     0.021 A 
ATOM     93  C   UNL A   1      31.270  26.834  23.798  1.00  0.00     0.041 A 
ATOM     94  Cl  UNL A   1      30.150  28.122  23.591  1.00  0.00    -0.084 Cl
ENDBRANCH  86  88
BRANCH  86  95
ATOM     95  O   UNL A   1      34.503  23.211  22.904  1.00  0.00    -0.382 OA
ATOM     96  H   UNL A   1      34.023  23.773  22.274  1.00  0.00     0.212 HD
ENDBRANCH  86  95
BRANCH  87  97
ATOM     97  C   UNL A   1      33.859  20.913  24.622  1.00  0.00    -0.016 A 
ATOM     98  C   UNL A   1      34.837  19.958  24.938  1.00  0.00     0.008 A 
ATOM     99  C   UNL A   1      32.719  20.463  23.927  1.00  0.00     0.008 A 
ATOM    100  C   UNL A   1      34.667  18.604  24.628  1.00  0.00     0.021 A 
ATOM    101  C   UNL A   1      32.550  19.111  23.604  1.00  0.00     0.021 A 
ATOM    102  C   UNL A   1      33.517  18.183  23.977  1.00  0.00     0.041 A 
ATOM    103  Cl  UNL A   1      33.274  16.509  23.659  1.00  0.00    -0.084 Cl
ENDBRANCH  87  97
ENDBRANCH  81  83
ENDBRANCH  80  81
ENDBRANCH  79  80
ENDBRANCH  78  79
ENDBRANCH  77  78
ENDBRANCH  76  77
ENDBRANCH   1  76
TORSDOF 23
ENDMDL
