MODEL 1
REMARK VINA RESULT:      -9.0      0.000      0.000
REMARK SMILES C#CC[NH2+]CC(=O)N1CC[NH+]([C@@H](C)C(=O)OCCOCCOCCOC(=O)c2ccc(-c3c4nc(c(-c5c(F)cc(S(=O)(=O)[O-])cc5F)c5ccc([nH]5)c(-c5c(F)cc(S(=O)(=O)[O-])cc5F)c5nc(c(-c6c(F)cc(S(=O)(=O)[O-])cc6F)c6ccc3[nH]6)C=C5)C=C4)cc2)CC1
REMARK SMILES IDX 20 1 19 2 18 3 17 4 16 5 14 6 15 7 12 8 13 9 11 10 6 11 7 12
REMARK SMILES IDX 8 13 9 14 95 15 10 16 94 17 5 19 4 20 3 23 2 24 1 25 21 26
REMARK SMILES IDX 22 27 23 28 24 29 25 30 26 31 27 32 28 33 29 34 93 35 30 36
REMARK SMILES IDX 92 37 31 38 32 39 33 40 86 41 34 42 91 43 85 44 87 45 35 46
REMARK SMILES IDX 90 47 84 48 83 49 36 51 70 52 49 53 69 54 50 55 53 56 68 57
REMARK SMILES IDX 88 58 51 59 52 60 67 62 89 63 54 64 37 65 38 66 47 67 39 68
REMARK SMILES IDX 40 69 46 70 48 71 41 72 42 73 43 74 44 75 45 76 71 77 72 78
REMARK SMILES IDX 81 79 73 80 74 81 80 82 82 83 75 84 76 85 77 86 78 87 79 88
REMARK SMILES IDX 55 89 56 90 65 91 57 92 58 93 64 94 66 95 59 96 60 97 61 98
REMARK SMILES IDX 62 99 63 100
REMARK H PARENT 11 18 4 21 4 22 87 50 53 61
REMARK Flexibility Score: inf
ROOT
ATOM      1  C   UNL A   1      34.310  32.039  27.954  1.00  0.00     0.188 C 
ENDROOT
BRANCH   1   2
ATOM      2  O   UNL A   1      33.255  31.255  27.431  1.00  0.00    -0.376 OA
BRANCH   2   3
ATOM      3  C   UNL A   1      33.510  30.088  26.665  1.00  0.00     0.202 C 
BRANCH   3   4
ATOM      4  C   UNL A   1      32.579  29.549  25.575  1.00  0.00     0.261 C 
BRANCH   4   5
ATOM      5  O   UNL A   1      32.815  28.192  25.220  1.00  0.00    -0.459 OA
BRANCH   5   6
ATOM      6  C   UNL A   1      31.903  27.651  24.373  1.00  0.00     0.364 C 
ATOM      7  O   UNL A   1      31.486  28.219  23.367  1.00  0.00    -0.245 OA
BRANCH   6   8
ATOM      8  C   UNL A   1      31.538  26.207  24.720  1.00  0.00     0.292 C 
ATOM      9  C   UNL A   1      31.073  26.165  26.184  1.00  0.00     0.088 C 
BRANCH   8  10
ATOM     10  N   UNL A   1      32.468  25.135  24.281  1.00  0.00    -0.321 N 
ATOM     11  C   UNL A   1      34.043  21.608  26.174  1.00  0.00     0.278 C 
ATOM     12  O   UNL A   1      34.107  21.411  27.385  1.00  0.00    -0.268 OA
ATOM     13  N   UNL A   1      33.590  22.809  25.643  1.00  0.00    -0.327 N 
ATOM     14  C   UNL A   1      34.419  24.006  25.655  1.00  0.00     0.181 C 
ATOM     15  C   UNL A   1      32.185  23.185  25.713  1.00  0.00     0.181 C 
ATOM     16  C   UNL A   1      33.907  25.091  24.647  1.00  0.00     0.284 C 
ATOM     17  C   UNL A   1      31.850  23.809  24.349  1.00  0.00     0.284 C 
ATOM     18  H   UNL A   1      32.595  25.481  23.329  1.00  0.00     0.348 HD
BRANCH  11  19
ATOM     19  C   UNL A   1      34.414  20.509  25.127  1.00  0.00     0.362 C 
BRANCH  19  20
ATOM     20  N   UNL A   1      33.258  19.994  24.327  1.00  0.00    -0.328 N 
ATOM     21  H   UNL A   1      32.643  20.767  24.072  1.00  0.00     0.347 HD
ATOM     22  H   UNL A   1      33.591  19.548  23.472  1.00  0.00     0.347 HD
BRANCH  20  23
ATOM     23  C   UNL A   1      32.535  19.041  25.141  1.00  0.00     0.352 C 
BRANCH  23  24
ATOM     24  C   UNL A   1      33.040  17.611  25.249  1.00  0.00    -0.047 C 
ATOM     25  C   UNL A   1      33.473  16.385  25.343  1.00  0.00     0.010 C 
ENDBRANCH  23  24
ENDBRANCH  20  23
ENDBRANCH  19  20
ENDBRANCH  11  19
ENDBRANCH   8  10
ENDBRANCH   6   8
ENDBRANCH   5   6
ENDBRANCH   4   5
ENDBRANCH   3   4
ENDBRANCH   2   3
ENDBRANCH   1   2
BRANCH   1  26
ATOM     26  C   UNL A   1      34.022  33.031  29.098  1.00  0.00     0.188 C 
BRANCH  26  27
ATOM     27  O   UNL A   1      34.776  34.219  29.237  1.00  0.00    -0.376 OA
BRANCH  27  28
ATOM     28  C   UNL A   1      36.129  34.238  28.809  1.00  0.00     0.202 C 
BRANCH  28  29
ATOM     29  C   UNL A   1      37.221  33.318  29.378  1.00  0.00     0.261 C 
BRANCH  29  30
ATOM     30  O   UNL A   1      37.057  32.899  30.738  1.00  0.00    -0.460 OA
BRANCH  30  31
ATOM     31  C   UNL A   1      36.826  31.569  30.896  1.00  0.00     0.338 C 
ATOM     32  O   UNL A   1      35.772  31.035  31.190  1.00  0.00    -0.246 OA
BRANCH  31  33
ATOM     33  C   UNL A   1      38.010  30.810  30.455  1.00  0.00     0.060 A 
ATOM     34  C   UNL A   1      38.945  30.416  31.425  1.00  0.00     0.016 A 
ATOM     35  C   UNL A   1      38.229  30.537  29.105  1.00  0.00     0.016 A 
ATOM     36  C   UNL A   1      40.118  29.767  31.043  1.00  0.00     0.010 A 
ATOM     37  C   UNL A   1      39.419  29.911  28.722  1.00  0.00     0.010 A 
ATOM     38  C   UNL A   1      40.379  29.550  29.685  1.00  0.00    -0.014 A 
BRANCH  38  39
ATOM     39  C   UNL A   1      41.729  29.118  29.250  1.00  0.00     0.031 A 
ATOM     40  C   UNL A   1      42.821  30.151  29.178  1.00  0.00     0.074 A 
ATOM     41  C   UNL A   1      41.983  27.840  28.919  1.00  0.00     0.049 A 
ATOM     42  N   UNL A   1      44.040  30.041  28.719  1.00  0.00    -0.248 NA
ATOM     43  C   UNL A   1      42.488  31.491  29.691  1.00  0.00     0.031 C 
ATOM     44  C   UNL A   1      41.021  26.741  28.990  1.00  0.00     0.029 A 
ATOM     45  N   UNL A   1      43.127  27.257  28.434  1.00  0.00    -0.354 N 
ATOM     46  C   UNL A   1      44.619  31.292  28.884  1.00  0.00     0.074 A 
ATOM     47  C   UNL A   1      43.611  32.155  29.461  1.00  0.00     0.031 C 
ATOM     48  C   UNL A   1      41.608  25.621  28.529  1.00  0.00     0.029 A 
ATOM     49  C   UNL A   1      42.971  25.932  28.102  1.00  0.00     0.049 A 
ATOM     50  H   UNL A   1      43.978  27.742  28.332  1.00  0.00     0.167 HD
ATOM     51  C   UNL A   1      45.880  31.687  28.587  1.00  0.00     0.037 A 
ATOM     52  C   UNL A   1      43.821  25.082  27.489  1.00  0.00     0.037 A 
ATOM     53  C   UNL A   1      46.875  30.831  27.998  1.00  0.00     0.049 A 
ATOM     54  C   UNL A   1      45.196  25.563  27.096  1.00  0.00     0.074 A 
ATOM     55  C   UNL A   1      48.177  31.140  27.644  1.00  0.00     0.029 A 
ATOM     56  N   UNL A   1      46.678  29.497  27.674  1.00  0.00    -0.354 N 
ATOM     57  N   UNL A   1      45.733  26.749  27.257  1.00  0.00    -0.248 NA
ATOM     58  C   UNL A   1      46.079  24.590  26.438  1.00  0.00     0.031 C 
ATOM     59  C   UNL A   1      48.755  30.004  27.071  1.00  0.00     0.029 A 
ATOM     60  C   UNL A   1      47.830  28.973  27.112  1.00  0.00     0.049 A 
ATOM     61  H   UNL A   1      45.843  28.997  27.820  1.00  0.00     0.167 HD
ATOM     62  C   UNL A   1      47.024  26.657  26.745  1.00  0.00     0.074 A 
ATOM     63  C   UNL A   1      47.191  25.295  26.279  1.00  0.00     0.031 C 
ATOM     64  C   UNL A   1      47.985  27.610  26.666  1.00  0.00     0.037 A 
BRANCH  51  65
ATOM     65  C   UNL A   1      46.246  33.114  28.878  1.00  0.00     0.058 A 
ATOM     66  C   UNL A   1      46.821  33.487  30.103  1.00  0.00     0.135 A 
ATOM     67  C   UNL A   1      46.050  34.113  27.912  1.00  0.00     0.135 A 
ATOM     68  F   UNL A   1      47.007  32.575  31.069  1.00  0.00    -0.206 F 
ATOM     69  C   UNL A   1      47.173  34.807  30.368  1.00  0.00     0.059 A 
ATOM     70  C   UNL A   1      46.418  35.435  28.146  1.00  0.00     0.059 A 
ATOM     71  F   UNL A   1      45.499  33.810  26.727  1.00  0.00    -0.206 F 
ATOM     72  C   UNL A   1      46.968  35.774  29.381  1.00  0.00     0.060 A 
BRANCH  72  73
ATOM     73  S   UNL A   1      47.445  37.479  29.734  1.00  0.00     0.124 S 
ATOM     74  O   UNL A   1      46.349  38.221  29.116  1.00  0.00    -0.237 OA
ATOM     75  O   UNL A   1      47.478  37.498  31.192  1.00  0.00    -0.237 OA
ATOM     76  O   UNL A   1      48.741  37.613  29.077  1.00  0.00    -0.744 OA
ENDBRANCH  72  73
ENDBRANCH  51  65
BRANCH  52  77
ATOM     77  C   UNL A   1      43.387  23.695  27.171  1.00  0.00     0.058 A 
ATOM     78  C   UNL A   1      42.988  23.336  25.875  1.00  0.00     0.135 A 
ATOM     79  C   UNL A   1      43.338  22.706  28.166  1.00  0.00     0.135 A 
ATOM     80  F   UNL A   1      43.004  24.248  24.892  1.00  0.00    -0.206 F 
ATOM     81  C   UNL A   1      42.536  22.053  25.581  1.00  0.00     0.059 A 
ATOM     82  C   UNL A   1      42.915  21.410  27.891  1.00  0.00     0.059 A 
ATOM     83  F   UNL A   1      43.718  22.995  29.421  1.00  0.00    -0.206 F 
ATOM     84  C   UNL A   1      42.501  21.097  26.597  1.00  0.00     0.060 A 
BRANCH  84  85
ATOM     85  S   UNL A   1      41.944  19.425  26.199  1.00  0.00     0.124 S 
ATOM     86  O   UNL A   1      42.661  19.166  24.956  1.00  0.00    -0.237 OA
ATOM     87  O   UNL A   1      42.389  18.668  27.365  1.00  0.00    -0.237 OA
ATOM     88  O   UNL A   1      40.497  19.576  26.075  1.00  0.00    -0.744 OA
ENDBRANCH  84  85
ENDBRANCH  52  77
BRANCH  64  89
ATOM     89  C   UNL A   1      49.318  27.213  26.094  1.00  0.00     0.058 A 
ATOM     90  C   UNL A   1      50.338  26.683  26.897  1.00  0.00     0.135 A 
ATOM     91  C   UNL A   1      49.554  27.306  24.711  1.00  0.00     0.135 A 
ATOM     92  F   UNL A   1      50.167  26.577  28.224  1.00  0.00    -0.206 F 
ATOM     93  C   UNL A   1      51.554  26.277  26.355  1.00  0.00     0.059 A 
ATOM     94  C   UNL A   1      50.750  26.883  24.144  1.00  0.00     0.059 A 
ATOM     95  F   UNL A   1      48.605  27.796  23.896  1.00  0.00    -0.206 F 
ATOM     96  C   UNL A   1      51.751  26.380  24.975  1.00  0.00     0.060 A 
BRANCH  96  97
ATOM     97  S   UNL A   1      53.317  25.815  24.277  1.00  0.00     0.124 S 
ATOM     98  O   UNL A   1      53.467  24.511  24.914  1.00  0.00    -0.237 OA
ATOM     99  O   UNL A   1      53.033  25.792  22.846  1.00  0.00    -0.237 OA
ATOM    100  O   UNL A   1      54.268  26.836  24.704  1.00  0.00    -0.744 OA
ENDBRANCH  96  97
ENDBRANCH  64  89
ENDBRANCH  38  39
ENDBRANCH  31  33
ENDBRANCH  30  31
ENDBRANCH  29  30
ENDBRANCH  28  29
ENDBRANCH  27  28
ENDBRANCH  26  27
ENDBRANCH   1  26
TORSDOF 25
ENDMDL
MODEL 2
REMARK VINA RESULT:      -8.9      0.995      8.118
REMARK SMILES C#CC[NH2+]CC(=O)N1CC[NH+]([C@@H](C)C(=O)OCCOCCOCCOC(=O)c2ccc(-c3c4nc(c(-c5c(F)cc(S(=O)(=O)[O-])cc5F)c5ccc([nH]5)c(-c5c(F)cc(S(=O)(=O)[O-])cc5F)c5nc(c(-c6c(F)cc(S(=O)(=O)[O-])cc6F)c6ccc3[nH]6)C=C5)C=C4)cc2)CC1
REMARK SMILES IDX 20 1 19 2 18 3 17 4 16 5 14 6 15 7 12 8 13 9 11 10 6 11 7 12
REMARK SMILES IDX 8 13 9 14 95 15 10 16 94 17 5 19 4 20 3 23 2 24 1 25 21 26
REMARK SMILES IDX 22 27 23 28 24 29 25 30 26 31 27 32 28 33 29 34 93 35 30 36
REMARK SMILES IDX 92 37 31 38 32 39 33 40 86 41 34 42 91 43 85 44 87 45 35 46
REMARK SMILES IDX 90 47 84 48 83 49 36 51 70 52 49 53 69 54 50 55 53 56 68 57
REMARK SMILES IDX 88 58 51 59 52 60 67 62 89 63 54 64 37 65 38 66 47 67 39 68
REMARK SMILES IDX 40 69 46 70 48 71 41 72 42 73 43 74 44 75 45 76 71 77 72 78
REMARK SMILES IDX 81 79 73 80 74 81 80 82 82 83 75 84 76 85 77 86 78 87 79 88
REMARK SMILES IDX 55 89 56 90 65 91 57 92 58 93 64 94 66 95 59 96 60 97 61 98
REMARK SMILES IDX 62 99 63 100
REMARK H PARENT 11 18 4 21 4 22 87 50 53 61
REMARK Flexibility Score: inf
ROOT
ATOM      1  C   UNL A   1      35.167  31.425  28.509  1.00  0.00     0.188 C 
ENDROOT
BRANCH   1   2
ATOM      2  O   UNL A   1      34.377  30.345  28.051  1.00  0.00    -0.376 OA
BRANCH   2   3
ATOM      3  C   UNL A   1      33.788  30.353  26.760  1.00  0.00     0.202 C 
BRANCH   3   4
ATOM      4  C   UNL A   1      32.674  29.404  26.312  1.00  0.00     0.261 C 
BRANCH   4   5
ATOM      5  O   UNL A   1      32.774  28.978  24.959  1.00  0.00    -0.459 OA
BRANCH   5   6
ATOM      6  C   UNL A   1      31.840  28.074  24.568  1.00  0.00     0.364 C 
ATOM      7  O   UNL A   1      30.637  28.204  24.776  1.00  0.00    -0.245 OA
BRANCH   6   8
ATOM      8  C   UNL A   1      32.417  26.936  23.725  1.00  0.00     0.292 C 
ATOM      9  C   UNL A   1      31.854  27.056  22.300  1.00  0.00     0.088 C 
BRANCH   8  10
ATOM     10  N   UNL A   1      32.441  25.577  24.324  1.00  0.00    -0.321 N 
ATOM     11  C   UNL A   1      35.383  22.440  24.457  1.00  0.00     0.278 C 
ATOM     12  O   UNL A   1      36.326  22.308  23.682  1.00  0.00    -0.268 OA
ATOM     13  N   UNL A   1      34.430  23.439  24.299  1.00  0.00    -0.327 N 
ATOM     14  C   UNL A   1      33.398  23.351  23.276  1.00  0.00     0.181 C 
ATOM     15  C   UNL A   1      34.750  24.837  24.553  1.00  0.00     0.181 C 
ATOM     16  C   UNL A   1      32.207  24.331  23.550  1.00  0.00     0.284 C 
ATOM     17  C   UNL A   1      33.532  25.420  25.288  1.00  0.00     0.284 C 
ATOM     18  H   UNL A   1      31.517  25.628  24.754  1.00  0.00     0.348 HD
BRANCH  11  19
ATOM     19  C   UNL A   1      35.200  21.532  25.716  1.00  0.00     0.362 C 
BRANCH  19  20
ATOM     20  N   UNL A   1      35.304  20.064  25.445  1.00  0.00    -0.328 N 
ATOM     21  H   UNL A   1      36.173  19.865  24.949  1.00  0.00     0.347 HD
ATOM     22  H   UNL A   1      35.304  19.542  26.322  1.00  0.00     0.347 HD
BRANCH  20  23
ATOM     23  C   UNL A   1      34.174  19.673  24.630  1.00  0.00     0.352 C 
BRANCH  23  24
ATOM     24  C   UNL A   1      33.284  18.527  25.081  1.00  0.00    -0.047 C 
ATOM     25  C   UNL A   1      32.520  17.543  25.467  1.00  0.00     0.010 C 
ENDBRANCH  23  24
ENDBRANCH  20  23
ENDBRANCH  19  20
ENDBRANCH  11  19
ENDBRANCH   8  10
ENDBRANCH   6   8
ENDBRANCH   5   6
ENDBRANCH   4   5
ENDBRANCH   3   4
ENDBRANCH   2   3
ENDBRANCH   1   2
BRANCH   1  26
ATOM     26  C   UNL A   1      34.712  32.230  29.741  1.00  0.00     0.188 C 
BRANCH  26  27
ATOM     27  O   UNL A   1      35.103  33.577  29.915  1.00  0.00    -0.376 OA
BRANCH  27  28
ATOM     28  C   UNL A   1      36.478  33.885  30.092  1.00  0.00     0.202 C 
BRANCH  28  29
ATOM     29  C   UNL A   1      37.540  32.853  30.506  1.00  0.00     0.261 C 
BRANCH  29  30
ATOM     30  O   UNL A   1      37.388  32.266  31.804  1.00  0.00    -0.460 OA
BRANCH  30  31
ATOM     31  C   UNL A   1      37.295  30.911  31.804  1.00  0.00     0.338 C 
ATOM     32  O   UNL A   1      36.347  30.238  32.165  1.00  0.00    -0.246 OA
BRANCH  31  33
ATOM     33  C   UNL A   1      38.457  30.340  31.098  1.00  0.00     0.060 A 
ATOM     34  C   UNL A   1      39.595  30.012  31.851  1.00  0.00     0.016 A 
ATOM     35  C   UNL A   1      38.452  30.182  29.712  1.00  0.00     0.016 A 
ATOM     36  C   UNL A   1      40.744  29.545  31.214  1.00  0.00     0.010 A 
ATOM     37  C   UNL A   1      39.615  29.741  29.074  1.00  0.00     0.010 A 
ATOM     38  C   UNL A   1      40.772  29.448  29.818  1.00  0.00    -0.014 A 
BRANCH  38  39
ATOM     39  C   UNL A   1      42.059  29.223  29.117  1.00  0.00     0.031 A 
ATOM     40  C   UNL A   1      42.360  27.840  28.605  1.00  0.00     0.074 A 
ATOM     41  C   UNL A   1      42.945  30.219  28.942  1.00  0.00     0.049 A 
ATOM     42  N   UNL A   1      43.458  27.374  28.069  1.00  0.00    -0.248 NA
ATOM     43  C   UNL A   1      41.276  26.851  28.717  1.00  0.00     0.031 C 
ATOM     44  C   UNL A   1      42.749  31.608  29.354  1.00  0.00     0.029 A 
ATOM     45  N   UNL A   1      44.202  30.204  28.390  1.00  0.00    -0.354 N 
ATOM     46  C   UNL A   1      43.200  26.040  27.783  1.00  0.00     0.074 A 
ATOM     47  C   UNL A   1      41.851  25.762  28.227  1.00  0.00     0.031 C 
ATOM     48  C   UNL A   1      43.863  32.306  29.071  1.00  0.00     0.029 A 
ATOM     49  C   UNL A   1      44.860  31.407  28.490  1.00  0.00     0.049 A 
ATOM     50  H   UNL A   1      44.594  29.408  27.965  1.00  0.00     0.167 HD
ATOM     51  C   UNL A   1      44.011  25.128  27.196  1.00  0.00     0.037 A 
ATOM     52  C   UNL A   1      46.132  31.731  28.181  1.00  0.00     0.037 A 
ATOM     53  C   UNL A   1      45.357  25.404  26.770  1.00  0.00     0.049 A 
ATOM     54  C   UNL A   1      47.045  30.680  27.600  1.00  0.00     0.074 A 
ATOM     55  C   UNL A   1      46.267  24.543  26.180  1.00  0.00     0.029 A 
ATOM     56  N   UNL A   1      45.989  26.632  26.890  1.00  0.00    -0.354 N 
ATOM     57  N   UNL A   1      46.790  29.421  27.333  1.00  0.00    -0.248 NA
ATOM     58  C   UNL A   1      48.419  31.095  27.278  1.00  0.00     0.031 C 
ATOM     59  C   UNL A   1      47.461  25.241  25.978  1.00  0.00     0.029 A 
ATOM     60  C   UNL A   1      47.281  26.549  26.398  1.00  0.00     0.049 A 
ATOM     61  H   UNL A   1      45.581  27.443  27.271  1.00  0.00     0.167 HD
ATOM     62  C   UNL A   1      47.961  28.901  26.788  1.00  0.00     0.074 A 
ATOM     63  C   UNL A   1      48.922  29.985  26.753  1.00  0.00     0.031 C 
ATOM     64  C   UNL A   1      48.220  27.642  26.357  1.00  0.00     0.037 A 
BRANCH  51  65
ATOM     65  C   UNL A   1      43.468  23.742  27.000  1.00  0.00     0.058 A 
ATOM     66  C   UNL A   1      43.348  22.844  28.072  1.00  0.00     0.135 A 
ATOM     67  C   UNL A   1      43.035  23.317  25.734  1.00  0.00     0.135 A 
ATOM     68  F   UNL A   1      43.769  23.193  29.297  1.00  0.00    -0.206 F 
ATOM     69  C   UNL A   1      42.832  21.564  27.892  1.00  0.00     0.059 A 
ATOM     70  C   UNL A   1      42.493  22.050  25.536  1.00  0.00     0.059 A 
ATOM     71  F   UNL A   1      43.134  24.135  24.675  1.00  0.00    -0.206 F 
ATOM     72  C   UNL A   1      42.406  21.177  26.620  1.00  0.00     0.060 A 
BRANCH  72  73
ATOM     73  S   UNL A   1      41.725  19.519  26.407  1.00  0.00     0.124 S 
ATOM     74  O   UNL A   1      40.294  19.800  26.332  1.00  0.00    -0.237 OA
ATOM     75  O   UNL A   1      42.350  19.083  25.162  1.00  0.00    -0.237 OA
ATOM     76  O   UNL A   1      42.164  18.815  27.607  1.00  0.00    -0.744 OA
ENDBRANCH  72  73
ENDBRANCH  51  65
BRANCH  52  77
ATOM     77  C   UNL A   1      46.638  33.104  28.451  1.00  0.00     0.058 A 
ATOM     78  C   UNL A   1      46.678  34.077  27.441  1.00  0.00     0.135 A 
ATOM     79  C   UNL A   1      47.118  33.462  29.721  1.00  0.00     0.135 A 
ATOM     80  F   UNL A   1      46.243  33.781  26.208  1.00  0.00    -0.206 F 
ATOM     81  C   UNL A   1      47.195  35.348  27.674  1.00  0.00     0.059 A 
ATOM     82  C   UNL A   1      47.615  34.734  29.985  1.00  0.00     0.059 A 
ATOM     83  F   UNL A   1      47.094  32.571  30.725  1.00  0.00    -0.206 F 
ATOM     84  C   UNL A   1      47.663  35.667  28.950  1.00  0.00     0.060 A 
BRANCH  84  85
ATOM     85  S   UNL A   1      48.302  37.329  29.252  1.00  0.00     0.124 S 
ATOM     86  O   UNL A   1      48.981  37.153  30.531  1.00  0.00    -0.237 OA
ATOM     87  O   UNL A   1      49.165  37.541  28.094  1.00  0.00    -0.237 OA
ATOM     88  O   UNL A   1      47.096  38.150  29.284  1.00  0.00    -0.744 OA
ENDBRANCH  84  85
ENDBRANCH  52  77
BRANCH  64  89
ATOM     89  C   UNL A   1      49.579  27.370  25.769  1.00  0.00     0.058 A 
ATOM     90  C   UNL A   1      50.656  26.950  26.562  1.00  0.00     0.135 A 
ATOM     91  C   UNL A   1      49.785  27.471  24.383  1.00  0.00     0.135 A 
ATOM     92  F   UNL A   1      50.514  26.842  27.893  1.00  0.00    -0.206 F 
ATOM     93  C   UNL A   1      51.898  26.658  26.006  1.00  0.00     0.059 A 
ATOM     94  C   UNL A   1      51.009  27.159  23.803  1.00  0.00     0.059 A 
ATOM     95  F   UNL A   1      48.782  27.857  23.577  1.00  0.00    -0.206 F 
ATOM     96  C   UNL A   1      52.065  26.765  24.624  1.00  0.00     0.060 A 
BRANCH  96  97
ATOM     97  S   UNL A   1      53.669  26.347  23.908  1.00  0.00     0.124 S 
ATOM     98  O   UNL A   1      53.290  25.935  22.560  1.00  0.00    -0.237 OA
ATOM     99  O   UNL A   1      54.394  27.609  24.004  1.00  0.00    -0.237 OA
ATOM    100  O   UNL A   1      54.161  25.281  24.776  1.00  0.00    -0.744 OA
ENDBRANCH  96  97
ENDBRANCH  64  89
ENDBRANCH  38  39
ENDBRANCH  31  33
ENDBRANCH  30  31
ENDBRANCH  29  30
ENDBRANCH  28  29
ENDBRANCH  27  28
ENDBRANCH  26  27
ENDBRANCH   1  26
TORSDOF 25
ENDMDL
MODEL 3
REMARK VINA RESULT:      -8.1      5.930      8.801
REMARK SMILES C#CC[NH2+]CC(=O)N1CC[NH+]([C@@H](C)C(=O)OCCOCCOCCOC(=O)c2ccc(-c3c4nc(c(-c5c(F)cc(S(=O)(=O)[O-])cc5F)c5ccc([nH]5)c(-c5c(F)cc(S(=O)(=O)[O-])cc5F)c5nc(c(-c6c(F)cc(S(=O)(=O)[O-])cc6F)c6ccc3[nH]6)C=C5)C=C4)cc2)CC1
REMARK SMILES IDX 20 1 19 2 18 3 17 4 16 5 14 6 15 7 12 8 13 9 11 10 6 11 7 12
REMARK SMILES IDX 8 13 9 14 95 15 10 16 94 17 5 19 4 20 3 23 2 24 1 25 21 26
REMARK SMILES IDX 22 27 23 28 24 29 25 30 26 31 27 32 28 33 29 34 93 35 30 36
REMARK SMILES IDX 92 37 31 38 32 39 33 40 86 41 34 42 91 43 85 44 87 45 35 46
REMARK SMILES IDX 90 47 84 48 83 49 36 51 70 52 49 53 69 54 50 55 53 56 68 57
REMARK SMILES IDX 88 58 51 59 52 60 67 62 89 63 54 64 37 65 38 66 47 67 39 68
REMARK SMILES IDX 40 69 46 70 48 71 41 72 42 73 43 74 44 75 45 76 71 77 72 78
REMARK SMILES IDX 81 79 73 80 74 81 80 82 82 83 75 84 76 85 77 86 78 87 79 88
REMARK SMILES IDX 55 89 56 90 65 91 57 92 58 93 64 94 66 95 59 96 60 97 61 98
REMARK SMILES IDX 62 99 63 100
REMARK H PARENT 11 18 4 21 4 22 87 50 53 61
REMARK Flexibility Score: inf
ROOT
ATOM      1  C   UNL A   1      37.934  31.158  36.457  1.00  0.00     0.188 C 
ENDROOT
BRANCH   1   2
ATOM      2  O   UNL A   1      38.831  30.117  36.126  1.00  0.00    -0.376 OA
BRANCH   2   3
ATOM      3  C   UNL A   1      40.055  30.378  35.456  1.00  0.00     0.202 C 
BRANCH   3   4
ATOM      4  C   UNL A   1      40.629  29.510  34.334  1.00  0.00     0.261 C 
BRANCH   4   5
ATOM      5  O   UNL A   1      40.918  30.217  33.134  1.00  0.00    -0.459 OA
BRANCH   5   6
ATOM      6  C   UNL A   1      40.347  29.708  32.013  1.00  0.00     0.364 C 
ATOM      7  O   UNL A   1      40.889  29.710  30.911  1.00  0.00    -0.245 OA
BRANCH   6   8
ATOM      8  C   UNL A   1      39.012  29.012  32.278  1.00  0.00     0.292 C 
ATOM      9  C   UNL A   1      38.989  27.693  31.490  1.00  0.00     0.088 C 
BRANCH   8  10
ATOM     10  N   UNL A   1      37.780  29.841  32.234  1.00  0.00    -0.321 N 
ATOM     11  C   UNL A   1      36.268  32.772  29.470  1.00  0.00     0.278 C 
ATOM     12  O   UNL A   1      36.939  33.409  28.662  1.00  0.00    -0.268 OA
ATOM     13  N   UNL A   1      36.845  31.897  30.384  1.00  0.00    -0.327 N 
ATOM     14  C   UNL A   1      37.551  32.383  31.561  1.00  0.00     0.181 C 
ATOM     15  C   UNL A   1      37.419  30.629  29.957  1.00  0.00     0.181 C 
ATOM     16  C   UNL A   1      37.732  31.268  32.645  1.00  0.00     0.284 C 
ATOM     17  C   UNL A   1      36.998  29.600  31.019  1.00  0.00     0.284 C 
ATOM     18  H   UNL A   1      37.356  29.456  33.078  1.00  0.00     0.348 HD
BRANCH  11  19
ATOM     19  C   UNL A   1      34.708  32.848  29.508  1.00  0.00     0.362 C 
BRANCH  19  20
ATOM     20  N   UNL A   1      34.136  33.256  30.830  1.00  0.00    -0.328 N 
ATOM     21  H   UNL A   1      33.143  33.029  30.861  1.00  0.00     0.347 HD
ATOM     22  H   UNL A   1      34.607  32.759  31.587  1.00  0.00     0.347 HD
BRANCH  20  23
ATOM     23  C   UNL A   1      34.318  34.683  30.979  1.00  0.00     0.352 C 
BRANCH  23  24
ATOM     24  C   UNL A   1      33.290  35.495  31.751  1.00  0.00    -0.047 C 
ATOM     25  C   UNL A   1      32.408  36.191  32.413  1.00  0.00     0.010 C 
ENDBRANCH  23  24
ENDBRANCH  20  23
ENDBRANCH  19  20
ENDBRANCH  11  19
ENDBRANCH   8  10
ENDBRANCH   6   8
ENDBRANCH   5   6
ENDBRANCH   4   5
ENDBRANCH   3   4
ENDBRANCH   2   3
ENDBRANCH   1   2
BRANCH   1  26
ATOM     26  C   UNL A   1      38.221  32.046  37.684  1.00  0.00     0.188 C 
BRANCH  26  27
ATOM     27  O   UNL A   1      37.682  31.730  38.952  1.00  0.00    -0.376 OA
BRANCH  27  28
ATOM     28  C   UNL A   1      38.015  32.538  40.071  1.00  0.00     0.202 C 
BRANCH  28  29
ATOM     29  C   UNL A   1      38.577  33.965  39.960  1.00  0.00     0.261 C 
BRANCH  29  30
ATOM     30  O   UNL A   1      39.988  34.079  39.739  1.00  0.00    -0.460 OA
BRANCH  30  31
ATOM     31  C   UNL A   1      40.371  35.220  39.108  1.00  0.00     0.338 C 
ATOM     32  O   UNL A   1      40.312  36.356  39.541  1.00  0.00    -0.246 OA
BRANCH  31  33
ATOM     33  C   UNL A   1      41.080  34.876  37.861  1.00  0.00     0.060 A 
ATOM     34  C   UNL A   1      40.319  34.452  36.761  1.00  0.00     0.016 A 
ATOM     35  C   UNL A   1      42.472  34.915  37.790  1.00  0.00     0.016 A 
ATOM     36  C   UNL A   1      40.953  34.040  35.590  1.00  0.00     0.010 A 
ATOM     37  C   UNL A   1      43.106  34.475  36.624  1.00  0.00     0.010 A 
ATOM     38  C   UNL A   1      42.351  34.011  35.531  1.00  0.00    -0.014 A 
BRANCH  38  39
ATOM     39  C   UNL A   1      43.032  33.322  34.408  1.00  0.00     0.031 A 
ATOM     40  C   UNL A   1      43.164  34.052  33.099  1.00  0.00     0.074 A 
ATOM     41  C   UNL A   1      43.516  32.075  34.542  1.00  0.00     0.049 A 
ATOM     42  N   UNL A   1      43.610  33.619  31.949  1.00  0.00    -0.248 NA
ATOM     43  C   UNL A   1      42.731  35.459  33.088  1.00  0.00     0.031 C 
ATOM     44  C   UNL A   1      43.487  31.283  35.771  1.00  0.00     0.029 A 
ATOM     45  N   UNL A   1      44.109  31.248  33.621  1.00  0.00    -0.354 N 
ATOM     46  C   UNL A   1      43.510  34.696  31.078  1.00  0.00     0.074 A 
ATOM     47  C   UNL A   1      42.937  35.795  31.823  1.00  0.00     0.031 C 
ATOM     48  C   UNL A   1      44.008  30.069  35.516  1.00  0.00     0.029 A 
ATOM     49  C   UNL A   1      44.374  29.988  34.103  1.00  0.00     0.049 A 
ATOM     50  H   UNL A   1      44.322  31.530  32.702  1.00  0.00     0.167 HD
ATOM     51  C   UNL A   1      43.869  34.765  29.774  1.00  0.00     0.037 A 
ATOM     52  C   UNL A   1      44.825  28.889  33.465  1.00  0.00     0.037 A 
ATOM     53  C   UNL A   1      44.425  33.665  29.031  1.00  0.00     0.049 A 
ATOM     54  C   UNL A   1      45.147  28.966  31.993  1.00  0.00     0.074 A 
ATOM     55  C   UNL A   1      44.806  33.629  27.701  1.00  0.00     0.029 A 
ATOM     56  N   UNL A   1      44.675  32.405  29.553  1.00  0.00    -0.354 N 
ATOM     57  N   UNL A   1      45.048  29.990  31.178  1.00  0.00    -0.248 NA
ATOM     58  C   UNL A   1      45.641  27.737  31.354  1.00  0.00     0.031 C 
ATOM     59  C   UNL A   1      45.252  32.337  27.409  1.00  0.00     0.029 A 
ATOM     60  C   UNL A   1      45.194  31.581  28.569  1.00  0.00     0.049 A 
ATOM     61  H   UNL A   1      44.508  32.136  30.485  1.00  0.00     0.167 HD
ATOM     62  C   UNL A   1      45.492  29.536  29.939  1.00  0.00     0.074 A 
ATOM     63  C   UNL A   1      45.871  28.149  30.114  1.00  0.00     0.031 C 
ATOM     64  C   UNL A   1      45.579  30.205  28.763  1.00  0.00     0.037 A 
BRANCH  51  65
ATOM     65  C   UNL A   1      43.653  36.071  29.064  1.00  0.00     0.058 A 
ATOM     66  C   UNL A   1      44.661  37.047  29.004  1.00  0.00     0.135 A 
ATOM     67  C   UNL A   1      42.440  36.337  28.411  1.00  0.00     0.135 A 
ATOM     68  F   UNL A   1      45.830  36.851  29.631  1.00  0.00    -0.206 F 
ATOM     69  C   UNL A   1      44.466  38.251  28.334  1.00  0.00     0.059 A 
ATOM     70  C   UNL A   1      42.232  37.524  27.714  1.00  0.00     0.059 A 
ATOM     71  F   UNL A   1      41.443  35.440  28.443  1.00  0.00    -0.206 F 
ATOM     72  C   UNL A   1      43.247  38.479  27.691  1.00  0.00     0.060 A 
BRANCH  72  73
ATOM     73  S   UNL A   1      43.016  40.040  26.814  1.00  0.00     0.124 S 
ATOM     74  O   UNL A   1      44.084  39.976  25.820  1.00  0.00    -0.237 OA
ATOM     75  O   UNL A   1      41.659  39.908  26.295  1.00  0.00    -0.237 OA
ATOM     76  O   UNL A   1      43.191  41.045  27.857  1.00  0.00    -0.744 OA
ENDBRANCH  72  73
ENDBRANCH  51  65
BRANCH  52  77
ATOM     77  C   UNL A   1      44.965  27.604  34.202  1.00  0.00     0.058 A 
ATOM     78  C   UNL A   1      46.173  27.247  34.820  1.00  0.00     0.135 A 
ATOM     79  C   UNL A   1      43.899  26.694  34.278  1.00  0.00     0.135 A 
ATOM     80  F   UNL A   1      47.225  28.076  34.765  1.00  0.00    -0.206 F 
ATOM     81  C   UNL A   1      46.326  26.025  35.469  1.00  0.00     0.059 A 
ATOM     82  C   UNL A   1      44.019  25.479  34.944  1.00  0.00     0.059 A 
ATOM     83  F   UNL A   1      42.719  26.992  33.711  1.00  0.00    -0.206 F 
ATOM     84  C   UNL A   1      45.242  25.147  35.525  1.00  0.00     0.060 A 
BRANCH  84  85
ATOM     85  S   UNL A   1      45.439  23.577  36.397  1.00  0.00     0.124 S 
ATOM     86  O   UNL A   1      46.870  23.337  36.247  1.00  0.00    -0.237 OA
ATOM     87  O   UNL A   1      44.985  23.916  37.743  1.00  0.00    -0.237 OA
ATOM     88  O   UNL A   1      44.564  22.673  35.658  1.00  0.00    -0.744 OA
ENDBRANCH  84  85
ENDBRANCH  52  77
BRANCH  64  89
ATOM     89  C   UNL A   1      46.141  29.466  27.579  1.00  0.00     0.058 A 
ATOM     90  C   UNL A   1      47.523  29.309  27.394  1.00  0.00     0.135 A 
ATOM     91  C   UNL A   1      45.282  28.854  26.651  1.00  0.00     0.135 A 
ATOM     92  F   UNL A   1      48.388  29.878  28.249  1.00  0.00    -0.206 F 
ATOM     93  C   UNL A   1      48.035  28.588  26.320  1.00  0.00     0.059 A 
ATOM     94  C   UNL A   1      45.771  28.107  25.585  1.00  0.00     0.059 A 
ATOM     95  F   UNL A   1      43.950  28.964  26.789  1.00  0.00    -0.206 F 
ATOM     96  C   UNL A   1      47.150  27.989  25.420  1.00  0.00     0.060 A 
BRANCH  96  97
ATOM     97  S   UNL A   1      47.825  27.023  24.052  1.00  0.00     0.124 S 
ATOM     98  O   UNL A   1      47.073  25.778  24.174  1.00  0.00    -0.237 OA
ATOM     99  O   UNL A   1      47.498  27.849  22.894  1.00  0.00    -0.237 OA
ATOM    100  O   UNL A   1      49.246  26.932  24.368  1.00  0.00    -0.744 OA
ENDBRANCH  96  97
ENDBRANCH  64  89
ENDBRANCH  38  39
ENDBRANCH  31  33
ENDBRANCH  30  31
ENDBRANCH  29  30
ENDBRANCH  28  29
ENDBRANCH  27  28
ENDBRANCH  26  27
ENDBRANCH   1  26
TORSDOF 25
ENDMDL
