MODEL 1
REMARK VINA RESULT:     -11.2      0.000      0.000
REMARK SMILES O=C(C[C@]1(C(=O)NC2CCCCC2)CC(c2ccc([N+](=O)[O-])cc2)=NO1)OCCOCCOCCOC(=O)c1ccc(-c2c3nc(c(-c4c(F)cc(S(=O)(=O)[O-])cc4F)c4ccc([nH]4)c(-c4c(F)cc(S(=O)(=O)[O-])cc4F)c4nc(c(-c5c(F)cc(S(=O)(=O)[O-])cc5F)c5ccc2[nH]5)C=C4)C=C3)cc1
REMARK SMILES IDX 31 1 30 2 29 3 28 4 27 5 2 6 1 7 3 8 4 9 14 10 26 11 15 12
REMARK SMILES IDX 25 13 5 14 6 15 7 16 8 18 9 19 13 20 10 21 12 22 11 23 16 24
REMARK SMILES IDX 17 25 24 26 18 27 23 28 19 29 20 30 21 31 22 32 32 33 33 34
REMARK SMILES IDX 34 35 35 36 36 37 37 38 38 39 39 40 40 41 104 42 41 43
REMARK SMILES IDX 103 44 42 45 43 46 44 47 97 48 45 49 102 50 96 51 98 52
REMARK SMILES IDX 46 53 101 54 95 55 94 56 47 58 81 59 60 60 80 61 61 62 64 63
REMARK SMILES IDX 79 64 99 65 62 66 63 67 78 69 100 70 65 71 48 72 49 73 58 74
REMARK SMILES IDX 50 75 51 76 57 77 59 78 52 79 53 80 54 81 55 82 56 83 82 84
REMARK SMILES IDX 83 85 92 86 84 87 85 88 91 89 93 90 86 91 87 92 88 93 89 94
REMARK SMILES IDX 90 95 66 96 67 97 76 98 68 99 69 100 75 101 77 102 70 103
REMARK SMILES IDX 71 104 72 105 73 106 74 107
REMARK H PARENT 7 17 98 57 64 68
REMARK Flexibility Score: inf
ROOT
ATOM      1  C   UNL A   1      38.810  20.523  25.744  1.00  0.00     0.188 C 
ENDROOT
BRANCH   1   2
ATOM      2  O   UNL A   1      38.364  21.726  25.137  1.00  0.00    -0.376 OA
BRANCH   2   3
ATOM      3  C   UNL A   1      37.564  22.576  25.941  1.00  0.00     0.202 C 
BRANCH   3   4
ATOM      4  C   UNL A   1      36.151  22.676  25.365  1.00  0.00     0.261 C 
BRANCH   4   5
ATOM      5  O   UNL A   1      35.228  23.493  26.113  1.00  0.00    -0.463 OA
BRANCH   5   6
ATOM      6  C   UNL A   1      34.386  24.428  25.645  1.00  0.00     0.310 C 
ATOM      7  O   UNL A   1      34.451  25.575  26.085  1.00  0.00    -0.252 OA
BRANCH   6   8
ATOM      8  C   UNL A   1      33.319  24.053  24.645  1.00  0.00     0.185 C 
BRANCH   8   9
ATOM      9  C   UNL A   1      32.275  23.110  25.225  1.00  0.00     0.231 C 
ATOM     10  C   UNL A   1      32.794  21.822  25.833  1.00  0.00     0.123 C 
ATOM     11  O   UNL A   1      31.523  22.668  24.062  1.00  0.00    -0.378 OA
ATOM     12  C   UNL A   1      32.564  20.884  24.709  1.00  0.00     0.092 C 
ATOM     13  N   UNL A   1      31.950  21.372  23.686  1.00  0.00    -0.089 NA
BRANCH   9  14
ATOM     14  C   UNL A   1      31.316  23.842  26.172  1.00  0.00     0.268 C 
ATOM     15  O   UNL A   1      31.068  23.396  27.297  1.00  0.00    -0.270 OA
ATOM     16  N   UNL A   1      30.626  24.953  25.801  1.00  0.00    -0.350 N 
ATOM     17  H   UNL A   1      29.846  25.103  26.383  1.00  0.00     0.163 HD
BRANCH  16  18
ATOM     18  C   UNL A   1      30.731  25.996  24.761  1.00  0.00     0.082 C 
ATOM     19  C   UNL A   1      29.429  26.446  24.086  1.00  0.00     0.025 C 
ATOM     20  C   UNL A   1      31.394  27.226  25.414  1.00  0.00     0.025 C 
ATOM     21  C   UNL A   1      29.629  27.599  23.104  1.00  0.00     0.002 C 
ATOM     22  C   UNL A   1      31.598  28.380  24.439  1.00  0.00     0.002 C 
ATOM     23  C   UNL A   1      30.293  28.791  23.770  1.00  0.00     0.000 C 
ENDBRANCH  16  18
ENDBRANCH   9  14
BRANCH  12  24
ATOM     24  C   UNL A   1      32.992  19.487  24.820  1.00  0.00    -0.000 A 
ATOM     25  C   UNL A   1      33.954  18.954  23.958  1.00  0.00     0.017 A 
ATOM     26  C   UNL A   1      32.386  18.694  25.801  1.00  0.00     0.017 A 
ATOM     27  C   UNL A   1      34.316  17.608  24.085  1.00  0.00     0.086 A 
ATOM     28  C   UNL A   1      32.732  17.348  25.920  1.00  0.00     0.086 A 
ATOM     29  C   UNL A   1      33.693  16.806  25.057  1.00  0.00     0.269 A 
BRANCH  29  30
ATOM     30  N   UNL A   1      34.011  15.376  25.139  1.00  0.00     0.062 N 
ATOM     31  O   UNL A   1      33.064  14.580  25.212  1.00  0.00    -0.258 OA
ATOM     32  O   UNL A   1      35.207  15.053  25.180  1.00  0.00    -0.258 OA
ENDBRANCH  29  30
ENDBRANCH  12  24
ENDBRANCH   8   9
ENDBRANCH   6   8
ENDBRANCH   5   6
ENDBRANCH   4   5
ENDBRANCH   3   4
ENDBRANCH   2   3
ENDBRANCH   1   2
BRANCH   1  33
ATOM     33  C   UNL A   1      40.298  20.567  26.128  1.00  0.00     0.188 C 
BRANCH  33  34
ATOM     34  O   UNL A   1      40.687  20.933  27.445  1.00  0.00    -0.376 OA
BRANCH  34  35
ATOM     35  C   UNL A   1      41.090  22.268  27.706  1.00  0.00     0.202 C 
BRANCH  35  36
ATOM     36  C   UNL A   1      41.423  23.173  26.514  1.00  0.00     0.261 C 
BRANCH  36  37
ATOM     37  O   UNL A   1      40.510  24.263  26.276  1.00  0.00    -0.460 OA
BRANCH  37  38
ATOM     38  C   UNL A   1      41.103  25.482  26.213  1.00  0.00     0.338 C 
ATOM     39  O   UNL A   1      41.410  26.094  25.203  1.00  0.00    -0.246 OA
BRANCH  38  40
ATOM     40  C   UNL A   1      41.271  26.083  27.551  1.00  0.00     0.060 A 
ATOM     41  C   UNL A   1      40.270  25.845  28.501  1.00  0.00     0.016 A 
ATOM     42  C   UNL A   1      42.261  27.038  27.798  1.00  0.00     0.016 A 
ATOM     43  C   UNL A   1      40.216  26.608  29.669  1.00  0.00     0.010 A 
ATOM     44  C   UNL A   1      42.198  27.811  28.968  1.00  0.00     0.010 A 
ATOM     45  C   UNL A   1      41.144  27.636  29.885  1.00  0.00    -0.014 A 
BRANCH  45  46
ATOM     46  C   UNL A   1      40.882  28.627  30.964  1.00  0.00     0.031 A 
ATOM     47  C   UNL A   1      41.736  28.607  32.208  1.00  0.00     0.074 A 
ATOM     48  C   UNL A   1      39.949  29.587  30.818  1.00  0.00     0.049 A 
ATOM     49  N   UNL A   1      41.713  29.408  33.243  1.00  0.00    -0.248 NA
ATOM     50  C   UNL A   1      42.753  27.546  32.292  1.00  0.00     0.031 C 
ATOM     51  C   UNL A   1      39.069  29.744  29.661  1.00  0.00     0.029 A 
ATOM     52  N   UNL A   1      39.590  30.614  31.656  1.00  0.00    -0.354 N 
ATOM     53  C   UNL A   1      42.719  28.960  34.093  1.00  0.00     0.074 A 
ATOM     54  C   UNL A   1      43.303  27.790  33.473  1.00  0.00     0.031 C 
ATOM     55  C   UNL A   1      38.261  30.799  29.869  1.00  0.00     0.029 A 
ATOM     56  C   UNL A   1      38.559  31.385  31.176  1.00  0.00     0.049 A 
ATOM     57  H   UNL A   1      40.030  30.782  32.520  1.00  0.00     0.167 HD
ATOM     58  C   UNL A   1      43.136  29.482  35.273  1.00  0.00     0.037 A 
ATOM     59  C   UNL A   1      37.922  32.438  31.728  1.00  0.00     0.037 A 
ATOM     60  C   UNL A   1      42.560  30.640  35.905  1.00  0.00     0.049 A 
ATOM     61  C   UNL A   1      38.370  32.973  33.064  1.00  0.00     0.074 A 
ATOM     62  C   UNL A   1      42.917  31.235  37.104  1.00  0.00     0.029 A 
ATOM     63  N   UNL A   1      41.504  31.380  35.396  1.00  0.00    -0.354 N 
ATOM     64  N   UNL A   1      39.335  32.548  33.842  1.00  0.00    -0.248 NA
ATOM     65  C   UNL A   1      37.648  34.143  33.586  1.00  0.00     0.031 C 
ATOM     66  C   UNL A   1      42.056  32.315  37.335  1.00  0.00     0.029 A 
ATOM     67  C   UNL A   1      41.189  32.416  36.260  1.00  0.00     0.049 A 
ATOM     68  H   UNL A   1      41.046  31.196  34.544  1.00  0.00     0.167 HD
ATOM     69  C   UNL A   1      39.348  33.409  34.936  1.00  0.00     0.074 A 
ATOM     70  C   UNL A   1      38.308  34.390  34.710  1.00  0.00     0.031 C 
ATOM     71  C   UNL A   1      40.149  33.387  36.032  1.00  0.00     0.037 A 
BRANCH  58  72
ATOM     72  C   UNL A   1      44.280  28.796  35.964  1.00  0.00     0.058 A 
ATOM     73  C   UNL A   1      44.076  27.657  36.761  1.00  0.00     0.135 A 
ATOM     74  C   UNL A   1      45.598  29.253  35.798  1.00  0.00     0.135 A 
ATOM     75  F   UNL A   1      42.834  27.190  36.964  1.00  0.00    -0.206 F 
ATOM     76  C   UNL A   1      45.135  27.010  37.387  1.00  0.00     0.059 A 
ATOM     77  C   UNL A   1      46.675  28.607  36.398  1.00  0.00     0.059 A 
ATOM     78  F   UNL A   1      45.846  30.337  35.048  1.00  0.00    -0.206 F 
ATOM     79  C   UNL A   1      46.432  27.493  37.200  1.00  0.00     0.060 A 
BRANCH  79  80
ATOM     80  S   UNL A   1      47.798  26.637  38.014  1.00  0.00     0.124 S 
ATOM     81  O   UNL A   1      48.951  27.228  37.343  1.00  0.00    -0.237 OA
ATOM     82  O   UNL A   1      47.616  27.015  39.413  1.00  0.00    -0.237 OA
ATOM     83  O   UNL A   1      47.546  25.233  37.711  1.00  0.00    -0.744 OA
ENDBRANCH  79  80
ENDBRANCH  58  72
BRANCH  59  84
ATOM     84  C   UNL A   1      36.773  33.058  31.020  1.00  0.00     0.058 A 
ATOM     85  C   UNL A   1      35.452  32.820  31.423  1.00  0.00     0.135 A 
ATOM     86  C   UNL A   1      36.981  33.899  29.917  1.00  0.00     0.135 A 
ATOM     87  F   UNL A   1      35.203  32.012  32.466  1.00  0.00    -0.206 F 
ATOM     88  C   UNL A   1      34.373  33.386  30.752  1.00  0.00     0.059 A 
ATOM     89  C   UNL A   1      35.921  34.494  29.243  1.00  0.00     0.059 A 
ATOM     90  F   UNL A   1      38.229  34.169  29.502  1.00  0.00    -0.206 F 
ATOM     91  C   UNL A   1      34.620  34.227  29.665  1.00  0.00     0.060 A 
BRANCH  91  92
ATOM     92  S   UNL A   1      33.225  35.037  28.852  1.00  0.00     0.124 S 
ATOM     93  O   UNL A   1      32.811  34.019  27.895  1.00  0.00    -0.237 OA
ATOM     94  O   UNL A   1      32.317  35.278  29.969  1.00  0.00    -0.237 OA
ATOM     95  O   UNL A   1      33.831  36.239  28.285  1.00  0.00    -0.744 OA
ENDBRANCH  91  92
ENDBRANCH  59  84
BRANCH  71  96
ATOM     96  C   UNL A   1      39.944  34.467  37.059  1.00  0.00     0.058 A 
ATOM     97  C   UNL A   1      40.692  35.654  37.038  1.00  0.00     0.135 A 
ATOM     98  C   UNL A   1      38.979  34.320  38.068  1.00  0.00     0.135 A 
ATOM     99  F   UNL A   1      41.631  35.845  36.096  1.00  0.00    -0.206 F 
ATOM    100  C   UNL A   1      40.520  36.641  38.004  1.00  0.00     0.059 A 
ATOM    101  C   UNL A   1      38.771  35.304  39.030  1.00  0.00     0.059 A 
ATOM    102  F   UNL A   1      38.225  33.210  38.127  1.00  0.00    -0.206 F 
ATOM    103  C   UNL A   1      39.561  36.453  39.001  1.00  0.00     0.060 A 
BRANCH 103 104
ATOM    104  S   UNL A   1      39.348  37.734  40.257  1.00  0.00     0.124 S 
ATOM    105  O   UNL A   1      38.279  38.539  39.675  1.00  0.00    -0.237 OA
ATOM    106  O   UNL A   1      38.985  36.960  41.440  1.00  0.00    -0.237 OA
ATOM    107  O   UNL A   1      40.658  38.374  40.313  1.00  0.00    -0.744 OA
ENDBRANCH 103 104
ENDBRANCH  71  96
ENDBRANCH  45  46
ENDBRANCH  38  40
ENDBRANCH  37  38
ENDBRANCH  36  37
ENDBRANCH  35  36
ENDBRANCH  34  35
ENDBRANCH  33  34
ENDBRANCH   1  33
TORSDOF 25
ENDMDL
MODEL 2
REMARK VINA RESULT:     -10.5      1.381      2.383
REMARK SMILES O=C(C[C@]1(C(=O)NC2CCCCC2)CC(c2ccc([N+](=O)[O-])cc2)=NO1)OCCOCCOCCOC(=O)c1ccc(-c2c3nc(c(-c4c(F)cc(S(=O)(=O)[O-])cc4F)c4ccc([nH]4)c(-c4c(F)cc(S(=O)(=O)[O-])cc4F)c4nc(c(-c5c(F)cc(S(=O)(=O)[O-])cc5F)c5ccc2[nH]5)C=C4)C=C3)cc1
REMARK SMILES IDX 31 1 30 2 29 3 28 4 27 5 2 6 1 7 3 8 4 9 14 10 26 11 15 12
REMARK SMILES IDX 25 13 5 14 6 15 7 16 8 18 9 19 13 20 10 21 12 22 11 23 16 24
REMARK SMILES IDX 17 25 24 26 18 27 23 28 19 29 20 30 21 31 22 32 32 33 33 34
REMARK SMILES IDX 34 35 35 36 36 37 37 38 38 39 39 40 40 41 104 42 41 43
REMARK SMILES IDX 103 44 42 45 43 46 44 47 97 48 45 49 102 50 96 51 98 52
REMARK SMILES IDX 46 53 101 54 95 55 94 56 47 58 81 59 60 60 80 61 61 62 64 63
REMARK SMILES IDX 79 64 99 65 62 66 63 67 78 69 100 70 65 71 48 72 49 73 58 74
REMARK SMILES IDX 50 75 51 76 57 77 59 78 52 79 53 80 54 81 55 82 56 83 82 84
REMARK SMILES IDX 83 85 92 86 84 87 85 88 91 89 93 90 86 91 87 92 88 93 89 94
REMARK SMILES IDX 90 95 66 96 67 97 76 98 68 99 69 100 75 101 77 102 70 103
REMARK SMILES IDX 71 104 72 105 73 106 74 107
REMARK H PARENT 7 17 98 57 64 68
REMARK Flexibility Score: inf
ROOT
ATOM      1  C   UNL A   1      35.079  22.090  27.201  1.00  0.00     0.188 C 
ENDROOT
BRANCH   1   2
ATOM      2  O   UNL A   1      34.023  22.783  27.849  1.00  0.00    -0.376 OA
BRANCH   2   3
ATOM      3  C   UNL A   1      32.708  22.358  27.536  1.00  0.00     0.202 C 
BRANCH   3   4
ATOM      4  C   UNL A   1      31.875  23.538  27.033  1.00  0.00     0.261 C 
BRANCH   4   5
ATOM      5  O   UNL A   1      32.612  24.584  26.366  1.00  0.00    -0.463 OA
BRANCH   5   6
ATOM      6  C   UNL A   1      32.220  25.335  25.325  1.00  0.00     0.310 C 
ATOM      7  O   UNL A   1      31.022  25.562  25.161  1.00  0.00    -0.252 OA
BRANCH   6   8
ATOM      8  C   UNL A   1      33.235  25.827  24.323  1.00  0.00     0.185 C 
BRANCH   8   9
ATOM      9  C   UNL A   1      33.274  24.979  23.060  1.00  0.00     0.231 C 
ATOM     10  C   UNL A   1      32.547  23.650  23.116  1.00  0.00     0.123 C 
ATOM     11  O   UNL A   1      34.674  24.605  22.935  1.00  0.00    -0.378 OA
ATOM     12  C   UNL A   1      33.681  22.736  23.390  1.00  0.00     0.092 C 
ATOM     13  N   UNL A   1      34.851  23.276  23.391  1.00  0.00    -0.089 NA
BRANCH   9  14
ATOM     14  C   UNL A   1      32.880  25.793  21.821  1.00  0.00     0.268 C 
ATOM     15  O   UNL A   1      33.210  25.429  20.688  1.00  0.00    -0.270 OA
ATOM     16  N   UNL A   1      32.235  26.987  21.904  1.00  0.00    -0.350 N 
ATOM     17  H   UNL A   1      32.341  27.511  21.077  1.00  0.00     0.163 HD
BRANCH  16  18
ATOM     18  C   UNL A   1      31.419  27.711  22.899  1.00  0.00     0.082 C 
ATOM     19  C   UNL A   1      32.044  28.951  23.549  1.00  0.00     0.025 C 
ATOM     20  C   UNL A   1      30.113  28.132  22.197  1.00  0.00     0.025 C 
ATOM     21  C   UNL A   1      31.085  29.688  24.482  1.00  0.00     0.002 C 
ATOM     22  C   UNL A   1      29.149  28.867  23.123  1.00  0.00     0.002 C 
ATOM     23  C   UNL A   1      29.803  30.081  23.769  1.00  0.00     0.000 C 
ENDBRANCH  16  18
ENDBRANCH   9  14
BRANCH  12  24
ATOM     24  C   UNL A   1      33.436  21.307  23.602  1.00  0.00    -0.000 A 
ATOM     25  C   UNL A   1      32.320  20.675  23.048  1.00  0.00     0.017 A 
ATOM     26  C   UNL A   1      34.342  20.600  24.401  1.00  0.00     0.017 A 
ATOM     27  C   UNL A   1      32.113  19.312  23.296  1.00  0.00     0.086 A 
ATOM     28  C   UNL A   1      34.130  19.247  24.664  1.00  0.00     0.086 A 
ATOM     29  C   UNL A   1      33.011  18.607  24.115  1.00  0.00     0.269 A 
BRANCH  29  30
ATOM     30  N   UNL A   1      32.753  17.200  24.443  1.00  0.00     0.062 N 
ATOM     31  O   UNL A   1      31.823  16.954  25.224  1.00  0.00    -0.258 OA
ATOM     32  O   UNL A   1      33.510  16.347  23.957  1.00  0.00    -0.258 OA
ENDBRANCH  29  30
ENDBRANCH  12  24
ENDBRANCH   8   9
ENDBRANCH   6   8
ENDBRANCH   5   6
ENDBRANCH   4   5
ENDBRANCH   3   4
ENDBRANCH   2   3
ENDBRANCH   1   2
BRANCH   1  33
ATOM     33  C   UNL A   1      35.971  23.019  26.361  1.00  0.00     0.188 C 
BRANCH  33  34
ATOM     34  O   UNL A   1      37.262  22.590  25.949  1.00  0.00    -0.376 OA
BRANCH  34  35
ATOM     35  C   UNL A   1      38.363  23.475  26.077  1.00  0.00     0.202 C 
BRANCH  35  36
ATOM     36  C   UNL A   1      39.701  22.905  26.565  1.00  0.00     0.261 C 
BRANCH  36  37
ATOM     37  O   UNL A   1      40.826  23.803  26.512  1.00  0.00    -0.460 OA
BRANCH  37  38
ATOM     38  C   UNL A   1      41.417  24.028  27.712  1.00  0.00     0.338 C 
ATOM     39  O   UNL A   1      42.221  23.305  28.277  1.00  0.00    -0.246 OA
BRANCH  38  40
ATOM     40  C   UNL A   1      41.053  25.347  28.268  1.00  0.00     0.060 A 
ATOM     41  C   UNL A   1      42.094  26.222  28.601  1.00  0.00     0.016 A 
ATOM     42  C   UNL A   1      39.743  25.629  28.664  1.00  0.00     0.016 A 
ATOM     43  C   UNL A   1      41.840  27.346  29.390  1.00  0.00     0.010 A 
ATOM     44  C   UNL A   1      39.492  26.754  29.466  1.00  0.00     0.010 A 
ATOM     45  C   UNL A   1      40.549  27.589  29.877  1.00  0.00    -0.014 A 
BRANCH  45  46
ATOM     46  C   UNL A   1      40.366  28.597  30.957  1.00  0.00     0.031 A 
ATOM     47  C   UNL A   1      41.228  28.517  32.194  1.00  0.00     0.074 A 
ATOM     48  C   UNL A   1      39.501  29.619  30.819  1.00  0.00     0.049 A 
ATOM     49  N   UNL A   1      41.270  29.319  33.228  1.00  0.00    -0.248 NA
ATOM     50  C   UNL A   1      42.169  27.388  32.270  1.00  0.00     0.031 C 
ATOM     51  C   UNL A   1      38.623  29.837  29.670  1.00  0.00     0.029 A 
ATOM     52  N   UNL A   1      39.221  30.669  31.659  1.00  0.00    -0.354 N 
ATOM     53  C   UNL A   1      42.249  28.802  34.070  1.00  0.00     0.074 A 
ATOM     54  C   UNL A   1      42.745  27.594  33.445  1.00  0.00     0.031 C 
ATOM     55  C   UNL A   1      37.893  30.945  29.884  1.00  0.00     0.029 A 
ATOM     56  C   UNL A   1      38.243  31.509  31.188  1.00  0.00     0.049 A 
ATOM     57  H   UNL A   1      39.680  30.806  32.519  1.00  0.00     0.167 HD
ATOM     58  C   UNL A   1      42.713  29.294  35.245  1.00  0.00     0.037 A 
ATOM     59  C   UNL A   1      37.685  32.604  31.745  1.00  0.00     0.037 A 
ATOM     60  C   UNL A   1      42.224  30.489  35.882  1.00  0.00     0.049 A 
ATOM     61  C   UNL A   1      38.181  33.107  33.076  1.00  0.00     0.074 A 
ATOM     62  C   UNL A   1      42.633  31.058  37.077  1.00  0.00     0.029 A 
ATOM     63  N   UNL A   1      41.217  31.300  35.381  1.00  0.00    -0.354 N 
ATOM     64  N   UNL A   1      39.122  32.616  33.846  1.00  0.00    -0.248 NA
ATOM     65  C   UNL A   1      37.547  34.325  33.604  1.00  0.00     0.031 C 
ATOM     66  C   UNL A   1      41.851  32.195  37.314  1.00  0.00     0.029 A 
ATOM     67  C   UNL A   1      40.983  32.357  36.247  1.00  0.00     0.049 A 
ATOM     68  H   UNL A   1      40.740  31.149  34.534  1.00  0.00     0.167 HD
ATOM     69  C   UNL A   1      39.205  33.474  34.939  1.00  0.00     0.074 A 
ATOM     70  C   UNL A   1      38.233  34.525  34.721  1.00  0.00     0.031 C 
ATOM     71  C   UNL A   1      40.012  33.397  36.028  1.00  0.00     0.037 A 
BRANCH  58  72
ATOM     72  C   UNL A   1      43.813  28.530  35.927  1.00  0.00     0.058 A 
ATOM     73  C   UNL A   1      43.536  27.417  36.739  1.00  0.00     0.135 A 
ATOM     74  C   UNL A   1      45.158  28.885  35.737  1.00  0.00     0.135 A 
ATOM     75  F   UNL A   1      42.265  27.046  36.965  1.00  0.00    -0.206 F 
ATOM     76  C   UNL A   1      44.553  26.698  37.356  1.00  0.00     0.059 A 
ATOM     77  C   UNL A   1      46.193  28.165  36.328  1.00  0.00     0.059 A 
ATOM     78  F   UNL A   1      45.476  29.940  34.972  1.00  0.00    -0.206 F 
ATOM     79  C   UNL A   1      45.879  27.080  37.145  1.00  0.00     0.060 A 
BRANCH  79  80
ATOM     80  S   UNL A   1      47.189  26.132  37.947  1.00  0.00     0.124 S 
ATOM     81  O   UNL A   1      48.286  26.293  36.999  1.00  0.00    -0.237 OA
ATOM     82  O   UNL A   1      47.345  26.827  39.222  1.00  0.00    -0.237 OA
ATOM     83  O   UNL A   1      46.628  24.788  38.036  1.00  0.00    -0.744 OA
ENDBRANCH  79  80
ENDBRANCH  58  72
BRANCH  59  84
ATOM     84  C   UNL A   1      36.576  33.302  31.046  1.00  0.00     0.058 A 
ATOM     85  C   UNL A   1      36.805  34.070  29.896  1.00  0.00     0.135 A 
ATOM     86  C   UNL A   1      35.261  33.216  31.527  1.00  0.00     0.135 A 
ATOM     87  F   UNL A   1      38.050  34.192  29.407  1.00  0.00    -0.206 F 
ATOM     88  C   UNL A   1      35.771  34.738  29.249  1.00  0.00     0.059 A 
ATOM     89  C   UNL A   1      34.207  33.857  30.886  1.00  0.00     0.059 A 
ATOM     90  F   UNL A   1      34.988  32.481  32.616  1.00  0.00    -0.206 F 
ATOM     91  C   UNL A   1      34.473  34.620  29.750  1.00  0.00     0.060 A 
BRANCH  91  92
ATOM     92  S   UNL A   1      33.116  35.409  28.856  1.00  0.00     0.124 S 
ATOM     93  O   UNL A   1      32.593  34.296  28.074  1.00  0.00    -0.237 OA
ATOM     94  O   UNL A   1      32.269  35.885  29.944  1.00  0.00    -0.237 OA
ATOM     95  O   UNL A   1      33.790  36.461  28.100  1.00  0.00    -0.744 OA
ENDBRANCH  91  92
ENDBRANCH  59  84
BRANCH  71  96
ATOM     96  C   UNL A   1      39.892  34.489  37.055  1.00  0.00     0.058 A 
ATOM     97  C   UNL A   1      40.662  35.660  36.979  1.00  0.00     0.135 A 
ATOM     98  C   UNL A   1      38.986  34.371  38.121  1.00  0.00     0.135 A 
ATOM     99  F   UNL A   1      41.546  35.823  35.981  1.00  0.00    -0.206 F 
ATOM    100  C   UNL A   1      40.569  36.657  37.945  1.00  0.00     0.059 A 
ATOM    101  C   UNL A   1      38.857  35.367  39.086  1.00  0.00     0.059 A 
ATOM    102  F   UNL A   1      38.213  33.278  38.235  1.00  0.00    -0.206 F 
ATOM    103  C   UNL A   1      39.668  36.498  39.000  1.00  0.00     0.060 A 
BRANCH 103 104
ATOM    104  S   UNL A   1      39.557  37.793  40.255  1.00  0.00     0.124 S 
ATOM    105  O   UNL A   1      39.185  37.022  41.437  1.00  0.00    -0.237 OA
ATOM    106  O   UNL A   1      40.908  38.345  40.258  1.00  0.00    -0.237 OA
ATOM    107  O   UNL A   1      38.525  38.682  39.733  1.00  0.00    -0.744 OA
ENDBRANCH 103 104
ENDBRANCH  71  96
ENDBRANCH  45  46
ENDBRANCH  38  40
ENDBRANCH  37  38
ENDBRANCH  36  37
ENDBRANCH  35  36
ENDBRANCH  34  35
ENDBRANCH  33  34
ENDBRANCH   1  33
TORSDOF 25
ENDMDL
MODEL 3
REMARK VINA RESULT:     -10.2      1.345      7.927
REMARK SMILES O=C(C[C@]1(C(=O)NC2CCCCC2)CC(c2ccc([N+](=O)[O-])cc2)=NO1)OCCOCCOCCOC(=O)c1ccc(-c2c3nc(c(-c4c(F)cc(S(=O)(=O)[O-])cc4F)c4ccc([nH]4)c(-c4c(F)cc(S(=O)(=O)[O-])cc4F)c4nc(c(-c5c(F)cc(S(=O)(=O)[O-])cc5F)c5ccc2[nH]5)C=C4)C=C3)cc1
REMARK SMILES IDX 31 1 30 2 29 3 28 4 27 5 2 6 1 7 3 8 4 9 14 10 26 11 15 12
REMARK SMILES IDX 25 13 5 14 6 15 7 16 8 18 9 19 13 20 10 21 12 22 11 23 16 24
REMARK SMILES IDX 17 25 24 26 18 27 23 28 19 29 20 30 21 31 22 32 32 33 33 34
REMARK SMILES IDX 34 35 35 36 36 37 37 38 38 39 39 40 40 41 104 42 41 43
REMARK SMILES IDX 103 44 42 45 43 46 44 47 97 48 45 49 102 50 96 51 98 52
REMARK SMILES IDX 46 53 101 54 95 55 94 56 47 58 81 59 60 60 80 61 61 62 64 63
REMARK SMILES IDX 79 64 99 65 62 66 63 67 78 69 100 70 65 71 48 72 49 73 58 74
REMARK SMILES IDX 50 75 51 76 57 77 59 78 52 79 53 80 54 81 55 82 56 83 82 84
REMARK SMILES IDX 83 85 92 86 84 87 85 88 91 89 93 90 86 91 87 92 88 93 89 94
REMARK SMILES IDX 90 95 66 96 67 97 76 98 68 99 69 100 75 101 77 102 70 103
REMARK SMILES IDX 71 104 72 105 73 106 74 107
REMARK H PARENT 7 17 98 57 64 68
REMARK Flexibility Score: inf
ROOT
ATOM      1  C   UNL A   1      39.081  22.400  26.018  1.00  0.00     0.188 C 
ENDROOT
BRANCH   1   2
ATOM      2  O   UNL A   1      37.852  21.692  25.990  1.00  0.00    -0.376 OA
BRANCH   2   3
ATOM      3  C   UNL A   1      37.528  21.045  24.772  1.00  0.00     0.202 C 
BRANCH   3   4
ATOM      4  C   UNL A   1      36.764  21.998  23.851  1.00  0.00     0.261 C 
BRANCH   4   5
ATOM      5  O   UNL A   1      35.637  22.673  24.447  1.00  0.00    -0.463 OA
BRANCH   5   6
ATOM      6  C   UNL A   1      34.594  23.244  23.825  1.00  0.00     0.310 C 
ATOM      7  O   UNL A   1      34.502  23.164  22.601  1.00  0.00    -0.252 OA
BRANCH   6   8
ATOM      8  C   UNL A   1      33.587  24.043  24.616  1.00  0.00     0.185 C 
BRANCH   8   9
ATOM      9  C   UNL A   1      32.672  23.167  25.459  1.00  0.00     0.231 C 
ATOM     10  C   UNL A   1      33.263  21.868  25.968  1.00  0.00     0.123 C 
ATOM     11  O   UNL A   1      31.643  22.739  24.525  1.00  0.00    -0.378 OA
ATOM     12  C   UNL A   1      32.728  20.919  24.963  1.00  0.00     0.092 C 
ATOM     13  N   UNL A   1      31.909  21.416  24.100  1.00  0.00    -0.089 NA
BRANCH   9  14
ATOM     14  C   UNL A   1      32.002  23.968  26.583  1.00  0.00     0.268 C 
ATOM     15  O   UNL A   1      31.641  23.418  27.629  1.00  0.00    -0.270 OA
ATOM     16  N   UNL A   1      31.690  25.285  26.459  1.00  0.00    -0.350 N 
ATOM     17  H   UNL A   1      31.003  25.555  27.111  1.00  0.00     0.163 HD
BRANCH  16  18
ATOM     18  C   UNL A   1      32.103  26.421  25.609  1.00  0.00     0.082 C 
ATOM     19  C   UNL A   1      31.013  27.415  25.191  1.00  0.00     0.025 C 
ATOM     20  C   UNL A   1      33.197  27.189  26.377  1.00  0.00     0.025 C 
ATOM     21  C   UNL A   1      31.557  28.607  24.406  1.00  0.00     0.002 C 
ATOM     22  C   UNL A   1      33.746  28.380  25.599  1.00  0.00     0.002 C 
ATOM     23  C   UNL A   1      32.640  29.338  25.180  1.00  0.00     0.000 C 
ENDBRANCH  16  18
ENDBRANCH   9  14
BRANCH  12  24
ATOM     24  C   UNL A   1      33.108  19.504  25.015  1.00  0.00    -0.000 A 
ATOM     25  C   UNL A   1      32.248  18.544  25.552  1.00  0.00     0.017 A 
ATOM     26  C   UNL A   1      34.374  19.150  24.534  1.00  0.00     0.017 A 
ATOM     27  C   UNL A   1      32.662  17.207  25.603  1.00  0.00     0.086 A 
ATOM     28  C   UNL A   1      34.796  17.823  24.598  1.00  0.00     0.086 A 
ATOM     29  C   UNL A   1      33.941  16.854  25.138  1.00  0.00     0.269 A 
BRANCH  29  30
ATOM     30  N   UNL A   1      34.409  15.469  25.265  1.00  0.00     0.062 N 
ATOM     31  O   UNL A   1      35.628  15.264  25.173  1.00  0.00    -0.258 OA
ATOM     32  O   UNL A   1      33.555  14.583  25.407  1.00  0.00    -0.258 OA
ENDBRANCH  29  30
ENDBRANCH  12  24
ENDBRANCH   8   9
ENDBRANCH   6   8
ENDBRANCH   5   6
ENDBRANCH   4   5
ENDBRANCH   3   4
ENDBRANCH   2   3
ENDBRANCH   1   2
BRANCH   1  33
ATOM     33  C   UNL A   1      39.011  23.678  26.871  1.00  0.00     0.188 C 
BRANCH  33  34
ATOM     34  O   UNL A   1      40.130  24.552  26.942  1.00  0.00    -0.376 OA
BRANCH  34  35
ATOM     35  C   UNL A   1      41.379  24.128  26.419  1.00  0.00     0.202 C 
BRANCH  35  36
ATOM     36  C   UNL A   1      42.166  25.104  25.536  1.00  0.00     0.261 C 
BRANCH  36  37
ATOM     37  O   UNL A   1      41.637  26.442  25.447  1.00  0.00    -0.460 OA
BRANCH  37  38
ATOM     38  C   UNL A   1      42.572  27.418  25.557  1.00  0.00     0.338 C 
ATOM     39  O   UNL A   1      43.155  27.978  24.643  1.00  0.00    -0.246 OA
BRANCH  38  40
ATOM     40  C   UNL A   1      42.769  27.838  26.959  1.00  0.00     0.060 A 
ATOM     41  C   UNL A   1      42.021  27.184  27.945  1.00  0.00     0.016 A 
ATOM     42  C   UNL A   1      43.494  28.990  27.276  1.00  0.00     0.016 A 
ATOM     43  C   UNL A   1      41.938  27.718  29.233  1.00  0.00     0.010 A 
ATOM     44  C   UNL A   1      43.401  29.531  28.568  1.00  0.00     0.010 A 
ATOM     45  C   UNL A   1      42.579  28.926  29.539  1.00  0.00    -0.014 A 
BRANCH  45  46
ATOM     46  C   UNL A   1      42.224  29.629  30.801  1.00  0.00     0.031 A 
ATOM     47  C   UNL A   1      40.974  30.474  30.848  1.00  0.00     0.074 A 
ATOM     48  C   UNL A   1      42.954  29.465  31.920  1.00  0.00     0.049 A 
ATOM     49  N   UNL A   1      40.453  31.128  31.855  1.00  0.00    -0.248 NA
ATOM     50  C   UNL A   1      40.210  30.591  29.596  1.00  0.00     0.031 C 
ATOM     51  C   UNL A   1      44.169  28.660  32.029  1.00  0.00     0.029 A 
ATOM     52  N   UNL A   1      42.773  29.973  33.184  1.00  0.00    -0.354 N 
ATOM     53  C   UNL A   1      39.294  31.722  31.365  1.00  0.00     0.074 A 
ATOM     54  C   UNL A   1      39.213  31.386  29.960  1.00  0.00     0.031 C 
ATOM     55  C   UNL A   1      44.632  28.738  33.289  1.00  0.00     0.029 A 
ATOM     56  C   UNL A   1      43.754  29.607  34.073  1.00  0.00     0.049 A 
ATOM     57  H   UNL A   1      42.011  30.546  33.429  1.00  0.00     0.167 HD
ATOM     58  C   UNL A   1      38.368  32.462  32.023  1.00  0.00     0.037 A 
ATOM     59  C   UNL A   1      43.930  29.939  35.368  1.00  0.00     0.037 A 
ATOM     60  C   UNL A   1      38.440  32.810  33.418  1.00  0.00     0.049 A 
ATOM     61  C   UNL A   1      42.914  30.803  36.069  1.00  0.00     0.074 A 
ATOM     62  C   UNL A   1      37.548  33.562  34.166  1.00  0.00     0.029 A 
ATOM     63  N   UNL A   1      39.461  32.437  34.278  1.00  0.00    -0.354 N 
ATOM     64  N   UNL A   1      41.815  31.337  35.593  1.00  0.00    -0.248 NA
ATOM     65  C   UNL A   1      43.158  31.096  37.490  1.00  0.00     0.031 C 
ATOM     66  C   UNL A   1      38.046  33.669  35.470  1.00  0.00     0.029 A 
ATOM     67  C   UNL A   1      39.228  32.950  35.544  1.00  0.00     0.049 A 
ATOM     68  H   UNL A   1      40.237  31.886  34.027  1.00  0.00     0.167 HD
ATOM     69  C   UNL A   1      41.228  32.013  36.659  1.00  0.00     0.074 A 
ATOM     70  C   UNL A   1      42.083  31.804  37.809  1.00  0.00     0.031 C 
ATOM     71  C   UNL A   1      40.084  32.743  36.683  1.00  0.00     0.037 A 
BRANCH  58  72
ATOM     72  C   UNL A   1      37.188  32.951  31.232  1.00  0.00     0.058 A 
ATOM     73  C   UNL A   1      35.948  32.294  31.287  1.00  0.00     0.135 A 
ATOM     74  C   UNL A   1      37.282  34.110  30.444  1.00  0.00     0.135 A 
ATOM     75  F   UNL A   1      35.809  31.174  32.013  1.00  0.00    -0.206 F 
ATOM     76  C   UNL A   1      34.849  32.756  30.571  1.00  0.00     0.059 A 
ATOM     77  C   UNL A   1      36.189  34.601  29.736  1.00  0.00     0.059 A 
ATOM     78  F   UNL A   1      38.445  34.773  30.357  1.00  0.00    -0.206 F 
ATOM     79  C   UNL A   1      34.980  33.910  29.796  1.00  0.00     0.060 A 
BRANCH  79  80
ATOM     80  S   UNL A   1      33.543  34.502  28.877  1.00  0.00     0.124 S 
ATOM     81  O   UNL A   1      34.115  35.617  28.130  1.00  0.00    -0.237 OA
ATOM     82  O   UNL A   1      33.173  33.331  28.086  1.00  0.00    -0.237 OA
ATOM     83  O   UNL A   1      32.598  34.868  29.926  1.00  0.00    -0.744 OA
ENDBRANCH  79  80
ENDBRANCH  58  72
BRANCH  59  84
ATOM     84  C   UNL A   1      45.133  29.458  36.095  1.00  0.00     0.058 A 
ATOM     85  C   UNL A   1      46.317  30.208  36.123  1.00  0.00     0.135 A 
ATOM     86  C   UNL A   1      45.118  28.230  36.771  1.00  0.00     0.135 A 
ATOM     87  F   UNL A   1      46.383  31.384  35.479  1.00  0.00    -0.206 F 
ATOM     88  C   UNL A   1      47.451  29.753  36.789  1.00  0.00     0.059 A 
ATOM     89  C   UNL A   1      46.230  27.763  37.462  1.00  0.00     0.059 A 
ATOM     90  F   UNL A   1      44.002  27.483  36.786  1.00  0.00    -0.206 F 
ATOM     91  C   UNL A   1      47.394  28.530  37.460  1.00  0.00     0.060 A 
BRANCH  91  92
ATOM     92  S   UNL A   1      48.834  27.984  38.404  1.00  0.00     0.124 S 
ATOM     93  O   UNL A   1      48.388  26.685  38.893  1.00  0.00    -0.237 OA
ATOM     94  O   UNL A   1      49.879  27.963  37.386  1.00  0.00    -0.237 OA
ATOM     95  O   UNL A   1      48.981  29.030  39.412  1.00  0.00    -0.744 OA
ENDBRANCH  91  92
ENDBRANCH  59  84
BRANCH  71  96
ATOM     96  C   UNL A   1      39.681  33.352  37.999  1.00  0.00     0.058 A 
ATOM     97  C   UNL A   1      38.684  32.778  38.802  1.00  0.00     0.135 A 
ATOM     98  C   UNL A   1      40.309  34.517  38.469  1.00  0.00     0.135 A 
ATOM     99  F   UNL A   1      38.050  31.665  38.397  1.00  0.00    -0.206 F 
ATOM    100  C   UNL A   1      38.294  33.357  40.006  1.00  0.00     0.059 A 
ATOM    101  C   UNL A   1      39.954  35.101  39.682  1.00  0.00     0.059 A 
ATOM    102  F   UNL A   1      41.280  35.101  37.748  1.00  0.00    -0.206 F 
ATOM    103  C   UNL A   1      38.930  34.524  40.433  1.00  0.00     0.060 A 
BRANCH 103 104
ATOM    104  S   UNL A   1      38.414  35.276  41.993  1.00  0.00     0.124 S 
ATOM    105  O   UNL A   1      39.137  34.461  42.964  1.00  0.00    -0.237 OA
ATOM    106  O   UNL A   1      38.879  36.652  41.850  1.00  0.00    -0.237 OA
ATOM    107  O   UNL A   1      36.965  35.107  41.986  1.00  0.00    -0.744 OA
ENDBRANCH 103 104
ENDBRANCH  71  96
ENDBRANCH  45  46
ENDBRANCH  38  40
ENDBRANCH  37  38
ENDBRANCH  36  37
ENDBRANCH  35  36
ENDBRANCH  34  35
ENDBRANCH  33  34
ENDBRANCH   1  33
TORSDOF 25
ENDMDL
