MODEL 1
REMARK VINA RESULT:     -10.7      0.000      0.000
REMARK SMILES C[C@@]1(CN2C(=O)c3ccc(C(=O)OCCOCCOCCOC(=O)c4ccc(-c5c6nc(c(-c7c(F)cc(S(=O)(=O)[O-])cc7F)c7ccc([nH]7)c(-c7c(F)cc(S(=O)(=O)[O-])cc7F)c7nc(c(-c8c(F)cc(S(=O)(=O)[O-])cc8F)c8ccc5[nH]8)C=C7)C=C6)cc4)cc3C2=O)CCCO1
REMARK SMILES IDX 18 1 17 2 16 3 15 4 14 5 13 6 11 7 12 8 10 9 4 10 5 11 93 12
REMARK SMILES IDX 6 13 7 14 92 15 94 16 8 17 91 18 9 19 3 20 2 21 1 22 95 23
REMARK SMILES IDX 98 24 96 25 97 26 19 27 20 28 21 29 22 30 23 31 24 32 25 33
REMARK SMILES IDX 26 34 90 35 27 36 89 37 28 38 29 39 30 40 83 41 31 42 88 43
REMARK SMILES IDX 82 44 84 45 32 46 87 47 81 48 80 49 33 51 67 52 46 53 66 54
REMARK SMILES IDX 47 55 50 56 65 57 85 58 48 59 49 60 64 62 86 63 51 64 34 65
REMARK SMILES IDX 35 66 44 67 36 68 37 69 43 70 45 71 38 72 39 73 40 74 41 75
REMARK SMILES IDX 42 76 68 77 69 78 78 79 70 80 71 81 77 82 79 83 72 84 73 85
REMARK SMILES IDX 74 86 75 87 76 88 52 89 53 90 62 91 54 92 55 93 61 94 63 95
REMARK SMILES IDX 56 96 57 97 58 98 59 99 60 100
REMARK H PARENT 84 50 50 61
REMARK Flexibility Score: inf
ROOT
ATOM      1  C   UNL A   1      41.125  19.818  27.369  1.00  0.00     0.188 C 
ENDROOT
BRANCH   1   2
ATOM      2  C   UNL A   1      40.898  19.646  25.853  1.00  0.00     0.188 C 
BRANCH   2   3
ATOM      3  O   UNL A   1      39.818  18.830  25.471  1.00  0.00    -0.376 OA
BRANCH   3   4
ATOM      4  C   UNL A   1      38.507  19.358  25.376  1.00  0.00     0.202 C 
BRANCH   4   5
ATOM      5  C   UNL A   1      38.132  20.806  25.000  1.00  0.00     0.261 C 
BRANCH   5   6
ATOM      6  O   UNL A   1      37.033  21.415  25.682  1.00  0.00    -0.460 OA
BRANCH   6   7
ATOM      7  C   UNL A   1      35.799  21.035  25.263  1.00  0.00     0.338 C 
ATOM      8  O   UNL A   1      35.472  19.937  24.849  1.00  0.00    -0.246 OA
BRANCH   7   9
ATOM      9  C   UNL A   1      34.823  22.115  25.540  1.00  0.00     0.060 A 
ATOM     10  N   UNL A   1      32.490  26.006  24.839  1.00  0.00    -0.271 N 
ATOM     11  C   UNL A   1      32.186  25.343  25.998  1.00  0.00     0.261 C 
ATOM     12  C   UNL A   1      33.338  25.277  24.053  1.00  0.00     0.261 C 
ATOM     13  O   UNL A   1      31.401  25.636  26.875  1.00  0.00    -0.269 OA
ATOM     14  C   UNL A   1      33.014  24.138  26.016  1.00  0.00     0.053 A 
ATOM     15  C   UNL A   1      33.728  24.103  24.833  1.00  0.00     0.054 A 
ATOM     16  O   UNL A   1      33.698  25.472  22.906  1.00  0.00    -0.269 OA
ATOM     17  C   UNL A   1      33.161  23.168  26.992  1.00  0.00     0.015 A 
ATOM     18  C   UNL A   1      34.639  23.103  24.558  1.00  0.00     0.030 A 
ATOM     19  C   UNL A   1      34.080  22.142  26.745  1.00  0.00     0.016 A 
BRANCH  10  20
ATOM     20  C   UNL A   1      31.955  27.312  24.469  1.00  0.00     0.164 C 
BRANCH  20  21
ATOM     21  C   UNL A   1      32.947  28.489  24.712  1.00  0.00     0.084 C 
ATOM     22  C   UNL A   1      33.826  28.778  23.493  1.00  0.00     0.044 C 
ATOM     23  C   UNL A   1      33.819  28.230  25.945  1.00  0.00     0.039 C 
ATOM     24  O   UNL A   1      32.204  29.688  25.017  1.00  0.00    -0.373 OA
ATOM     25  C   UNL A   1      32.987  28.782  27.076  1.00  0.00     0.031 C 
ATOM     26  C   UNL A   1      32.273  29.948  26.427  1.00  0.00     0.161 C 
ENDBRANCH  20  21
ENDBRANCH  10  20
ENDBRANCH   7   9
ENDBRANCH   6   7
ENDBRANCH   5   6
ENDBRANCH   4   5
ENDBRANCH   3   4
ENDBRANCH   2   3
ENDBRANCH   1   2
BRANCH   1  27
ATOM     27  O   UNL A   1      40.803  21.039  28.006  1.00  0.00    -0.376 OA
BRANCH  27  28
ATOM     28  C   UNL A   1      40.581  22.202  27.224  1.00  0.00     0.202 C 
BRANCH  28  29
ATOM     29  C   UNL A   1      41.646  23.293  26.997  1.00  0.00     0.261 C 
BRANCH  29  30
ATOM     30  O   UNL A   1      41.254  24.440  26.238  1.00  0.00    -0.460 OA
BRANCH  30  31
ATOM     31  C   UNL A   1      40.031  24.948  26.536  1.00  0.00     0.338 C 
ATOM     32  O   UNL A   1      38.957  24.612  26.070  1.00  0.00    -0.246 OA
BRANCH  31  33
ATOM     33  C   UNL A   1      40.174  25.881  27.669  1.00  0.00     0.060 A 
ATOM     34  C   UNL A   1      39.274  25.805  28.743  1.00  0.00     0.016 A 
ATOM     35  C   UNL A   1      41.181  26.844  27.651  1.00  0.00     0.016 A 
ATOM     36  C   UNL A   1      39.379  26.699  29.809  1.00  0.00     0.010 A 
ATOM     37  C   UNL A   1      41.266  27.755  28.702  1.00  0.00     0.010 A 
ATOM     38  C   UNL A   1      40.353  27.702  29.774  1.00  0.00    -0.014 A 
BRANCH  38  39
ATOM     39  C   UNL A   1      40.332  28.824  30.741  1.00  0.00     0.031 A 
ATOM     40  C   UNL A   1      41.222  28.730  31.947  1.00  0.00     0.074 A 
ATOM     41  C   UNL A   1      39.493  29.864  30.588  1.00  0.00     0.049 A 
ATOM     42  N   UNL A   1      41.233  29.458  33.031  1.00  0.00    -0.248 NA
ATOM     43  C   UNL A   1      42.226  27.652  31.933  1.00  0.00     0.031 C 
ATOM     44  C   UNL A   1      38.627  30.092  29.434  1.00  0.00     0.029 A 
ATOM     45  N   UNL A   1      39.211  30.909  31.435  1.00  0.00    -0.354 N 
ATOM     46  C   UNL A   1      42.222  28.913  33.839  1.00  0.00     0.074 A 
ATOM     47  C   UNL A   1      42.778  27.782  33.129  1.00  0.00     0.031 C 
ATOM     48  C   UNL A   1      37.882  31.190  29.660  1.00  0.00     0.029 A 
ATOM     49  C   UNL A   1      38.185  31.709  30.993  1.00  0.00     0.049 A 
ATOM     50  H   UNL A   1      39.698  31.068  32.276  1.00  0.00     0.167 HD
ATOM     51  C   UNL A   1      42.626  29.320  35.065  1.00  0.00     0.037 A 
ATOM     52  C   UNL A   1      37.536  32.716  31.616  1.00  0.00     0.037 A 
ATOM     53  C   UNL A   1      42.060  30.445  35.759  1.00  0.00     0.049 A 
ATOM     54  C   UNL A   1      37.946  33.103  33.015  1.00  0.00     0.074 A 
ATOM     55  C   UNL A   1      42.407  30.952  36.998  1.00  0.00     0.029 A 
ATOM     56  N   UNL A   1      41.021  31.231  35.279  1.00  0.00    -0.354 N 
ATOM     57  N   UNL A   1      38.889  32.591  33.771  1.00  0.00    -0.248 NA
ATOM     58  C   UNL A   1      37.204  34.202  33.652  1.00  0.00     0.031 C 
ATOM     59  C   UNL A   1      41.538  32.007  37.295  1.00  0.00     0.029 A 
ATOM     60  C   UNL A   1      40.698  32.204  36.210  1.00  0.00     0.049 A 
ATOM     61  H   UNL A   1      40.581  31.115  34.407  1.00  0.00     0.167 HD
ATOM     62  C   UNL A   1      38.880  33.331  34.950  1.00  0.00     0.074 A 
ATOM     63  C   UNL A   1      37.836  34.323  34.812  1.00  0.00     0.031 C 
ATOM     64  C   UNL A   1      39.673  33.206  36.044  1.00  0.00     0.037 A 
BRANCH  51  65
ATOM     65  C   UNL A   1      43.703  28.523  35.747  1.00  0.00     0.058 A 
ATOM     66  C   UNL A   1      45.065  28.819  35.583  1.00  0.00     0.135 A 
ATOM     67  C   UNL A   1      43.363  27.468  36.610  1.00  0.00     0.135 A 
ATOM     68  F   UNL A   1      45.447  29.806  34.756  1.00  0.00    -0.206 F 
ATOM     69  C   UNL A   1      46.052  28.082  36.227  1.00  0.00     0.059 A 
ATOM     70  C   UNL A   1      44.333  26.736  37.290  1.00  0.00     0.059 A 
ATOM     71  F   UNL A   1      42.076  27.136  36.801  1.00  0.00    -0.206 F 
ATOM     72  C   UNL A   1      45.676  27.043  37.081  1.00  0.00     0.060 A 
BRANCH  72  73
ATOM     73  S   UNL A   1      46.970  26.103  37.916  1.00  0.00     0.124 S 
ATOM     74  O   UNL A   1      46.257  24.882  38.277  1.00  0.00    -0.237 OA
ATOM     75  O   UNL A   1      47.976  25.961  36.868  1.00  0.00    -0.237 OA
ATOM     76  O   UNL A   1      47.349  26.961  39.034  1.00  0.00    -0.744 OA
ENDBRANCH  72  73
ENDBRANCH  51  65
BRANCH  52  77
ATOM     77  C   UNL A   1      36.413  33.415  30.931  1.00  0.00     0.058 A 
ATOM     78  C   UNL A   1      36.650  34.279  29.852  1.00  0.00     0.135 A 
ATOM     79  C   UNL A   1      35.081  33.239  31.343  1.00  0.00     0.135 A 
ATOM     80  F   UNL A   1      37.905  34.495  29.429  1.00  0.00    -0.206 F 
ATOM     81  C   UNL A   1      35.613  34.953  29.215  1.00  0.00     0.059 A 
ATOM     82  C   UNL A   1      34.025  33.880  30.703  1.00  0.00     0.059 A 
ATOM     83  F   UNL A   1      34.797  32.419  32.367  1.00  0.00    -0.206 F 
ATOM     84  C   UNL A   1      34.302  34.744  29.645  1.00  0.00     0.060 A 
BRANCH  84  85
ATOM     85  S   UNL A   1      32.963  35.594  28.781  1.00  0.00     0.124 S 
ATOM     86  O   UNL A   1      32.380  34.509  28.000  1.00  0.00    -0.237 OA
ATOM     87  O   UNL A   1      32.153  36.091  29.889  1.00  0.00    -0.237 OA
ATOM     88  O   UNL A   1      33.658  36.622  28.011  1.00  0.00    -0.744 OA
ENDBRANCH  84  85
ENDBRANCH  52  77
BRANCH  64  89
ATOM     89  C   UNL A   1      39.506  34.199  37.163  1.00  0.00     0.058 A 
ATOM     90  C   UNL A   1      38.808  33.886  38.338  1.00  0.00     0.135 A 
ATOM     91  C   UNL A   1      40.164  35.439  37.101  1.00  0.00     0.135 A 
ATOM     92  F   UNL A   1      38.155  32.718  38.448  1.00  0.00    -0.206 F 
ATOM     93  C   UNL A   1      38.770  34.768  39.415  1.00  0.00     0.059 A 
ATOM     94  C   UNL A   1      40.163  36.322  38.176  1.00  0.00     0.059 A 
ATOM     95  F   UNL A   1      40.854  35.784  36.002  1.00  0.00    -0.206 F 
ATOM     96  C   UNL A   1      39.463  35.977  39.330  1.00  0.00     0.060 A 
BRANCH  96  97
ATOM     97  S   UNL A   1      39.479  37.070  40.767  1.00  0.00     0.124 S 
ATOM     98  O   UNL A   1      38.964  38.312  40.200  1.00  0.00    -0.237 OA
ATOM     99  O   UNL A   1      38.587  36.379  41.693  1.00  0.00    -0.237 OA
ATOM    100  O   UNL A   1      40.884  37.096  41.162  1.00  0.00    -0.744 OA
ENDBRANCH  96  97
ENDBRANCH  64  89
ENDBRANCH  38  39
ENDBRANCH  31  33
ENDBRANCH  30  31
ENDBRANCH  29  30
ENDBRANCH  28  29
ENDBRANCH  27  28
ENDBRANCH   1  27
TORSDOF 22
ENDMDL
MODEL 2
REMARK VINA RESULT:     -10.1      6.849     12.232
REMARK SMILES C[C@@]1(CN2C(=O)c3ccc(C(=O)OCCOCCOCCOC(=O)c4ccc(-c5c6nc(c(-c7c(F)cc(S(=O)(=O)[O-])cc7F)c7ccc([nH]7)c(-c7c(F)cc(S(=O)(=O)[O-])cc7F)c7nc(c(-c8c(F)cc(S(=O)(=O)[O-])cc8F)c8ccc5[nH]8)C=C7)C=C6)cc4)cc3C2=O)CCCO1
REMARK SMILES IDX 18 1 17 2 16 3 15 4 14 5 13 6 11 7 12 8 10 9 4 10 5 11 93 12
REMARK SMILES IDX 6 13 7 14 92 15 94 16 8 17 91 18 9 19 3 20 2 21 1 22 95 23
REMARK SMILES IDX 98 24 96 25 97 26 19 27 20 28 21 29 22 30 23 31 24 32 25 33
REMARK SMILES IDX 26 34 90 35 27 36 89 37 28 38 29 39 30 40 83 41 31 42 88 43
REMARK SMILES IDX 82 44 84 45 32 46 87 47 81 48 80 49 33 51 67 52 46 53 66 54
REMARK SMILES IDX 47 55 50 56 65 57 85 58 48 59 49 60 64 62 86 63 51 64 34 65
REMARK SMILES IDX 35 66 44 67 36 68 37 69 43 70 45 71 38 72 39 73 40 74 41 75
REMARK SMILES IDX 42 76 68 77 69 78 78 79 70 80 71 81 77 82 79 83 72 84 73 85
REMARK SMILES IDX 74 86 75 87 76 88 52 89 53 90 62 91 54 92 55 93 61 94 63 95
REMARK SMILES IDX 56 96 57 97 58 98 59 99 60 100
REMARK H PARENT 84 50 50 61
REMARK Flexibility Score: inf
ROOT
ATOM      1  C   UNL A   1      35.737  32.651  29.005  1.00  0.00     0.188 C 
ENDROOT
BRANCH   1   2
ATOM      2  C   UNL A   1      34.204  32.595  28.840  1.00  0.00     0.188 C 
BRANCH   2   3
ATOM      3  O   UNL A   1      33.725  32.234  27.568  1.00  0.00    -0.376 OA
BRANCH   3   4
ATOM      4  C   UNL A   1      33.410  30.886  27.266  1.00  0.00     0.202 C 
BRANCH   4   5
ATOM      5  C   UNL A   1      32.155  30.388  26.523  1.00  0.00     0.261 C 
BRANCH   5   6
ATOM      6  O   UNL A   1      32.335  29.701  25.282  1.00  0.00    -0.460 OA
BRANCH   6   7
ATOM      7  C   UNL A   1      31.195  29.343  24.638  1.00  0.00     0.338 C 
ATOM      8  O   UNL A   1      30.326  30.088  24.220  1.00  0.00    -0.246 OA
BRANCH   7   9
ATOM      9  C   UNL A   1      31.220  27.890  24.347  1.00  0.00     0.060 A 
ATOM     10  N   UNL A   1      31.466  23.392  25.229  1.00  0.00    -0.271 N 
ATOM     11  C   UNL A   1      31.344  23.723  23.905  1.00  0.00     0.261 C 
ATOM     12  C   UNL A   1      31.340  24.491  26.032  1.00  0.00     0.261 C 
ATOM     13  O   UNL A   1      31.305  23.005  22.928  1.00  0.00    -0.269 OA
ATOM     14  C   UNL A   1      31.263  25.182  23.848  1.00  0.00     0.053 A 
ATOM     15  C   UNL A   1      31.273  25.653  25.147  1.00  0.00     0.054 A 
ATOM     16  O   UNL A   1      31.241  24.562  27.244  1.00  0.00    -0.269 OA
ATOM     17  C   UNL A   1      31.217  26.032  22.758  1.00  0.00     0.015 A 
ATOM     18  C   UNL A   1      31.247  27.003  25.436  1.00  0.00     0.030 A 
ATOM     19  C   UNL A   1      31.194  27.408  23.016  1.00  0.00     0.016 A 
BRANCH  10  20
ATOM     20  C   UNL A   1      31.670  22.036  25.726  1.00  0.00     0.164 C 
BRANCH  20  21
ATOM     21  C   UNL A   1      33.155  21.565  25.671  1.00  0.00     0.084 C 
ATOM     22  C   UNL A   1      33.358  20.371  24.735  1.00  0.00     0.044 C 
ATOM     23  C   UNL A   1      33.683  21.236  27.072  1.00  0.00     0.039 C 
ATOM     24  O   UNL A   1      33.984  22.647  25.197  1.00  0.00    -0.373 OA
ATOM     25  C   UNL A   1      34.190  22.567  27.568  1.00  0.00     0.031 C 
ATOM     26  C   UNL A   1      34.693  23.226  26.302  1.00  0.00     0.161 C 
ENDBRANCH  20  21
ENDBRANCH  10  20
ENDBRANCH   7   9
ENDBRANCH   6   7
ENDBRANCH   5   6
ENDBRANCH   4   5
ENDBRANCH   3   4
ENDBRANCH   2   3
ENDBRANCH   1   2
BRANCH   1  27
ATOM     27  O   UNL A   1      36.431  31.577  29.608  1.00  0.00    -0.376 OA
BRANCH  27  28
ATOM     28  C   UNL A   1      35.768  30.759  30.560  1.00  0.00     0.202 C 
BRANCH  28  29
ATOM     29  C   UNL A   1      36.007  30.853  32.079  1.00  0.00     0.261 C 
BRANCH  29  30
ATOM     30  O   UNL A   1      37.360  30.759  32.535  1.00  0.00    -0.460 OA
BRANCH  30  31
ATOM     31  C   UNL A   1      37.899  29.513  32.510  1.00  0.00     0.338 C 
ATOM     32  O   UNL A   1      37.400  28.483  32.928  1.00  0.00    -0.246 OA
BRANCH  31  33
ATOM     33  C   UNL A   1      39.145  29.557  31.723  1.00  0.00     0.060 A 
ATOM     34  C   UNL A   1      39.143  30.169  30.461  1.00  0.00     0.016 A 
ATOM     35  C   UNL A   1      40.303  28.967  32.227  1.00  0.00     0.016 A 
ATOM     36  C   UNL A   1      40.308  30.194  29.693  1.00  0.00     0.010 A 
ATOM     37  C   UNL A   1      41.457  28.965  31.445  1.00  0.00     0.010 A 
ATOM     38  C   UNL A   1      41.460  29.558  30.167  1.00  0.00    -0.014 A 
BRANCH  38  39
ATOM     39  C   UNL A   1      42.626  29.328  29.284  1.00  0.00     0.031 A 
ATOM     40  C   UNL A   1      42.796  27.960  28.687  1.00  0.00     0.074 A 
ATOM     41  C   UNL A   1      43.546  30.286  29.074  1.00  0.00     0.049 A 
ATOM     42  N   UNL A   1      43.825  27.445  28.068  1.00  0.00    -0.248 NA
ATOM     43  C   UNL A   1      41.653  27.042  28.826  1.00  0.00     0.031 C 
ATOM     44  C   UNL A   1      43.459  31.663  29.553  1.00  0.00     0.029 A 
ATOM     45  N   UNL A   1      44.758  30.227  28.429  1.00  0.00    -0.354 N 
ATOM     46  C   UNL A   1      43.465  26.138  27.767  1.00  0.00     0.074 A 
ATOM     47  C   UNL A   1      42.132  25.932  28.286  1.00  0.00     0.031 C 
ATOM     48  C   UNL A   1      44.588  32.313  29.214  1.00  0.00     0.029 A 
ATOM     49  C   UNL A   1      45.494  31.383  28.540  1.00  0.00     0.049 A 
ATOM     50  H   UNL A   1      45.067  29.435  27.933  1.00  0.00     0.167 HD
ATOM     51  C   UNL A   1      44.187  25.195  27.117  1.00  0.00     0.037 A 
ATOM     52  C   UNL A   1      46.768  31.641  28.181  1.00  0.00     0.037 A 
ATOM     53  C   UNL A   1      45.515  25.416  26.609  1.00  0.00     0.049 A 
ATOM     54  C   UNL A   1      47.586  30.552  27.531  1.00  0.00     0.074 A 
ATOM     55  C   UNL A   1      46.328  24.534  25.922  1.00  0.00     0.029 A 
ATOM     56  N   UNL A   1      46.227  26.600  26.743  1.00  0.00    -0.354 N 
ATOM     57  N   UNL A   1      47.238  29.320  27.240  1.00  0.00    -0.248 NA
ATOM     58  C   UNL A   1      48.972  30.882  27.164  1.00  0.00     0.031 C 
ATOM     59  C   UNL A   1      47.556  25.163  25.693  1.00  0.00     0.029 A 
ATOM     60  C   UNL A   1      47.482  26.461  26.173  1.00  0.00     0.049 A 
ATOM     61  H   UNL A   1      45.891  27.417  27.177  1.00  0.00     0.167 HD
ATOM     62  C   UNL A   1      48.344  28.746  26.618  1.00  0.00     0.074 A 
ATOM     63  C   UNL A   1      49.375  29.761  26.580  1.00  0.00     0.031 C 
ATOM     64  C   UNL A   1      48.488  27.494  26.116  1.00  0.00     0.037 A 
BRANCH  51  65
ATOM     65  C   UNL A   1      43.574  23.833  26.954  1.00  0.00     0.058 A 
ATOM     66  C   UNL A   1      43.425  22.949  28.035  1.00  0.00     0.135 A 
ATOM     67  C   UNL A   1      43.092  23.418  25.701  1.00  0.00     0.135 A 
ATOM     68  F   UNL A   1      43.885  23.287  29.251  1.00  0.00    -0.206 F 
ATOM     69  C   UNL A   1      42.848  21.695  27.875  1.00  0.00     0.059 A 
ATOM     70  C   UNL A   1      42.481  22.180  25.524  1.00  0.00     0.059 A 
ATOM     71  F   UNL A   1      43.212  24.220  24.631  1.00  0.00    -0.206 F 
ATOM     72  C   UNL A   1      42.377  21.320  26.615  1.00  0.00     0.060 A 
BRANCH  72  73
ATOM     73  S   UNL A   1      41.621  19.692  26.428  1.00  0.00     0.124 S 
ATOM     74  O   UNL A   1      42.286  19.199  25.226  1.00  0.00    -0.237 OA
ATOM     75  O   UNL A   1      41.996  19.031  27.674  1.00  0.00    -0.237 OA
ATOM     76  O   UNL A   1      40.200  19.990  26.281  1.00  0.00    -0.744 OA
ENDBRANCH  72  73
ENDBRANCH  51  65
BRANCH  52  77
ATOM     77  C   UNL A   1      47.362  32.981  28.448  1.00  0.00     0.058 A 
ATOM     78  C   UNL A   1      47.998  33.261  29.666  1.00  0.00     0.135 A 
ATOM     79  C   UNL A   1      47.302  34.011  27.493  1.00  0.00     0.135 A 
ATOM     80  F   UNL A   1      48.068  32.318  30.617  1.00  0.00    -0.206 F 
ATOM     81  C   UNL A   1      48.540  34.513  29.935  1.00  0.00     0.059 A 
ATOM     82  C   UNL A   1      47.863  35.263  27.729  1.00  0.00     0.059 A 
ATOM     83  F   UNL A   1      46.710  33.796  26.308  1.00  0.00    -0.206 F 
ATOM     84  C   UNL A   1      48.472  35.507  28.958  1.00  0.00     0.060 A 
BRANCH  84  85
ATOM     85  S   UNL A   1      49.217  37.115  29.307  1.00  0.00     0.124 S 
ATOM     86  O   UNL A   1      49.142  37.165  30.762  1.00  0.00    -0.237 OA
ATOM     87  O   UNL A   1      50.553  36.962  28.740  1.00  0.00    -0.237 OA
ATOM     88  O   UNL A   1      48.346  38.050  28.599  1.00  0.00    -0.744 OA
ENDBRANCH  84  85
ENDBRANCH  52  77
BRANCH  64  89
ATOM     89  C   UNL A   1      49.775  27.150  25.415  1.00  0.00     0.058 A 
ATOM     90  C   UNL A   1      49.981  27.434  24.057  1.00  0.00     0.135 A 
ATOM     91  C   UNL A   1      50.858  26.641  26.151  1.00  0.00     0.135 A 
ATOM     92  F   UNL A   1      48.979  27.915  23.305  1.00  0.00    -0.206 F 
ATOM     93  C   UNL A   1      51.219  27.227  23.454  1.00  0.00     0.059 A 
ATOM     94  C   UNL A   1      52.111  26.454  25.576  1.00  0.00     0.059 A 
ATOM     95  F   UNL A   1      50.716  26.361  27.456  1.00  0.00    -0.206 F 
ATOM     96  C   UNL A   1      52.281  26.750  24.225  1.00  0.00     0.060 A 
BRANCH  96  97
ATOM     97  S   UNL A   1      53.903  26.573  23.451  1.00  0.00     0.124 S 
ATOM     98  O   UNL A   1      53.541  26.192  22.089  1.00  0.00    -0.237 OA
ATOM     99  O   UNL A   1      54.470  27.909  23.606  1.00  0.00    -0.237 OA
ATOM    100  O   UNL A   1      54.548  25.530  24.242  1.00  0.00    -0.744 OA
ENDBRANCH  96  97
ENDBRANCH  64  89
ENDBRANCH  38  39
ENDBRANCH  31  33
ENDBRANCH  30  31
ENDBRANCH  29  30
ENDBRANCH  28  29
ENDBRANCH  27  28
ENDBRANCH   1  27
TORSDOF 22
ENDMDL
MODEL 3
REMARK VINA RESULT:     -10.1      6.724     12.183
REMARK SMILES C[C@@]1(CN2C(=O)c3ccc(C(=O)OCCOCCOCCOC(=O)c4ccc(-c5c6nc(c(-c7c(F)cc(S(=O)(=O)[O-])cc7F)c7ccc([nH]7)c(-c7c(F)cc(S(=O)(=O)[O-])cc7F)c7nc(c(-c8c(F)cc(S(=O)(=O)[O-])cc8F)c8ccc5[nH]8)C=C7)C=C6)cc4)cc3C2=O)CCCO1
REMARK SMILES IDX 18 1 17 2 16 3 15 4 14 5 13 6 11 7 12 8 10 9 4 10 5 11 93 12
REMARK SMILES IDX 6 13 7 14 92 15 94 16 8 17 91 18 9 19 3 20 2 21 1 22 95 23
REMARK SMILES IDX 98 24 96 25 97 26 19 27 20 28 21 29 22 30 23 31 24 32 25 33
REMARK SMILES IDX 26 34 90 35 27 36 89 37 28 38 29 39 30 40 83 41 31 42 88 43
REMARK SMILES IDX 82 44 84 45 32 46 87 47 81 48 80 49 33 51 67 52 46 53 66 54
REMARK SMILES IDX 47 55 50 56 65 57 85 58 48 59 49 60 64 62 86 63 51 64 34 65
REMARK SMILES IDX 35 66 44 67 36 68 37 69 43 70 45 71 38 72 39 73 40 74 41 75
REMARK SMILES IDX 42 76 68 77 69 78 78 79 70 80 71 81 77 82 79 83 72 84 73 85
REMARK SMILES IDX 74 86 75 87 76 88 52 89 53 90 62 91 54 92 55 93 61 94 63 95
REMARK SMILES IDX 56 96 57 97 58 98 59 99 60 100
REMARK H PARENT 84 50 50 61
REMARK Flexibility Score: inf
ROOT
ATOM      1  C   UNL A   1      35.806  33.886  30.207  1.00  0.00     0.188 C 
ENDROOT
BRANCH   1   2
ATOM      2  C   UNL A   1      34.702  33.484  29.206  1.00  0.00     0.188 C 
BRANCH   2   3
ATOM      3  O   UNL A   1      35.072  32.574  28.199  1.00  0.00    -0.376 OA
BRANCH   3   4
ATOM      4  C   UNL A   1      34.789  31.193  28.328  1.00  0.00     0.202 C 
BRANCH   4   5
ATOM      5  C   UNL A   1      34.731  30.163  27.182  1.00  0.00     0.261 C 
BRANCH   5   6
ATOM      6  O   UNL A   1      33.755  29.121  27.262  1.00  0.00    -0.460 OA
BRANCH   6   7
ATOM      7  C   UNL A   1      32.926  29.011  26.193  1.00  0.00     0.338 C 
ATOM      8  O   UNL A   1      32.638  29.886  25.397  1.00  0.00    -0.246 OA
BRANCH   7   9
ATOM      9  C   UNL A   1      32.530  27.594  26.012  1.00  0.00     0.060 A 
ATOM     10  N   UNL A   1      32.994  23.176  24.855  1.00  0.00    -0.271 N 
ATOM     11  C   UNL A   1      31.763  23.526  25.345  1.00  0.00     0.261 C 
ATOM     12  C   UNL A   1      33.883  24.209  24.952  1.00  0.00     0.261 C 
ATOM     13  O   UNL A   1      30.772  22.846  25.507  1.00  0.00    -0.269 OA
ATOM     14  C   UNL A   1      31.835  24.951  25.666  1.00  0.00     0.053 A 
ATOM     15  C   UNL A   1      33.127  25.372  25.415  1.00  0.00     0.054 A 
ATOM     16  O   UNL A   1      35.087  24.222  24.764  1.00  0.00    -0.269 OA
ATOM     17  C   UNL A   1      30.852  25.818  26.109  1.00  0.00     0.015 A 
ATOM     18  C   UNL A   1      33.513  26.688  25.582  1.00  0.00     0.030 A 
ATOM     19  C   UNL A   1      31.210  27.160  26.285  1.00  0.00     0.016 A 
BRANCH  10  20
ATOM     20  C   UNL A   1      33.328  21.859  24.325  1.00  0.00     0.164 C 
BRANCH  20  21
ATOM     21  C   UNL A   1      33.597  20.789  25.426  1.00  0.00     0.084 C 
ATOM     22  C   UNL A   1      33.965  21.413  26.774  1.00  0.00     0.044 C 
ATOM     23  C   UNL A   1      34.684  19.803  24.984  1.00  0.00     0.039 C 
ATOM     24  O   UNL A   1      32.412  19.988  25.617  1.00  0.00    -0.373 OA
ATOM     25  C   UNL A   1      33.906  18.747  24.239  1.00  0.00     0.031 C 
ATOM     26  C   UNL A   1      32.590  18.712  24.985  1.00  0.00     0.161 C 
ENDBRANCH  20  21
ENDBRANCH  10  20
ENDBRANCH   7   9
ENDBRANCH   6   7
ENDBRANCH   5   6
ENDBRANCH   4   5
ENDBRANCH   3   4
ENDBRANCH   2   3
ENDBRANCH   1   2
BRANCH   1  27
ATOM     27  O   UNL A   1      35.488  34.132  31.562  1.00  0.00    -0.376 OA
BRANCH  27  28
ATOM     28  C   UNL A   1      36.513  34.088  32.543  1.00  0.00     0.202 C 
BRANCH  28  29
ATOM     29  C   UNL A   1      37.908  33.483  32.292  1.00  0.00     0.261 C 
BRANCH  29  30
ATOM     30  O   UNL A   1      38.142  32.157  32.773  1.00  0.00    -0.460 OA
BRANCH  30  31
ATOM     31  C   UNL A   1      37.681  31.157  31.979  1.00  0.00     0.338 C 
ATOM     32  O   UNL A   1      36.521  30.835  31.794  1.00  0.00    -0.246 OA
BRANCH  31  33
ATOM     33  C   UNL A   1      38.814  30.607  31.212  1.00  0.00     0.060 A 
ATOM     34  C   UNL A   1      39.912  30.065  31.897  1.00  0.00     0.016 A 
ATOM     35  C   UNL A   1      38.796  30.654  29.820  1.00  0.00     0.016 A 
ATOM     36  C   UNL A   1      41.004  29.566  31.186  1.00  0.00     0.010 A 
ATOM     37  C   UNL A   1      39.901  30.184  29.112  1.00  0.00     0.010 A 
ATOM     38  C   UNL A   1      41.018  29.658  29.790  1.00  0.00    -0.014 A 
BRANCH  38  39
ATOM     39  C   UNL A   1      42.253  29.391  29.017  1.00  0.00     0.031 A 
ATOM     40  C   UNL A   1      42.460  28.003  28.482  1.00  0.00     0.074 A 
ATOM     41  C   UNL A   1      43.197  30.335  28.857  1.00  0.00     0.049 A 
ATOM     42  N   UNL A   1      43.533  27.461  27.970  1.00  0.00    -0.248 NA
ATOM     43  C   UNL A   1      41.300  27.098  28.552  1.00  0.00     0.031 C 
ATOM     44  C   UNL A   1      43.083  31.728  29.282  1.00  0.00     0.029 A 
ATOM     45  N   UNL A   1      44.458  30.247  28.320  1.00  0.00    -0.354 N 
ATOM     46  C   UNL A   1      43.187  26.147  27.682  1.00  0.00     0.074 A 
ATOM     47  C   UNL A   1      41.813  25.968  28.091  1.00  0.00     0.031 C 
ATOM     48  C   UNL A   1      44.242  32.359  29.020  1.00  0.00     0.029 A 
ATOM     49  C   UNL A   1      45.193  31.400  28.457  1.00  0.00     0.049 A 
ATOM     50  H   UNL A   1      44.802  29.436  27.879  1.00  0.00     0.167 HD
ATOM     51  C   UNL A   1      43.953  25.179  27.127  1.00  0.00     0.037 A 
ATOM     52  C   UNL A   1      46.497  31.638  28.200  1.00  0.00     0.037 A 
ATOM     53  C   UNL A   1      45.322  25.373  26.728  1.00  0.00     0.049 A 
ATOM     54  C   UNL A   1      47.357  30.522  27.659  1.00  0.00     0.074 A 
ATOM     55  C   UNL A   1      46.183  24.463  26.143  1.00  0.00     0.029 A 
ATOM     56  N   UNL A   1      46.032  26.556  26.885  1.00  0.00    -0.354 N 
ATOM     57  N   UNL A   1      47.023  29.284  27.378  1.00  0.00    -0.248 NA
ATOM     58  C   UNL A   1      48.772  30.831  27.401  1.00  0.00     0.031 C 
ATOM     59  C   UNL A   1      47.432  25.076  26.000  1.00  0.00     0.029 A 
ATOM     60  C   UNL A   1      47.329  26.390  26.429  1.00  0.00     0.049 A 
ATOM     61  H   UNL A   1      45.667  27.389  27.262  1.00  0.00     0.167 HD
ATOM     62  C   UNL A   1      48.172  28.682  26.873  1.00  0.00     0.074 A 
ATOM     63  C   UNL A   1      49.213  29.688  26.891  1.00  0.00     0.031 C 
ATOM     64  C   UNL A   1      48.346  27.413  26.426  1.00  0.00     0.037 A 
BRANCH  51  65
ATOM     65  C   UNL A   1      43.343  23.816  26.956  1.00  0.00     0.058 A 
ATOM     66  C   UNL A   1      42.866  23.365  25.715  1.00  0.00     0.135 A 
ATOM     67  C   UNL A   1      43.268  22.931  28.045  1.00  0.00     0.135 A 
ATOM     68  F   UNL A   1      42.895  24.176  24.645  1.00  0.00    -0.206 F 
ATOM     69  C   UNL A   1      42.311  22.099  25.565  1.00  0.00     0.059 A 
ATOM     70  C   UNL A   1      42.748  21.647  27.912  1.00  0.00     0.059 A 
ATOM     71  F   UNL A   1      43.705  23.311  29.256  1.00  0.00    -0.206 F 
ATOM     72  C   UNL A   1      42.258  21.246  26.670  1.00  0.00     0.060 A 
BRANCH  72  73
ATOM     73  S   UNL A   1      41.545  19.602  26.455  1.00  0.00     0.124 S 
ATOM     74  O   UNL A   1      40.145  19.924  26.201  1.00  0.00    -0.237 OA
ATOM     75  O   UNL A   1      42.293  19.087  25.312  1.00  0.00    -0.237 OA
ATOM     76  O   UNL A   1      41.816  18.942  27.728  1.00  0.00    -0.744 OA
ENDBRANCH  72  73
ENDBRANCH  51  65
BRANCH  52  77
ATOM     77  C   UNL A   1      47.078  32.982  28.474  1.00  0.00     0.058 A 
ATOM     78  C   UNL A   1      47.075  33.984  27.492  1.00  0.00     0.135 A 
ATOM     79  C   UNL A   1      47.651  33.292  29.719  1.00  0.00     0.135 A 
ATOM     80  F   UNL A   1      46.555  33.734  26.281  1.00  0.00    -0.206 F 
ATOM     81  C   UNL A   1      47.631  35.238  27.727  1.00  0.00     0.059 A 
ATOM     82  C   UNL A   1      48.186  34.548  29.987  1.00  0.00     0.059 A 
ATOM     83  F   UNL A   1      47.674  32.372  30.696  1.00  0.00    -0.206 F 
ATOM     84  C   UNL A   1      48.180  35.512  28.980  1.00  0.00     0.060 A 
BRANCH  84  85
ATOM     85  S   UNL A   1      48.860  37.157  29.284  1.00  0.00     0.124 S 
ATOM     86  O   UNL A   1      48.697  37.282  30.728  1.00  0.00    -0.237 OA
ATOM     87  O   UNL A   1      50.232  37.014  28.806  1.00  0.00    -0.237 OA
ATOM     88  O   UNL A   1      48.011  38.028  28.476  1.00  0.00    -0.744 OA
ENDBRANCH  84  85
ENDBRANCH  52  77
BRANCH  64  89
ATOM     89  C   UNL A   1      49.685  27.038  25.850  1.00  0.00     0.058 A 
ATOM     90  C   UNL A   1      50.008  27.268  24.504  1.00  0.00     0.135 A 
ATOM     91  C   UNL A   1      50.699  26.552  26.692  1.00  0.00     0.135 A 
ATOM     92  F   UNL A   1      49.075  27.725  23.652  1.00  0.00    -0.206 F 
ATOM     93  C   UNL A   1      51.290  27.034  24.015  1.00  0.00     0.059 A 
ATOM     94  C   UNL A   1      51.994  26.338  26.233  1.00  0.00     0.059 A 
ATOM     95  F   UNL A   1      50.444  26.322  27.991  1.00  0.00    -0.206 F 
ATOM     96  C   UNL A   1      52.280  26.582  24.891  1.00  0.00     0.060 A 
BRANCH  96  97
ATOM     97  S   UNL A   1      53.960  26.368  24.264  1.00  0.00     0.124 S 
ATOM     98  O   UNL A   1      54.341  25.095  24.868  1.00  0.00    -0.237 OA
ATOM     99  O   UNL A   1      53.752  26.347  22.819  1.00  0.00    -0.237 OA
ATOM    100  O   UNL A   1      54.667  27.540  24.771  1.00  0.00    -0.744 OA
ENDBRANCH  96  97
ENDBRANCH  64  89
ENDBRANCH  38  39
ENDBRANCH  31  33
ENDBRANCH  30  31
ENDBRANCH  29  30
ENDBRANCH  28  29
ENDBRANCH  27  28
ENDBRANCH   1  27
TORSDOF 22
ENDMDL
