MODEL 1
REMARK VINA RESULT:     -11.0      0.000      0.000
REMARK SMILES O=C(OCCOCCOCCOC(=O)c1sccc1S(=O)(=O)Nc1ccc(Cn2cncn2)cc1)c1ccc(-c2c3nc(c(-c4c(F)cc(S(=O)(=O)[O-])cc4F)c4ccc([nH]4)c(-c4c(F)cc(S(=O)(=O)[O-])cc4F)c4nc(c(-c5c(F)cc(S(=O)(=O)[O-])cc5F)c5ccc2[nH]5)C=C4)C=C3)cc1
REMARK SMILES IDX 8 1 7 2 6 3 5 4 4 5 3 6 2 7 1 8 36 9 37 10 101 11 38 12
REMARK SMILES IDX 100 13 39 14 40 15 41 16 94 17 42 18 99 19 93 20 95 21 43 22
REMARK SMILES IDX 98 23 92 24 91 25 44 27 78 28 57 29 77 30 58 31 61 32 76 33
REMARK SMILES IDX 96 34 59 35 60 36 75 38 97 39 62 40 45 41 46 42 55 43 47 44
REMARK SMILES IDX 48 45 54 46 56 47 49 48 50 49 51 50 52 51 53 52 79 53 80 54
REMARK SMILES IDX 89 55 81 56 82 57 88 58 90 59 83 60 84 61 85 62 86 63 87 64
REMARK SMILES IDX 63 65 64 66 73 67 65 68 66 69 72 70 74 71 67 72 68 73 69 74
REMARK SMILES IDX 70 75 71 76 9 77 10 78 11 79 12 80 13 81 14 82 15 83 16 84
REMARK SMILES IDX 19 85 17 86 18 87 20 88 21 89 22 90 23 91 24 93 25 94 35 95
REMARK SMILES IDX 26 96 34 97 27 98 28 99 29 100 30 101 33 102 31 103 32 104
REMARK H PARENT 95 26 61 37 23 92
REMARK Flexibility Score: inf
ROOT
ATOM      1  C   UNL A   1      34.753  32.479  28.123  1.00  0.00     0.188 C 
ENDROOT
BRANCH   1   2
ATOM      2  C   UNL A   1      33.933  33.776  28.047  1.00  0.00     0.188 C 
BRANCH   2   3
ATOM      3  O   UNL A   1      34.354  34.938  28.759  1.00  0.00    -0.376 OA
BRANCH   3   4
ATOM      4  C   UNL A   1      33.392  35.838  29.278  1.00  0.00     0.202 C 
BRANCH   4   5
ATOM      5  C   UNL A   1      32.887  35.535  30.693  1.00  0.00     0.261 C 
BRANCH   5   6
ATOM      6  O   UNL A   1      33.603  34.503  31.396  1.00  0.00    -0.460 OA
BRANCH   6   7
ATOM      7  C   UNL A   1      34.860  34.468  31.894  1.00  0.00     0.338 C 
ATOM      8  O   UNL A   1      35.197  35.386  32.644  1.00  0.00    -0.246 OA
BRANCH   7   9
ATOM      9  C   UNL A   1      35.893  33.443  31.547  1.00  0.00     0.060 A 
ATOM     10  C   UNL A   1      35.707  32.062  31.575  1.00  0.00     0.016 A 
ATOM     11  C   UNL A   1      37.153  33.931  31.138  1.00  0.00     0.016 A 
ATOM     12  C   UNL A   1      36.742  31.192  31.283  1.00  0.00     0.010 A 
ATOM     13  C   UNL A   1      38.204  33.063  30.846  1.00  0.00     0.010 A 
ATOM     14  C   UNL A   1      38.002  31.693  30.981  1.00  0.00    -0.014 A 
BRANCH  14  15
ATOM     15  C   UNL A   1      39.076  30.713  31.049  1.00  0.00     0.031 A 
ATOM     16  C   UNL A   1      39.851  30.582  32.313  1.00  0.00     0.074 A 
ATOM     17  C   UNL A   1      39.450  30.065  29.931  1.00  0.00     0.049 A 
ATOM     18  N   UNL A   1      41.102  30.846  32.521  1.00  0.00    -0.248 NA
ATOM     19  C   UNL A   1      39.123  30.132  33.506  1.00  0.00     0.031 C 
ATOM     20  C   UNL A   1      38.704  29.925  28.676  1.00  0.00     0.029 A 
ATOM     21  N   UNL A   1      40.576  29.333  29.716  1.00  0.00    -0.354 N 
ATOM     22  C   UNL A   1      41.373  30.430  33.822  1.00  0.00     0.074 A 
ATOM     23  C   UNL A   1      40.104  30.075  34.409  1.00  0.00     0.031 C 
ATOM     24  C   UNL A   1      39.299  28.987  27.914  1.00  0.00     0.029 A 
ATOM     25  C   UNL A   1      40.526  28.568  28.566  1.00  0.00     0.049 A 
ATOM     26  H   UNL A   1      41.352  29.345  30.322  1.00  0.00     0.167 HD
ATOM     27  C   UNL A   1      42.635  30.255  34.304  1.00  0.00     0.037 A 
ATOM     28  C   UNL A   1      41.380  27.581  28.221  1.00  0.00     0.037 A 
ATOM     29  C   UNL A   1      43.630  30.944  33.533  1.00  0.00     0.049 A 
ATOM     30  C   UNL A   1      42.665  27.821  28.921  1.00  0.00     0.074 A 
ATOM     31  C   UNL A   1      43.907  32.270  33.265  1.00  0.00     0.029 A 
ATOM     32  N   UNL A   1      44.402  30.222  32.659  1.00  0.00    -0.354 N 
ATOM     33  N   UNL A   1      43.465  28.823  28.669  1.00  0.00    -0.248 NA
ATOM     34  C   UNL A   1      42.910  27.139  30.183  1.00  0.00     0.031 C 
ATOM     35  C   UNL A   1      44.480  32.284  31.960  1.00  0.00     0.029 A 
ATOM     36  C   UNL A   1      44.514  30.964  31.508  1.00  0.00     0.049 A 
ATOM     37  H   UNL A   1      44.800  29.337  32.824  1.00  0.00     0.167 HD
ATOM     38  C   UNL A   1      44.044  29.140  29.888  1.00  0.00     0.074 A 
ATOM     39  C   UNL A   1      43.765  27.996  30.746  1.00  0.00     0.031 C 
ATOM     40  C   UNL A   1      44.466  30.408  30.171  1.00  0.00     0.037 A 
BRANCH  27  41
ATOM     41  C   UNL A   1      42.979  29.240  35.361  1.00  0.00     0.058 A 
ATOM     42  C   UNL A   1      43.661  29.615  36.534  1.00  0.00     0.135 A 
ATOM     43  C   UNL A   1      42.860  27.851  35.134  1.00  0.00     0.135 A 
ATOM     44  F   UNL A   1      43.864  30.910  36.823  1.00  0.00    -0.206 F 
ATOM     45  C   UNL A   1      44.200  28.673  37.415  1.00  0.00     0.059 A 
ATOM     46  C   UNL A   1      43.346  26.896  36.021  1.00  0.00     0.059 A 
ATOM     47  F   UNL A   1      42.335  27.372  33.998  1.00  0.00    -0.206 F 
ATOM     48  C   UNL A   1      44.044  27.315  37.143  1.00  0.00     0.060 A 
BRANCH  48  49
ATOM     49  S   UNL A   1      44.802  26.093  38.230  1.00  0.00     0.124 S 
ATOM     50  O   UNL A   1      46.205  26.486  38.175  1.00  0.00    -0.237 OA
ATOM     51  O   UNL A   1      44.119  26.336  39.497  1.00  0.00    -0.237 OA
ATOM     52  O   UNL A   1      44.474  24.825  37.584  1.00  0.00    -0.744 OA
ENDBRANCH  48  49
ENDBRANCH  27  41
BRANCH  28  53
ATOM     53  C   UNL A   1      40.970  26.278  27.648  1.00  0.00     0.058 A 
ATOM     54  C   UNL A   1      41.730  25.644  26.655  1.00  0.00     0.135 A 
ATOM     55  C   UNL A   1      39.937  25.513  28.235  1.00  0.00     0.135 A 
ATOM     56  F   UNL A   1      42.755  26.287  26.078  1.00  0.00    -0.206 F 
ATOM     57  C   UNL A   1      41.492  24.319  26.280  1.00  0.00     0.059 A 
ATOM     58  C   UNL A   1      39.669  24.202  27.862  1.00  0.00     0.059 A 
ATOM     59  F   UNL A   1      39.210  25.987  29.258  1.00  0.00    -0.206 F 
ATOM     60  C   UNL A   1      40.465  23.603  26.897  1.00  0.00     0.060 A 
BRANCH  60  61
ATOM     61  S   UNL A   1      40.250  21.850  26.523  1.00  0.00     0.124 S 
ATOM     62  O   UNL A   1      40.435  21.240  27.835  1.00  0.00    -0.237 OA
ATOM     63  O   UNL A   1      38.893  21.817  25.987  1.00  0.00    -0.237 OA
ATOM     64  O   UNL A   1      41.307  21.577  25.553  1.00  0.00    -0.744 OA
ENDBRANCH  60  61
ENDBRANCH  28  53
BRANCH  40  65
ATOM     65  C   UNL A   1      44.588  31.383  29.026  1.00  0.00     0.058 A 
ATOM     66  C   UNL A   1      45.720  31.456  28.195  1.00  0.00     0.135 A 
ATOM     67  C   UNL A   1      43.474  32.155  28.660  1.00  0.00     0.135 A 
ATOM     68  F   UNL A   1      46.782  30.668  28.412  1.00  0.00    -0.206 F 
ATOM     69  C   UNL A   1      45.759  32.287  27.075  1.00  0.00     0.059 A 
ATOM     70  C   UNL A   1      43.481  32.971  27.529  1.00  0.00     0.059 A 
ATOM     71  F   UNL A   1      42.338  32.078  29.374  1.00  0.00    -0.206 F 
ATOM     72  C   UNL A   1      44.632  33.041  26.747  1.00  0.00     0.060 A 
BRANCH  72  73
ATOM     73  S   UNL A   1      44.649  34.031  25.234  1.00  0.00     0.124 S 
ATOM     74  O   UNL A   1      46.055  34.406  25.129  1.00  0.00    -0.237 OA
ATOM     75  O   UNL A   1      44.168  33.087  24.228  1.00  0.00    -0.237 OA
ATOM     76  O   UNL A   1      43.730  35.126  25.534  1.00  0.00    -0.744 OA
ENDBRANCH  72  73
ENDBRANCH  40  65
ENDBRANCH  14  15
ENDBRANCH   7   9
ENDBRANCH   6   7
ENDBRANCH   5   6
ENDBRANCH   4   5
ENDBRANCH   3   4
ENDBRANCH   2   3
ENDBRANCH   1   2
BRANCH   1  77
ATOM     77  O   UNL A   1      33.968  31.293  28.237  1.00  0.00    -0.376 OA
BRANCH  77  78
ATOM     78  C   UNL A   1      33.247  30.903  27.075  1.00  0.00     0.202 C 
BRANCH  78  79
ATOM     79  C   UNL A   1      32.327  29.696  27.271  1.00  0.00     0.261 C 
BRANCH  79  80
ATOM     80  O   UNL A   1      32.571  28.489  26.501  1.00  0.00    -0.459 OA
BRANCH  80  81
ATOM     81  C   UNL A   1      31.575  27.649  26.129  1.00  0.00     0.349 C 
ATOM     82  O   UNL A   1      30.774  27.096  26.863  1.00  0.00    -0.245 OA
BRANCH  81  83
ATOM     83  C   UNL A   1      31.538  27.530  24.707  1.00  0.00     0.133 A 
ATOM     84  S   UNL A   1      30.502  28.600  23.858  1.00  0.00    -0.136 S 
ATOM     85  C   UNL A   1      32.132  26.611  23.878  1.00  0.00     0.113 A 
ATOM     86  C   UNL A   1      30.874  27.868  22.361  1.00  0.00     0.067 A 
ATOM     87  C   UNL A   1      31.760  26.822  22.508  1.00  0.00     0.035 A 
BRANCH  85  88
ATOM     88  S   UNL A   1      33.205  25.342  24.372  1.00  0.00     0.263 S 
ATOM     89  O   UNL A   1      34.401  26.034  24.797  1.00  0.00    -0.201 OA
ATOM     90  O   UNL A   1      32.396  24.596  25.313  1.00  0.00    -0.201 OA
BRANCH  88  91
ATOM     91  N   UNL A   1      33.579  24.262  23.155  1.00  0.00    -0.280 N 
ATOM     92  H   UNL A   1      33.858  24.646  22.291  1.00  0.00     0.180 HD
BRANCH  91  93
ATOM     93  C   UNL A   1      33.535  22.836  23.240  1.00  0.00     0.049 A 
ATOM     94  C   UNL A   1      34.436  22.239  24.133  1.00  0.00     0.027 A 
ATOM     95  C   UNL A   1      32.503  22.062  22.721  1.00  0.00     0.027 A 
ATOM     96  C   UNL A   1      34.212  20.943  24.632  1.00  0.00     0.008 A 
ATOM     97  C   UNL A   1      32.275  20.773  23.222  1.00  0.00     0.008 A 
ATOM     98  C   UNL A   1      33.071  20.231  24.248  1.00  0.00    -0.026 A 
BRANCH  98  99
ATOM     99  C   UNL A   1      32.514  19.024  24.981  1.00  0.00     0.181 C 
BRANCH  99 100
ATOM    100  N   UNL A   1      33.188  17.753  24.769  1.00  0.00    -0.249 N 
ATOM    101  C   UNL A   1      33.095  16.625  25.530  1.00  0.00     0.220 A 
ATOM    102  N   UNL A   1      33.796  17.484  23.593  1.00  0.00    -0.160 NA
ATOM    103  N   UNL A   1      33.657  15.619  24.899  1.00  0.00    -0.224 NA
ATOM    104  C   UNL A   1      34.034  16.177  23.713  1.00  0.00     0.246 A 
ENDBRANCH  99 100
ENDBRANCH  98  99
ENDBRANCH  91  93
ENDBRANCH  88  91
ENDBRANCH  85  88
ENDBRANCH  81  83
ENDBRANCH  80  81
ENDBRANCH  79  80
ENDBRANCH  78  79
ENDBRANCH  77  78
ENDBRANCH   1  77
TORSDOF 25
ENDMDL
MODEL 2
REMARK VINA RESULT:     -10.8      2.879      9.869
REMARK SMILES O=C(OCCOCCOCCOC(=O)c1sccc1S(=O)(=O)Nc1ccc(Cn2cncn2)cc1)c1ccc(-c2c3nc(c(-c4c(F)cc(S(=O)(=O)[O-])cc4F)c4ccc([nH]4)c(-c4c(F)cc(S(=O)(=O)[O-])cc4F)c4nc(c(-c5c(F)cc(S(=O)(=O)[O-])cc5F)c5ccc2[nH]5)C=C4)C=C3)cc1
REMARK SMILES IDX 8 1 7 2 6 3 5 4 4 5 3 6 2 7 1 8 36 9 37 10 101 11 38 12
REMARK SMILES IDX 100 13 39 14 40 15 41 16 94 17 42 18 99 19 93 20 95 21 43 22
REMARK SMILES IDX 98 23 92 24 91 25 44 27 78 28 57 29 77 30 58 31 61 32 76 33
REMARK SMILES IDX 96 34 59 35 60 36 75 38 97 39 62 40 45 41 46 42 55 43 47 44
REMARK SMILES IDX 48 45 54 46 56 47 49 48 50 49 51 50 52 51 53 52 79 53 80 54
REMARK SMILES IDX 89 55 81 56 82 57 88 58 90 59 83 60 84 61 85 62 86 63 87 64
REMARK SMILES IDX 63 65 64 66 73 67 65 68 66 69 72 70 74 71 67 72 68 73 69 74
REMARK SMILES IDX 70 75 71 76 9 77 10 78 11 79 12 80 13 81 14 82 15 83 16 84
REMARK SMILES IDX 19 85 17 86 18 87 20 88 21 89 22 90 23 91 24 93 25 94 35 95
REMARK SMILES IDX 26 96 34 97 27 98 28 99 29 100 30 101 33 102 31 103 32 104
REMARK H PARENT 95 26 61 37 23 92
REMARK Flexibility Score: inf
ROOT
ATOM      1  C   UNL A   1      37.958  23.624  25.777  1.00  0.00     0.188 C 
ENDROOT
BRANCH   1   2
ATOM      2  C   UNL A   1      38.592  22.268  26.118  1.00  0.00     0.188 C 
BRANCH   2   3
ATOM      3  O   UNL A   1      39.724  22.198  26.983  1.00  0.00    -0.376 OA
BRANCH   3   4
ATOM      4  C   UNL A   1      40.591  21.080  26.926  1.00  0.00     0.202 C 
BRANCH   4   5
ATOM      5  C   UNL A   1      42.020  21.365  26.453  1.00  0.00     0.261 C 
BRANCH   5   6
ATOM      6  O   UNL A   1      42.138  22.325  25.387  1.00  0.00    -0.460 OA
BRANCH   6   7
ATOM      7  C   UNL A   1      42.722  23.544  25.344  1.00  0.00     0.338 C 
ATOM      8  O   UNL A   1      43.759  23.652  24.685  1.00  0.00    -0.246 OA
BRANCH   7   9
ATOM      9  C   UNL A   1      42.249  24.751  26.091  1.00  0.00     0.060 A 
ATOM     10  C   UNL A   1      41.488  25.789  25.557  1.00  0.00     0.016 A 
ATOM     11  C   UNL A   1      42.591  24.820  27.459  1.00  0.00     0.016 A 
ATOM     12  C   UNL A   1      41.139  26.889  26.319  1.00  0.00     0.010 A 
ATOM     13  C   UNL A   1      42.249  25.926  28.235  1.00  0.00     0.010 A 
ATOM     14  C   UNL A   1      41.573  26.985  27.636  1.00  0.00    -0.014 A 
BRANCH  14  15
ATOM     15  C   UNL A   1      41.463  28.315  28.215  1.00  0.00     0.031 A 
ATOM     16  C   UNL A   1      42.631  29.234  28.133  1.00  0.00     0.074 A 
ATOM     17  C   UNL A   1      40.380  28.628  28.948  1.00  0.00     0.049 A 
ATOM     18  N   UNL A   1      43.359  29.700  29.099  1.00  0.00    -0.248 NA
ATOM     19  C   UNL A   1      43.062  29.658  26.795  1.00  0.00     0.031 C 
ATOM     20  C   UNL A   1      39.082  27.944  28.980  1.00  0.00     0.029 A 
ATOM     21  N   UNL A   1      40.202  29.687  29.784  1.00  0.00    -0.354 N 
ATOM     22  C   UNL A   1      44.231  30.617  28.517  1.00  0.00     0.074 A 
ATOM     23  C   UNL A   1      44.062  30.491  27.090  1.00  0.00     0.031 C 
ATOM     24  C   UNL A   1      38.192  28.721  29.627  1.00  0.00     0.029 A 
ATOM     25  C   UNL A   1      38.887  29.878  30.161  1.00  0.00     0.049 A 
ATOM     26  H   UNL A   1      40.940  30.263  30.089  1.00  0.00     0.167 HD
ATOM     27  C   UNL A   1      44.937  31.535  29.233  1.00  0.00     0.037 A 
ATOM     28  C   UNL A   1      38.379  30.964  30.782  1.00  0.00     0.037 A 
ATOM     29  C   UNL A   1      45.051  31.195  30.623  1.00  0.00     0.049 A 
ATOM     30  C   UNL A   1      39.485  31.636  31.507  1.00  0.00     0.074 A 
ATOM     31  C   UNL A   1      45.652  30.171  31.328  1.00  0.00     0.029 A 
ATOM     32  N   UNL A   1      44.250  31.846  31.527  1.00  0.00    -0.354 N 
ATOM     33  N   UNL A   1      40.101  31.131  32.542  1.00  0.00    -0.248 NA
ATOM     34  C   UNL A   1      40.175  32.741  30.857  1.00  0.00     0.031 C 
ATOM     35  C   UNL A   1      44.848  29.984  32.489  1.00  0.00     0.029 A 
ATOM     36  C   UNL A   1      43.800  30.904  32.420  1.00  0.00     0.049 A 
ATOM     37  H   UNL A   1      44.037  32.806  31.534  1.00  0.00     0.167 HD
ATOM     38  C   UNL A   1      41.410  31.580  32.440  1.00  0.00     0.074 A 
ATOM     39  C   UNL A   1      41.361  32.661  31.465  1.00  0.00     0.031 C 
ATOM     40  C   UNL A   1      42.454  30.863  32.953  1.00  0.00     0.037 A 
BRANCH  27  41
ATOM     41  C   UNL A   1      45.324  32.884  28.688  1.00  0.00     0.058 A 
ATOM     42  C   UNL A   1      46.676  33.249  28.542  1.00  0.00     0.135 A 
ATOM     43  C   UNL A   1      44.383  33.924  28.526  1.00  0.00     0.135 A 
ATOM     44  F   UNL A   1      47.651  32.343  28.716  1.00  0.00    -0.206 F 
ATOM     45  C   UNL A   1      47.066  34.563  28.267  1.00  0.00     0.059 A 
ATOM     46  C   UNL A   1      44.746  35.228  28.205  1.00  0.00     0.059 A 
ATOM     47  F   UNL A   1      43.077  33.727  28.754  1.00  0.00    -0.206 F 
ATOM     48  C   UNL A   1      46.092  35.547  28.109  1.00  0.00     0.060 A 
BRANCH  48  49
ATOM     49  S   UNL A   1      46.586  37.258  27.833  1.00  0.00     0.124 S 
ATOM     50  O   UNL A   1      45.444  37.982  28.378  1.00  0.00    -0.237 OA
ATOM     51  O   UNL A   1      47.826  37.352  28.596  1.00  0.00    -0.237 OA
ATOM     52  O   UNL A   1      46.746  37.328  26.383  1.00  0.00    -0.744 OA
ENDBRANCH  48  49
ENDBRANCH  27  41
BRANCH  28  53
ATOM     53  C   UNL A   1      37.097  31.613  30.424  1.00  0.00     0.058 A 
ATOM     54  C   UNL A   1      36.167  31.987  31.405  1.00  0.00     0.135 A 
ATOM     55  C   UNL A   1      36.860  32.094  29.117  1.00  0.00     0.135 A 
ATOM     56  F   UNL A   1      36.344  31.607  32.679  1.00  0.00    -0.206 F 
ATOM     57  C   UNL A   1      35.076  32.807  31.110  1.00  0.00     0.059 A 
ATOM     58  C   UNL A   1      35.769  32.892  28.796  1.00  0.00     0.059 A 
ATOM     59  F   UNL A   1      37.733  31.876  28.122  1.00  0.00    -0.206 F 
ATOM     60  C   UNL A   1      34.890  33.263  29.804  1.00  0.00     0.060 A 
BRANCH  60  61
ATOM     61  S   UNL A   1      33.568  34.440  29.448  1.00  0.00     0.124 S 
ATOM     62  O   UNL A   1      34.295  35.510  28.774  1.00  0.00    -0.237 OA
ATOM     63  O   UNL A   1      32.672  33.649  28.612  1.00  0.00    -0.237 OA
ATOM     64  O   UNL A   1      33.048  34.776  30.771  1.00  0.00    -0.744 OA
ENDBRANCH  60  61
ENDBRANCH  28  53
BRANCH  40  65
ATOM     65  C   UNL A   1      42.136  29.742  33.911  1.00  0.00     0.058 A 
ATOM     66  C   UNL A   1      41.779  28.448  33.493  1.00  0.00     0.135 A 
ATOM     67  C   UNL A   1      42.349  29.934  35.286  1.00  0.00     0.135 A 
ATOM     68  F   UNL A   1      41.666  28.157  32.189  1.00  0.00    -0.206 F 
ATOM     69  C   UNL A   1      41.602  27.403  34.400  1.00  0.00     0.059 A 
ATOM     70  C   UNL A   1      42.206  28.897  36.207  1.00  0.00     0.059 A 
ATOM     71  F   UNL A   1      42.758  31.130  35.743  1.00  0.00    -0.206 F 
ATOM     72  C   UNL A   1      41.820  27.635  35.757  1.00  0.00     0.060 A 
BRANCH  72  73
ATOM     73  S   UNL A   1      41.698  26.251  36.915  1.00  0.00     0.124 S 
ATOM     74  O   UNL A   1      40.345  26.409  37.438  1.00  0.00    -0.237 OA
ATOM     75  O   UNL A   1      41.913  25.092  36.052  1.00  0.00    -0.237 OA
ATOM     76  O   UNL A   1      42.773  26.511  37.870  1.00  0.00    -0.744 OA
ENDBRANCH  72  73
ENDBRANCH  40  65
ENDBRANCH  14  15
ENDBRANCH   7   9
ENDBRANCH   6   7
ENDBRANCH   5   6
ENDBRANCH   4   5
ENDBRANCH   3   4
ENDBRANCH   2   3
ENDBRANCH   1   2
BRANCH   1  77
ATOM     77  O   UNL A   1      36.968  23.569  24.750  1.00  0.00    -0.376 OA
BRANCH  77  78
ATOM     78  C   UNL A   1      35.709  24.152  25.061  1.00  0.00     0.202 C 
BRANCH  78  79
ATOM     79  C   UNL A   1      34.920  23.420  26.151  1.00  0.00     0.261 C 
BRANCH  79  80
ATOM     80  O   UNL A   1      33.607  23.914  26.526  1.00  0.00    -0.459 OA
BRANCH  80  81
ATOM     81  C   UNL A   1      32.518  23.111  26.591  1.00  0.00     0.349 C 
ATOM     82  O   UNL A   1      31.569  23.229  27.345  1.00  0.00    -0.245 OA
BRANCH  81  83
ATOM     83  C   UNL A   1      32.593  22.100  25.585  1.00  0.00     0.133 A 
ATOM     84  S   UNL A   1      33.088  20.536  26.080  1.00  0.00    -0.136 S 
ATOM     85  C   UNL A   1      32.427  22.190  24.224  1.00  0.00     0.113 A 
ATOM     86  C   UNL A   1      33.044  19.950  24.477  1.00  0.00     0.067 A 
ATOM     87  C   UNL A   1      32.671  20.931  23.583  1.00  0.00     0.035 A 
BRANCH  85  88
ATOM     88  S   UNL A   1      31.979  23.617  23.348  1.00  0.00     0.263 S 
ATOM     89  O   UNL A   1      32.793  23.572  22.155  1.00  0.00    -0.201 OA
ATOM     90  O   UNL A   1      30.537  23.502  23.278  1.00  0.00    -0.201 OA
BRANCH  88  91
ATOM     91  N   UNL A   1      32.271  25.037  24.177  1.00  0.00    -0.280 N 
ATOM     92  H   UNL A   1      32.967  25.009  24.873  1.00  0.00     0.180 HD
BRANCH  91  93
ATOM     93  C   UNL A   1      31.612  26.289  23.978  1.00  0.00     0.049 A 
ATOM     94  C   UNL A   1      31.728  26.857  22.701  1.00  0.00     0.027 A 
ATOM     95  C   UNL A   1      30.668  26.815  24.853  1.00  0.00     0.027 A 
ATOM     96  C   UNL A   1      30.805  27.815  22.246  1.00  0.00     0.008 A 
ATOM     97  C   UNL A   1      29.744  27.765  24.399  1.00  0.00     0.008 A 
ATOM     98  C   UNL A   1      29.743  28.211  23.064  1.00  0.00    -0.026 A 
BRANCH  98  99
ATOM     99  C   UNL A   1      28.490  28.918  22.580  1.00  0.00     0.181 C 
BRANCH  99 100
ATOM    100  N   UNL A   1      28.457  30.366  22.707  1.00  0.00    -0.249 N 
ATOM    101  C   UNL A   1      29.031  31.129  23.683  1.00  0.00     0.220 A 
ATOM    102  N   UNL A   1      28.054  31.139  21.676  1.00  0.00    -0.160 NA
ATOM    103  N   UNL A   1      28.987  32.395  23.335  1.00  0.00    -0.224 NA
ATOM    104  C   UNL A   1      28.420  32.351  22.095  1.00  0.00     0.246 A 
ENDBRANCH  99 100
ENDBRANCH  98  99
ENDBRANCH  91  93
ENDBRANCH  88  91
ENDBRANCH  85  88
ENDBRANCH  81  83
ENDBRANCH  80  81
ENDBRANCH  79  80
ENDBRANCH  78  79
ENDBRANCH  77  78
ENDBRANCH   1  77
TORSDOF 25
ENDMDL
MODEL 3
REMARK VINA RESULT:     -10.7      3.009     10.088
REMARK SMILES O=C(OCCOCCOCCOC(=O)c1sccc1S(=O)(=O)Nc1ccc(Cn2cncn2)cc1)c1ccc(-c2c3nc(c(-c4c(F)cc(S(=O)(=O)[O-])cc4F)c4ccc([nH]4)c(-c4c(F)cc(S(=O)(=O)[O-])cc4F)c4nc(c(-c5c(F)cc(S(=O)(=O)[O-])cc5F)c5ccc2[nH]5)C=C4)C=C3)cc1
REMARK SMILES IDX 8 1 7 2 6 3 5 4 4 5 3 6 2 7 1 8 36 9 37 10 101 11 38 12
REMARK SMILES IDX 100 13 39 14 40 15 41 16 94 17 42 18 99 19 93 20 95 21 43 22
REMARK SMILES IDX 98 23 92 24 91 25 44 27 78 28 57 29 77 30 58 31 61 32 76 33
REMARK SMILES IDX 96 34 59 35 60 36 75 38 97 39 62 40 45 41 46 42 55 43 47 44
REMARK SMILES IDX 48 45 54 46 56 47 49 48 50 49 51 50 52 51 53 52 79 53 80 54
REMARK SMILES IDX 89 55 81 56 82 57 88 58 90 59 83 60 84 61 85 62 86 63 87 64
REMARK SMILES IDX 63 65 64 66 73 67 65 68 66 69 72 70 74 71 67 72 68 73 69 74
REMARK SMILES IDX 70 75 71 76 9 77 10 78 11 79 12 80 13 81 14 82 15 83 16 84
REMARK SMILES IDX 19 85 17 86 18 87 20 88 21 89 22 90 23 91 24 93 25 94 35 95
REMARK SMILES IDX 26 96 34 97 27 98 28 99 29 100 30 101 33 102 31 103 32 104
REMARK H PARENT 95 26 61 37 23 92
REMARK Flexibility Score: inf
ROOT
ATOM      1  C   UNL A   1      41.123  20.697  26.661  1.00  0.00     0.188 C 
ENDROOT
BRANCH   1   2
ATOM      2  C   UNL A   1      41.764  19.432  26.070  1.00  0.00     0.188 C 
BRANCH   2   3
ATOM      3  O   UNL A   1      43.070  19.026  26.477  1.00  0.00    -0.376 OA
BRANCH   3   4
ATOM      4  C   UNL A   1      43.949  18.427  25.543  1.00  0.00     0.202 C 
BRANCH   4   5
ATOM      5  C   UNL A   1      45.405  18.900  25.596  1.00  0.00     0.261 C 
BRANCH   5   6
ATOM      6  O   UNL A   1      45.639  20.235  25.112  1.00  0.00    -0.460 OA
BRANCH   6   7
ATOM      7  C   UNL A   1      44.807  21.138  24.545  1.00  0.00     0.338 C 
ATOM      8  O   UNL A   1      44.526  20.979  23.355  1.00  0.00    -0.246 OA
BRANCH   7   9
ATOM      9  C   UNL A   1      44.261  22.351  25.229  1.00  0.00     0.060 A 
ATOM     10  C   UNL A   1      43.432  23.307  24.646  1.00  0.00     0.016 A 
ATOM     11  C   UNL A   1      44.608  22.518  26.588  1.00  0.00     0.016 A 
ATOM     12  C   UNL A   1      43.018  24.423  25.351  1.00  0.00     0.010 A 
ATOM     13  C   UNL A   1      44.200  23.641  27.305  1.00  0.00     0.010 A 
ATOM     14  C   UNL A   1      43.453  24.620  26.656  1.00  0.00    -0.014 A 
BRANCH  14  15
ATOM     15  C   UNL A   1      43.261  25.970  27.162  1.00  0.00     0.031 A 
ATOM     16  C   UNL A   1      44.360  26.961  27.000  1.00  0.00     0.074 A 
ATOM     17  C   UNL A   1      42.173  26.249  27.902  1.00  0.00     0.049 A 
ATOM     18  N   UNL A   1      45.072  27.531  27.921  1.00  0.00    -0.248 NA
ATOM     19  C   UNL A   1      44.733  27.337  25.631  1.00  0.00     0.031 C 
ATOM     20  C   UNL A   1      40.928  25.480  28.003  1.00  0.00     0.029 A 
ATOM     21  N   UNL A   1      41.938  27.339  28.681  1.00  0.00    -0.354 N 
ATOM     22  C   UNL A   1      45.865  28.471  27.268  1.00  0.00     0.074 A 
ATOM     23  C   UNL A   1      45.677  28.253  25.854  1.00  0.00     0.031 C 
ATOM     24  C   UNL A   1      39.998  26.229  28.627  1.00  0.00     0.029 A 
ATOM     25  C   UNL A   1      40.621  27.460  29.079  1.00  0.00     0.049 A 
ATOM     26  H   UNL A   1      42.640  27.981  28.936  1.00  0.00     0.167 HD
ATOM     27  C   UNL A   1      46.519  29.476  27.914  1.00  0.00     0.037 A 
ATOM     28  C   UNL A   1      40.050  28.543  29.650  1.00  0.00     0.037 A 
ATOM     29  C   UNL A   1      46.685  29.226  29.318  1.00  0.00     0.049 A 
ATOM     30  C   UNL A   1      41.121  29.330  30.309  1.00  0.00     0.074 A 
ATOM     31  C   UNL A   1      47.371  28.288  30.064  1.00  0.00     0.029 A 
ATOM     32  N   UNL A   1      45.859  29.870  30.203  1.00  0.00    -0.354 N 
ATOM     33  N   UNL A   1      41.792  28.929  31.356  1.00  0.00    -0.248 NA
ATOM     34  C   UNL A   1      41.718  30.440  29.582  1.00  0.00     0.031 C 
ATOM     35  C   UNL A   1      46.605  28.113  31.253  1.00  0.00     0.029 A 
ATOM     36  C   UNL A   1      45.494  28.952  31.158  1.00  0.00     0.049 A 
ATOM     37  H   UNL A   1      45.578  30.812  30.162  1.00  0.00     0.167 HD
ATOM     38  C   UNL A   1      43.063  29.461  31.197  1.00  0.00     0.074 A 
ATOM     39  C   UNL A   1      42.918  30.478  30.165  1.00  0.00     0.031 C 
ATOM     40  C   UNL A   1      44.165  28.849  31.724  1.00  0.00     0.037 A 
BRANCH  27  41
ATOM     41  C   UNL A   1      46.799  30.815  27.285  1.00  0.00     0.058 A 
ATOM     42  C   UNL A   1      48.110  31.323  27.209  1.00  0.00     0.135 A 
ATOM     43  C   UNL A   1      45.766  31.723  26.965  1.00  0.00     0.135 A 
ATOM     44  F   UNL A   1      49.161  30.553  27.531  1.00  0.00    -0.206 F 
ATOM     45  C   UNL A   1      48.374  32.648  26.851  1.00  0.00     0.059 A 
ATOM     46  C   UNL A   1      46.008  33.031  26.561  1.00  0.00     0.059 A 
ATOM     47  F   UNL A   1      44.475  31.393  27.113  1.00  0.00    -0.206 F 
ATOM     48  C   UNL A   1      47.314  33.497  26.538  1.00  0.00     0.060 A 
BRANCH  48  49
ATOM     49  S   UNL A   1      47.639  35.228  26.153  1.00  0.00     0.124 S 
ATOM     50  O   UNL A   1      48.441  35.635  27.300  1.00  0.00    -0.237 OA
ATOM     51  O   UNL A   1      48.345  35.136  24.879  1.00  0.00    -0.237 OA
ATOM     52  O   UNL A   1      46.301  35.808  26.078  1.00  0.00    -0.744 OA
ENDBRANCH  48  49
ENDBRANCH  27  41
BRANCH  28  53
ATOM     53  C   UNL A   1      38.719  29.080  29.287  1.00  0.00     0.058 A 
ATOM     54  C   UNL A   1      37.755  29.368  30.264  1.00  0.00     0.135 A 
ATOM     55  C   UNL A   1      38.448  29.543  27.980  1.00  0.00     0.135 A 
ATOM     56  F   UNL A   1      37.957  29.000  31.538  1.00  0.00    -0.206 F 
ATOM     57  C   UNL A   1      36.598  30.092  29.966  1.00  0.00     0.059 A 
ATOM     58  C   UNL A   1      37.293  30.244  27.656  1.00  0.00     0.059 A 
ATOM     59  F   UNL A   1      39.342  29.405  26.990  1.00  0.00    -0.206 F 
ATOM     60  C   UNL A   1      36.381  30.535  28.660  1.00  0.00     0.060 A 
BRANCH  60  61
ATOM     61  S   UNL A   1      34.964  31.594  28.301  1.00  0.00     0.124 S 
ATOM     62  O   UNL A   1      34.094  30.689  27.559  1.00  0.00    -0.237 OA
ATOM     63  O   UNL A   1      34.513  31.963  29.638  1.00  0.00    -0.237 OA
ATOM     64  O   UNL A   1      35.544  32.683  27.519  1.00  0.00    -0.744 OA
ENDBRANCH  60  61
ENDBRANCH  28  53
BRANCH  40  65
ATOM     65  C   UNL A   1      43.946  27.766  32.751  1.00  0.00     0.058 A 
ATOM     66  C   UNL A   1      43.868  26.400  32.426  1.00  0.00     0.135 A 
ATOM     67  C   UNL A   1      43.973  28.098  34.115  1.00  0.00     0.135 A 
ATOM     68  F   UNL A   1      43.949  25.993  31.151  1.00  0.00    -0.206 F 
ATOM     69  C   UNL A   1      43.780  25.412  33.408  1.00  0.00     0.059 A 
ATOM     70  C   UNL A   1      43.914  27.126  35.113  1.00  0.00     0.059 A 
ATOM     71  F   UNL A   1      44.115  29.380  34.492  1.00  0.00    -0.206 F 
ATOM     72  C   UNL A   1      43.805  25.784  34.752  1.00  0.00     0.060 A 
BRANCH  72  73
ATOM     73  S   UNL A   1      43.803  24.494  36.019  1.00  0.00     0.124 S 
ATOM     74  O   UNL A   1      45.053  24.755  36.723  1.00  0.00    -0.237 OA
ATOM     75  O   UNL A   1      42.582  24.783  36.767  1.00  0.00    -0.237 OA
ATOM     76  O   UNL A   1      43.767  23.256  35.243  1.00  0.00    -0.744 OA
ENDBRANCH  72  73
ENDBRANCH  40  65
ENDBRANCH  14  15
ENDBRANCH   7   9
ENDBRANCH   6   7
ENDBRANCH   5   6
ENDBRANCH   4   5
ENDBRANCH   3   4
ENDBRANCH   2   3
ENDBRANCH   1   2
BRANCH   1  77
ATOM     77  O   UNL A   1      39.913  21.098  26.021  1.00  0.00    -0.376 OA
BRANCH  77  78
ATOM     78  C   UNL A   1      38.996  20.058  25.706  1.00  0.00     0.202 C 
BRANCH  78  79
ATOM     79  C   UNL A   1      37.769  20.512  24.910  1.00  0.00     0.261 C 
BRANCH  79  80
ATOM     80  O   UNL A   1      36.834  21.440  25.520  1.00  0.00    -0.459 OA
BRANCH  80  81
ATOM     81  C   UNL A   1      35.914  22.126  24.799  1.00  0.00     0.349 C 
ATOM     82  O   UNL A   1      36.003  22.461  23.631  1.00  0.00    -0.245 OA
BRANCH  81  83
ATOM     83  C   UNL A   1      34.750  22.366  25.591  1.00  0.00     0.133 A 
ATOM     84  S   UNL A   1      34.872  23.548  26.826  1.00  0.00    -0.136 S 
ATOM     85  C   UNL A   1      33.536  21.723  25.601  1.00  0.00     0.113 A 
ATOM     86  C   UNL A   1      33.281  23.239  27.362  1.00  0.00     0.067 A 
ATOM     87  C   UNL A   1      32.674  22.247  26.621  1.00  0.00     0.035 A 
BRANCH  85  88
ATOM     88  S   UNL A   1      33.058  20.441  24.538  1.00  0.00     0.263 S 
ATOM     89  O   UNL A   1      34.213  19.574  24.484  1.00  0.00    -0.201 OA
ATOM     90  O   UNL A   1      31.811  19.994  25.125  1.00  0.00    -0.201 OA
BRANCH  88  91
ATOM     91  N   UNL A   1      32.665  20.953  22.997  1.00  0.00    -0.280 N 
ATOM     92  H   UNL A   1      32.669  20.270  22.288  1.00  0.00     0.180 HD
BRANCH  91  93
ATOM     93  C   UNL A   1      32.325  22.285  22.606  1.00  0.00     0.049 A 
ATOM     94  C   UNL A   1      31.152  22.815  23.160  1.00  0.00     0.027 A 
ATOM     95  C   UNL A   1      33.201  23.149  21.957  1.00  0.00     0.027 A 
ATOM     96  C   UNL A   1      30.938  24.204  23.217  1.00  0.00     0.008 A 
ATOM     97  C   UNL A   1      32.993  24.533  22.019  1.00  0.00     0.008 A 
ATOM     98  C   UNL A   1      31.908  25.084  22.726  1.00  0.00    -0.026 A 
BRANCH  98  99
ATOM     99  C   UNL A   1      31.991  26.561  23.063  1.00  0.00     0.181 C 
BRANCH  99 100
ATOM    100  N   UNL A   1      32.083  26.913  24.471  1.00  0.00    -0.249 N 
ATOM    101  C   UNL A   1      31.143  27.543  25.234  1.00  0.00     0.220 A 
ATOM    102  N   UNL A   1      33.054  26.390  25.250  1.00  0.00    -0.160 NA
ATOM    103  N   UNL A   1      31.487  27.477  26.501  1.00  0.00    -0.224 NA
ATOM    104  C   UNL A   1      32.632  26.737  26.467  1.00  0.00     0.246 A 
ENDBRANCH  99 100
ENDBRANCH  98  99
ENDBRANCH  91  93
ENDBRANCH  88  91
ENDBRANCH  85  88
ENDBRANCH  81  83
ENDBRANCH  80  81
ENDBRANCH  79  80
ENDBRANCH  78  79
ENDBRANCH  77  78
ENDBRANCH   1  77
TORSDOF 25
ENDMDL
