MODEL 1
REMARK VINA RESULT:      -9.4      0.000      0.000
REMARK SMILES Cc1ncccc1OC1(C(=O)OCCOCCOCCOC(=O)c2ccc(-c3c4nc(c(-c5c(F)cc(S(=O)(=O)[O-])cc5F)c5ccc([nH]5)c(-c5c(F)cc(S(=O)(=O)[O-])cc5F)c5nc(c(-c6c(F)cc(S(=O)(=O)[O-])cc6F)c6ccc3[nH]6)C=C5)C=C4)cc2)CCN(C(=O)c2ccc(O)nn2)CC1
REMARK SMILES IDX 17 1 16 2 15 3 14 4 13 5 12 6 10 7 11 8 9 9 90 10 103 11
REMARK SMILES IDX 91 12 102 13 92 14 93 15 94 16 8 17 7 18 1 19 2 20 3 21 4 22
REMARK SMILES IDX 6 23 5 24 95 25 96 26 101 27 97 28 100 29 98 30 99 31 18 33
REMARK SMILES IDX 19 34 20 35 21 36 22 37 23 38 24 39 25 40 89 41 26 42 88 43
REMARK SMILES IDX 27 44 28 45 29 46 82 47 30 48 87 49 81 50 83 51 31 52 86 53
REMARK SMILES IDX 80 54 79 55 32 57 66 58 45 59 65 60 46 61 49 62 64 63 84 64
REMARK SMILES IDX 47 65 48 66 63 68 85 69 50 70 33 71 34 72 43 73 35 74 36 75
REMARK SMILES IDX 42 76 44 77 37 78 38 79 39 80 40 81 41 82 67 83 68 84 77 85
REMARK SMILES IDX 69 86 70 87 76 88 78 89 71 90 72 91 73 92 74 93 75 94 51 95
REMARK SMILES IDX 52 96 61 97 53 98 54 99 60 100 62 101 55 102 56 103 57 104
REMARK SMILES IDX 58 105 59 106
REMARK H PARENT 99 32 83 56 49 67
REMARK Flexibility Score: inf
ROOT
ATOM      1  C   UNL A   1      40.290  29.483  33.679  1.00  0.00     0.188 C 
ENDROOT
BRANCH   1   2
ATOM      2  C   UNL A   1      40.790  28.481  32.635  1.00  0.00     0.188 C 
BRANCH   2   3
ATOM      3  O   UNL A   1      40.778  28.867  31.272  1.00  0.00    -0.376 OA
BRANCH   3   4
ATOM      4  C   UNL A   1      40.181  27.992  30.327  1.00  0.00     0.202 C 
BRANCH   4   5
ATOM      5  C   UNL A   1      40.985  27.647  29.068  1.00  0.00     0.261 C 
BRANCH   5   6
ATOM      6  O   UNL A   1      40.808  26.307  28.553  1.00  0.00    -0.460 OA
BRANCH   6   7
ATOM      7  C   UNL A   1      41.934  25.529  28.450  1.00  0.00     0.350 C 
ATOM      8  O   UNL A   1      42.951  25.748  29.103  1.00  0.00    -0.247 OA
BRANCH   7   9
ATOM      9  C   UNL A   1      41.854  24.457  27.297  1.00  0.00     0.209 C 
ATOM     10  C   UNL A   1      42.287  25.045  25.956  1.00  0.00     0.082 C 
ATOM     11  C   UNL A   1      42.806  23.413  27.867  1.00  0.00     0.082 C 
ATOM     12  C   UNL A   1      43.050  24.138  25.003  1.00  0.00     0.124 C 
ATOM     13  C   UNL A   1      43.354  22.431  26.878  1.00  0.00     0.124 C 
ATOM     14  N   UNL A   1      43.713  22.963  25.561  1.00  0.00    -0.337 N 
ATOM     15  C   UNL A   1      44.389  22.150  24.626  1.00  0.00     0.274 C 
ATOM     16  O   UNL A   1      44.597  22.469  23.459  1.00  0.00    -0.267 OA
BRANCH   9  17
ATOM     17  O   UNL A   1      40.468  24.080  27.407  1.00  0.00    -0.474 OA
BRANCH  17  18
ATOM     18  C   UNL A   1      39.513  23.417  26.721  1.00  0.00     0.142 A 
ATOM     19  C   UNL A   1      40.300  20.978  26.489  1.00  0.00     0.071 C 
ATOM     20  C   UNL A   1      39.349  22.096  26.304  1.00  0.00     0.079 A 
ATOM     21  N   UNL A   1      38.199  21.626  25.729  1.00  0.00    -0.258 NA
ATOM     22  C   UNL A   1      37.164  22.464  25.558  1.00  0.00     0.111 A 
ATOM     23  C   UNL A   1      38.401  24.252  26.498  1.00  0.00     0.050 A 
ATOM     24  C   UNL A   1      37.221  23.787  25.917  1.00  0.00     0.024 A 
ENDBRANCH  17  18
ENDBRANCH   9  17
BRANCH  15  25
ATOM     25  C   UNL A   1      44.935  20.869  25.123  1.00  0.00     0.151 A 
ATOM     26  C   UNL A   1      44.065  19.804  25.274  1.00  0.00     0.042 A 
ATOM     27  N   UNL A   1      46.287  20.742  25.152  1.00  0.00    -0.142 NA
ATOM     28  C   UNL A   1      44.621  18.544  25.430  1.00  0.00     0.072 A 
ATOM     29  N   UNL A   1      46.825  19.506  25.317  1.00  0.00    -0.112 NA
ATOM     30  C   UNL A   1      45.996  18.451  25.434  1.00  0.00     0.230 A 
BRANCH  30  31
ATOM     31  O   UNL A   1      46.601  17.238  25.515  1.00  0.00    -0.492 OA
ATOM     32  H   UNL A   1      47.500  17.145  25.266  1.00  0.00     0.295 HD
ENDBRANCH  30  31
ENDBRANCH  15  25
ENDBRANCH   7   9
ENDBRANCH   6   7
ENDBRANCH   5   6
ENDBRANCH   4   5
ENDBRANCH   3   4
ENDBRANCH   2   3
ENDBRANCH   1   2
BRANCH   1  33
ATOM     33  O   UNL A   1      38.883  29.623  33.744  1.00  0.00    -0.376 OA
BRANCH  33  34
ATOM     34  C   UNL A   1      38.309  30.548  32.828  1.00  0.00     0.202 C 
BRANCH  34  35
ATOM     35  C   UNL A   1      37.852  31.847  33.517  1.00  0.00     0.261 C 
BRANCH  35  36
ATOM     36  O   UNL A   1      38.574  33.036  33.130  1.00  0.00    -0.460 OA
BRANCH  36  37
ATOM     37  C   UNL A   1      38.291  33.564  31.913  1.00  0.00     0.338 C 
ATOM     38  O   UNL A   1      37.181  33.859  31.498  1.00  0.00    -0.246 OA
BRANCH  37  39
ATOM     39  C   UNL A   1      39.571  34.022  31.297  1.00  0.00     0.060 A 
ATOM     40  C   UNL A   1      39.569  34.384  29.939  1.00  0.00     0.016 A 
ATOM     41  C   UNL A   1      40.732  34.186  32.056  1.00  0.00     0.016 A 
ATOM     42  C   UNL A   1      40.734  34.866  29.331  1.00  0.00     0.010 A 
ATOM     43  C   UNL A   1      41.902  34.649  31.441  1.00  0.00     0.010 A 
ATOM     44  C   UNL A   1      41.923  34.958  30.067  1.00  0.00    -0.014 A 
BRANCH  44  45
ATOM     45  C   UNL A   1      43.226  35.144  29.372  1.00  0.00     0.031 A 
ATOM     46  C   UNL A   1      44.035  33.910  29.055  1.00  0.00     0.074 A 
ATOM     47  C   UNL A   1      43.700  36.355  29.024  1.00  0.00     0.049 A 
ATOM     48  N   UNL A   1      45.230  33.807  28.533  1.00  0.00    -0.248 NA
ATOM     49  C   UNL A   1      43.406  32.620  29.377  1.00  0.00     0.031 C 
ATOM     50  C   UNL A   1      43.013  37.629  29.225  1.00  0.00     0.029 A 
ATOM     51  N   UNL A   1      44.893  36.708  28.436  1.00  0.00    -0.354 N 
ATOM     52  C   UNL A   1      45.501  32.444  28.480  1.00  0.00     0.074 A 
ATOM     53  C   UNL A   1      44.357  31.763  29.046  1.00  0.00     0.031 C 
ATOM     54  C   UNL A   1      43.803  38.625  28.783  1.00  0.00     0.029 A 
ATOM     55  C   UNL A   1      45.066  38.065  28.299  1.00  0.00     0.049 A 
ATOM     56  H   UNL A   1      45.562  36.048  28.140  1.00  0.00     0.167 HD
ATOM     57  C   UNL A   1      46.598  31.811  27.998  1.00  0.00     0.037 A 
ATOM     58  C   UNL A   1      46.129  38.775  27.860  1.00  0.00     0.037 A 
ATOM     59  C   UNL A   1      47.738  32.483  27.432  1.00  0.00     0.049 A 
ATOM     60  C   UNL A   1      47.374  38.054  27.399  1.00  0.00     0.074 A 
ATOM     61  C   UNL A   1      48.884  31.924  26.895  1.00  0.00     0.029 A 
ATOM     62  N   UNL A   1      47.883  33.860  27.339  1.00  0.00    -0.354 N 
ATOM     63  N   UNL A   1      47.607  36.764  27.329  1.00  0.00    -0.248 NA
ATOM     64  C   UNL A   1      48.504  38.887  26.956  1.00  0.00     0.031 C 
ATOM     65  C   UNL A   1      49.748  32.962  26.531  1.00  0.00     0.029 A 
ATOM     66  C   UNL A   1      49.113  34.167  26.782  1.00  0.00     0.049 A 
ATOM     67  H   UNL A   1      47.212  34.519  27.628  1.00  0.00     0.167 HD
ATOM     68  C   UNL A   1      48.892  36.633  26.804  1.00  0.00     0.074 A 
ATOM     69  C   UNL A   1      49.384  37.974  26.568  1.00  0.00     0.031 C 
ATOM     70  C   UNL A   1      49.596  35.505  26.536  1.00  0.00     0.037 A 
BRANCH  57  71
ATOM     71  C   UNL A   1      46.632  30.311  28.095  1.00  0.00     0.058 A 
ATOM     72  C   UNL A   1      47.158  29.652  29.218  1.00  0.00     0.135 A 
ATOM     73  C   UNL A   1      46.109  29.522  27.059  1.00  0.00     0.135 A 
ATOM     74  F   UNL A   1      47.689  30.357  30.230  1.00  0.00    -0.206 F 
ATOM     75  C   UNL A   1      47.191  28.263  29.295  1.00  0.00     0.059 A 
ATOM     76  C   UNL A   1      46.103  28.133  27.128  1.00  0.00     0.059 A 
ATOM     77  F   UNL A   1      45.598  30.101  25.961  1.00  0.00    -0.206 F 
ATOM     78  C   UNL A   1      46.661  27.513  28.245  1.00  0.00     0.060 A 
BRANCH  78  79
ATOM     79  S   UNL A   1      46.714  25.712  28.359  1.00  0.00     0.124 S 
ATOM     80  O   UNL A   1      48.126  25.445  28.106  1.00  0.00    -0.237 OA
ATOM     81  O   UNL A   1      46.259  25.473  29.726  1.00  0.00    -0.237 OA
ATOM     82  O   UNL A   1      45.795  25.277  27.311  1.00  0.00    -0.744 OA
ENDBRANCH  78  79
ENDBRANCH  57  71
BRANCH  58  83
ATOM     83  C   UNL A   1      46.077  40.264  27.840  1.00  0.00     0.058 A 
ATOM     84  C   UNL A   1      45.705  40.961  26.680  1.00  0.00     0.135 A 
ATOM     85  C   UNL A   1      46.420  41.021  28.972  1.00  0.00     0.135 A 
ATOM     86  F   UNL A   1      45.390  40.285  25.564  1.00  0.00    -0.206 F 
ATOM     87  C   UNL A   1      45.682  42.352  26.638  1.00  0.00     0.059 A 
ATOM     88  C   UNL A   1      46.377  42.412  28.964  1.00  0.00     0.059 A 
ATOM     89  F   UNL A   1      46.784  40.405  30.107  1.00  0.00    -0.206 F 
ATOM     90  C   UNL A   1      46.014  43.069  27.789  1.00  0.00     0.060 A 
BRANCH  90  91
ATOM     91  S   UNL A   1      45.927  44.873  27.739  1.00  0.00     0.124 S 
ATOM     92  O   UNL A   1      45.052  45.159  28.870  1.00  0.00    -0.237 OA
ATOM     93  O   UNL A   1      47.328  45.250  27.906  1.00  0.00    -0.237 OA
ATOM     94  O   UNL A   1      45.364  45.147  26.420  1.00  0.00    -0.744 OA
ENDBRANCH  90  91
ENDBRANCH  58  83
BRANCH  70  95
ATOM     95  C   UNL A   1      50.959  35.652  25.912  1.00  0.00     0.058 A 
ATOM     96  C   UNL A   1      51.128  36.048  24.575  1.00  0.00     0.135 A 
ATOM     97  C   UNL A   1      52.117  35.457  26.683  1.00  0.00     0.135 A 
ATOM     98  F   UNL A   1      50.058  36.246  23.789  1.00  0.00    -0.206 F 
ATOM     99  C   UNL A   1      52.394  36.222  24.021  1.00  0.00     0.059 A 
ATOM    100  C   UNL A   1      53.392  35.655  26.159  1.00  0.00     0.059 A 
ATOM    101  F   UNL A   1      52.018  35.092  27.972  1.00  0.00    -0.206 F 
ATOM    102  C   UNL A   1      53.520  36.026  24.823  1.00  0.00     0.060 A 
BRANCH 102 103
ATOM    103  S   UNL A   1      55.155  36.289  24.101  1.00  0.00     0.124 S 
ATOM    104  O   UNL A   1      55.171  35.291  23.036  1.00  0.00    -0.237 OA
ATOM    105  O   UNL A   1      55.083  37.680  23.664  1.00  0.00    -0.237 OA
ATOM    106  O   UNL A   1      56.064  36.033  25.215  1.00  0.00    -0.744 OA
ENDBRANCH 102 103
ENDBRANCH  70  95
ENDBRANCH  44  45
ENDBRANCH  37  39
ENDBRANCH  36  37
ENDBRANCH  35  36
ENDBRANCH  34  35
ENDBRANCH  33  34
ENDBRANCH   1  33
TORSDOF 24
ENDMDL
MODEL 2
REMARK VINA RESULT:      -8.6      5.930     12.158
REMARK SMILES Cc1ncccc1OC1(C(=O)OCCOCCOCCOC(=O)c2ccc(-c3c4nc(c(-c5c(F)cc(S(=O)(=O)[O-])cc5F)c5ccc([nH]5)c(-c5c(F)cc(S(=O)(=O)[O-])cc5F)c5nc(c(-c6c(F)cc(S(=O)(=O)[O-])cc6F)c6ccc3[nH]6)C=C5)C=C4)cc2)CCN(C(=O)c2ccc(O)nn2)CC1
REMARK SMILES IDX 17 1 16 2 15 3 14 4 13 5 12 6 10 7 11 8 9 9 90 10 103 11
REMARK SMILES IDX 91 12 102 13 92 14 93 15 94 16 8 17 7 18 1 19 2 20 3 21 4 22
REMARK SMILES IDX 6 23 5 24 95 25 96 26 101 27 97 28 100 29 98 30 99 31 18 33
REMARK SMILES IDX 19 34 20 35 21 36 22 37 23 38 24 39 25 40 89 41 26 42 88 43
REMARK SMILES IDX 27 44 28 45 29 46 82 47 30 48 87 49 81 50 83 51 31 52 86 53
REMARK SMILES IDX 80 54 79 55 32 57 66 58 45 59 65 60 46 61 49 62 64 63 84 64
REMARK SMILES IDX 47 65 48 66 63 68 85 69 50 70 33 71 34 72 43 73 35 74 36 75
REMARK SMILES IDX 42 76 44 77 37 78 38 79 39 80 40 81 41 82 67 83 68 84 77 85
REMARK SMILES IDX 69 86 70 87 76 88 78 89 71 90 72 91 73 92 74 93 75 94 51 95
REMARK SMILES IDX 52 96 61 97 53 98 54 99 60 100 62 101 55 102 56 103 57 104
REMARK SMILES IDX 58 105 59 106
REMARK H PARENT 99 32 83 56 49 67
REMARK Flexibility Score: inf
ROOT
ATOM      1  C   UNL A   1      37.583  33.949  30.572  1.00  0.00     0.188 C 
ENDROOT
BRANCH   1   2
ATOM      2  C   UNL A   1      38.612  33.889  29.440  1.00  0.00     0.188 C 
BRANCH   2   3
ATOM      3  O   UNL A   1      39.933  33.482  29.753  1.00  0.00    -0.376 OA
BRANCH   3   4
ATOM      4  C   UNL A   1      40.669  34.245  30.697  1.00  0.00     0.202 C 
BRANCH   4   5
ATOM      5  C   UNL A   1      42.181  34.005  30.784  1.00  0.00     0.261 C 
BRANCH   5   6
ATOM      6  O   UNL A   1      42.674  32.832  30.095  1.00  0.00    -0.460 OA
BRANCH   6   7
ATOM      7  C   UNL A   1      43.526  33.045  29.041  1.00  0.00     0.350 C 
ATOM      8  O   UNL A   1      43.246  33.790  28.106  1.00  0.00    -0.247 OA
BRANCH   7   9
ATOM      9  C   UNL A   1      44.796  32.112  29.061  1.00  0.00     0.209 C 
ATOM     10  C   UNL A   1      44.523  30.812  29.814  1.00  0.00     0.082 C 
ATOM     11  C   UNL A   1      44.999  31.942  27.560  1.00  0.00     0.082 C 
ATOM     12  C   UNL A   1      45.183  29.545  29.293  1.00  0.00     0.124 C 
ATOM     13  C   UNL A   1      45.836  30.770  27.150  1.00  0.00     0.124 C 
ATOM     14  N   UNL A   1      45.638  29.531  27.907  1.00  0.00    -0.337 N 
ATOM     15  C   UNL A   1      46.258  28.335  27.486  1.00  0.00     0.274 C 
ATOM     16  O   UNL A   1      46.261  27.294  28.137  1.00  0.00    -0.267 OA
BRANCH   9  17
ATOM     17  O   UNL A   1      45.749  33.007  29.664  1.00  0.00    -0.474 OA
BRANCH  17  18
ATOM     18  C   UNL A   1      46.778  32.996  30.539  1.00  0.00     0.142 A 
ATOM     19  C   UNL A   1      45.796  32.470  32.859  1.00  0.00     0.071 C 
ATOM     20  C   UNL A   1      46.892  32.758  31.909  1.00  0.00     0.079 A 
ATOM     21  N   UNL A   1      48.095  32.665  32.558  1.00  0.00    -0.258 NA
ATOM     22  C   UNL A   1      49.230  32.800  31.853  1.00  0.00     0.111 A 
ATOM     23  C   UNL A   1      48.001  33.148  29.858  1.00  0.00     0.050 A 
ATOM     24  C   UNL A   1      49.235  33.051  30.505  1.00  0.00     0.024 A 
ENDBRANCH  17  18
ENDBRANCH   9  17
BRANCH  15  25
ATOM     25  C   UNL A   1      46.877  28.337  26.143  1.00  0.00     0.151 A 
ATOM     26  C   UNL A   1      48.172  27.868  26.021  1.00  0.00     0.042 A 
ATOM     27  N   UNL A   1      46.054  28.552  25.084  1.00  0.00    -0.142 NA
ATOM     28  C   UNL A   1      48.626  27.578  24.744  1.00  0.00     0.072 A 
ATOM     29  N   UNL A   1      46.510  28.276  23.834  1.00  0.00    -0.112 NA
ATOM     30  C   UNL A   1      47.758  27.789  23.695  1.00  0.00     0.230 A 
BRANCH  30  31
ATOM     31  O   UNL A   1      48.119  27.460  22.428  1.00  0.00    -0.492 OA
ATOM     32  H   UNL A   1      47.575  27.707  21.706  1.00  0.00     0.295 HD
ENDBRANCH  30  31
ENDBRANCH  15  25
ENDBRANCH   7   9
ENDBRANCH   6   7
ENDBRANCH   5   6
ENDBRANCH   4   5
ENDBRANCH   3   4
ENDBRANCH   2   3
ENDBRANCH   1   2
BRANCH   1  33
ATOM     33  O   UNL A   1      36.287  34.357  30.178  1.00  0.00    -0.376 OA
BRANCH  33  34
ATOM     34  C   UNL A   1      35.248  33.405  30.379  1.00  0.00     0.202 C 
BRANCH  34  35
ATOM     35  C   UNL A   1      34.190  33.448  29.262  1.00  0.00     0.261 C 
BRANCH  35  36
ATOM     36  O   UNL A   1      34.585  32.838  28.015  1.00  0.00    -0.460 OA
BRANCH  36  37
ATOM     37  C   UNL A   1      34.426  31.495  27.904  1.00  0.00     0.338 C 
ATOM     38  O   UNL A   1      33.534  30.925  27.295  1.00  0.00    -0.246 OA
BRANCH  37  39
ATOM     39  C   UNL A   1      35.682  30.839  28.369  1.00  0.00     0.060 A 
ATOM     40  C   UNL A   1      35.597  29.870  29.383  1.00  0.00     0.016 A 
ATOM     41  C   UNL A   1      36.913  31.096  27.760  1.00  0.00     0.016 A 
ATOM     42  C   UNL A   1      36.742  29.192  29.817  1.00  0.00     0.010 A 
ATOM     43  C   UNL A   1      38.061  30.432  28.210  1.00  0.00     0.010 A 
ATOM     44  C   UNL A   1      37.992  29.503  29.265  1.00  0.00    -0.014 A 
BRANCH  44  45
ATOM     45  C   UNL A   1      39.243  29.048  29.931  1.00  0.00     0.031 A 
ATOM     46  C   UNL A   1      39.681  29.778  31.176  1.00  0.00     0.074 A 
ATOM     47  C   UNL A   1      39.985  28.025  29.466  1.00  0.00     0.049 A 
ATOM     48  N   UNL A   1      40.767  29.632  31.892  1.00  0.00    -0.248 NA
ATOM     49  C   UNL A   1      38.767  30.816  31.677  1.00  0.00     0.031 C 
ATOM     50  C   UNL A   1      39.666  27.200  28.303  1.00  0.00     0.029 A 
ATOM     51  N   UNL A   1      41.182  27.517  29.918  1.00  0.00    -0.354 N 
ATOM     52  C   UNL A   1      40.673  30.569  32.914  1.00  0.00     0.074 A 
ATOM     53  C   UNL A   1      39.439  31.295  32.711  1.00  0.00     0.031 C 
ATOM     54  C   UNL A   1      40.651  26.300  28.124  1.00  0.00     0.029 A 
ATOM     55  C   UNL A   1      41.687  26.505  29.137  1.00  0.00     0.049 A 
ATOM     56  H   UNL A   1      41.634  27.847  30.729  1.00  0.00     0.167 HD
ATOM     57  C   UNL A   1      41.531  30.804  33.936  1.00  0.00     0.037 A 
ATOM     58  C   UNL A   1      42.861  25.839  29.213  1.00  0.00     0.037 A 
ATOM     59  C   UNL A   1      42.760  30.084  34.145  1.00  0.00     0.049 A 
ATOM     60  C   UNL A   1      43.841  26.170  30.315  1.00  0.00     0.074 A 
ATOM     61  C   UNL A   1      43.680  30.236  35.167  1.00  0.00     0.029 A 
ATOM     62  N   UNL A   1      43.247  29.087  33.313  1.00  0.00    -0.354 N 
ATOM     63  N   UNL A   1      43.728  27.039  31.291  1.00  0.00    -0.248 NA
ATOM     64  C   UNL A   1      45.110  25.424  30.327  1.00  0.00     0.031 C 
ATOM     65  C   UNL A   1      44.752  29.372  34.923  1.00  0.00     0.029 A 
ATOM     66  C   UNL A   1      44.470  28.637  33.783  1.00  0.00     0.049 A 
ATOM     67  H   UNL A   1      42.792  28.751  32.508  1.00  0.00     0.167 HD
ATOM     68  C   UNL A   1      44.893  26.922  32.048  1.00  0.00     0.074 A 
ATOM     69  C   UNL A   1      45.694  25.892  31.422  1.00  0.00     0.031 C 
ATOM     70  C   UNL A   1      45.260  27.601  33.163  1.00  0.00     0.037 A 
BRANCH  57  71
ATOM     71  C   UNL A   1      41.185  31.913  34.891  1.00  0.00     0.058 A 
ATOM     72  C   UNL A   1      40.263  31.735  35.935  1.00  0.00     0.135 A 
ATOM     73  C   UNL A   1      41.804  33.168  34.772  1.00  0.00     0.135 A 
ATOM     74  F   UNL A   1      39.626  30.562  36.082  1.00  0.00    -0.206 F 
ATOM     75  C   UNL A   1      39.945  32.770  36.808  1.00  0.00     0.059 A 
ATOM     76  C   UNL A   1      41.526  34.208  35.653  1.00  0.00     0.059 A 
ATOM     77  F   UNL A   1      42.691  33.394  33.790  1.00  0.00    -0.206 F 
ATOM     78  C   UNL A   1      40.582  34.003  36.659  1.00  0.00     0.060 A 
BRANCH  78  79
ATOM     79  S   UNL A   1      40.157  35.337  37.798  1.00  0.00     0.124 S 
ATOM     80  O   UNL A   1      39.003  34.772  38.490  1.00  0.00    -0.237 OA
ATOM     81  O   UNL A   1      41.374  35.464  38.595  1.00  0.00    -0.237 OA
ATOM     82  O   UNL A   1      39.870  36.462  36.913  1.00  0.00    -0.744 OA
ENDBRANCH  78  79
ENDBRANCH  57  71
BRANCH  58  83
ATOM     83  C   UNL A   1      43.193  24.791  28.208  1.00  0.00     0.058 A 
ATOM     84  C   UNL A   1      43.668  25.133  26.933  1.00  0.00     0.135 A 
ATOM     85  C   UNL A   1      43.022  23.426  28.493  1.00  0.00     0.135 A 
ATOM     86  F   UNL A   1      43.828  26.424  26.602  1.00  0.00    -0.206 F 
ATOM     87  C   UNL A   1      43.954  24.166  25.974  1.00  0.00     0.059 A 
ATOM     88  C   UNL A   1      43.327  22.438  27.561  1.00  0.00     0.059 A 
ATOM     89  F   UNL A   1      42.569  23.043  29.696  1.00  0.00    -0.206 F 
ATOM     90  C   UNL A   1      43.786  22.819  26.301  1.00  0.00     0.060 A 
BRANCH  90  91
ATOM     91  S   UNL A   1      44.212  21.570  25.067  1.00  0.00     0.124 S 
ATOM     92  O   UNL A   1      43.151  20.589  25.260  1.00  0.00    -0.237 OA
ATOM     93  O   UNL A   1      44.154  22.336  23.826  1.00  0.00    -0.237 OA
ATOM     94  O   UNL A   1      45.548  21.142  25.469  1.00  0.00    -0.744 OA
ENDBRANCH  90  91
ENDBRANCH  58  83
BRANCH  70  95
ATOM     95  C   UNL A   1      46.565  27.230  33.820  1.00  0.00     0.058 A 
ATOM     96  C   UNL A   1      47.760  27.912  33.540  1.00  0.00     0.135 A 
ATOM     97  C   UNL A   1      46.606  26.219  34.795  1.00  0.00     0.135 A 
ATOM     98  F   UNL A   1      47.782  28.884  32.615  1.00  0.00    -0.206 F 
ATOM     99  C   UNL A   1      48.952  27.589  34.185  1.00  0.00     0.059 A 
ATOM    100  C   UNL A   1      47.779  25.901  35.474  1.00  0.00     0.059 A 
ATOM    101  F   UNL A   1      45.491  25.543  35.115  1.00  0.00    -0.206 F 
ATOM    102  C   UNL A   1      48.950  26.583  35.153  1.00  0.00     0.060 A 
BRANCH 102 103
ATOM    103  S   UNL A   1      50.495  26.198  36.007  1.00  0.00     0.124 S 
ATOM    104  O   UNL A   1      50.601  24.759  35.788  1.00  0.00    -0.237 OA
ATOM    105  O   UNL A   1      51.462  27.021  35.287  1.00  0.00    -0.237 OA
ATOM    106  O   UNL A   1      50.234  26.606  37.384  1.00  0.00    -0.744 OA
ENDBRANCH 102 103
ENDBRANCH  70  95
ENDBRANCH  44  45
ENDBRANCH  37  39
ENDBRANCH  36  37
ENDBRANCH  35  36
ENDBRANCH  34  35
ENDBRANCH  33  34
ENDBRANCH   1  33
TORSDOF 24
ENDMDL
MODEL 3
REMARK VINA RESULT:      -8.6      8.345     12.865
REMARK SMILES Cc1ncccc1OC1(C(=O)OCCOCCOCCOC(=O)c2ccc(-c3c4nc(c(-c5c(F)cc(S(=O)(=O)[O-])cc5F)c5ccc([nH]5)c(-c5c(F)cc(S(=O)(=O)[O-])cc5F)c5nc(c(-c6c(F)cc(S(=O)(=O)[O-])cc6F)c6ccc3[nH]6)C=C5)C=C4)cc2)CCN(C(=O)c2ccc(O)nn2)CC1
REMARK SMILES IDX 17 1 16 2 15 3 14 4 13 5 12 6 10 7 11 8 9 9 90 10 103 11
REMARK SMILES IDX 91 12 102 13 92 14 93 15 94 16 8 17 7 18 1 19 2 20 3 21 4 22
REMARK SMILES IDX 6 23 5 24 95 25 96 26 101 27 97 28 100 29 98 30 99 31 18 33
REMARK SMILES IDX 19 34 20 35 21 36 22 37 23 38 24 39 25 40 89 41 26 42 88 43
REMARK SMILES IDX 27 44 28 45 29 46 82 47 30 48 87 49 81 50 83 51 31 52 86 53
REMARK SMILES IDX 80 54 79 55 32 57 66 58 45 59 65 60 46 61 49 62 64 63 84 64
REMARK SMILES IDX 47 65 48 66 63 68 85 69 50 70 33 71 34 72 43 73 35 74 36 75
REMARK SMILES IDX 42 76 44 77 37 78 38 79 39 80 40 81 41 82 67 83 68 84 77 85
REMARK SMILES IDX 69 86 70 87 76 88 78 89 71 90 72 91 73 92 74 93 75 94 51 95
REMARK SMILES IDX 52 96 61 97 53 98 54 99 60 100 62 101 55 102 56 103 57 104
REMARK SMILES IDX 58 105 59 106
REMARK H PARENT 99 32 83 56 49 67
REMARK Flexibility Score: inf
ROOT
ATOM      1  C   UNL A   1      52.186  24.441  36.011  1.00  0.00     0.188 C 
ENDROOT
BRANCH   1   2
ATOM      2  C   UNL A   1      51.371  23.761  34.908  1.00  0.00     0.188 C 
BRANCH   2   3
ATOM      3  O   UNL A   1      51.822  22.514  34.410  1.00  0.00    -0.376 OA
BRANCH   3   4
ATOM      4  C   UNL A   1      51.901  21.417  35.308  1.00  0.00     0.202 C 
BRANCH   4   5
ATOM      5  C   UNL A   1      50.709  21.173  36.241  1.00  0.00     0.261 C 
BRANCH   5   6
ATOM      6  O   UNL A   1      49.745  20.194  35.789  1.00  0.00    -0.460 OA
BRANCH   6   7
ATOM      7  C   UNL A   1      48.618  20.673  35.169  1.00  0.00     0.350 C 
ATOM      8  O   UNL A   1      48.656  21.251  34.086  1.00  0.00    -0.247 OA
BRANCH   7   9
ATOM      9  C   UNL A   1      47.320  20.569  36.056  1.00  0.00     0.209 C 
ATOM     10  C   UNL A   1      46.293  19.624  35.437  1.00  0.00     0.082 C 
ATOM     11  C   UNL A   1      47.947  20.061  37.349  1.00  0.00     0.082 C 
ATOM     12  C   UNL A   1      45.460  18.773  36.382  1.00  0.00     0.124 C 
ATOM     13  C   UNL A   1      47.004  19.411  38.313  1.00  0.00     0.124 C 
ATOM     14  N   UNL A   1      45.967  18.554  37.733  1.00  0.00    -0.337 N 
ATOM     15  C   UNL A   1      45.142  17.771  38.569  1.00  0.00     0.274 C 
ATOM     16  O   UNL A   1      44.164  17.141  38.178  1.00  0.00    -0.267 OA
BRANCH   9  17
ATOM     17  O   UNL A   1      46.949  21.959  36.114  1.00  0.00    -0.474 OA
BRANCH  17  18
ATOM     18  C   UNL A   1      45.874  22.758  35.940  1.00  0.00     0.142 A 
ATOM     19  C   UNL A   1      45.327  23.804  38.227  1.00  0.00     0.071 C 
ATOM     20  C   UNL A   1      45.132  23.593  36.776  1.00  0.00     0.079 A 
ATOM     21  N   UNL A   1      44.147  24.428  36.321  1.00  0.00    -0.258 NA
ATOM     22  C   UNL A   1      43.874  24.463  35.007  1.00  0.00     0.111 A 
ATOM     23  C   UNL A   1      45.530  22.824  34.576  1.00  0.00     0.050 A 
ATOM     24  C   UNL A   1      44.531  23.674  34.097  1.00  0.00     0.024 A 
ENDBRANCH  17  18
ENDBRANCH   9  17
BRANCH  15  25
ATOM     25  C   UNL A   1      45.539  17.661  39.989  1.00  0.00     0.151 A 
ATOM     26  C   UNL A   1      46.238  16.535  40.385  1.00  0.00     0.042 A 
ATOM     27  N   UNL A   1      45.424  18.778  40.752  1.00  0.00    -0.142 NA
ATOM     28  C   UNL A   1      46.874  16.580  41.616  1.00  0.00     0.072 A 
ATOM     29  N   UNL A   1      46.040  18.811  41.963  1.00  0.00    -0.112 NA
ATOM     30  C   UNL A   1      46.751  17.737  42.354  1.00  0.00     0.230 A 
BRANCH  30  31
ATOM     31  O   UNL A   1      47.406  17.869  43.537  1.00  0.00    -0.492 OA
ATOM     32  H   UNL A   1      47.055  17.478  44.313  1.00  0.00     0.295 HD
ENDBRANCH  30  31
ENDBRANCH  15  25
ENDBRANCH   7   9
ENDBRANCH   6   7
ENDBRANCH   5   6
ENDBRANCH   4   5
ENDBRANCH   3   4
ENDBRANCH   2   3
ENDBRANCH   1   2
BRANCH   1  33
ATOM     33  O   UNL A   1      52.483  25.805  35.778  1.00  0.00    -0.376 OA
BRANCH  33  34
ATOM     34  C   UNL A   1      51.848  26.394  34.650  1.00  0.00     0.202 C 
BRANCH  34  35
ATOM     35  C   UNL A   1      50.774  27.420  35.052  1.00  0.00     0.261 C 
BRANCH  35  36
ATOM     36  O   UNL A   1      49.434  26.894  35.173  1.00  0.00    -0.460 OA
BRANCH  36  37
ATOM     37  C   UNL A   1      48.765  27.161  36.323  1.00  0.00     0.338 C 
ATOM     38  O   UNL A   1      49.220  27.085  37.453  1.00  0.00    -0.246 OA
BRANCH  37  39
ATOM     39  C   UNL A   1      47.499  27.865  35.969  1.00  0.00     0.060 A 
ATOM     40  C   UNL A   1      46.277  27.262  36.315  1.00  0.00     0.016 A 
ATOM     41  C   UNL A   1      47.503  29.139  35.396  1.00  0.00     0.016 A 
ATOM     42  C   UNL A   1      45.064  27.908  36.048  1.00  0.00     0.010 A 
ATOM     43  C   UNL A   1      46.288  29.775  35.110  1.00  0.00     0.010 A 
ATOM     44  C   UNL A   1      45.059  29.150  35.400  1.00  0.00    -0.014 A 
BRANCH  44  45
ATOM     45  C   UNL A   1      43.801  29.689  34.815  1.00  0.00     0.031 A 
ATOM     46  C   UNL A   1      43.423  29.239  33.426  1.00  0.00     0.074 A 
ATOM     47  C   UNL A   1      43.003  30.552  35.472  1.00  0.00     0.049 A 
ATOM     48  N   UNL A   1      42.429  29.620  32.666  1.00  0.00    -0.248 NA
ATOM     49  C   UNL A   1      44.292  28.221  32.813  1.00  0.00     0.031 C 
ATOM     50  C   UNL A   1      43.215  31.041  36.833  1.00  0.00     0.029 A 
ATOM     51  N   UNL A   1      41.851  31.184  35.065  1.00  0.00    -0.354 N 
ATOM     52  C   UNL A   1      42.563  28.903  31.482  1.00  0.00     0.074 A 
ATOM     53  C   UNL A   1      43.748  28.084  31.615  1.00  0.00     0.031 C 
ATOM     54  C   UNL A   1      42.235  31.910  37.141  1.00  0.00     0.029 A 
ATOM     55  C   UNL A   1      41.343  32.066  35.991  1.00  0.00     0.049 A 
ATOM     56  H   UNL A   1      41.428  31.019  34.191  1.00  0.00     0.167 HD
ATOM     57  C   UNL A   1      41.770  28.916  30.384  1.00  0.00     0.037 A 
ATOM     58  C   UNL A   1      40.298  32.919  35.910  1.00  0.00     0.037 A 
ATOM     59  C   UNL A   1      40.590  29.727  30.246  1.00  0.00     0.049 A 
ATOM     60  C   UNL A   1      39.472  32.976  34.646  1.00  0.00     0.074 A 
ATOM     61  C   UNL A   1      39.710  29.787  29.179  1.00  0.00     0.029 A 
ATOM     62  N   UNL A   1      40.129  30.627  31.195  1.00  0.00    -0.354 N 
ATOM     63  N   UNL A   1      39.593  32.272  33.544  1.00  0.00    -0.248 NA
ATOM     64  C   UNL A   1      38.364  33.943  34.615  1.00  0.00     0.031 C 
ATOM     65  C   UNL A   1      38.750  30.765  29.459  1.00  0.00     0.029 A 
ATOM     66  C   UNL A   1      38.995  31.269  30.726  1.00  0.00     0.049 A 
ATOM     67  H   UNL A   1      40.546  30.786  32.072  1.00  0.00     0.167 HD
ATOM     68  C   UNL A   1      38.560  32.689  32.707  1.00  0.00     0.074 A 
ATOM     69  C   UNL A   1      37.819  33.700  33.430  1.00  0.00     0.031 C 
ATOM     70  C   UNL A   1      38.250  32.267  31.455  1.00  0.00     0.037 A 
BRANCH  57  71
ATOM     71  C   UNL A   1      42.177  28.048  29.225  1.00  0.00     0.058 A 
ATOM     72  C   UNL A   1      43.275  28.365  28.409  1.00  0.00     0.135 A 
ATOM     73  C   UNL A   1      41.470  26.869  28.941  1.00  0.00     0.135 A 
ATOM     74  F   UNL A   1      43.974  29.492  28.623  1.00  0.00    -0.206 F 
ATOM     75  C   UNL A   1      43.638  27.560  27.335  1.00  0.00     0.059 A 
ATOM     76  C   UNL A   1      41.835  26.031  27.892  1.00  0.00     0.059 A 
ATOM     77  F   UNL A   1      40.410  26.520  29.687  1.00  0.00    -0.206 F 
ATOM     78  C   UNL A   1      42.912  26.394  27.085  1.00  0.00     0.060 A 
BRANCH  78  79
ATOM     79  S   UNL A   1      43.394  25.360  25.686  1.00  0.00     0.124 S 
ATOM     80  O   UNL A   1      44.705  25.910  25.356  1.00  0.00    -0.237 OA
ATOM     81  O   UNL A   1      43.397  24.024  26.274  1.00  0.00    -0.237 OA
ATOM     82  O   UNL A   1      42.344  25.607  24.702  1.00  0.00    -0.744 OA
ENDBRANCH  78  79
ENDBRANCH  57  71
BRANCH  58  83
ATOM     83  C   UNL A   1      39.968  33.808  37.058  1.00  0.00     0.058 A 
ATOM     84  C   UNL A   1      40.586  35.060  37.207  1.00  0.00     0.135 A 
ATOM     85  C   UNL A   1      39.046  33.418  38.043  1.00  0.00     0.135 A 
ATOM     86  F   UNL A   1      41.492  35.471  36.305  1.00  0.00    -0.206 F 
ATOM     87  C   UNL A   1      40.309  35.889  38.291  1.00  0.00     0.059 A 
ATOM     88  C   UNL A   1      38.732  34.240  39.121  1.00  0.00     0.059 A 
ATOM     89  F   UNL A   1      38.428  32.231  37.950  1.00  0.00    -0.206 F 
ATOM     90  C   UNL A   1      39.375  35.471  39.240  1.00  0.00     0.060 A 
BRANCH  90  91
ATOM     91  S   UNL A   1      38.984  36.579  40.613  1.00  0.00     0.124 S 
ATOM     92  O   UNL A   1      40.300  36.800  41.199  1.00  0.00    -0.237 OA
ATOM     93  O   UNL A   1      38.393  37.722  39.923  1.00  0.00    -0.237 OA
ATOM     94  O   UNL A   1      38.055  35.796  41.423  1.00  0.00    -0.744 OA
ENDBRANCH  90  91
ENDBRANCH  58  83
BRANCH  70  95
ATOM     95  C   UNL A   1      37.031  32.853  30.791  1.00  0.00     0.058 A 
ATOM     96  C   UNL A   1      35.738  32.372  31.049  1.00  0.00     0.135 A 
ATOM     97  C   UNL A   1      37.155  33.958  29.932  1.00  0.00     0.135 A 
ATOM     98  F   UNL A   1      35.559  31.317  31.860  1.00  0.00    -0.206 F 
ATOM     99  C   UNL A   1      34.615  32.950  30.463  1.00  0.00     0.059 A 
ATOM    100  C   UNL A   1      36.044  34.571  29.358  1.00  0.00     0.059 A 
ATOM    101  F   UNL A   1      38.366  34.470  29.659  1.00  0.00    -0.206 F 
ATOM    102  C   UNL A   1      34.778  34.052  29.620  1.00  0.00     0.060 A 
BRANCH 102 103
ATOM    103  S   UNL A   1      33.311  34.814  28.893  1.00  0.00     0.124 S 
ATOM    104  O   UNL A   1      32.828  33.749  28.019  1.00  0.00    -0.237 OA
ATOM    105  O   UNL A   1      32.489  35.091  30.067  1.00  0.00    -0.237 OA
ATOM    106  O   UNL A   1      33.840  35.992  28.213  1.00  0.00    -0.744 OA
ENDBRANCH 102 103
ENDBRANCH  70  95
ENDBRANCH  44  45
ENDBRANCH  37  39
ENDBRANCH  36  37
ENDBRANCH  35  36
ENDBRANCH  34  35
ENDBRANCH  33  34
ENDBRANCH   1  33
TORSDOF 24
ENDMDL
