MODEL 1
REMARK VINA RESULT:      -9.7      0.000      0.000
REMARK SMILES O=C(CS(=O)(=O)NCc1ccc(N2CCOCC2)nc1)OCCOCCOCCOC(=O)c1ccc(-c2c3nc(c(-c4c(F)cc(S(=O)(=O)[O-])cc4F)c4ccc([nH]4)c(-c4c(F)cc(S(=O)(=O)[O-])cc4F)c4nc(c(-c5c(F)cc(S(=O)(=O)[O-])cc5F)c5ccc2[nH]5)C=C4)C=C3)cc1
REMARK SMILES IDX 25 1 24 2 23 3 22 4 21 5 2 6 1 7 3 8 4 9 5 10 6 11 7 12 8 14
REMARK SMILES IDX 9 15 10 16 20 17 11 18 19 19 12 20 13 21 14 22 18 23 15 24
REMARK SMILES IDX 17 25 16 26 26 27 27 28 28 29 29 30 30 31 31 32 32 33 33 34
REMARK SMILES IDX 34 35 98 36 35 37 97 38 36 39 37 40 38 41 91 42 39 43 96 44
REMARK SMILES IDX 90 45 92 46 40 47 95 48 89 49 88 50 41 52 75 53 54 54 74 55
REMARK SMILES IDX 55 56 58 57 73 58 93 59 56 60 57 61 72 63 94 64 59 65 42 66
REMARK SMILES IDX 43 67 52 68 44 69 45 70 51 71 53 72 46 73 47 74 48 75 49 76
REMARK SMILES IDX 50 77 76 78 77 79 86 80 78 81 79 82 85 83 87 84 80 85 81 86
REMARK SMILES IDX 82 87 83 88 84 89 60 90 61 91 70 92 62 93 63 94 69 95 71 96
REMARK SMILES IDX 64 97 65 98 66 99 67 100 68 101
REMARK H PARENT 7 13 92 51 58 62
REMARK Flexibility Score: inf
ROOT
ATOM      1  C   UNL A   1      31.792  28.339  26.292  1.00  0.00     0.188 C 
ENDROOT
BRANCH   1   2
ATOM      2  O   UNL A   1      32.863  27.689  25.640  1.00  0.00    -0.376 OA
BRANCH   2   3
ATOM      3  C   UNL A   1      33.223  26.388  26.066  1.00  0.00     0.202 C 
BRANCH   3   4
ATOM      4  C   UNL A   1      34.445  25.805  25.378  1.00  0.00     0.261 C 
BRANCH   4   5
ATOM      5  O   UNL A   1      34.288  24.500  24.761  1.00  0.00    -0.462 OA
BRANCH   5   6
ATOM      6  C   UNL A   1      33.918  23.297  25.232  1.00  0.00     0.322 C 
ATOM      7  O   UNL A   1      34.583  22.816  26.154  1.00  0.00    -0.251 OA
BRANCH   6   8
ATOM      8  C   UNL A   1      32.848  22.483  24.614  1.00  0.00     0.276 C 
BRANCH   8   9
ATOM      9  S   UNL A   1      32.624  22.765  22.894  1.00  0.00     0.222 S 
ATOM     10  O   UNL A   1      33.902  23.039  22.285  1.00  0.00    -0.212 OA
ATOM     11  O   UNL A   1      31.832  21.657  22.398  1.00  0.00    -0.212 OA
BRANCH   9  12
ATOM     12  N   UNL A   1      31.639  24.080  22.725  1.00  0.00    -0.210 NA
ATOM     13  H   UNL A   1      30.944  23.804  22.031  1.00  0.00     0.141 HD
BRANCH  12  14
ATOM     14  C   UNL A   1      30.877  24.734  23.786  1.00  0.00     0.135 C 
BRANCH  14  15
ATOM     15  C   UNL A   1      30.270  26.060  23.446  1.00  0.00    -0.015 A 
ATOM     16  C   UNL A   1      30.968  27.031  22.732  1.00  0.00     0.010 A 
ATOM     17  C   UNL A   1      28.979  26.383  23.844  1.00  0.00     0.118 A 
ATOM     18  C   UNL A   1      30.327  28.216  22.381  1.00  0.00     0.047 A 
ATOM     19  N   UNL A   1      28.368  27.561  23.578  1.00  0.00    -0.239 NA
ATOM     20  C   UNL A   1      29.029  28.454  22.820  1.00  0.00     0.128 A 
BRANCH  20  21
ATOM     21  N   UNL A   1      28.447  29.663  22.569  1.00  0.00    -0.352 N 
ATOM     22  C   UNL A   1      28.658  30.406  21.334  1.00  0.00     0.146 C 
ATOM     23  C   UNL A   1      27.318  30.088  23.378  1.00  0.00     0.146 C 
ATOM     24  C   UNL A   1      28.768  31.900  21.685  1.00  0.00     0.181 C 
ATOM     25  C   UNL A   1      27.541  31.575  23.694  1.00  0.00     0.181 C 
ATOM     26  O   UNL A   1      27.659  32.357  22.488  1.00  0.00    -0.378 OA
ENDBRANCH  20  21
ENDBRANCH  14  15
ENDBRANCH  12  14
ENDBRANCH   9  12
ENDBRANCH   8   9
ENDBRANCH   6   8
ENDBRANCH   5   6
ENDBRANCH   4   5
ENDBRANCH   3   4
ENDBRANCH   2   3
ENDBRANCH   1   2
BRANCH   1  27
ATOM     27  C   UNL A   1      32.180  29.522  27.200  1.00  0.00     0.188 C 
BRANCH  27  28
ATOM     28  O   UNL A   1      33.250  30.387  26.848  1.00  0.00    -0.376 OA
BRANCH  28  29
ATOM     29  C   UNL A   1      33.468  31.585  27.580  1.00  0.00     0.202 C 
BRANCH  29  30
ATOM     30  C   UNL A   1      34.861  31.866  28.167  1.00  0.00     0.261 C 
BRANCH  30  31
ATOM     31  O   UNL A   1      35.500  30.753  28.821  1.00  0.00    -0.460 OA
BRANCH  31  32
ATOM     32  C   UNL A   1      36.553  31.069  29.619  1.00  0.00     0.338 C 
ATOM     33  O   UNL A   1      36.525  31.797  30.598  1.00  0.00    -0.246 OA
BRANCH  32  34
ATOM     34  C   UNL A   1      37.749  30.261  29.275  1.00  0.00     0.060 A 
ATOM     35  C   UNL A   1      38.594  29.876  30.327  1.00  0.00     0.016 A 
ATOM     36  C   UNL A   1      38.083  29.935  27.959  1.00  0.00     0.016 A 
ATOM     37  C   UNL A   1      39.814  29.250  30.065  1.00  0.00     0.010 A 
ATOM     38  C   UNL A   1      39.321  29.324  27.693  1.00  0.00     0.010 A 
ATOM     39  C   UNL A   1      40.219  29.040  28.742  1.00  0.00    -0.014 A 
BRANCH  39  40
ATOM     40  C   UNL A   1      41.668  28.823  28.470  1.00  0.00     0.031 A 
ATOM     41  C   UNL A   1      42.103  27.436  28.057  1.00  0.00     0.074 A 
ATOM     42  C   UNL A   1      42.569  29.821  28.504  1.00  0.00     0.049 A 
ATOM     43  N   UNL A   1      43.292  26.995  27.733  1.00  0.00    -0.248 NA
ATOM     44  C   UNL A   1      41.048  26.409  28.000  1.00  0.00     0.031 C 
ATOM     45  C   UNL A   1      42.283  31.214  28.838  1.00  0.00     0.029 A 
ATOM     46  N   UNL A   1      43.920  29.810  28.246  1.00  0.00    -0.354 N 
ATOM     47  C   UNL A   1      43.129  25.643  27.446  1.00  0.00     0.074 A 
ATOM     48  C   UNL A   1      41.736  25.328  27.667  1.00  0.00     0.031 C 
ATOM     49  C   UNL A   1      43.424  31.924  28.767  1.00  0.00     0.029 A 
ATOM     50  C   UNL A   1      44.527  31.034  28.403  1.00  0.00     0.049 A 
ATOM     51  H   UNL A   1      44.408  28.999  27.973  1.00  0.00     0.167 HD
ATOM     52  C   UNL A   1      44.049  24.743  27.025  1.00  0.00     0.037 A 
ATOM     53  C   UNL A   1      45.822  31.391  28.276  1.00  0.00     0.037 A 
ATOM     54  C   UNL A   1      45.435  25.053  26.795  1.00  0.00     0.049 A 
ATOM     55  C   UNL A   1      46.843  30.359  27.856  1.00  0.00     0.074 A 
ATOM     56  C   UNL A   1      46.442  24.212  26.352  1.00  0.00     0.029 A 
ATOM     57  N   UNL A   1      46.013  26.297  26.996  1.00  0.00    -0.354 N 
ATOM     58  N   UNL A   1      46.669  29.091  27.567  1.00  0.00    -0.248 NA
ATOM     59  C   UNL A   1      48.236  30.813  27.735  1.00  0.00     0.031 C 
ATOM     60  C   UNL A   1      47.639  24.935  26.336  1.00  0.00     0.029 A 
ATOM     61  C   UNL A   1      47.366  26.243  26.706  1.00  0.00     0.049 A 
ATOM     62  H   UNL A   1      45.532  27.101  27.300  1.00  0.00     0.167 HD
ATOM     63  C   UNL A   1      47.920  28.610  27.185  1.00  0.00     0.074 A 
ATOM     64  C   UNL A   1      48.840  29.723  27.279  1.00  0.00     0.031 C 
ATOM     65  C   UNL A   1      48.271  27.362  26.784  1.00  0.00     0.037 A 
BRANCH  52  66
ATOM     66  C   UNL A   1      43.589  23.325  26.818  1.00  0.00     0.058 A 
ATOM     67  C   UNL A   1      43.391  22.786  25.537  1.00  0.00     0.135 A 
ATOM     68  C   UNL A   1      43.362  22.488  27.922  1.00  0.00     0.135 A 
ATOM     69  F   UNL A   1      43.572  23.547  24.446  1.00  0.00    -0.206 F 
ATOM     70  C   UNL A   1      42.954  21.477  25.358  1.00  0.00     0.059 A 
ATOM     71  C   UNL A   1      42.955  21.166  27.766  1.00  0.00     0.059 A 
ATOM     72  F   UNL A   1      43.533  22.952  29.170  1.00  0.00    -0.206 F 
ATOM     73  C   UNL A   1      42.738  20.675  26.480  1.00  0.00     0.060 A 
BRANCH  73  74
ATOM     74  S   UNL A   1      42.173  18.978  26.233  1.00  0.00     0.124 S 
ATOM     75  O   UNL A   1      40.811  19.193  25.753  1.00  0.00    -0.237 OA
ATOM     76  O   UNL A   1      43.121  18.474  25.246  1.00  0.00    -0.237 OA
ATOM     77  O   UNL A   1      42.282  18.386  27.564  1.00  0.00    -0.744 OA
ENDBRANCH  73  74
ENDBRANCH  52  66
BRANCH  53  78
ATOM     78  C   UNL A   1      46.242  32.797  28.534  1.00  0.00     0.058 A 
ATOM     79  C   UNL A   1      46.254  33.754  27.508  1.00  0.00     0.135 A 
ATOM     80  C   UNL A   1      46.663  33.206  29.810  1.00  0.00     0.135 A 
ATOM     81  F   UNL A   1      45.876  33.411  26.267  1.00  0.00    -0.206 F 
ATOM     82  C   UNL A   1      46.684  35.059  27.729  1.00  0.00     0.059 A 
ATOM     83  C   UNL A   1      47.071  34.513  30.063  1.00  0.00     0.059 A 
ATOM     84  F   UNL A   1      46.668  32.334  30.828  1.00  0.00    -0.206 F 
ATOM     85  C   UNL A   1      47.087  35.431  29.013  1.00  0.00     0.060 A 
BRANCH  85  86
ATOM     86  S   UNL A   1      47.594  37.140  29.300  1.00  0.00     0.124 S 
ATOM     87  O   UNL A   1      47.501  37.705  27.960  1.00  0.00    -0.237 OA
ATOM     88  O   UNL A   1      46.593  37.598  30.259  1.00  0.00    -0.237 OA
ATOM     89  O   UNL A   1      48.946  37.003  29.836  1.00  0.00    -0.744 OA
ENDBRANCH  85  86
ENDBRANCH  53  78
BRANCH  65  90
ATOM     90  C   UNL A   1      49.697  27.141  26.346  1.00  0.00     0.058 A 
ATOM     91  C   UNL A   1      50.096  27.253  25.005  1.00  0.00     0.135 A 
ATOM     92  C   UNL A   1      50.688  26.846  27.299  1.00  0.00     0.135 A 
ATOM     93  F   UNL A   1      49.192  27.533  24.053  1.00  0.00    -0.206 F 
ATOM     94  C   UNL A   1      51.416  27.041  24.618  1.00  0.00     0.059 A 
ATOM     95  C   UNL A   1      52.020  26.662  26.938  1.00  0.00     0.059 A 
ATOM     96  F   UNL A   1      50.369  26.744  28.598  1.00  0.00    -0.206 F 
ATOM     97  C   UNL A   1      52.370  26.742  25.592  1.00  0.00     0.060 A 
BRANCH  97  98
ATOM     98  S   UNL A   1      54.081  26.471  25.080  1.00  0.00     0.124 S 
ATOM     99  O   UNL A   1      53.944  25.307  24.210  1.00  0.00    -0.237 OA
ATOM    100  O   UNL A   1      54.410  27.726  24.412  1.00  0.00    -0.237 OA
ATOM    101  O   UNL A   1      54.780  26.235  26.339  1.00  0.00    -0.744 OA
ENDBRANCH  97  98
ENDBRANCH  65  90
ENDBRANCH  39  40
ENDBRANCH  32  34
ENDBRANCH  31  32
ENDBRANCH  30  31
ENDBRANCH  29  30
ENDBRANCH  28  29
ENDBRANCH  27  28
ENDBRANCH   1  27
TORSDOF 25
ENDMDL
MODEL 2
REMARK VINA RESULT:      -9.5      5.312     10.193
REMARK SMILES O=C(CS(=O)(=O)NCc1ccc(N2CCOCC2)nc1)OCCOCCOCCOC(=O)c1ccc(-c2c3nc(c(-c4c(F)cc(S(=O)(=O)[O-])cc4F)c4ccc([nH]4)c(-c4c(F)cc(S(=O)(=O)[O-])cc4F)c4nc(c(-c5c(F)cc(S(=O)(=O)[O-])cc5F)c5ccc2[nH]5)C=C4)C=C3)cc1
REMARK SMILES IDX 25 1 24 2 23 3 22 4 21 5 2 6 1 7 3 8 4 9 5 10 6 11 7 12 8 14
REMARK SMILES IDX 9 15 10 16 20 17 11 18 19 19 12 20 13 21 14 22 18 23 15 24
REMARK SMILES IDX 17 25 16 26 26 27 27 28 28 29 29 30 30 31 31 32 32 33 33 34
REMARK SMILES IDX 34 35 98 36 35 37 97 38 36 39 37 40 38 41 91 42 39 43 96 44
REMARK SMILES IDX 90 45 92 46 40 47 95 48 89 49 88 50 41 52 75 53 54 54 74 55
REMARK SMILES IDX 55 56 58 57 73 58 93 59 56 60 57 61 72 63 94 64 59 65 42 66
REMARK SMILES IDX 43 67 52 68 44 69 45 70 51 71 53 72 46 73 47 74 48 75 49 76
REMARK SMILES IDX 50 77 76 78 77 79 86 80 78 81 79 82 85 83 87 84 80 85 81 86
REMARK SMILES IDX 82 87 83 88 84 89 60 90 61 91 70 92 62 93 63 94 69 95 71 96
REMARK SMILES IDX 64 97 65 98 66 99 67 100 68 101
REMARK H PARENT 7 13 92 51 58 62
REMARK Flexibility Score: inf
ROOT
ATOM      1  C   UNL A   1      33.795  27.409  23.932  1.00  0.00     0.188 C 
ENDROOT
BRANCH   1   2
ATOM      2  O   UNL A   1      33.640  26.711  22.713  1.00  0.00    -0.376 OA
BRANCH   2   3
ATOM      3  C   UNL A   1      32.461  26.922  21.959  1.00  0.00     0.202 C 
BRANCH   3   4
ATOM      4  C   UNL A   1      31.224  27.234  22.781  1.00  0.00     0.261 C 
BRANCH   4   5
ATOM      5  O   UNL A   1      30.488  26.100  23.312  1.00  0.00    -0.462 OA
BRANCH   5   6
ATOM      6  C   UNL A   1      29.536  25.979  24.253  1.00  0.00     0.322 C 
ATOM      7  O   UNL A   1      28.504  26.639  24.108  1.00  0.00    -0.251 OA
BRANCH   6   8
ATOM      8  C   UNL A   1      29.727  25.203  25.498  1.00  0.00     0.276 C 
BRANCH   8   9
ATOM      9  S   UNL A   1      31.341  25.315  26.183  1.00  0.00     0.222 S 
ATOM     10  O   UNL A   1      31.640  26.695  26.477  1.00  0.00    -0.212 OA
ATOM     11  O   UNL A   1      31.401  24.340  27.253  1.00  0.00    -0.212 OA
BRANCH   9  12
ATOM     12  N   UNL A   1      32.406  24.749  25.054  1.00  0.00    -0.210 NA
ATOM     13  H   UNL A   1      32.746  25.580  24.569  1.00  0.00     0.141 HD
BRANCH  12  14
ATOM     14  C   UNL A   1      33.599  23.946  25.313  1.00  0.00     0.135 C 
BRANCH  14  15
ATOM     15  C   UNL A   1      33.457  22.468  25.120  1.00  0.00    -0.015 A 
ATOM     16  C   UNL A   1      32.217  21.862  24.941  1.00  0.00     0.010 A 
ATOM     17  C   UNL A   1      34.568  21.634  25.127  1.00  0.00     0.118 A 
ATOM     18  C   UNL A   1      32.153  20.493  24.694  1.00  0.00     0.047 A 
ATOM     19  N   UNL A   1      34.517  20.291  24.965  1.00  0.00    -0.239 NA
ATOM     20  C   UNL A   1      33.319  19.734  24.714  1.00  0.00     0.128 A 
BRANCH  20  21
ATOM     21  N   UNL A   1      33.238  18.377  24.582  1.00  0.00    -0.352 N 
ATOM     22  C   UNL A   1      32.936  17.487  25.694  1.00  0.00     0.146 C 
ATOM     23  C   UNL A   1      33.105  17.801  23.255  1.00  0.00     0.146 C 
ATOM     24  C   UNL A   1      33.811  16.228  25.553  1.00  0.00     0.181 C 
ATOM     25  C   UNL A   1      34.035  16.578  23.213  1.00  0.00     0.181 C 
ATOM     26  O   UNL A   1      33.700  15.628  24.246  1.00  0.00    -0.378 OA
ENDBRANCH  20  21
ENDBRANCH  14  15
ENDBRANCH  12  14
ENDBRANCH   9  12
ENDBRANCH   8   9
ENDBRANCH   6   8
ENDBRANCH   5   6
ENDBRANCH   4   5
ENDBRANCH   3   4
ENDBRANCH   2   3
ENDBRANCH   1   2
BRANCH   1  27
ATOM     27  C   UNL A   1      33.635  28.939  23.851  1.00  0.00     0.188 C 
BRANCH  27  28
ATOM     28  O   UNL A   1      32.841  29.638  24.800  1.00  0.00    -0.376 OA
BRANCH  28  29
ATOM     29  C   UNL A   1      33.255  29.714  26.157  1.00  0.00     0.202 C 
BRANCH  29  30
ATOM     30  C   UNL A   1      33.375  31.091  26.831  1.00  0.00     0.261 C 
BRANCH  30  31
ATOM     31  O   UNL A   1      33.627  31.075  28.249  1.00  0.00    -0.460 OA
BRANCH  31  32
ATOM     32  C   UNL A   1      34.593  31.925  28.681  1.00  0.00     0.338 C 
ATOM     33  O   UNL A   1      34.422  33.049  29.125  1.00  0.00    -0.246 OA
BRANCH  32  34
ATOM     34  C   UNL A   1      35.915  31.253  28.734  1.00  0.00     0.060 A 
ATOM     35  C   UNL A   1      35.940  29.904  29.117  1.00  0.00     0.016 A 
ATOM     36  C   UNL A   1      37.112  31.926  28.479  1.00  0.00     0.016 A 
ATOM     37  C   UNL A   1      37.153  29.251  29.338  1.00  0.00     0.010 A 
ATOM     38  C   UNL A   1      38.334  31.276  28.722  1.00  0.00     0.010 A 
ATOM     39  C   UNL A   1      38.357  29.955  29.215  1.00  0.00    -0.014 A 
BRANCH  39  40
ATOM     40  C   UNL A   1      39.568  29.413  29.891  1.00  0.00     0.031 A 
ATOM     41  C   UNL A   1      39.955  30.010  31.224  1.00  0.00     0.074 A 
ATOM     42  C   UNL A   1      40.268  28.373  29.399  1.00  0.00     0.049 A 
ATOM     43  N   UNL A   1      40.939  29.696  32.027  1.00  0.00    -0.248 NA
ATOM     44  C   UNL A   1      39.112  31.114  31.715  1.00  0.00     0.031 C 
ATOM     45  C   UNL A   1      39.980  27.669  28.152  1.00  0.00     0.029 A 
ATOM     46  N   UNL A   1      41.372  27.726  29.903  1.00  0.00    -0.354 N 
ATOM     47  C   UNL A   1      40.839  30.567  33.108  1.00  0.00     0.074 A 
ATOM     48  C   UNL A   1      39.721  31.444  32.842  1.00  0.00     0.031 C 
ATOM     49  C   UNL A   1      40.887  26.687  27.986  1.00  0.00     0.029 A 
ATOM     50  C   UNL A   1      41.832  26.706  29.102  1.00  0.00     0.049 A 
ATOM     51  H   UNL A   1      41.795  27.970  30.758  1.00  0.00     0.167 HD
ATOM     52  C   UNL A   1      41.597  30.628  34.229  1.00  0.00     0.037 A 
ATOM     53  C   UNL A   1      42.896  25.889  29.251  1.00  0.00     0.037 A 
ATOM     54  C   UNL A   1      42.706  29.752  34.501  1.00  0.00     0.049 A 
ATOM     55  C   UNL A   1      43.762  26.010  30.484  1.00  0.00     0.074 A 
ATOM     56  C   UNL A   1      43.525  29.725  35.617  1.00  0.00     0.029 A 
ATOM     57  N   UNL A   1      43.155  28.753  33.651  1.00  0.00    -0.354 N 
ATOM     58  N   UNL A   1      43.640  26.822  31.506  1.00  0.00    -0.248 NA
ATOM     59  C   UNL A   1      44.905  25.090  30.586  1.00  0.00     0.031 C 
ATOM     60  C   UNL A   1      44.503  28.745  35.416  1.00  0.00     0.029 A 
ATOM     61  C   UNL A   1      44.253  28.118  34.206  1.00  0.00     0.049 A 
ATOM     62  H   UNL A   1      42.753  28.530  32.780  1.00  0.00     0.167 HD
ATOM     63  C   UNL A   1      44.660  26.479  32.392  1.00  0.00     0.074 A 
ATOM     64  C   UNL A   1      45.388  25.386  31.784  1.00  0.00     0.031 C 
ATOM     65  C   UNL A   1      44.960  27.016  33.602  1.00  0.00     0.037 A 
BRANCH  52  66
ATOM     66  C   UNL A   1      41.273  31.704  35.229  1.00  0.00     0.058 A 
ATOM     67  C   UNL A   1      40.234  31.563  36.163  1.00  0.00     0.135 A 
ATOM     68  C   UNL A   1      42.027  32.887  35.264  1.00  0.00     0.135 A 
ATOM     69  F   UNL A   1      39.466  30.462  36.161  1.00  0.00    -0.206 F 
ATOM     70  C   UNL A   1      39.935  32.570  37.076  1.00  0.00     0.059 A 
ATOM     71  C   UNL A   1      41.766  33.894  36.188  1.00  0.00     0.059 A 
ATOM     72  F   UNL A   1      43.030  33.076  34.391  1.00  0.00    -0.206 F 
ATOM     73  C   UNL A   1      40.707  33.733  37.080  1.00  0.00     0.060 A 
BRANCH  73  74
ATOM     74  S   UNL A   1      40.310  35.030  38.271  1.00  0.00     0.124 S 
ATOM     75  O   UNL A   1      39.836  34.245  39.407  1.00  0.00    -0.237 OA
ATOM     76  O   UNL A   1      41.596  35.694  38.450  1.00  0.00    -0.237 OA
ATOM     77  O   UNL A   1      39.290  35.819  37.586  1.00  0.00    -0.744 OA
ENDBRANCH  73  74
ENDBRANCH  52  66
BRANCH  53  78
ATOM     78  C   UNL A   1      43.209  24.867  28.213  1.00  0.00     0.058 A 
ATOM     79  C   UNL A   1      43.838  25.221  27.009  1.00  0.00     0.135 A 
ATOM     80  C   UNL A   1      42.864  23.518  28.395  1.00  0.00     0.135 A 
ATOM     81  F   UNL A   1      44.174  26.499  26.779  1.00  0.00    -0.206 F 
ATOM     82  C   UNL A   1      44.097  24.281  26.016  1.00  0.00     0.059 A 
ATOM     83  C   UNL A   1      43.139  22.555  27.428  1.00  0.00     0.059 A 
ATOM     84  F   UNL A   1      42.265  23.125  29.529  1.00  0.00    -0.206 F 
ATOM     85  C   UNL A   1      43.747  22.948  26.237  1.00  0.00     0.060 A 
BRANCH  85  86
ATOM     86  S   UNL A   1      44.135  21.729  24.962  1.00  0.00     0.124 S 
ATOM     87  O   UNL A   1      44.070  22.537  23.751  1.00  0.00    -0.237 OA
ATOM     88  O   UNL A   1      45.466  21.283  25.363  1.00  0.00    -0.237 OA
ATOM     89  O   UNL A   1      43.078  20.734  25.117  1.00  0.00    -0.744 OA
ENDBRANCH  85  86
ENDBRANCH  53  78
BRANCH  65  90
ATOM     90  C   UNL A   1      46.081  26.388  34.390  1.00  0.00     0.058 A 
ATOM     91  C   UNL A   1      47.393  26.889  34.360  1.00  0.00     0.135 A 
ATOM     92  C   UNL A   1      45.825  25.281  35.218  1.00  0.00     0.135 A 
ATOM     93  F   UNL A   1      47.694  27.944  33.588  1.00  0.00    -0.206 F 
ATOM     94  C   UNL A   1      48.417  26.292  35.091  1.00  0.00     0.059 A 
ATOM     95  C   UNL A   1      46.826  24.689  35.982  1.00  0.00     0.059 A 
ATOM     96  F   UNL A   1      44.587  24.769  35.300  1.00  0.00    -0.206 F 
ATOM     97  C   UNL A   1      48.124  25.190  35.896  1.00  0.00     0.060 A 
BRANCH  97  98
ATOM     98  S   UNL A   1      49.459  24.425  36.841  1.00  0.00     0.124 S 
ATOM     99  O   UNL A   1      50.629  25.109  36.300  1.00  0.00    -0.237 OA
ATOM    100  O   UNL A   1      49.104  24.766  38.215  1.00  0.00    -0.237 OA
ATOM    101  O   UNL A   1      49.347  23.009  36.503  1.00  0.00    -0.744 OA
ENDBRANCH  97  98
ENDBRANCH  65  90
ENDBRANCH  39  40
ENDBRANCH  32  34
ENDBRANCH  31  32
ENDBRANCH  30  31
ENDBRANCH  29  30
ENDBRANCH  28  29
ENDBRANCH  27  28
ENDBRANCH   1  27
TORSDOF 25
ENDMDL
MODEL 3
REMARK VINA RESULT:      -9.1      4.765      8.985
REMARK SMILES O=C(CS(=O)(=O)NCc1ccc(N2CCOCC2)nc1)OCCOCCOCCOC(=O)c1ccc(-c2c3nc(c(-c4c(F)cc(S(=O)(=O)[O-])cc4F)c4ccc([nH]4)c(-c4c(F)cc(S(=O)(=O)[O-])cc4F)c4nc(c(-c5c(F)cc(S(=O)(=O)[O-])cc5F)c5ccc2[nH]5)C=C4)C=C3)cc1
REMARK SMILES IDX 25 1 24 2 23 3 22 4 21 5 2 6 1 7 3 8 4 9 5 10 6 11 7 12 8 14
REMARK SMILES IDX 9 15 10 16 20 17 11 18 19 19 12 20 13 21 14 22 18 23 15 24
REMARK SMILES IDX 17 25 16 26 26 27 27 28 28 29 29 30 30 31 31 32 32 33 33 34
REMARK SMILES IDX 34 35 98 36 35 37 97 38 36 39 37 40 38 41 91 42 39 43 96 44
REMARK SMILES IDX 90 45 92 46 40 47 95 48 89 49 88 50 41 52 75 53 54 54 74 55
REMARK SMILES IDX 55 56 58 57 73 58 93 59 56 60 57 61 72 63 94 64 59 65 42 66
REMARK SMILES IDX 43 67 52 68 44 69 45 70 51 71 53 72 46 73 47 74 48 75 49 76
REMARK SMILES IDX 50 77 76 78 77 79 86 80 78 81 79 82 85 83 87 84 80 85 81 86
REMARK SMILES IDX 82 87 83 88 84 89 60 90 61 91 70 92 62 93 63 94 69 95 71 96
REMARK SMILES IDX 64 97 65 98 66 99 67 100 68 101
REMARK H PARENT 7 13 92 51 58 62
REMARK Flexibility Score: inf
ROOT
ATOM      1  C   UNL A   1      33.774  26.355  23.517  1.00  0.00     0.188 C 
ENDROOT
BRANCH   1   2
ATOM      2  O   UNL A   1      33.302  26.182  22.196  1.00  0.00    -0.376 OA
BRANCH   2   3
ATOM      3  C   UNL A   1      32.927  24.884  21.778  1.00  0.00     0.202 C 
BRANCH   3   4
ATOM      4  C   UNL A   1      33.946  23.797  22.073  1.00  0.00     0.261 C 
BRANCH   4   5
ATOM      5  O   UNL A   1      33.772  23.057  23.310  1.00  0.00    -0.462 OA
BRANCH   5   6
ATOM      6  C   UNL A   1      34.624  22.643  24.263  1.00  0.00     0.322 C 
ATOM      7  O   UNL A   1      35.514  23.424  24.612  1.00  0.00    -0.251 OA
BRANCH   6   8
ATOM      8  C   UNL A   1      34.621  21.267  24.805  1.00  0.00     0.276 C 
BRANCH   8   9
ATOM      9  S   UNL A   1      33.321  20.938  25.941  1.00  0.00     0.222 S 
ATOM     10  O   UNL A   1      32.958  19.545  25.860  1.00  0.00    -0.212 OA
ATOM     11  O   UNL A   1      33.745  21.481  27.217  1.00  0.00    -0.212 OA
BRANCH   9  12
ATOM     12  N   UNL A   1      32.028  21.871  25.508  1.00  0.00    -0.210 NA
ATOM     13  H   UNL A   1      31.251  21.218  25.406  1.00  0.00     0.141 HD
BRANCH  12  14
ATOM     14  C   UNL A   1      31.481  22.997  26.261  1.00  0.00     0.135 C 
BRANCH  14  15
ATOM     15  C   UNL A   1      30.965  24.147  25.453  1.00  0.00    -0.015 A 
ATOM     16  C   UNL A   1      30.532  23.991  24.138  1.00  0.00     0.010 A 
ATOM     17  C   UNL A   1      30.911  25.430  25.982  1.00  0.00     0.118 A 
ATOM     18  C   UNL A   1      29.995  25.083  23.461  1.00  0.00     0.047 A 
ATOM     19  N   UNL A   1      30.464  26.517  25.311  1.00  0.00    -0.239 NA
ATOM     20  C   UNL A   1      29.976  26.332  24.072  1.00  0.00     0.128 A 
BRANCH  20  21
ATOM     21  N   UNL A   1      29.551  27.419  23.363  1.00  0.00    -0.352 N 
ATOM     22  C   UNL A   1      30.418  28.173  22.468  1.00  0.00     0.146 C 
ATOM     23  C   UNL A   1      28.125  27.651  23.207  1.00  0.00     0.146 C 
ATOM     24  C   UNL A   1      30.086  29.668  22.624  1.00  0.00     0.181 C 
ATOM     25  C   UNL A   1      27.902  29.158  23.409  1.00  0.00     0.181 C 
ATOM     26  O   UNL A   1      28.676  29.934  22.472  1.00  0.00    -0.378 OA
ENDBRANCH  20  21
ENDBRANCH  14  15
ENDBRANCH  12  14
ENDBRANCH   9  12
ENDBRANCH   8   9
ENDBRANCH   6   8
ENDBRANCH   5   6
ENDBRANCH   4   5
ENDBRANCH   3   4
ENDBRANCH   2   3
ENDBRANCH   1   2
BRANCH   1  27
ATOM     27  C   UNL A   1      33.754  27.800  24.050  1.00  0.00     0.188 C 
BRANCH  27  28
ATOM     28  O   UNL A   1      33.261  28.088  25.351  1.00  0.00    -0.376 OA
BRANCH  28  29
ATOM     29  C   UNL A   1      34.006  28.921  26.228  1.00  0.00     0.202 C 
BRANCH  29  30
ATOM     30  C   UNL A   1      33.439  30.294  26.625  1.00  0.00     0.261 C 
BRANCH  30  31
ATOM     31  O   UNL A   1      33.626  30.675  28.002  1.00  0.00    -0.460 OA
BRANCH  31  32
ATOM     32  C   UNL A   1      34.715  31.446  28.252  1.00  0.00     0.338 C 
ATOM     33  O   UNL A   1      34.717  32.645  28.483  1.00  0.00    -0.246 OA
BRANCH  32  34
ATOM     34  C   UNL A   1      35.936  30.616  28.406  1.00  0.00     0.060 A 
ATOM     35  C   UNL A   1      35.954  29.679  29.451  1.00  0.00     0.016 A 
ATOM     36  C   UNL A   1      37.064  30.781  27.599  1.00  0.00     0.016 A 
ATOM     37  C   UNL A   1      37.121  28.975  29.752  1.00  0.00     0.010 A 
ATOM     38  C   UNL A   1      38.245  30.087  27.915  1.00  0.00     0.010 A 
ATOM     39  C   UNL A   1      38.295  29.231  29.034  1.00  0.00    -0.014 A 
BRANCH  39  40
ATOM     40  C   UNL A   1      39.598  28.848  29.646  1.00  0.00     0.031 A 
ATOM     41  C   UNL A   1      40.006  29.548  30.921  1.00  0.00     0.074 A 
ATOM     42  C   UNL A   1      40.369  27.862  29.152  1.00  0.00     0.049 A 
ATOM     43  N   UNL A   1      41.067  29.376  31.667  1.00  0.00    -0.248 NA
ATOM     44  C   UNL A   1      39.085  30.584  31.422  1.00  0.00     0.031 C 
ATOM     45  C   UNL A   1      40.076  27.070  27.960  1.00  0.00     0.029 A 
ATOM     46  N   UNL A   1      41.565  27.356  29.605  1.00  0.00    -0.354 N 
ATOM     47  C   UNL A   1      40.947  30.285  32.714  1.00  0.00     0.074 A 
ATOM     48  C   UNL A   1      39.729  31.030  32.489  1.00  0.00     0.031 C 
ATOM     49  C   UNL A   1      41.067  26.179  27.773  1.00  0.00     0.029 A 
ATOM     50  C   UNL A   1      42.076  26.350  28.819  1.00  0.00     0.049 A 
ATOM     51  H   UNL A   1      42.014  27.684  30.417  1.00  0.00     0.167 HD
ATOM     52  C   UNL A   1      41.766  30.479  33.775  1.00  0.00     0.037 A 
ATOM     53  C   UNL A   1      43.227  25.653  28.928  1.00  0.00     0.037 A 
ATOM     54  C   UNL A   1      42.975  29.734  34.007  1.00  0.00     0.049 A 
ATOM     55  C   UNL A   1      44.154  25.922  30.091  1.00  0.00     0.074 A 
ATOM     56  C   UNL A   1      43.863  29.846  35.063  1.00  0.00     0.029 A 
ATOM     57  N   UNL A   1      43.471  28.746  33.171  1.00  0.00    -0.354 N 
ATOM     58  N   UNL A   1      44.014  26.768  31.084  1.00  0.00    -0.248 NA
ATOM     59  C   UNL A   1      45.391  25.129  30.153  1.00  0.00     0.031 C 
ATOM     60  C   UNL A   1      44.923  28.963  34.837  1.00  0.00     0.029 A 
ATOM     61  C   UNL A   1      44.663  28.253  33.675  1.00  0.00     0.049 A 
ATOM     62  H   UNL A   1      43.038  28.439  32.341  1.00  0.00     0.167 HD
ATOM     63  C   UNL A   1      45.120  26.576  31.910  1.00  0.00     0.074 A 
ATOM     64  C   UNL A   1      45.918  25.533  31.301  1.00  0.00     0.031 C 
ATOM     65  C   UNL A   1      45.440  27.200  33.072  1.00  0.00     0.037 A 
BRANCH  52  66
ATOM     66  C   UNL A   1      41.396  31.565  34.749  1.00  0.00     0.058 A 
ATOM     67  C   UNL A   1      41.923  32.863  34.653  1.00  0.00     0.135 A 
ATOM     68  C   UNL A   1      40.485  31.305  35.784  1.00  0.00     0.135 A 
ATOM     69  F   UNL A   1      42.816  33.162  33.695  1.00  0.00    -0.206 F 
ATOM     70  C   UNL A   1      41.582  33.856  35.566  1.00  0.00     0.059 A 
ATOM     71  C   UNL A   1      40.106  32.291  36.690  1.00  0.00     0.059 A 
ATOM     72  F   UNL A   1      39.953  30.080  35.926  1.00  0.00    -0.206 F 
ATOM     73  C   UNL A   1      40.673  33.559  36.582  1.00  0.00     0.060 A 
BRANCH  73  74
ATOM     74  S   UNL A   1      40.239  34.857  37.759  1.00  0.00     0.124 S 
ATOM     75  O   UNL A   1      40.806  34.329  38.996  1.00  0.00    -0.237 OA
ATOM     76  O   UNL A   1      40.913  36.024  37.199  1.00  0.00    -0.237 OA
ATOM     77  O   UNL A   1      38.780  34.893  37.704  1.00  0.00    -0.744 OA
ENDBRANCH  73  74
ENDBRANCH  52  66
BRANCH  53  78
ATOM     78  C   UNL A   1      43.577  24.617  27.916  1.00  0.00     0.058 A 
ATOM     79  C   UNL A   1      43.037  23.323  27.982  1.00  0.00     0.135 A 
ATOM     80  C   UNL A   1      44.478  24.894  26.876  1.00  0.00     0.135 A 
ATOM     81  F   UNL A   1      42.183  23.003  28.966  1.00  0.00    -0.206 F 
ATOM     82  C   UNL A   1      43.388  22.337  27.066  1.00  0.00     0.059 A 
ATOM     83  C   UNL A   1      44.824  23.931  25.931  1.00  0.00     0.059 A 
ATOM     84  F   UNL A   1      45.021  26.115  26.764  1.00  0.00    -0.206 F 
ATOM     85  C   UNL A   1      44.281  22.652  26.040  1.00  0.00     0.060 A 
BRANCH  85  86
ATOM     86  S   UNL A   1      44.691  21.378  24.828  1.00  0.00     0.124 S 
ATOM     87  O   UNL A   1      44.492  22.089  23.571  1.00  0.00    -0.237 OA
ATOM     88  O   UNL A   1      46.074  21.063  25.173  1.00  0.00    -0.237 OA
ATOM     89  O   UNL A   1      43.727  20.319  25.115  1.00  0.00    -0.744 OA
ENDBRANCH  85  86
ENDBRANCH  53  78
BRANCH  65  90
ATOM     90  C   UNL A   1      46.669  26.729  33.806  1.00  0.00     0.058 A 
ATOM     91  C   UNL A   1      47.933  27.306  33.602  1.00  0.00     0.135 A 
ATOM     92  C   UNL A   1      46.569  25.700  34.759  1.00  0.00     0.135 A 
ATOM     93  F   UNL A   1      48.088  28.292  32.705  1.00  0.00    -0.206 F 
ATOM     94  C   UNL A   1      49.059  26.854  34.286  1.00  0.00     0.059 A 
ATOM     95  C   UNL A   1      47.675  25.255  35.477  1.00  0.00     0.059 A 
ATOM     96  F   UNL A   1      45.384  25.122  35.009  1.00  0.00    -0.206 F 
ATOM     97  C   UNL A   1      48.919  25.825  35.219  1.00  0.00     0.060 A 
BRANCH  97  98
ATOM     98  S   UNL A   1      50.386  25.248  36.102  1.00  0.00     0.124 S 
ATOM     99  O   UNL A   1      51.427  25.444  35.099  1.00  0.00    -0.237 OA
ATOM    100  O   UNL A   1      50.434  26.148  37.249  1.00  0.00    -0.237 OA
ATOM    101  O   UNL A   1      50.069  23.858  36.415  1.00  0.00    -0.744 OA
ENDBRANCH  97  98
ENDBRANCH  65  90
ENDBRANCH  39  40
ENDBRANCH  32  34
ENDBRANCH  31  32
ENDBRANCH  30  31
ENDBRANCH  29  30
ENDBRANCH  28  29
ENDBRANCH  27  28
ENDBRANCH   1  27
TORSDOF 25
ENDMDL
