MODEL 1
REMARK VINA RESULT:     -10.0      0.000      0.000
REMARK SMILES CCC1CN(c2cc(F)ccc2C(=O)OCCOCCOCCOC(=O)c2ccc(-c3c4nc(c(-c5c(F)cc(S(=O)(=O)[O-])cc5F)c5ccc([nH]5)c(-c5c(F)cc(S(=O)(=O)[O-])cc5F)c5nc(c(-c6c(F)cc(S(=O)(=O)[O-])cc6F)c6ccc3[nH]6)C=C5)C=C4)cc2)C1
REMARK SMILES IDX 20 1 19 2 18 3 17 4 16 5 15 6 13 7 14 8 12 9 6 10 7 11 8 12
REMARK SMILES IDX 11 13 9 14 10 15 5 16 3 17 4 18 93 19 2 20 1 21 21 22 22 23
REMARK SMILES IDX 23 24 24 25 25 26 26 27 27 28 28 29 92 30 29 31 91 32 30 33
REMARK SMILES IDX 31 34 32 35 85 36 33 37 90 38 84 39 86 40 34 41 89 42 83 43
REMARK SMILES IDX 82 44 35 46 69 47 48 48 68 49 49 50 52 51 67 52 87 53 50 54
REMARK SMILES IDX 51 55 66 57 88 58 53 59 36 60 37 61 46 62 38 63 39 64 45 65
REMARK SMILES IDX 47 66 40 67 41 68 42 69 43 70 44 71 70 72 71 73 80 74 72 75
REMARK SMILES IDX 73 76 79 77 81 78 74 79 75 80 76 81 77 82 78 83 54 84 55 85
REMARK SMILES IDX 64 86 56 87 57 88 63 89 65 90 58 91 59 92 60 93 61 94 62 95
REMARK H PARENT 86 45 52 56
REMARK Flexibility Score: inf
ROOT
ATOM      1  C   UNL A   1      39.653  20.738  26.193  1.00  0.00     0.188 C 
ENDROOT
BRANCH   1   2
ATOM      2  C   UNL A   1      38.765  21.918  25.738  1.00  0.00     0.188 C 
BRANCH   2   3
ATOM      3  O   UNL A   1      37.747  21.689  24.773  1.00  0.00    -0.376 OA
BRANCH   3   4
ATOM      4  C   UNL A   1      36.501  21.145  25.193  1.00  0.00     0.202 C 
BRANCH   4   5
ATOM      5  C   UNL A   1      35.459  22.026  25.901  1.00  0.00     0.261 C 
BRANCH   5   6
ATOM      6  O   UNL A   1      34.443  21.281  26.586  1.00  0.00    -0.460 OA
BRANCH   6   7
ATOM      7  C   UNL A   1      33.168  21.448  26.156  1.00  0.00     0.340 C 
ATOM      8  O   UNL A   1      32.389  22.312  26.522  1.00  0.00    -0.246 OA
BRANCH   7   9
ATOM      9  C   UNL A   1      32.901  20.560  24.999  1.00  0.00     0.083 A 
ATOM     10  C   UNL A   1      32.618  21.018  23.696  1.00  0.00     0.054 A 
ATOM     11  C   UNL A   1      32.307  20.049  22.721  1.00  0.00     0.066 A 
ATOM     12  C   UNL A   1      32.278  18.692  23.029  1.00  0.00     0.125 A 
ATOM     13  C   UNL A   1      32.842  19.182  25.303  1.00  0.00     0.021 A 
ATOM     14  F   UNL A   1      32.012  17.805  22.062  1.00  0.00    -0.207 F 
ATOM     15  C   UNL A   1      32.529  18.249  24.317  1.00  0.00     0.040 A 
BRANCH  10  16
ATOM     16  N   UNL A   1      32.648  22.360  23.294  1.00  0.00    -0.370 N 
ATOM     17  C   UNL A   1      32.799  24.372  22.989  1.00  0.00     0.028 C 
ATOM     18  C   UNL A   1      31.651  23.351  23.094  1.00  0.00     0.122 C 
ATOM     19  C   UNL A   1      33.716  23.156  22.780  1.00  0.00     0.122 C 
BRANCH  17  20
ATOM     20  C   UNL A   1      32.704  25.396  21.870  1.00  0.00     0.004 C 
ATOM     21  C   UNL A   1      32.260  26.735  22.438  1.00  0.00     0.004 C 
ENDBRANCH  17  20
ENDBRANCH  10  16
ENDBRANCH   7   9
ENDBRANCH   6   7
ENDBRANCH   5   6
ENDBRANCH   4   5
ENDBRANCH   3   4
ENDBRANCH   2   3
ENDBRANCH   1   2
BRANCH   1  22
ATOM     22  O   UNL A   1      41.041  20.953  26.110  1.00  0.00    -0.376 OA
BRANCH  22  23
ATOM     23  C   UNL A   1      41.804  21.124  27.293  1.00  0.00     0.202 C 
BRANCH  23  24
ATOM     24  C   UNL A   1      41.848  22.392  28.174  1.00  0.00     0.261 C 
BRANCH  24  25
ATOM     25  O   UNL A   1      42.606  23.521  27.731  1.00  0.00    -0.460 OA
BRANCH  25  26
ATOM     26  C   UNL A   1      41.947  24.413  26.956  1.00  0.00     0.338 C 
ATOM     27  O   UNL A   1      41.575  24.250  25.801  1.00  0.00    -0.246 OA
BRANCH  26  28
ATOM     28  C   UNL A   1      41.559  25.570  27.784  1.00  0.00     0.060 A 
ATOM     29  C   UNL A   1      42.462  26.632  27.922  1.00  0.00     0.016 A 
ATOM     30  C   UNL A   1      40.330  25.594  28.447  1.00  0.00     0.016 A 
ATOM     31  C   UNL A   1      42.153  27.707  28.754  1.00  0.00     0.010 A 
ATOM     32  C   UNL A   1      40.032  26.664  29.298  1.00  0.00     0.010 A 
ATOM     33  C   UNL A   1      40.958  27.707  29.483  1.00  0.00    -0.014 A 
BRANCH  33  34
ATOM     34  C   UNL A   1      40.767  28.701  30.571  1.00  0.00     0.031 A 
ATOM     35  C   UNL A   1      41.657  28.619  31.783  1.00  0.00     0.074 A 
ATOM     36  C   UNL A   1      39.854  29.684  30.466  1.00  0.00     0.049 A 
ATOM     37  N   UNL A   1      41.660  29.361  32.860  1.00  0.00    -0.248 NA
ATOM     38  C   UNL A   1      42.680  27.559  31.781  1.00  0.00     0.031 C 
ATOM     39  C   UNL A   1      38.960  29.891  29.328  1.00  0.00     0.029 A 
ATOM     40  N   UNL A   1      39.525  30.694  31.338  1.00  0.00    -0.354 N 
ATOM     41  C   UNL A   1      42.677  28.857  33.662  1.00  0.00     0.074 A 
ATOM     42  C   UNL A   1      43.251  27.728  32.965  1.00  0.00     0.031 C 
ATOM     43  C   UNL A   1      38.177  30.956  29.576  1.00  0.00     0.029 A 
ATOM     44  C   UNL A   1      38.492  31.489  30.902  1.00  0.00     0.049 A 
ATOM     45  H   UNL A   1      39.988  30.836  32.196  1.00  0.00     0.167 HD
ATOM     46  C   UNL A   1      43.102  29.305  34.866  1.00  0.00     0.037 A 
ATOM     47  C   UNL A   1      37.858  32.513  31.510  1.00  0.00     0.037 A 
ATOM     48  C   UNL A   1      42.538  30.439  35.550  1.00  0.00     0.049 A 
ATOM     49  C   UNL A   1      38.315  32.958  32.878  1.00  0.00     0.074 A 
ATOM     50  C   UNL A   1      42.919  30.981  36.766  1.00  0.00     0.029 A 
ATOM     51  N   UNL A   1      41.476  31.202  35.088  1.00  0.00    -0.354 N 
ATOM     52  N   UNL A   1      39.292  32.486  33.616  1.00  0.00    -0.248 NA
ATOM     53  C   UNL A   1      37.591  34.081  33.493  1.00  0.00     0.031 C 
ATOM     54  C   UNL A   1      42.051  32.035  37.065  1.00  0.00     0.029 A 
ATOM     55  C   UNL A   1      41.173  32.193  36.005  1.00  0.00     0.049 A 
ATOM     56  H   UNL A   1      41.009  31.059  34.233  1.00  0.00     0.167 HD
ATOM     57  C   UNL A   1      39.315  33.268  34.767  1.00  0.00     0.074 A 
ATOM     58  C   UNL A   1      38.265  34.254  34.621  1.00  0.00     0.031 C 
ATOM     59  C   UNL A   1      40.132  33.177  35.847  1.00  0.00     0.037 A 
BRANCH  46  60
ATOM     60  C   UNL A   1      44.231  28.575  35.540  1.00  0.00     0.058 A 
ATOM     61  C   UNL A   1      45.563  28.872  35.211  1.00  0.00     0.135 A 
ATOM     62  C   UNL A   1      43.996  27.515  36.430  1.00  0.00     0.135 A 
ATOM     63  F   UNL A   1      45.844  29.884  34.374  1.00  0.00    -0.206 F 
ATOM     64  C   UNL A   1      46.621  28.121  35.710  1.00  0.00     0.059 A 
ATOM     65  C   UNL A   1      45.041  26.767  36.963  1.00  0.00     0.059 A 
ATOM     66  F   UNL A   1      42.743  27.207  36.798  1.00  0.00    -0.206 F 
ATOM     67  C   UNL A   1      46.350  27.064  36.579  1.00  0.00     0.060 A 
BRANCH  67  68
ATOM     68  S   UNL A   1      47.734  26.086  37.201  1.00  0.00     0.124 S 
ATOM     69  O   UNL A   1      48.744  26.307  36.173  1.00  0.00    -0.237 OA
ATOM     70  O   UNL A   1      47.992  26.716  38.493  1.00  0.00    -0.237 OA
ATOM     71  O   UNL A   1      47.190  24.734  37.270  1.00  0.00    -0.744 OA
ENDBRANCH  67  68
ENDBRANCH  46  60
BRANCH  47  72
ATOM     72  C   UNL A   1      36.711  33.183  30.836  1.00  0.00     0.058 A 
ATOM     73  C   UNL A   1      36.922  34.165  29.854  1.00  0.00     0.135 A 
ATOM     74  C   UNL A   1      35.384  32.858  31.154  1.00  0.00     0.135 A 
ATOM     75  F   UNL A   1      38.171  34.517  29.511  1.00  0.00    -0.206 F 
ATOM     76  C   UNL A   1      35.864  34.816  29.231  1.00  0.00     0.059 A 
ATOM     77  C   UNL A   1      34.305  33.474  30.522  1.00  0.00     0.059 A 
ATOM     78  F   UNL A   1      35.127  31.914  32.072  1.00  0.00    -0.206 F 
ATOM     79  C   UNL A   1      34.557  34.463  29.572  1.00  0.00     0.060 A 
BRANCH  79  80
ATOM     80  S   UNL A   1      33.198  35.316  28.745  1.00  0.00     0.124 S 
ATOM     81  O   UNL A   1      33.921  36.258  27.894  1.00  0.00    -0.237 OA
ATOM     82  O   UNL A   1      32.525  34.222  28.054  1.00  0.00    -0.237 OA
ATOM     83  O   UNL A   1      32.452  35.912  29.848  1.00  0.00    -0.744 OA
ENDBRANCH  79  80
ENDBRANCH  47  72
BRANCH  59  84
ATOM     84  C   UNL A   1      39.959  34.188  36.951  1.00  0.00     0.058 A 
ATOM     85  C   UNL A   1      39.067  33.939  38.008  1.00  0.00     0.135 A 
ATOM     86  C   UNL A   1      40.611  35.430  36.927  1.00  0.00     0.135 A 
ATOM     87  F   UNL A   1      38.407  32.771  38.077  1.00  0.00    -0.206 F 
ATOM     88  C   UNL A   1      38.816  34.890  38.991  1.00  0.00     0.059 A 
ATOM     89  C   UNL A   1      40.401  36.385  37.919  1.00  0.00     0.059 A 
ATOM     90  F   UNL A   1      41.478  35.719  35.943  1.00  0.00    -0.206 F 
ATOM     91  C   UNL A   1      39.489  36.110  38.939  1.00  0.00     0.060 A 
BRANCH  91  92
ATOM     92  S   UNL A   1      39.174  37.320  40.241  1.00  0.00     0.124 S 
ATOM     93  O   UNL A   1      38.565  36.494  41.279  1.00  0.00    -0.237 OA
ATOM     94  O   UNL A   1      40.516  37.816  40.531  1.00  0.00    -0.237 OA
ATOM     95  O   UNL A   1      38.283  38.284  39.601  1.00  0.00    -0.744 OA
ENDBRANCH  91  92
ENDBRANCH  59  84
ENDBRANCH  33  34
ENDBRANCH  26  28
ENDBRANCH  25  26
ENDBRANCH  24  25
ENDBRANCH  23  24
ENDBRANCH  22  23
ENDBRANCH   1  22
TORSDOF 22
ENDMDL
MODEL 2
REMARK VINA RESULT:      -9.9      6.134     11.847
REMARK SMILES CCC1CN(c2cc(F)ccc2C(=O)OCCOCCOCCOC(=O)c2ccc(-c3c4nc(c(-c5c(F)cc(S(=O)(=O)[O-])cc5F)c5ccc([nH]5)c(-c5c(F)cc(S(=O)(=O)[O-])cc5F)c5nc(c(-c6c(F)cc(S(=O)(=O)[O-])cc6F)c6ccc3[nH]6)C=C5)C=C4)cc2)C1
REMARK SMILES IDX 20 1 19 2 18 3 17 4 16 5 15 6 13 7 14 8 12 9 6 10 7 11 8 12
REMARK SMILES IDX 11 13 9 14 10 15 5 16 3 17 4 18 93 19 2 20 1 21 21 22 22 23
REMARK SMILES IDX 23 24 24 25 25 26 26 27 27 28 28 29 92 30 29 31 91 32 30 33
REMARK SMILES IDX 31 34 32 35 85 36 33 37 90 38 84 39 86 40 34 41 89 42 83 43
REMARK SMILES IDX 82 44 35 46 69 47 48 48 68 49 49 50 52 51 67 52 87 53 50 54
REMARK SMILES IDX 51 55 66 57 88 58 53 59 36 60 37 61 46 62 38 63 39 64 45 65
REMARK SMILES IDX 47 66 40 67 41 68 42 69 43 70 44 71 70 72 71 73 80 74 72 75
REMARK SMILES IDX 73 76 79 77 81 78 74 79 75 80 76 81 77 82 78 83 54 84 55 85
REMARK SMILES IDX 64 86 56 87 57 88 63 89 65 90 58 91 59 92 60 93 61 94 62 95
REMARK H PARENT 86 45 52 56
REMARK Flexibility Score: inf
ROOT
ATOM      1  C   UNL A   1      32.860  29.720  26.546  1.00  0.00     0.188 C 
ENDROOT
BRANCH   1   2
ATOM      2  C   UNL A   1      33.620  28.389  26.742  1.00  0.00     0.188 C 
BRANCH   2   3
ATOM      3  O   UNL A   1      33.010  27.174  26.327  1.00  0.00    -0.376 OA
BRANCH   3   4
ATOM      4  C   UNL A   1      32.184  27.173  25.168  1.00  0.00     0.202 C 
BRANCH   4   5
ATOM      5  C   UNL A   1      32.194  25.980  24.199  1.00  0.00     0.261 C 
BRANCH   5   6
ATOM      6  O   UNL A   1      33.309  25.098  24.380  1.00  0.00    -0.460 OA
BRANCH   6   7
ATOM      7  C   UNL A   1      33.672  24.343  23.314  1.00  0.00     0.340 C 
ATOM      8  O   UNL A   1      34.275  24.727  22.327  1.00  0.00    -0.246 OA
BRANCH   7   9
ATOM      9  C   UNL A   1      33.427  22.908  23.600  1.00  0.00     0.083 A 
ATOM     10  C   UNL A   1      34.323  22.075  24.301  1.00  0.00     0.054 A 
ATOM     11  C   UNL A   1      33.981  20.713  24.422  1.00  0.00     0.066 A 
ATOM     12  C   UNL A   1      32.808  20.206  23.871  1.00  0.00     0.125 A 
ATOM     13  C   UNL A   1      32.253  22.374  23.023  1.00  0.00     0.021 A 
ATOM     14  F   UNL A   1      32.508  18.912  24.041  1.00  0.00    -0.207 F 
ATOM     15  C   UNL A   1      31.946  21.022  23.158  1.00  0.00     0.040 A 
BRANCH  10  16
ATOM     16  N   UNL A   1      35.510  22.505  24.907  1.00  0.00    -0.370 N 
ATOM     17  C   UNL A   1      37.328  22.841  25.771  1.00  0.00     0.028 C 
ATOM     18  C   UNL A   1      35.859  22.883  26.231  1.00  0.00     0.122 C 
ATOM     19  C   UNL A   1      36.767  22.874  24.340  1.00  0.00     0.122 C 
BRANCH  17  20
ATOM     20  C   UNL A   1      38.217  23.990  26.216  1.00  0.00     0.004 C 
ATOM     21  C   UNL A   1      39.413  23.445  26.981  1.00  0.00     0.004 C 
ENDBRANCH  17  20
ENDBRANCH  10  16
ENDBRANCH   7   9
ENDBRANCH   6   7
ENDBRANCH   5   6
ENDBRANCH   4   5
ENDBRANCH   3   4
ENDBRANCH   2   3
ENDBRANCH   1   2
BRANCH   1  22
ATOM     22  O   UNL A   1      33.117  30.716  27.507  1.00  0.00    -0.376 OA
BRANCH  22  23
ATOM     23  C   UNL A   1      34.435  31.209  27.681  1.00  0.00     0.202 C 
BRANCH  23  24
ATOM     24  C   UNL A   1      34.961  31.993  28.904  1.00  0.00     0.261 C 
BRANCH  24  25
ATOM     25  O   UNL A   1      35.707  31.298  29.907  1.00  0.00    -0.460 OA
BRANCH  25  26
ATOM     26  C   UNL A   1      36.823  31.917  30.355  1.00  0.00     0.338 C 
ATOM     27  O   UNL A   1      36.877  32.896  31.089  1.00  0.00    -0.246 OA
BRANCH  26  28
ATOM     28  C   UNL A   1      37.999  31.111  29.980  1.00  0.00     0.060 A 
ATOM     29  C   UNL A   1      38.937  30.787  30.970  1.00  0.00     0.016 A 
ATOM     30  C   UNL A   1      38.196  30.705  28.658  1.00  0.00     0.016 A 
ATOM     31  C   UNL A   1      40.094  30.087  30.633  1.00  0.00     0.010 A 
ATOM     32  C   UNL A   1      39.368  30.020  28.319  1.00  0.00     0.010 A 
ATOM     33  C   UNL A   1      40.339  29.740  29.299  1.00  0.00    -0.014 A 
BRANCH  33  34
ATOM     34  C   UNL A   1      41.687  29.254  28.907  1.00  0.00     0.031 A 
ATOM     35  C   UNL A   1      42.834  30.230  28.922  1.00  0.00     0.074 A 
ATOM     36  C   UNL A   1      41.899  27.964  28.588  1.00  0.00     0.049 A 
ATOM     37  N   UNL A   1      44.088  30.040  28.602  1.00  0.00    -0.248 NA
ATOM     38  C   UNL A   1      42.529  31.603  29.357  1.00  0.00     0.031 C 
ATOM     39  C   UNL A   1      40.879  26.918  28.573  1.00  0.00     0.029 A 
ATOM     40  N   UNL A   1      43.050  27.315  28.210  1.00  0.00    -0.354 N 
ATOM     41  C   UNL A   1      44.716  31.264  28.791  1.00  0.00     0.074 A 
ATOM     42  C   UNL A   1      43.704  32.200  29.225  1.00  0.00     0.031 C 
ATOM     43  C   UNL A   1      41.447  25.759  28.194  1.00  0.00     0.029 A 
ATOM     44  C   UNL A   1      42.865  25.986  27.911  1.00  0.00     0.049 A 
ATOM     45  H   UNL A   1      43.927  27.761  28.159  1.00  0.00     0.167 HD
ATOM     46  C   UNL A   1      46.023  31.576  28.630  1.00  0.00     0.037 A 
ATOM     47  C   UNL A   1      43.731  25.065  27.442  1.00  0.00     0.037 A 
ATOM     48  C   UNL A   1      47.031  30.637  28.212  1.00  0.00     0.049 A 
ATOM     49  C   UNL A   1      45.173  25.453  27.218  1.00  0.00     0.074 A 
ATOM     50  C   UNL A   1      48.388  30.857  28.042  1.00  0.00     0.029 A 
ATOM     51  N   UNL A   1      46.799  29.308  27.894  1.00  0.00    -0.354 N 
ATOM     52  N   UNL A   1      45.758  26.610  27.421  1.00  0.00    -0.248 NA
ATOM     53  C   UNL A   1      46.076  24.409  26.708  1.00  0.00     0.031 C 
ATOM     54  C   UNL A   1      48.965  29.677  27.567  1.00  0.00     0.029 A 
ATOM     55  C   UNL A   1      47.982  28.702  27.506  1.00  0.00     0.049 A 
ATOM     56  H   UNL A   1      45.923  28.861  27.939  1.00  0.00     0.167 HD
ATOM     57  C   UNL A   1      47.098  26.425  27.089  1.00  0.00     0.074 A 
ATOM     58  C   UNL A   1      47.240  25.042  26.688  1.00  0.00     0.031 C 
ATOM     59  C   UNL A   1      48.116  27.321  27.116  1.00  0.00     0.037 A 
BRANCH  46  60
ATOM     60  C   UNL A   1      46.456  32.991  28.898  1.00  0.00     0.058 A 
ATOM     61  C   UNL A   1      46.795  33.393  30.200  1.00  0.00     0.135 A 
ATOM     62  C   UNL A   1      46.437  33.971  27.894  1.00  0.00     0.135 A 
ATOM     63  F   UNL A   1      46.842  32.494  31.195  1.00  0.00    -0.206 F 
ATOM     64  C   UNL A   1      47.063  34.723  30.504  1.00  0.00     0.059 A 
ATOM     65  C   UNL A   1      46.728  35.304  28.170  1.00  0.00     0.059 A 
ATOM     66  F   UNL A   1      46.145  33.634  26.627  1.00  0.00    -0.206 F 
ATOM     67  C   UNL A   1      47.018  35.673  29.483  1.00  0.00     0.060 A 
BRANCH  67  68
ATOM     68  S   UNL A   1      47.348  37.398  29.901  1.00  0.00     0.124 S 
ATOM     69  O   UNL A   1      46.336  37.660  30.918  1.00  0.00    -0.237 OA
ATOM     70  O   UNL A   1      48.728  37.336  30.375  1.00  0.00    -0.237 OA
ATOM     71  O   UNL A   1      47.161  38.096  28.632  1.00  0.00    -0.744 OA
ENDBRANCH  67  68
ENDBRANCH  46  60
BRANCH  47  72
ATOM     72  C   UNL A   1      43.260  23.685  27.141  1.00  0.00     0.058 A 
ATOM     73  C   UNL A   1      42.980  22.774  28.171  1.00  0.00     0.135 A 
ATOM     74  C   UNL A   1      43.076  23.248  25.820  1.00  0.00     0.135 A 
ATOM     75  F   UNL A   1      43.140  23.138  29.454  1.00  0.00    -0.206 F 
ATOM     76  C   UNL A   1      42.560  21.476  27.907  1.00  0.00     0.059 A 
ATOM     77  C   UNL A   1      42.626  21.961  25.529  1.00  0.00     0.059 A 
ATOM     78  F   UNL A   1      43.311  24.085  24.798  1.00  0.00    -0.206 F 
ATOM     79  C   UNL A   1      42.385  21.078  26.581  1.00  0.00     0.060 A 
BRANCH  79  80
ATOM     80  S   UNL A   1      41.831  19.389  26.260  1.00  0.00     0.124 S 
ATOM     81  O   UNL A   1      42.520  19.091  25.008  1.00  0.00    -0.237 OA
ATOM     82  O   UNL A   1      42.318  18.680  27.438  1.00  0.00    -0.237 OA
ATOM     83  O   UNL A   1      40.381  19.521  26.164  1.00  0.00    -0.744 OA
ENDBRANCH  79  80
ENDBRANCH  47  72
BRANCH  59  84
ATOM     84  C   UNL A   1      49.492  26.839  26.735  1.00  0.00     0.058 A 
ATOM     85  C   UNL A   1      49.886  26.810  25.387  1.00  0.00     0.135 A 
ATOM     86  C   UNL A   1      50.390  26.334  27.688  1.00  0.00     0.135 A 
ATOM     87  F   UNL A   1      49.063  27.270  24.431  1.00  0.00    -0.206 F 
ATOM     88  C   UNL A   1      51.112  26.284  24.996  1.00  0.00     0.059 A 
ATOM     89  C   UNL A   1      51.637  25.833  27.323  1.00  0.00     0.059 A 
ATOM     90  F   UNL A   1      50.067  26.342  28.991  1.00  0.00    -0.206 F 
ATOM     91  C   UNL A   1      51.982  25.799  25.972  1.00  0.00     0.060 A 
BRANCH  91  92
ATOM     92  S   UNL A   1      53.583  25.148  25.448  1.00  0.00     0.124 S 
ATOM     93  O   UNL A   1      53.283  23.733  25.252  1.00  0.00    -0.237 OA
ATOM     94  O   UNL A   1      53.844  25.915  24.234  1.00  0.00    -0.237 OA
ATOM     95  O   UNL A   1      54.460  25.454  26.574  1.00  0.00    -0.744 OA
ENDBRANCH  91  92
ENDBRANCH  59  84
ENDBRANCH  33  34
ENDBRANCH  26  28
ENDBRANCH  25  26
ENDBRANCH  24  25
ENDBRANCH  23  24
ENDBRANCH  22  23
ENDBRANCH   1  22
TORSDOF 22
ENDMDL
MODEL 3
REMARK VINA RESULT:      -9.9      4.674     10.529
REMARK SMILES CCC1CN(c2cc(F)ccc2C(=O)OCCOCCOCCOC(=O)c2ccc(-c3c4nc(c(-c5c(F)cc(S(=O)(=O)[O-])cc5F)c5ccc([nH]5)c(-c5c(F)cc(S(=O)(=O)[O-])cc5F)c5nc(c(-c6c(F)cc(S(=O)(=O)[O-])cc6F)c6ccc3[nH]6)C=C5)C=C4)cc2)C1
REMARK SMILES IDX 20 1 19 2 18 3 17 4 16 5 15 6 13 7 14 8 12 9 6 10 7 11 8 12
REMARK SMILES IDX 11 13 9 14 10 15 5 16 3 17 4 18 93 19 2 20 1 21 21 22 22 23
REMARK SMILES IDX 23 24 24 25 25 26 26 27 27 28 28 29 92 30 29 31 91 32 30 33
REMARK SMILES IDX 31 34 32 35 85 36 33 37 90 38 84 39 86 40 34 41 89 42 83 43
REMARK SMILES IDX 82 44 35 46 69 47 48 48 68 49 49 50 52 51 67 52 87 53 50 54
REMARK SMILES IDX 51 55 66 57 88 58 53 59 36 60 37 61 46 62 38 63 39 64 45 65
REMARK SMILES IDX 47 66 40 67 41 68 42 69 43 70 44 71 70 72 71 73 80 74 72 75
REMARK SMILES IDX 73 76 79 77 81 78 74 79 75 80 76 81 77 82 78 83 54 84 55 85
REMARK SMILES IDX 64 86 56 87 57 88 63 89 65 90 58 91 59 92 60 93 61 94 62 95
REMARK H PARENT 86 45 52 56
REMARK Flexibility Score: inf
ROOT
ATOM      1  C   UNL A   1      30.120  28.773  23.813  1.00  0.00     0.188 C 
ENDROOT
BRANCH   1   2
ATOM      2  C   UNL A   1      30.655  28.661  22.368  1.00  0.00     0.188 C 
BRANCH   2   3
ATOM      3  O   UNL A   1      30.974  27.380  21.843  1.00  0.00    -0.376 OA
BRANCH   3   4
ATOM      4  C   UNL A   1      31.936  26.574  22.514  1.00  0.00     0.202 C 
BRANCH   4   5
ATOM      5  C   UNL A   1      32.816  25.587  21.731  1.00  0.00     0.261 C 
BRANCH   5   6
ATOM      6  O   UNL A   1      33.846  24.979  22.522  1.00  0.00    -0.460 OA
BRANCH   6   7
ATOM      7  C   UNL A   1      33.788  23.632  22.671  1.00  0.00     0.340 C 
ATOM      8  O   UNL A   1      33.150  22.855  21.981  1.00  0.00    -0.246 OA
BRANCH   7   9
ATOM      9  C   UNL A   1      34.793  23.187  23.667  1.00  0.00     0.083 A 
ATOM     10  C   UNL A   1      34.541  23.065  25.048  1.00  0.00     0.054 A 
ATOM     11  C   UNL A   1      35.624  22.706  25.875  1.00  0.00     0.066 A 
ATOM     12  C   UNL A   1      36.894  22.481  25.353  1.00  0.00     0.125 A 
ATOM     13  C   UNL A   1      36.093  22.981  23.154  1.00  0.00     0.021 A 
ATOM     14  F   UNL A   1      37.884  22.107  26.173  1.00  0.00    -0.207 F 
ATOM     15  C   UNL A   1      37.143  22.629  23.999  1.00  0.00     0.040 A 
BRANCH  10  16
ATOM     16  N   UNL A   1      33.292  23.249  25.654  1.00  0.00    -0.370 N 
ATOM     17  C   UNL A   1      31.625  23.523  26.800  1.00  0.00     0.028 C 
ATOM     18  C   UNL A   1      32.190  22.392  25.919  1.00  0.00     0.122 C 
ATOM     19  C   UNL A   1      32.625  24.439  26.076  1.00  0.00     0.122 C 
BRANCH  17  20
ATOM     20  C   UNL A   1      30.143  23.826  26.655  1.00  0.00     0.004 C 
ATOM     21  C   UNL A   1      29.329  22.729  27.323  1.00  0.00     0.004 C 
ENDBRANCH  17  20
ENDBRANCH  10  16
ENDBRANCH   7   9
ENDBRANCH   6   7
ENDBRANCH   5   6
ENDBRANCH   4   5
ENDBRANCH   3   4
ENDBRANCH   2   3
ENDBRANCH   1   2
BRANCH   1  22
ATOM     22  O   UNL A   1      31.015  29.316  24.754  1.00  0.00    -0.376 OA
BRANCH  22  23
ATOM     23  C   UNL A   1      32.269  28.695  24.981  1.00  0.00     0.202 C 
BRANCH  23  24
ATOM     24  C   UNL A   1      32.941  28.471  26.354  1.00  0.00     0.261 C 
BRANCH  24  25
ATOM     25  O   UNL A   1      34.294  28.891  26.542  1.00  0.00    -0.460 OA
BRANCH  25  26
ATOM     26  C   UNL A   1      34.506  29.794  27.528  1.00  0.00     0.338 C 
ATOM     27  O   UNL A   1      33.659  30.463  28.106  1.00  0.00    -0.246 OA
BRANCH  26  28
ATOM     28  C   UNL A   1      35.916  29.717  27.951  1.00  0.00     0.060 A 
ATOM     29  C   UNL A   1      36.919  29.932  26.996  1.00  0.00     0.016 A 
ATOM     30  C   UNL A   1      36.250  29.402  29.270  1.00  0.00     0.016 A 
ATOM     31  C   UNL A   1      38.260  29.797  27.350  1.00  0.00     0.010 A 
ATOM     32  C   UNL A   1      37.596  29.246  29.617  1.00  0.00     0.010 A 
ATOM     33  C   UNL A   1      38.606  29.407  28.650  1.00  0.00    -0.014 A 
BRANCH  33  34
ATOM     34  C   UNL A   1      40.002  28.992  28.940  1.00  0.00     0.031 A 
ATOM     35  C   UNL A   1      40.926  29.986  29.594  1.00  0.00     0.074 A 
ATOM     36  C   UNL A   1      40.430  27.744  28.671  1.00  0.00     0.049 A 
ATOM     37  N   UNL A   1      42.186  29.855  29.920  1.00  0.00    -0.248 NA
ATOM     38  C   UNL A   1      40.355  31.302  29.923  1.00  0.00     0.031 C 
ATOM     39  C   UNL A   1      39.621  26.683  28.075  1.00  0.00     0.029 A 
ATOM     40  N   UNL A   1      41.659  27.161  28.863  1.00  0.00    -0.354 N 
ATOM     41  C   UNL A   1      42.556  31.068  30.487  1.00  0.00     0.074 A 
ATOM     42  C   UNL A   1      41.401  31.935  30.434  1.00  0.00     0.031 C 
ATOM     43  C   UNL A   1      40.378  25.580  27.940  1.00  0.00     0.029 A 
ATOM     44  C   UNL A   1      41.734  25.864  28.412  1.00  0.00     0.049 A 
ATOM     45  H   UNL A   1      42.417  27.628  29.286  1.00  0.00     0.167 HD
ATOM     46  C   UNL A   1      43.750  31.422  31.016  1.00  0.00     0.037 A 
ATOM     47  C   UNL A   1      42.779  25.013  28.364  1.00  0.00     0.037 A 
ATOM     48  C   UNL A   1      44.895  30.552  31.081  1.00  0.00     0.049 A 
ATOM     49  C   UNL A   1      44.117  25.452  28.911  1.00  0.00     0.074 A 
ATOM     50  C   UNL A   1      46.142  30.817  31.620  1.00  0.00     0.029 A 
ATOM     51  N   UNL A   1      44.938  29.255  30.590  1.00  0.00    -0.354 N 
ATOM     52  N   UNL A   1      44.447  26.596  29.463  1.00  0.00    -0.248 NA
ATOM     53  C   UNL A   1      45.221  24.484  28.836  1.00  0.00     0.031 C 
ATOM     54  C   UNL A   1      46.957  29.702  31.405  1.00  0.00     0.029 A 
ATOM     55  C   UNL A   1      46.198  28.717  30.792  1.00  0.00     0.049 A 
ATOM     56  H   UNL A   1      44.185  28.788  30.163  1.00  0.00     0.167 HD
ATOM     57  C   UNL A   1      45.787  26.474  29.823  1.00  0.00     0.074 A 
ATOM     58  C   UNL A   1      46.200  25.140  29.441  1.00  0.00     0.031 C 
ATOM     59  C   UNL A   1      46.599  27.384  30.417  1.00  0.00     0.037 A 
BRANCH  46  60
ATOM     60  C   UNL A   1      43.900  32.813  31.569  1.00  0.00     0.058 A 
ATOM     61  C   UNL A   1      43.561  33.085  32.904  1.00  0.00     0.135 A 
ATOM     62  C   UNL A   1      44.277  33.893  30.756  1.00  0.00     0.135 A 
ATOM     63  F   UNL A   1      43.206  32.086  33.728  1.00  0.00    -0.206 F 
ATOM     64  C   UNL A   1      43.555  34.382  33.404  1.00  0.00     0.059 A 
ATOM     65  C   UNL A   1      44.304  35.197  31.242  1.00  0.00     0.059 A 
ATOM     66  F   UNL A   1      44.637  33.685  29.480  1.00  0.00    -0.206 F 
ATOM     67  C   UNL A   1      43.920  35.433  32.563  1.00  0.00     0.060 A 
BRANCH  67  68
ATOM     68  S   UNL A   1      43.885  37.113  33.223  1.00  0.00     0.124 S 
ATOM     69  O   UNL A   1      42.688  37.084  34.056  1.00  0.00    -0.237 OA
ATOM     70  O   UNL A   1      45.157  37.183  33.937  1.00  0.00    -0.237 OA
ATOM     71  O   UNL A   1      43.801  37.946  32.027  1.00  0.00    -0.744 OA
ENDBRANCH  67  68
ENDBRANCH  46  60
BRANCH  47  72
ATOM     72  C   UNL A   1      42.610  23.660  27.766  1.00  0.00     0.058 A 
ATOM     73  C   UNL A   1      42.400  22.532  28.574  1.00  0.00     0.135 A 
ATOM     74  C   UNL A   1      42.652  23.464  26.376  1.00  0.00     0.135 A 
ATOM     75  F   UNL A   1      42.353  22.660  29.910  1.00  0.00    -0.206 F 
ATOM     76  C   UNL A   1      42.262  21.259  28.033  1.00  0.00     0.059 A 
ATOM     77  C   UNL A   1      42.485  22.203  25.808  1.00  0.00     0.059 A 
ATOM     78  F   UNL A   1      42.832  24.512  25.558  1.00  0.00    -0.206 F 
ATOM     79  C   UNL A   1      42.305  21.104  26.647  1.00  0.00     0.060 A 
BRANCH  79  80
ATOM     80  S   UNL A   1      42.117  19.443  25.965  1.00  0.00     0.124 S 
ATOM     81  O   UNL A   1      42.625  18.621  27.060  1.00  0.00    -0.237 OA
ATOM     82  O   UNL A   1      40.679  19.371  25.730  1.00  0.00    -0.237 OA
ATOM     83  O   UNL A   1      42.946  19.474  24.766  1.00  0.00    -0.744 OA
ENDBRANCH  79  80
ENDBRANCH  47  72
BRANCH  59  84
ATOM     84  C   UNL A   1      48.014  26.972  30.730  1.00  0.00     0.058 A 
ATOM     85  C   UNL A   1      48.328  26.403  31.975  1.00  0.00     0.135 A 
ATOM     86  C   UNL A   1      49.069  27.210  29.836  1.00  0.00     0.135 A 
ATOM     87  F   UNL A   1      47.361  26.163  32.875  1.00  0.00    -0.206 F 
ATOM     88  C   UNL A   1      49.638  26.099  32.329  1.00  0.00     0.059 A 
ATOM     89  C   UNL A   1      50.385  26.883  30.156  1.00  0.00     0.059 A 
ATOM     90  F   UNL A   1      48.825  27.747  28.630  1.00  0.00    -0.206 F 
ATOM     91  C   UNL A   1      50.660  26.341  31.411  1.00  0.00     0.060 A 
BRANCH  91  92
ATOM     92  S   UNL A   1      52.351  25.912  31.876  1.00  0.00     0.124 S 
ATOM     93  O   UNL A   1      52.213  24.508  32.250  1.00  0.00    -0.237 OA
ATOM     94  O   UNL A   1      53.084  26.170  30.640  1.00  0.00    -0.237 OA
ATOM     95  O   UNL A   1      52.646  26.829  32.973  1.00  0.00    -0.744 OA
ENDBRANCH  91  92
ENDBRANCH  59  84
ENDBRANCH  33  34
ENDBRANCH  26  28
ENDBRANCH  25  26
ENDBRANCH  24  25
ENDBRANCH  23  24
ENDBRANCH  22  23
ENDBRANCH   1  22
TORSDOF 22
ENDMDL
