MODEL 1
REMARK VINA RESULT:     -10.6      0.000      0.000
REMARK SMILES Cc1c(Cl)cccc1NC(=O)C[C@](C)(C(=O)OCCOCCOCCOC(=O)c1ccc(-c2c3nc(c(-c4c(F)cc(S(=O)(=O)[O-])cc4F)c4ccc([nH]4)c(-c4c(F)cc(S(=O)(=O)[O-])cc4F)c4nc(c(-c5c(F)cc(S(=O)(=O)[O-])cc5F)c5ccc2[nH]5)C=C4)C=C3)cc1)c1ccccc1
REMARK SMILES IDX 21 1 20 2 19 3 18 4 17 5 15 6 16 7 13 8 14 9 12 10 10 11
REMARK SMILES IDX 9 12 11 14 8 15 1 16 2 17 3 18 4 19 5 20 7 21 6 22 95 23
REMARK SMILES IDX 96 24 100 25 97 26 99 27 98 28 22 29 23 30 24 31 25 32 26 33
REMARK SMILES IDX 27 34 28 35 29 36 30 37 94 38 31 39 93 40 32 41 33 42 34 43
REMARK SMILES IDX 87 44 35 45 92 46 86 47 88 48 36 49 91 50 85 51 84 52 37 54
REMARK SMILES IDX 71 55 50 56 70 57 51 58 54 59 69 60 89 61 52 62 53 63 68 65
REMARK SMILES IDX 90 66 55 67 38 68 39 69 48 70 40 71 41 72 47 73 49 74 42 75
REMARK SMILES IDX 43 76 44 77 45 78 46 79 72 80 73 81 82 82 74 83 75 84 81 85
REMARK SMILES IDX 83 86 76 87 77 88 78 89 79 90 80 91 56 92 57 93 66 94 58 95
REMARK SMILES IDX 59 96 65 97 67 98 60 99 61 100 62 101 63 102 64 103
REMARK H PARENT 9 13 88 53 54 64
REMARK Flexibility Score: inf
ROOT
ATOM      1  C   UNL A   1      38.555  22.610  26.451  1.00  0.00     0.188 C 
ENDROOT
BRANCH   1   2
ATOM      2  O   UNL A   1      38.041  22.176  25.200  1.00  0.00    -0.376 OA
BRANCH   2   3
ATOM      3  C   UNL A   1      37.375  20.916  25.156  1.00  0.00     0.202 C 
BRANCH   3   4
ATOM      4  C   UNL A   1      35.862  20.911  24.907  1.00  0.00     0.261 C 
BRANCH   4   5
ATOM      5  O   UNL A   1      35.288  22.223  24.719  1.00  0.00    -0.463 OA
BRANCH   5   6
ATOM      6  C   UNL A   1      34.557  22.689  25.766  1.00  0.00     0.316 C 
ATOM      7  O   UNL A   1      34.963  22.638  26.925  1.00  0.00    -0.251 OA
BRANCH   6   8
ATOM      8  C   UNL A   1      33.166  23.284  25.396  1.00  0.00     0.099 C 
ATOM      9  C   UNL A   1      32.112  22.278  24.850  1.00  0.00     0.029 C 
BRANCH   8  10
ATOM     10  C   UNL A   1      32.580  23.907  26.709  1.00  0.00     0.123 C 
BRANCH  10  11
ATOM     11  C   UNL A   1      31.068  24.103  26.843  1.00  0.00     0.225 C 
ATOM     12  N   UNL A   1      30.363  25.169  26.369  1.00  0.00    -0.326 N 
ATOM     13  H   UNL A   1      29.391  25.012  26.377  1.00  0.00     0.169 HD
ATOM     14  O   UNL A   1      30.402  23.231  27.417  1.00  0.00    -0.275 OA
BRANCH  12  15
ATOM     15  C   UNL A   1      30.697  26.443  25.871  1.00  0.00     0.045 A 
ATOM     16  C   UNL A   1      29.394  25.968  23.702  1.00  0.00     0.048 C 
ATOM     17  C   UNL A   1      30.274  26.832  24.573  1.00  0.00    -0.009 A 
ATOM     18  C   UNL A   1      30.703  28.083  24.072  1.00  0.00     0.046 A 
ATOM     19  Cl  UNL A   1      30.284  28.629  22.480  1.00  0.00    -0.084 Cl
ATOM     20  C   UNL A   1      31.496  28.937  24.837  1.00  0.00     0.021 A 
ATOM     21  C   UNL A   1      31.410  27.354  26.654  1.00  0.00     0.026 A 
ATOM     22  C   UNL A   1      31.827  28.582  26.138  1.00  0.00     0.004 A 
ENDBRANCH  12  15
ENDBRANCH  10  11
ENDBRANCH   8  10
BRANCH   8  23
ATOM     23  C   UNL A   1      33.304  24.348  24.254  1.00  0.00    -0.030 A 
ATOM     24  C   UNL A   1      33.979  25.569  24.482  1.00  0.00     0.005 A 
ATOM     25  C   UNL A   1      32.683  24.195  22.998  1.00  0.00     0.005 A 
ATOM     26  C   UNL A   1      33.989  26.591  23.524  1.00  0.00     0.000 A 
ATOM     27  C   UNL A   1      32.718  25.207  22.034  1.00  0.00     0.000 A 
ATOM     28  C   UNL A   1      33.356  26.410  22.300  1.00  0.00     0.000 A 
ENDBRANCH   8  23
ENDBRANCH   6   8
ENDBRANCH   5   6
ENDBRANCH   4   5
ENDBRANCH   3   4
ENDBRANCH   2   3
ENDBRANCH   1   2
BRANCH   1  29
ATOM     29  C   UNL A   1      40.076  22.776  26.579  1.00  0.00     0.188 C 
BRANCH  29  30
ATOM     30  O   UNL A   1      40.876  21.817  25.937  1.00  0.00    -0.376 OA
BRANCH  30  31
ATOM     31  C   UNL A   1      42.282  21.972  25.901  1.00  0.00     0.202 C 
BRANCH  31  32
ATOM     32  C   UNL A   1      43.024  23.269  25.521  1.00  0.00     0.261 C 
BRANCH  32  33
ATOM     33  O   UNL A   1      43.035  24.346  26.460  1.00  0.00    -0.460 OA
BRANCH  33  34
ATOM     34  C   UNL A   1      42.616  25.561  26.016  1.00  0.00     0.338 C 
ATOM     35  O   UNL A   1      42.358  25.875  24.877  1.00  0.00    -0.246 OA
BRANCH  34  36
ATOM     36  C   UNL A   1      42.266  26.347  27.229  1.00  0.00     0.060 A 
ATOM     37  C   UNL A   1      42.847  27.612  27.409  1.00  0.00     0.016 A 
ATOM     38  C   UNL A   1      41.288  25.886  28.112  1.00  0.00     0.016 A 
ATOM     39  C   UNL A   1      42.443  28.423  28.472  1.00  0.00     0.010 A 
ATOM     40  C   UNL A   1      40.912  26.682  29.195  1.00  0.00     0.010 A 
ATOM     41  C   UNL A   1      41.497  27.945  29.389  1.00  0.00    -0.014 A 
BRANCH  41  42
ATOM     42  C   UNL A   1      41.258  28.654  30.667  1.00  0.00     0.031 A 
ATOM     43  C   UNL A   1      40.147  29.664  30.706  1.00  0.00     0.074 A 
ATOM     44  C   UNL A   1      42.028  28.447  31.748  1.00  0.00     0.049 A 
ATOM     45  N   UNL A   1      39.829  30.513  31.647  1.00  0.00    -0.248 NA
ATOM     46  C   UNL A   1      39.288  29.730  29.512  1.00  0.00     0.031 C 
ATOM     47  C   UNL A   1      43.104  27.463  31.846  1.00  0.00     0.029 A 
ATOM     48  N   UNL A   1      42.029  29.070  32.972  1.00  0.00    -0.354 N 
ATOM     49  C   UNL A   1      38.742  31.224  31.154  1.00  0.00     0.074 A 
ATOM     50  C   UNL A   1      38.466  30.719  29.827  1.00  0.00     0.031 C 
ATOM     51  C   UNL A   1      43.662  27.548  33.068  1.00  0.00     0.029 A 
ATOM     52  C   UNL A   1      43.019  28.628  33.817  1.00  0.00     0.049 A 
ATOM     53  H   UNL A   1      41.381  29.768  33.221  1.00  0.00     0.167 HD
ATOM     54  C   UNL A   1      38.038  32.212  31.753  1.00  0.00     0.037 A 
ATOM     55  C   UNL A   1      43.381  29.069  35.040  1.00  0.00     0.037 A 
ATOM     56  C   UNL A   1      38.337  32.731  33.059  1.00  0.00     0.049 A 
ATOM     57  C   UNL A   1      42.653  30.246  35.644  1.00  0.00     0.074 A 
ATOM     58  C   UNL A   1      37.694  33.742  33.752  1.00  0.00     0.029 A 
ATOM     59  N   UNL A   1      39.378  32.292  33.864  1.00  0.00    -0.354 N 
ATOM     60  N   UNL A   1      41.624  30.911  35.174  1.00  0.00    -0.248 NA
ATOM     61  C   UNL A   1      43.153  30.750  36.932  1.00  0.00     0.031 C 
ATOM     62  C   UNL A   1      38.378  33.946  34.955  1.00  0.00     0.029 A 
ATOM     63  C   UNL A   1      39.415  33.030  35.035  1.00  0.00     0.049 A 
ATOM     64  H   UNL A   1      39.999  31.563  33.635  1.00  0.00     0.167 HD
ATOM     65  C   UNL A   1      41.342  31.898  36.116  1.00  0.00     0.074 A 
ATOM     66  C   UNL A   1      42.302  31.735  37.188  1.00  0.00     0.031 C 
ATOM     67  C   UNL A   1      40.377  32.851  36.095  1.00  0.00     0.037 A 
BRANCH  54  68
ATOM     68  C   UNL A   1      36.911  32.818  30.966  1.00  0.00     0.058 A 
ATOM     69  C   UNL A   1      37.147  33.733  29.927  1.00  0.00     0.135 A 
ATOM     70  C   UNL A   1      35.578  32.502  31.272  1.00  0.00     0.135 A 
ATOM     71  F   UNL A   1      38.402  34.089  29.610  1.00  0.00    -0.206 F 
ATOM     72  C   UNL A   1      36.098  34.344  29.247  1.00  0.00     0.059 A 
ATOM     73  C   UNL A   1      34.515  33.080  30.586  1.00  0.00     0.059 A 
ATOM     74  F   UNL A   1      35.298  31.637  32.260  1.00  0.00    -0.206 F 
ATOM     75  C   UNL A   1      34.786  34.017  29.590  1.00  0.00     0.060 A 
BRANCH  75  76
ATOM     76  S   UNL A   1      33.437  34.846  28.725  1.00  0.00     0.124 S 
ATOM     77  O   UNL A   1      33.091  33.856  27.710  1.00  0.00    -0.237 OA
ATOM     78  O   UNL A   1      32.453  35.034  29.786  1.00  0.00    -0.237 OA
ATOM     79  O   UNL A   1      34.055  36.069  28.223  1.00  0.00    -0.744 OA
ENDBRANCH  75  76
ENDBRANCH  54  68
BRANCH  55  80
ATOM     80  C   UNL A   1      44.498  28.415  35.775  1.00  0.00     0.058 A 
ATOM     81  C   UNL A   1      44.242  27.414  36.725  1.00  0.00     0.135 A 
ATOM     82  C   UNL A   1      45.836  28.776  35.554  1.00  0.00     0.135 A 
ATOM     83  F   UNL A   1      42.978  27.047  36.986  1.00  0.00    -0.206 F 
ATOM     84  C   UNL A   1      45.269  26.799  37.433  1.00  0.00     0.059 A 
ATOM     85  C   UNL A   1      46.883  28.158  36.232  1.00  0.00     0.059 A 
ATOM     86  F   UNL A   1      46.137  29.727  34.656  1.00  0.00    -0.206 F 
ATOM     87  C   UNL A   1      46.588  27.175  37.176  1.00  0.00     0.060 A 
BRANCH  87  88
ATOM     88  S   UNL A   1      47.917  26.335  38.066  1.00  0.00     0.124 S 
ATOM     89  O   UNL A   1      49.082  27.114  37.661  1.00  0.00    -0.237 OA
ATOM     90  O   UNL A   1      47.500  26.487  39.455  1.00  0.00    -0.237 OA
ATOM     91  O   UNL A   1      47.859  24.972  37.545  1.00  0.00    -0.744 OA
ENDBRANCH  87  88
ENDBRANCH  55  80
BRANCH  67  92
ATOM     92  C   UNL A   1      40.288  33.786  37.271  1.00  0.00     0.058 A 
ATOM     93  C   UNL A   1      41.001  34.994  37.305  1.00  0.00     0.135 A 
ATOM     94  C   UNL A   1      39.407  33.514  38.330  1.00  0.00     0.135 A 
ATOM     95  F   UNL A   1      41.862  35.299  36.321  1.00  0.00    -0.206 F 
ATOM     96  C   UNL A   1      40.846  35.898  38.351  1.00  0.00     0.059 A 
ATOM     97  C   UNL A   1      39.218  34.415  39.374  1.00  0.00     0.059 A 
ATOM     98  F   UNL A   1      38.694  32.376  38.340  1.00  0.00    -0.206 F 
ATOM     99  C   UNL A   1      39.945  35.604  39.377  1.00  0.00     0.060 A 
BRANCH  99 100
ATOM    100  S   UNL A   1      39.702  36.819  40.690  1.00  0.00     0.124 S 
ATOM    101  O   UNL A   1      41.008  36.819  41.339  1.00  0.00    -0.237 OA
ATOM    102  O   UNL A   1      39.366  38.025  39.941  1.00  0.00    -0.237 OA
ATOM    103  O   UNL A   1      38.610  36.255  41.479  1.00  0.00    -0.744 OA
ENDBRANCH  99 100
ENDBRANCH  67  92
ENDBRANCH  41  42
ENDBRANCH  34  36
ENDBRANCH  33  34
ENDBRANCH  32  33
ENDBRANCH  31  32
ENDBRANCH  30  31
ENDBRANCH  29  30
ENDBRANCH   1  29
TORSDOF 24
ENDMDL
MODEL 2
REMARK VINA RESULT:     -10.4      6.168     11.818
REMARK SMILES Cc1c(Cl)cccc1NC(=O)C[C@](C)(C(=O)OCCOCCOCCOC(=O)c1ccc(-c2c3nc(c(-c4c(F)cc(S(=O)(=O)[O-])cc4F)c4ccc([nH]4)c(-c4c(F)cc(S(=O)(=O)[O-])cc4F)c4nc(c(-c5c(F)cc(S(=O)(=O)[O-])cc5F)c5ccc2[nH]5)C=C4)C=C3)cc1)c1ccccc1
REMARK SMILES IDX 21 1 20 2 19 3 18 4 17 5 15 6 16 7 13 8 14 9 12 10 10 11
REMARK SMILES IDX 9 12 11 14 8 15 1 16 2 17 3 18 4 19 5 20 7 21 6 22 95 23
REMARK SMILES IDX 96 24 100 25 97 26 99 27 98 28 22 29 23 30 24 31 25 32 26 33
REMARK SMILES IDX 27 34 28 35 29 36 30 37 94 38 31 39 93 40 32 41 33 42 34 43
REMARK SMILES IDX 87 44 35 45 92 46 86 47 88 48 36 49 91 50 85 51 84 52 37 54
REMARK SMILES IDX 71 55 50 56 70 57 51 58 54 59 69 60 89 61 52 62 53 63 68 65
REMARK SMILES IDX 90 66 55 67 38 68 39 69 48 70 40 71 41 72 47 73 49 74 42 75
REMARK SMILES IDX 43 76 44 77 45 78 46 79 72 80 73 81 82 82 74 83 75 84 81 85
REMARK SMILES IDX 83 86 76 87 77 88 78 89 79 90 80 91 56 92 57 93 66 94 58 95
REMARK SMILES IDX 59 96 65 97 67 98 60 99 61 100 62 101 63 102 64 103
REMARK H PARENT 9 13 88 53 54 64
REMARK Flexibility Score: inf
ROOT
ATOM      1  C   UNL A   1      35.121  32.023  27.891  1.00  0.00     0.188 C 
ENDROOT
BRANCH   1   2
ATOM      2  O   UNL A   1      34.203  30.944  28.007  1.00  0.00    -0.376 OA
BRANCH   2   3
ATOM      3  C   UNL A   1      34.157  29.993  26.947  1.00  0.00     0.202 C 
BRANCH   3   4
ATOM      4  C   UNL A   1      33.300  28.737  27.145  1.00  0.00     0.261 C 
BRANCH   4   5
ATOM      5  O   UNL A   1      33.469  27.737  26.117  1.00  0.00    -0.463 OA
BRANCH   5   6
ATOM      6  C   UNL A   1      32.342  27.425  25.424  1.00  0.00     0.316 C 
ATOM      7  O   UNL A   1      31.364  28.167  25.393  1.00  0.00    -0.251 OA
BRANCH   6   8
ATOM      8  C   UNL A   1      32.374  26.056  24.680  1.00  0.00     0.099 C 
ATOM      9  C   UNL A   1      31.156  25.743  23.765  1.00  0.00     0.029 C 
BRANCH   8  10
ATOM     10  C   UNL A   1      33.650  26.070  23.771  1.00  0.00     0.123 C 
BRANCH  10  11
ATOM     11  C   UNL A   1      33.636  25.317  22.438  1.00  0.00     0.225 C 
ATOM     12  N   UNL A   1      33.762  23.967  22.289  1.00  0.00    -0.326 N 
ATOM     13  H   UNL A   1      33.527  23.664  21.383  1.00  0.00     0.169 HD
ATOM     14  O   UNL A   1      33.489  25.962  21.391  1.00  0.00    -0.275 OA
BRANCH  12  15
ATOM     15  C   UNL A   1      34.150  22.905  23.127  1.00  0.00     0.045 A 
ATOM     16  C   UNL A   1      31.796  21.876  22.959  1.00  0.00     0.048 C 
ATOM     17  C   UNL A   1      33.209  21.908  23.493  1.00  0.00    -0.009 A 
ATOM     18  C   UNL A   1      33.610  20.906  24.407  1.00  0.00     0.046 A 
ATOM     19  Cl  UNL A   1      32.521  19.674  24.958  1.00  0.00    -0.084 Cl
ATOM     20  C   UNL A   1      34.907  20.868  24.917  1.00  0.00     0.021 A 
ATOM     21  C   UNL A   1      35.468  22.791  23.575  1.00  0.00     0.026 A 
ATOM     22  C   UNL A   1      35.843  21.795  24.480  1.00  0.00     0.004 A 
ENDBRANCH  12  15
ENDBRANCH  10  11
ENDBRANCH   8  10
BRANCH   8  23
ATOM     23  C   UNL A   1      32.397  24.869  25.704  1.00  0.00    -0.030 A 
ATOM     24  C   UNL A   1      33.607  24.463  26.310  1.00  0.00     0.005 A 
ATOM     25  C   UNL A   1      31.256  24.091  25.984  1.00  0.00     0.005 A 
ATOM     26  C   UNL A   1      33.674  23.317  27.115  1.00  0.00     0.000 A 
ATOM     27  C   UNL A   1      31.322  22.964  26.809  1.00  0.00     0.000 A 
ATOM     28  C   UNL A   1      32.531  22.566  27.362  1.00  0.00     0.000 A 
ENDBRANCH   8  23
ENDBRANCH   6   8
ENDBRANCH   5   6
ENDBRANCH   4   5
ENDBRANCH   3   4
ENDBRANCH   2   3
ENDBRANCH   1   2
BRANCH   1  29
ATOM     29  C   UNL A   1      34.685  33.392  28.429  1.00  0.00     0.188 C 
BRANCH  29  30
ATOM     30  O   UNL A   1      34.084  33.416  29.698  1.00  0.00    -0.376 OA
BRANCH  30  31
ATOM     31  C   UNL A   1      34.884  33.407  30.865  1.00  0.00     0.202 C 
BRANCH  31  32
ATOM     32  C   UNL A   1      35.384  32.142  31.591  1.00  0.00     0.261 C 
BRANCH  32  33
ATOM     33  O   UNL A   1      36.544  31.480  31.083  1.00  0.00    -0.460 OA
BRANCH  33  34
ATOM     34  C   UNL A   1      37.392  30.926  31.991  1.00  0.00     0.338 C 
ATOM     35  O   UNL A   1      37.135  30.599  33.126  1.00  0.00    -0.246 OA
BRANCH  34  36
ATOM     36  C   UNL A   1      38.613  30.540  31.236  1.00  0.00     0.060 A 
ATOM     37  C   UNL A   1      39.682  29.952  31.930  1.00  0.00     0.016 A 
ATOM     38  C   UNL A   1      38.649  30.651  29.845  1.00  0.00     0.016 A 
ATOM     39  C   UNL A   1      40.789  29.467  31.229  1.00  0.00     0.010 A 
ATOM     40  C   UNL A   1      39.772  30.200  29.150  1.00  0.00     0.010 A 
ATOM     41  C   UNL A   1      40.852  29.620  29.838  1.00  0.00    -0.014 A 
BRANCH  41  42
ATOM     42  C   UNL A   1      42.116  29.375  29.106  1.00  0.00     0.031 A 
ATOM     43  C   UNL A   1      42.360  27.990  28.581  1.00  0.00     0.074 A 
ATOM     44  C   UNL A   1      43.043  30.336  28.951  1.00  0.00     0.049 A 
ATOM     45  N   UNL A   1      43.436  27.484  28.040  1.00  0.00    -0.248 NA
ATOM     46  C   UNL A   1      41.237  27.045  28.697  1.00  0.00     0.031 C 
ATOM     47  C   UNL A   1      42.901  31.726  29.376  1.00  0.00     0.029 A 
ATOM     48  N   UNL A   1      44.300  30.277  28.402  1.00  0.00    -0.354 N 
ATOM     49  C   UNL A   1      43.126  26.159  27.762  1.00  0.00     0.074 A 
ATOM     50  C   UNL A   1      41.768  25.935  28.210  1.00  0.00     0.031 C 
ATOM     51  C   UNL A   1      44.030  32.392  29.069  1.00  0.00     0.029 A 
ATOM     52  C   UNL A   1      44.992  31.463  28.478  1.00  0.00     0.049 A 
ATOM     53  H   UNL A   1      44.671  29.463  27.992  1.00  0.00     0.167 HD
ATOM     54  C   UNL A   1      43.903  25.212  27.189  1.00  0.00     0.037 A 
ATOM     55  C   UNL A   1      46.266  31.750  28.137  1.00  0.00     0.037 A 
ATOM     56  C   UNL A   1      45.262  25.432  26.777  1.00  0.00     0.049 A 
ATOM     57  C   UNL A   1      47.152  30.651  27.602  1.00  0.00     0.074 A 
ATOM     58  C   UNL A   1      46.142  24.535  26.198  1.00  0.00     0.029 A 
ATOM     59  N   UNL A   1      45.945  26.632  26.915  1.00  0.00    -0.354 N 
ATOM     60  N   UNL A   1      46.851  29.401  27.339  1.00  0.00    -0.248 NA
ATOM     61  C   UNL A   1      48.558  30.994  27.342  1.00  0.00     0.031 C 
ATOM     62  C   UNL A   1      47.372  25.180  26.033  1.00  0.00     0.029 A 
ATOM     63  C   UNL A   1      47.245  26.492  26.460  1.00  0.00     0.049 A 
ATOM     64  H   UNL A   1      45.561  27.461  27.284  1.00  0.00     0.167 HD
ATOM     65  C   UNL A   1      48.022  28.815  26.865  1.00  0.00     0.074 A 
ATOM     66  C   UNL A   1      49.035  29.851  26.868  1.00  0.00     0.031 C 
ATOM     67  C   UNL A   1      48.240  27.537  26.466  1.00  0.00     0.037 A 
BRANCH  54  68
ATOM     68  C   UNL A   1      43.303  23.844  27.029  1.00  0.00     0.058 A 
ATOM     69  C   UNL A   1      43.122  22.986  28.125  1.00  0.00     0.135 A 
ATOM     70  C   UNL A   1      42.930  23.375  25.760  1.00  0.00     0.135 A 
ATOM     71  F   UNL A   1      43.484  23.376  29.358  1.00  0.00    -0.206 F 
ATOM     72  C   UNL A   1      42.630  21.695  27.963  1.00  0.00     0.059 A 
ATOM     73  C   UNL A   1      42.410  22.098  25.578  1.00  0.00     0.059 A 
ATOM     74  F   UNL A   1      43.088  24.153  24.677  1.00  0.00    -0.206 F 
ATOM     75  C   UNL A   1      42.285  21.257  26.683  1.00  0.00     0.060 A 
BRANCH  75  76
ATOM     76  S   UNL A   1      41.685  19.568  26.483  1.00  0.00     0.124 S 
ATOM     77  O   UNL A   1      42.242  19.215  25.180  1.00  0.00    -0.237 OA
ATOM     78  O   UNL A   1      42.277  18.887  27.629  1.00  0.00    -0.237 OA
ATOM     79  O   UNL A   1      40.234  19.715  26.525  1.00  0.00    -0.744 OA
ENDBRANCH  75  76
ENDBRANCH  54  68
BRANCH  55  80
ATOM     80  C   UNL A   1      46.797  33.130  28.308  1.00  0.00     0.058 A 
ATOM     81  C   UNL A   1      46.699  34.069  27.269  1.00  0.00     0.135 A 
ATOM     82  C   UNL A   1      47.417  33.540  29.499  1.00  0.00     0.135 A 
ATOM     83  F   UNL A   1      46.132  33.720  26.103  1.00  0.00    -0.206 F 
ATOM     84  C   UNL A   1      47.200  35.360  27.401  1.00  0.00     0.059 A 
ATOM     85  C   UNL A   1      47.903  34.833  29.665  1.00  0.00     0.059 A 
ATOM     86  F   UNL A   1      47.535  32.683  30.524  1.00  0.00    -0.206 F 
ATOM     87  C   UNL A   1      47.797  35.734  28.606  1.00  0.00     0.060 A 
BRANCH  87  88
ATOM     88  S   UNL A   1      48.399  37.429  28.783  1.00  0.00     0.124 S 
ATOM     89  O   UNL A   1      48.947  37.406  30.135  1.00  0.00    -0.237 OA
ATOM     90  O   UNL A   1      49.372  37.523  27.701  1.00  0.00    -0.237 OA
ATOM     91  O   UNL A   1      47.193  38.233  28.606  1.00  0.00    -0.744 OA
ENDBRANCH  87  88
ENDBRANCH  55  80
BRANCH  67  92
ATOM     92  C   UNL A   1      49.617  27.179  25.977  1.00  0.00     0.058 A 
ATOM     93  C   UNL A   1      49.962  27.269  24.620  1.00  0.00     0.135 A 
ATOM     94  C   UNL A   1      50.627  26.832  26.889  1.00  0.00     0.135 A 
ATOM     95  F   UNL A   1      49.032  27.589  23.705  1.00  0.00    -0.206 F 
ATOM     96  C   UNL A   1      51.261  27.025  24.184  1.00  0.00     0.059 A 
ATOM     97  C   UNL A   1      51.938  26.609  26.478  1.00  0.00     0.059 A 
ATOM     98  F   UNL A   1      50.352  26.742  28.200  1.00  0.00    -0.206 F 
ATOM     99  C   UNL A   1      52.244  26.704  25.121  1.00  0.00     0.060 A 
BRANCH  99 100
ATOM    100  S   UNL A   1      53.939  26.461  24.549  1.00  0.00     0.124 S 
ATOM    101  O   UNL A   1      53.879  27.019  23.202  1.00  0.00    -0.237 OA
ATOM    102  O   UNL A   1      54.710  27.230  25.520  1.00  0.00    -0.237 OA
ATOM    103  O   UNL A   1      54.119  25.013  24.621  1.00  0.00    -0.744 OA
ENDBRANCH  99 100
ENDBRANCH  67  92
ENDBRANCH  41  42
ENDBRANCH  34  36
ENDBRANCH  33  34
ENDBRANCH  32  33
ENDBRANCH  31  32
ENDBRANCH  30  31
ENDBRANCH  29  30
ENDBRANCH   1  29
TORSDOF 24
ENDMDL
MODEL 3
REMARK VINA RESULT:     -10.3      1.236      2.308
REMARK SMILES Cc1c(Cl)cccc1NC(=O)C[C@](C)(C(=O)OCCOCCOCCOC(=O)c1ccc(-c2c3nc(c(-c4c(F)cc(S(=O)(=O)[O-])cc4F)c4ccc([nH]4)c(-c4c(F)cc(S(=O)(=O)[O-])cc4F)c4nc(c(-c5c(F)cc(S(=O)(=O)[O-])cc5F)c5ccc2[nH]5)C=C4)C=C3)cc1)c1ccccc1
REMARK SMILES IDX 21 1 20 2 19 3 18 4 17 5 15 6 16 7 13 8 14 9 12 10 10 11
REMARK SMILES IDX 9 12 11 14 8 15 1 16 2 17 3 18 4 19 5 20 7 21 6 22 95 23
REMARK SMILES IDX 96 24 100 25 97 26 99 27 98 28 22 29 23 30 24 31 25 32 26 33
REMARK SMILES IDX 27 34 28 35 29 36 30 37 94 38 31 39 93 40 32 41 33 42 34 43
REMARK SMILES IDX 87 44 35 45 92 46 86 47 88 48 36 49 91 50 85 51 84 52 37 54
REMARK SMILES IDX 71 55 50 56 70 57 51 58 54 59 69 60 89 61 52 62 53 63 68 65
REMARK SMILES IDX 90 66 55 67 38 68 39 69 48 70 40 71 41 72 47 73 49 74 42 75
REMARK SMILES IDX 43 76 44 77 45 78 46 79 72 80 73 81 82 82 74 83 75 84 81 85
REMARK SMILES IDX 83 86 76 87 77 88 78 89 79 90 80 91 56 92 57 93 66 94 58 95
REMARK SMILES IDX 59 96 65 97 67 98 60 99 61 100 62 101 63 102 64 103
REMARK H PARENT 9 13 88 53 54 64
REMARK Flexibility Score: inf
ROOT
ATOM      1  C   UNL A   1      37.739  20.573  24.965  1.00  0.00     0.188 C 
ENDROOT
BRANCH   1   2
ATOM      2  O   UNL A   1      36.355  20.705  25.257  1.00  0.00    -0.376 OA
BRANCH   2   3
ATOM      3  C   UNL A   1      35.939  21.839  26.013  1.00  0.00     0.202 C 
BRANCH   3   4
ATOM      4  C   UNL A   1      34.630  21.734  26.805  1.00  0.00     0.261 C 
BRANCH   4   5
ATOM      5  O   UNL A   1      34.110  23.002  27.261  1.00  0.00    -0.463 OA
BRANCH   5   6
ATOM      6  C   UNL A   1      32.815  23.247  26.934  1.00  0.00     0.316 C 
ATOM      7  O   UNL A   1      31.876  22.768  27.565  1.00  0.00    -0.251 OA
BRANCH   6   8
ATOM      8  C   UNL A   1      32.602  24.170  25.696  1.00  0.00     0.099 C 
ATOM      9  C   UNL A   1      33.643  24.030  24.548  1.00  0.00     0.029 C 
BRANCH   8  10
ATOM     10  C   UNL A   1      31.199  23.807  25.101  1.00  0.00     0.123 C 
BRANCH  10  11
ATOM     11  C   UNL A   1      31.016  23.741  23.582  1.00  0.00     0.225 C 
ATOM     12  N   UNL A   1      31.078  24.804  22.731  1.00  0.00    -0.326 N 
ATOM     13  H   UNL A   1      31.136  24.529  21.788  1.00  0.00     0.169 HD
ATOM     14  O   UNL A   1      30.803  22.641  23.055  1.00  0.00    -0.275 OA
BRANCH  12  15
ATOM     15  C   UNL A   1      31.078  26.204  22.883  1.00  0.00     0.045 A 
ATOM     16  C   UNL A   1      33.556  26.307  22.191  1.00  0.00     0.048 C 
ATOM     17  C   UNL A   1      32.271  26.942  22.666  1.00  0.00    -0.009 A 
ATOM     18  C   UNL A   1      32.255  28.334  22.914  1.00  0.00     0.046 A 
ATOM     19  Cl  UNL A   1      33.672  29.318  22.729  1.00  0.00    -0.084 Cl
ATOM     20  C   UNL A   1      31.094  28.983  23.331  1.00  0.00     0.021 A 
ATOM     21  C   UNL A   1      29.905  26.889  23.207  1.00  0.00     0.026 A 
ATOM     22  C   UNL A   1      29.913  28.264  23.451  1.00  0.00     0.004 A 
ENDBRANCH  12  15
ENDBRANCH  10  11
ENDBRANCH   8  10
BRANCH   8  23
ATOM     23  C   UNL A   1      32.690  25.679  26.109  1.00  0.00    -0.030 A 
ATOM     24  C   UNL A   1      31.543  26.374  26.553  1.00  0.00     0.005 A 
ATOM     25  C   UNL A   1      33.869  26.436  25.959  1.00  0.00     0.005 A 
ATOM     26  C   UNL A   1      31.568  27.755  26.789  1.00  0.00     0.000 A 
ATOM     27  C   UNL A   1      33.898  27.809  26.221  1.00  0.00     0.000 A 
ATOM     28  C   UNL A   1      32.746  28.473  26.620  1.00  0.00     0.000 A 
ENDBRANCH   8  23
ENDBRANCH   6   8
ENDBRANCH   5   6
ENDBRANCH   4   5
ENDBRANCH   3   4
ENDBRANCH   2   3
ENDBRANCH   1   2
BRANCH   1  29
ATOM     29  C   UNL A   1      38.716  21.494  25.708  1.00  0.00     0.188 C 
BRANCH  29  30
ATOM     30  O   UNL A   1      40.005  20.991  25.950  1.00  0.00    -0.376 OA
BRANCH  30  31
ATOM     31  C   UNL A   1      41.025  21.848  26.425  1.00  0.00     0.202 C 
BRANCH  31  32
ATOM     32  C   UNL A   1      41.255  23.300  25.963  1.00  0.00     0.261 C 
BRANCH  32  33
ATOM     33  O   UNL A   1      40.624  24.354  26.693  1.00  0.00    -0.460 OA
BRANCH  33  34
ATOM     34  C   UNL A   1      40.993  25.628  26.390  1.00  0.00     0.338 C 
ATOM     35  O   UNL A   1      41.139  26.105  25.289  1.00  0.00    -0.246 OA
BRANCH  34  36
ATOM     36  C   UNL A   1      40.909  26.396  27.661  1.00  0.00     0.060 A 
ATOM     37  C   UNL A   1      39.816  26.177  28.514  1.00  0.00     0.016 A 
ATOM     38  C   UNL A   1      41.956  27.231  28.054  1.00  0.00     0.016 A 
ATOM     39  C   UNL A   1      39.773  26.790  29.769  1.00  0.00     0.010 A 
ATOM     40  C   UNL A   1      41.894  27.872  29.292  1.00  0.00     0.010 A 
ATOM     41  C   UNL A   1      40.798  27.668  30.147  1.00  0.00    -0.014 A 
BRANCH  41  42
ATOM     42  C   UNL A   1      40.646  28.540  31.335  1.00  0.00     0.031 A 
ATOM     43  C   UNL A   1      39.624  29.638  31.268  1.00  0.00     0.074 A 
ATOM     44  C   UNL A   1      41.421  28.396  32.424  1.00  0.00     0.049 A 
ATOM     45  N   UNL A   1      39.399  30.615  32.104  1.00  0.00    -0.248 NA
ATOM     46  C   UNL A   1      38.747  29.636  30.084  1.00  0.00     0.031 C 
ATOM     47  C   UNL A   1      42.413  27.343  32.624  1.00  0.00     0.029 A 
ATOM     48  N   UNL A   1      41.501  29.156  33.564  1.00  0.00    -0.354 N 
ATOM     49  C   UNL A   1      38.363  31.353  31.544  1.00  0.00     0.074 A 
ATOM     50  C   UNL A   1      38.018  30.721  30.289  1.00  0.00     0.031 C 
ATOM     51  C   UNL A   1      43.004  27.524  33.820  1.00  0.00     0.029 A 
ATOM     52  C   UNL A   1      42.470  28.734  34.444  1.00  0.00     0.049 A 
ATOM     53  H   UNL A   1      40.919  29.931  33.737  1.00  0.00     0.167 HD
ATOM     54  C   UNL A   1      37.758  32.461  32.029  1.00  0.00     0.037 A 
ATOM     55  C   UNL A   1      42.894  29.284  35.601  1.00  0.00     0.037 A 
ATOM     56  C   UNL A   1      38.128  33.103  33.261  1.00  0.00     0.049 A 
ATOM     57  C   UNL A   1      42.280  30.581  36.069  1.00  0.00     0.074 A 
ATOM     58  C   UNL A   1      37.586  34.239  33.837  1.00  0.00     0.029 A 
ATOM     59  N   UNL A   1      39.147  32.674  34.099  1.00  0.00    -0.354 N 
ATOM     60  N   UNL A   1      41.299  31.271  35.536  1.00  0.00    -0.248 NA
ATOM     61  C   UNL A   1      42.848  31.189  37.282  1.00  0.00     0.031 C 
ATOM     62  C   UNL A   1      38.312  34.524  34.998  1.00  0.00     0.029 A 
ATOM     63  C   UNL A   1      39.271  33.539  35.174  1.00  0.00     0.049 A 
ATOM     64  H   UNL A   1      39.700  31.873  33.951  1.00  0.00     0.167 HD
ATOM     65  C   UNL A   1      41.121  32.382  36.358  1.00  0.00     0.074 A 
ATOM     66  C   UNL A   1      42.088  32.265  37.430  1.00  0.00     0.031 C 
ATOM     67  C   UNL A   1      40.238  33.404  36.235  1.00  0.00     0.037 A 
BRANCH  54  68
ATOM     68  C   UNL A   1      36.668  33.064  31.190  1.00  0.00     0.058 A 
ATOM     69  C   UNL A   1      36.955  33.827  30.047  1.00  0.00     0.135 A 
ATOM     70  C   UNL A   1      35.320  32.900  31.548  1.00  0.00     0.135 A 
ATOM     71  F   UNL A   1      38.228  34.035  29.674  1.00  0.00    -0.206 F 
ATOM     72  C   UNL A   1      35.946  34.441  29.312  1.00  0.00     0.059 A 
ATOM     73  C   UNL A   1      34.294  33.482  30.811  1.00  0.00     0.059 A 
ATOM     74  F   UNL A   1      34.991  32.185  32.636  1.00  0.00    -0.206 F 
ATOM     75  C   UNL A   1      34.619  34.269  29.707  1.00  0.00     0.060 A 
BRANCH  75  76
ATOM     76  S   UNL A   1      33.324  35.102  28.767  1.00  0.00     0.124 S 
ATOM     77  O   UNL A   1      32.466  35.603  29.836  1.00  0.00    -0.237 OA
ATOM     78  O   UNL A   1      34.074  36.115  28.031  1.00  0.00    -0.237 OA
ATOM     79  O   UNL A   1      32.753  34.034  27.953  1.00  0.00    -0.744 OA
ENDBRANCH  75  76
ENDBRANCH  54  68
BRANCH  55  80
ATOM     80  C   UNL A   1      43.969  28.628  36.394  1.00  0.00     0.058 A 
ATOM     81  C   UNL A   1      45.287  29.110  36.350  1.00  0.00     0.135 A 
ATOM     82  C   UNL A   1      43.712  27.509  37.201  1.00  0.00     0.135 A 
ATOM     83  F   UNL A   1      45.588  30.166  35.578  1.00  0.00    -0.206 F 
ATOM     84  C   UNL A   1      46.310  28.505  37.073  1.00  0.00     0.059 A 
ATOM     85  C   UNL A   1      44.713  26.902  37.953  1.00  0.00     0.059 A 
ATOM     86  F   UNL A   1      42.470  27.008  37.280  1.00  0.00    -0.206 F 
ATOM     87  C   UNL A   1      46.012  27.403  37.876  1.00  0.00     0.060 A 
BRANCH  87  88
ATOM     88  S   UNL A   1      47.340  26.656  38.848  1.00  0.00     0.124 S 
ATOM     89  O   UNL A   1      48.476  27.499  38.491  1.00  0.00    -0.237 OA
ATOM     90  O   UNL A   1      46.840  26.802  40.210  1.00  0.00    -0.237 OA
ATOM     91  O   UNL A   1      47.390  25.285  38.348  1.00  0.00    -0.744 OA
ENDBRANCH  87  88
ENDBRANCH  55  80
BRANCH  67  92
ATOM     92  C   UNL A   1      40.253  34.476  37.293  1.00  0.00     0.058 A 
ATOM     93  C   UNL A   1      39.491  34.362  38.465  1.00  0.00     0.135 A 
ATOM     94  C   UNL A   1      41.111  35.581  37.172  1.00  0.00     0.135 A 
ATOM     95  F   UNL A   1      38.649  33.329  38.627  1.00  0.00    -0.206 F 
ATOM     96  C   UNL A   1      39.577  35.310  39.481  1.00  0.00     0.059 A 
ATOM     97  C   UNL A   1      41.232  36.527  38.186  1.00  0.00     0.059 A 
ATOM     98  F   UNL A   1      41.869  35.731  36.075  1.00  0.00    -0.206 F 
ATOM     99  C   UNL A   1      40.457  36.384  39.336  1.00  0.00     0.060 A 
BRANCH  99 100
ATOM    100  S   UNL A   1      40.611  37.566  40.692  1.00  0.00     0.124 S 
ATOM    101  O   UNL A   1      41.365  38.644  40.060  1.00  0.00    -0.237 OA
ATOM    102  O   UNL A   1      39.218  37.866  41.005  1.00  0.00    -0.237 OA
ATOM    103  O   UNL A   1      41.330  36.816  41.718  1.00  0.00    -0.744 OA
ENDBRANCH  99 100
ENDBRANCH  67  92
ENDBRANCH  41  42
ENDBRANCH  34  36
ENDBRANCH  33  34
ENDBRANCH  32  33
ENDBRANCH  31  32
ENDBRANCH  30  31
ENDBRANCH  29  30
ENDBRANCH   1  29
TORSDOF 24
ENDMDL
