MODEL 1
REMARK VINA RESULT:     -10.9      0.000      0.000
REMARK SMILES Cc1nc(-c2ccc(S(=O)(=O)N3CC[NH2+][C@H](C(=O)OCCOCCOCCOC(=O)c4ccc(-c5c6nc(c(-c7c(F)cc(S(=O)(=O)[O-])cc7F)c7ccc([nH]7)c(-c7c(F)cc(S(=O)(=O)[O-])cc7F)c7nc(c(-c8c(F)cc(S(=O)(=O)[O-])cc8F)c8ccc5[nH]8)C=C7)C=C6)cc4)C3)s2)cs1
REMARK SMILES IDX 23 1 22 2 21 3 20 4 19 5 17 6 18 7 16 8 12 9 13 10 97 11
REMARK SMILES IDX 14 12 15 13 9 16 10 17 11 18 8 19 5 20 6 21 98 22 7 23 4 24
REMARK SMILES IDX 1 25 2 26 3 27 100 28 99 29 24 30 25 31 26 32 27 33 28 34
REMARK SMILES IDX 29 35 30 36 31 37 32 38 96 39 33 40 95 41 34 42 35 43 36 44
REMARK SMILES IDX 89 45 37 46 94 47 88 48 90 49 38 50 93 51 87 52 86 53 39 55
REMARK SMILES IDX 73 56 52 57 72 58 53 59 56 60 71 61 91 62 54 63 55 64 70 66
REMARK SMILES IDX 92 67 57 68 40 69 41 70 50 71 42 72 43 73 49 74 51 75 44 76
REMARK SMILES IDX 45 77 46 78 47 79 48 80 74 81 75 82 84 83 76 84 77 85 83 86
REMARK SMILES IDX 85 87 78 88 79 89 80 90 81 91 82 92 58 93 59 94 68 95 60 96
REMARK SMILES IDX 61 97 67 98 69 99 62 100 63 101 64 102 65 103 66 104
REMARK H PARENT 15 14 15 15 90 54 56 65
REMARK Flexibility Score: inf
ROOT
ATOM      1  C   UNL A   1      40.281  22.574  26.914  1.00  0.00     0.188 C 
ENDROOT
BRANCH   1   2
ATOM      2  O   UNL A   1      39.132  22.650  26.078  1.00  0.00    -0.376 OA
BRANCH   2   3
ATOM      3  C   UNL A   1      38.402  21.459  25.822  1.00  0.00     0.202 C 
BRANCH   3   4
ATOM      4  C   UNL A   1      37.528  21.476  24.570  1.00  0.00     0.261 C 
BRANCH   4   5
ATOM      5  O   UNL A   1      36.241  22.076  24.819  1.00  0.00    -0.459 OA
BRANCH   5   6
ATOM      6  C   UNL A   1      35.829  22.969  23.881  1.00  0.00     0.366 C 
ATOM      7  O   UNL A   1      36.288  23.045  22.747  1.00  0.00    -0.245 OA
BRANCH   6   8
ATOM      8  C   UNL A   1      34.708  23.876  24.367  1.00  0.00     0.308 C 
ATOM      9  N   UNL A   1      32.561  24.912  23.849  1.00  0.00    -0.185 NA
ATOM     10  C   UNL A   1      32.809  26.026  24.804  1.00  0.00     0.164 C 
ATOM     11  C   UNL A   1      33.814  24.392  23.242  1.00  0.00     0.180 C 
ATOM     12  C   UNL A   1      34.009  25.782  25.755  1.00  0.00     0.278 C 
ATOM     13  N   UNL A   1      35.158  24.994  25.250  1.00  0.00    -0.332 N 
ATOM     14  H   UNL A   1      35.669  24.605  26.042  1.00  0.00     0.347 HD
ATOM     15  H   UNL A   1      35.757  25.613  24.703  1.00  0.00     0.347 HD
BRANCH   9  16
ATOM     16  S   UNL A   1      31.292  23.809  24.125  1.00  0.00     0.253 S 
ATOM     17  O   UNL A   1      30.271  24.124  23.136  1.00  0.00    -0.206 OA
ATOM     18  O   UNL A   1      30.999  23.812  25.533  1.00  0.00    -0.206 OA
BRANCH  16  19
ATOM     19  C   UNL A   1      31.796  22.121  23.774  1.00  0.00     0.135 A 
ATOM     20  C   UNL A   1      32.570  19.790  24.106  1.00  0.00     0.055 A 
ATOM     21  C   UNL A   1      32.316  20.072  22.785  1.00  0.00     0.023 A 
ATOM     22  S   UNL A   1      32.221  21.119  25.114  1.00  0.00    -0.121 S 
ATOM     23  C   UNL A   1      31.951  21.424  22.592  1.00  0.00     0.034 A 
BRANCH  20  24
ATOM     24  C   UNL A   1      33.122  18.455  24.494  1.00  0.00     0.091 A 
ATOM     25  C   UNL A   1      32.218  15.183  25.838  1.00  0.00     0.079 C 
ATOM     26  C   UNL A   1      32.887  16.394  25.286  1.00  0.00     0.090 A 
ATOM     27  N   UNL A   1      32.261  17.522  25.048  1.00  0.00    -0.241 NA
ATOM     28  S   UNL A   1      34.560  16.398  24.895  1.00  0.00    -0.127 S 
ATOM     29  C   UNL A   1      34.419  18.021  24.333  1.00  0.00     0.096 A 
ENDBRANCH  20  24
ENDBRANCH  16  19
ENDBRANCH   9  16
ENDBRANCH   6   8
ENDBRANCH   5   6
ENDBRANCH   4   5
ENDBRANCH   3   4
ENDBRANCH   2   3
ENDBRANCH   1   2
BRANCH   1  30
ATOM     30  C   UNL A   1      41.420  21.625  26.494  1.00  0.00     0.188 C 
BRANCH  30  31
ATOM     31  O   UNL A   1      42.225  21.965  25.374  1.00  0.00    -0.376 OA
BRANCH  31  32
ATOM     32  C   UNL A   1      43.308  22.859  25.587  1.00  0.00     0.202 C 
BRANCH  32  33
ATOM     33  C   UNL A   1      43.095  24.268  25.035  1.00  0.00     0.261 C 
BRANCH  33  34
ATOM     34  O   UNL A   1      43.139  25.258  26.077  1.00  0.00    -0.460 OA
BRANCH  34  35
ATOM     35  C   UNL A   1      42.045  26.049  26.199  1.00  0.00     0.338 C 
ATOM     36  O   UNL A   1      41.161  26.211  25.373  1.00  0.00    -0.246 OA
BRANCH  35  37
ATOM     37  C   UNL A   1      41.975  26.592  27.571  1.00  0.00     0.060 A 
ATOM     38  C   UNL A   1      40.917  26.185  28.396  1.00  0.00     0.016 A 
ATOM     39  C   UNL A   1      42.898  27.538  28.023  1.00  0.00     0.016 A 
ATOM     40  C   UNL A   1      40.749  26.760  29.656  1.00  0.00     0.010 A 
ATOM     41  C   UNL A   1      42.720  28.123  29.278  1.00  0.00     0.010 A 
ATOM     42  C   UNL A   1      41.626  27.764  30.085  1.00  0.00    -0.014 A 
BRANCH  42  43
ATOM     43  C   UNL A   1      41.328  28.575  31.289  1.00  0.00     0.031 A 
ATOM     44  C   UNL A   1      40.246  29.616  31.198  1.00  0.00     0.074 A 
ATOM     45  C   UNL A   1      42.035  28.429  32.422  1.00  0.00     0.049 A 
ATOM     46  N   UNL A   1      39.935  30.564  32.041  1.00  0.00    -0.248 NA
ATOM     47  C   UNL A   1      39.408  29.584  29.988  1.00  0.00     0.031 C 
ATOM     48  C   UNL A   1      43.063  27.417  32.654  1.00  0.00     0.029 A 
ATOM     49  N   UNL A   1      42.009  29.160  33.584  1.00  0.00    -0.354 N 
ATOM     50  C   UNL A   1      38.880  31.255  31.459  1.00  0.00     0.074 A 
ATOM     51  C   UNL A   1      38.605  30.620  30.187  1.00  0.00     0.031 C 
ATOM     52  C   UNL A   1      43.594  27.611  33.874  1.00  0.00     0.029 A 
ATOM     53  C   UNL A   1      42.974  28.785  34.487  1.00  0.00     0.049 A 
ATOM     54  H   UNL A   1      41.361  29.881  33.754  1.00  0.00     0.167 HD
ATOM     55  C   UNL A   1      38.206  32.326  31.937  1.00  0.00     0.037 A 
ATOM     56  C   UNL A   1      43.343  29.355  35.653  1.00  0.00     0.037 A 
ATOM     57  C   UNL A   1      38.487  32.959  33.197  1.00  0.00     0.049 A 
ATOM     58  C   UNL A   1      42.636  30.598  36.130  1.00  0.00     0.074 A 
ATOM     59  C   UNL A   1      37.864  34.055  33.767  1.00  0.00     0.029 A 
ATOM     60  N   UNL A   1      39.479  32.557  34.077  1.00  0.00    -0.354 N 
ATOM     61  N   UNL A   1      41.645  31.249  35.568  1.00  0.00    -0.248 NA
ATOM     62  C   UNL A   1      43.103  31.191  37.391  1.00  0.00     0.031 C 
ATOM     63  C   UNL A   1      38.505  34.338  34.978  1.00  0.00     0.029 A 
ATOM     64  C   UNL A   1      39.497  33.392  35.180  1.00  0.00     0.049 A 
ATOM     65  H   UNL A   1      40.080  31.789  33.940  1.00  0.00     0.167 HD
ATOM     66  C   UNL A   1      41.352  32.308  36.422  1.00  0.00     0.074 A 
ATOM     67  C   UNL A   1      42.271  32.214  37.536  1.00  0.00     0.031 C 
ATOM     68  C   UNL A   1      40.404  33.269  36.294  1.00  0.00     0.037 A 
BRANCH  55  69
ATOM     69  C   UNL A   1      37.121  32.903  31.073  1.00  0.00     0.058 A 
ATOM     70  C   UNL A   1      37.414  33.694  29.953  1.00  0.00     0.135 A 
ATOM     71  C   UNL A   1      35.772  32.646  31.364  1.00  0.00     0.135 A 
ATOM     72  F   UNL A   1      38.688  33.985  29.645  1.00  0.00    -0.206 F 
ATOM     73  C   UNL A   1      36.405  34.231  29.162  1.00  0.00     0.059 A 
ATOM     74  C   UNL A   1      34.747  33.156  30.574  1.00  0.00     0.059 A 
ATOM     75  F   UNL A   1      35.440  31.898  32.428  1.00  0.00    -0.206 F 
ATOM     76  C   UNL A   1      35.073  33.961  29.483  1.00  0.00     0.060 A 
BRANCH  76  77
ATOM     77  S   UNL A   1      33.772  34.675  28.456  1.00  0.00     0.124 S 
ATOM     78  O   UNL A   1      33.747  33.744  27.332  1.00  0.00    -0.237 OA
ATOM     79  O   UNL A   1      32.612  34.629  29.342  1.00  0.00    -0.237 OA
ATOM     80  O   UNL A   1      34.273  36.012  28.154  1.00  0.00    -0.744 OA
ENDBRANCH  76  77
ENDBRANCH  55  69
BRANCH  56  81
ATOM     81  C   UNL A   1      44.459  28.771  36.441  1.00  0.00     0.058 A 
ATOM     82  C   UNL A   1      45.750  29.313  36.372  1.00  0.00     0.135 A 
ATOM     83  C   UNL A   1      44.259  27.661  37.278  1.00  0.00     0.135 A 
ATOM     84  F   UNL A   1      45.995  30.364  35.575  1.00  0.00    -0.206 F 
ATOM     85  C   UNL A   1      46.807  28.773  37.098  1.00  0.00     0.059 A 
ATOM     86  C   UNL A   1      45.294  27.118  38.032  1.00  0.00     0.059 A 
ATOM     87  F   UNL A   1      43.040  27.109  37.381  1.00  0.00    -0.206 F 
ATOM     88  C   UNL A   1      46.568  27.676  37.929  1.00  0.00     0.060 A 
BRANCH  88  89
ATOM     89  S   UNL A   1      47.934  27.022  38.911  1.00  0.00     0.124 S 
ATOM     90  O   UNL A   1      47.472  27.287  40.268  1.00  0.00    -0.237 OA
ATOM     91  O   UNL A   1      47.960  25.620  38.508  1.00  0.00    -0.237 OA
ATOM     92  O   UNL A   1      49.076  27.816  38.466  1.00  0.00    -0.744 OA
ENDBRANCH  88  89
ENDBRANCH  56  81
BRANCH  68  93
ATOM     93  C   UNL A   1      40.264  34.274  37.402  1.00  0.00     0.058 A 
ATOM     94  C   UNL A   1      41.046  35.439  37.442  1.00  0.00     0.135 A 
ATOM     95  C   UNL A   1      39.258  34.122  38.371  1.00  0.00     0.135 A 
ATOM     96  F   UNL A   1      42.024  35.628  36.542  1.00  0.00    -0.206 F 
ATOM     97  C   UNL A   1      40.830  36.422  38.403  1.00  0.00     0.059 A 
ATOM     98  C   UNL A   1      39.014  35.101  39.328  1.00  0.00     0.059 A 
ATOM     99  F   UNL A   1      38.480  33.029  38.368  1.00  0.00    -0.206 F 
ATOM    100  C   UNL A   1      39.807  36.249  39.336  1.00  0.00     0.060 A 
BRANCH 100 101
ATOM    101  S   UNL A   1      39.480  37.570  40.524  1.00  0.00     0.124 S 
ATOM    102  O   UNL A   1      38.225  38.116  40.018  1.00  0.00    -0.237 OA
ATOM    103  O   UNL A   1      39.391  36.842  41.786  1.00  0.00    -0.237 OA
ATOM    104  O   UNL A   1      40.644  38.441  40.391  1.00  0.00    -0.744 OA
ENDBRANCH 100 101
ENDBRANCH  68  93
ENDBRANCH  42  43
ENDBRANCH  35  37
ENDBRANCH  34  35
ENDBRANCH  33  34
ENDBRANCH  32  33
ENDBRANCH  31  32
ENDBRANCH  30  31
ENDBRANCH   1  30
TORSDOF 23
ENDMDL
MODEL 2
REMARK VINA RESULT:     -10.7      1.637      4.048
REMARK SMILES Cc1nc(-c2ccc(S(=O)(=O)N3CC[NH2+][C@H](C(=O)OCCOCCOCCOC(=O)c4ccc(-c5c6nc(c(-c7c(F)cc(S(=O)(=O)[O-])cc7F)c7ccc([nH]7)c(-c7c(F)cc(S(=O)(=O)[O-])cc7F)c7nc(c(-c8c(F)cc(S(=O)(=O)[O-])cc8F)c8ccc5[nH]8)C=C7)C=C6)cc4)C3)s2)cs1
REMARK SMILES IDX 23 1 22 2 21 3 20 4 19 5 17 6 18 7 16 8 12 9 13 10 97 11
REMARK SMILES IDX 14 12 15 13 9 16 10 17 11 18 8 19 5 20 6 21 98 22 7 23 4 24
REMARK SMILES IDX 1 25 2 26 3 27 100 28 99 29 24 30 25 31 26 32 27 33 28 34
REMARK SMILES IDX 29 35 30 36 31 37 32 38 96 39 33 40 95 41 34 42 35 43 36 44
REMARK SMILES IDX 89 45 37 46 94 47 88 48 90 49 38 50 93 51 87 52 86 53 39 55
REMARK SMILES IDX 73 56 52 57 72 58 53 59 56 60 71 61 91 62 54 63 55 64 70 66
REMARK SMILES IDX 92 67 57 68 40 69 41 70 50 71 42 72 43 73 49 74 51 75 44 76
REMARK SMILES IDX 45 77 46 78 47 79 48 80 74 81 75 82 84 83 76 84 77 85 83 86
REMARK SMILES IDX 85 87 78 88 79 89 80 90 81 91 82 92 58 93 59 94 68 95 60 96
REMARK SMILES IDX 61 97 67 98 69 99 62 100 63 101 64 102 65 103 66 104
REMARK H PARENT 15 14 15 15 90 54 56 65
REMARK Flexibility Score: inf
ROOT
ATOM      1  C   UNL A   1      41.778  21.305  26.938  1.00  0.00     0.188 C 
ENDROOT
BRANCH   1   2
ATOM      2  O   UNL A   1      41.063  22.529  27.066  1.00  0.00    -0.376 OA
BRANCH   2   3
ATOM      3  C   UNL A   1      39.663  22.523  26.828  1.00  0.00     0.202 C 
BRANCH   3   4
ATOM      4  C   UNL A   1      39.178  21.539  25.766  1.00  0.00     0.261 C 
BRANCH   4   5
ATOM      5  O   UNL A   1      37.802  21.772  25.404  1.00  0.00    -0.459 OA
BRANCH   5   6
ATOM      6  C   UNL A   1      37.110  20.666  25.025  1.00  0.00     0.366 C 
ATOM      7  O   UNL A   1      37.592  19.542  24.935  1.00  0.00    -0.245 OA
BRANCH   6   8
ATOM      8  C   UNL A   1      35.643  20.946  24.733  1.00  0.00     0.308 C 
ATOM      9  N   UNL A   1      33.867  22.616  24.651  1.00  0.00    -0.185 NA
ATOM     10  C   UNL A   1      32.816  21.584  24.855  1.00  0.00     0.164 C 
ATOM     11  C   UNL A   1      35.148  22.264  25.320  1.00  0.00     0.180 C 
ATOM     12  C   UNL A   1      33.324  20.129  24.690  1.00  0.00     0.278 C 
ATOM     13  N   UNL A   1      34.720  19.823  25.081  1.00  0.00    -0.332 N 
ATOM     14  H   UNL A   1      35.025  18.980  24.594  1.00  0.00     0.347 HD
ATOM     15  H   UNL A   1      34.749  19.687  26.092  1.00  0.00     0.347 HD
BRANCH   9  16
ATOM     16  S   UNL A   1      33.946  23.489  23.190  1.00  0.00     0.253 S 
ATOM     17  O   UNL A   1      32.805  23.045  22.401  1.00  0.00    -0.206 OA
ATOM     18  O   UNL A   1      35.290  23.391  22.687  1.00  0.00    -0.206 OA
BRANCH  16  19
ATOM     19  C   UNL A   1      33.691  25.247  23.455  1.00  0.00     0.135 A 
ATOM     20  C   UNL A   1      33.499  27.441  24.592  1.00  0.00     0.055 A 
ATOM     21  C   UNL A   1      33.309  27.539  23.234  1.00  0.00     0.023 A 
ATOM     22  S   UNL A   1      33.862  25.845  25.065  1.00  0.00    -0.121 S 
ATOM     23  C   UNL A   1      33.342  26.275  22.601  1.00  0.00     0.034 A 
BRANCH  20  24
ATOM     24  C   UNL A   1      33.343  28.650  25.459  1.00  0.00     0.091 A 
ATOM     25  C   UNL A   1      31.176  31.506  26.150  1.00  0.00     0.079 C 
ATOM     26  C   UNL A   1      32.243  30.468  26.104  1.00  0.00     0.090 A 
ATOM     27  N   UNL A   1      32.262  29.487  25.234  1.00  0.00    -0.241 NA
ATOM     28  S   UNL A   1      33.546  30.467  27.225  1.00  0.00    -0.127 S 
ATOM     29  C   UNL A   1      34.156  29.024  26.506  1.00  0.00     0.096 A 
ENDBRANCH  20  24
ENDBRANCH  16  19
ENDBRANCH   9  16
ENDBRANCH   6   8
ENDBRANCH   5   6
ENDBRANCH   4   5
ENDBRANCH   3   4
ENDBRANCH   2   3
ENDBRANCH   1   2
BRANCH   1  30
ATOM     30  C   UNL A   1      42.920  21.239  25.905  1.00  0.00     0.188 C 
BRANCH  30  31
ATOM     31  O   UNL A   1      43.219  22.393  25.132  1.00  0.00    -0.376 OA
BRANCH  31  32
ATOM     32  C   UNL A   1      44.504  22.979  25.292  1.00  0.00     0.202 C 
BRANCH  32  33
ATOM     33  C   UNL A   1      44.492  24.415  25.811  1.00  0.00     0.261 C 
BRANCH  33  34
ATOM     34  O   UNL A   1      43.288  24.705  26.543  1.00  0.00    -0.460 OA
BRANCH  34  35
ATOM     35  C   UNL A   1      42.488  25.668  26.024  1.00  0.00     0.338 C 
ATOM     36  O   UNL A   1      42.127  25.775  24.863  1.00  0.00    -0.246 OA
BRANCH  35  37
ATOM     37  C   UNL A   1      41.963  26.518  27.112  1.00  0.00     0.060 A 
ATOM     38  C   UNL A   1      42.572  27.759  27.342  1.00  0.00     0.016 A 
ATOM     39  C   UNL A   1      40.927  26.076  27.939  1.00  0.00     0.016 A 
ATOM     40  C   UNL A   1      42.182  28.541  28.431  1.00  0.00     0.010 A 
ATOM     41  C   UNL A   1      40.548  26.853  29.036  1.00  0.00     0.010 A 
ATOM     42  C   UNL A   1      41.198  28.070  29.307  1.00  0.00    -0.014 A 
BRANCH  42  43
ATOM     43  C   UNL A   1      40.948  28.740  30.605  1.00  0.00     0.031 A 
ATOM     44  C   UNL A   1      39.869  29.785  30.674  1.00  0.00     0.074 A 
ATOM     45  C   UNL A   1      41.697  28.467  31.688  1.00  0.00     0.049 A 
ATOM     46  N   UNL A   1      39.593  30.631  31.631  1.00  0.00    -0.248 NA
ATOM     47  C   UNL A   1      38.985  29.890  29.501  1.00  0.00     0.031 C 
ATOM     48  C   UNL A   1      42.728  27.436  31.765  1.00  0.00     0.029 A 
ATOM     49  N   UNL A   1      41.718  29.061  32.925  1.00  0.00    -0.354 N 
ATOM     50  C   UNL A   1      38.520  31.383  31.170  1.00  0.00     0.074 A 
ATOM     51  C   UNL A   1      38.195  30.897  29.846  1.00  0.00     0.031 C 
ATOM     52  C   UNL A   1      43.306  27.489  32.978  1.00  0.00     0.029 A 
ATOM     53  C   UNL A   1      42.715  28.587  33.743  1.00  0.00     0.049 A 
ATOM     54  H   UNL A   1      41.079  29.759  33.200  1.00  0.00     0.167 HD
ATOM     55  C   UNL A   1      37.869  32.393  31.791  1.00  0.00     0.037 A 
ATOM     56  C   UNL A   1      43.129  29.021  34.951  1.00  0.00     0.037 A 
ATOM     57  C   UNL A   1      38.200  32.880  33.104  1.00  0.00     0.049 A 
ATOM     58  C   UNL A   1      42.446  30.202  35.592  1.00  0.00     0.074 A 
ATOM     59  C   UNL A   1      37.603  33.904  33.817  1.00  0.00     0.029 A 
ATOM     60  N   UNL A   1      39.222  32.380  33.894  1.00  0.00    -0.354 N 
ATOM     61  N   UNL A   1      41.437  30.912  35.145  1.00  0.00    -0.248 NA
ATOM     62  C   UNL A   1      42.962  30.649  36.894  1.00  0.00     0.031 C 
ATOM     63  C   UNL A   1      38.290  34.048  35.028  1.00  0.00     0.029 A 
ATOM     64  C   UNL A   1      39.286  33.085  35.083  1.00  0.00     0.049 A 
ATOM     65  H   UNL A   1      39.815  31.634  33.649  1.00  0.00     0.167 HD
ATOM     66  C   UNL A   1      41.181  31.868  36.124  1.00  0.00     0.074 A 
ATOM     67  C   UNL A   1      42.140  31.649  37.185  1.00  0.00     0.031 C 
ATOM     68  C   UNL A   1      40.233  32.837  36.141  1.00  0.00     0.037 A 
BRANCH  55  69
ATOM     69  C   UNL A   1      36.755  33.064  31.040  1.00  0.00     0.058 A 
ATOM     70  C   UNL A   1      37.010  33.977  30.005  1.00  0.00     0.135 A 
ATOM     71  C   UNL A   1      35.417  32.777  31.351  1.00  0.00     0.135 A 
ATOM     72  F   UNL A   1      38.272  34.300  29.684  1.00  0.00    -0.206 F 
ATOM     73  C   UNL A   1      35.973  34.600  29.319  1.00  0.00     0.059 A 
ATOM     74  C   UNL A   1      34.365  33.373  30.663  1.00  0.00     0.059 A 
ATOM     75  F   UNL A   1      35.121  31.914  32.336  1.00  0.00    -0.206 F 
ATOM     76  C   UNL A   1      34.654  34.296  29.659  1.00  0.00     0.060 A 
BRANCH  76  77
ATOM     77  S   UNL A   1      33.318  35.121  28.769  1.00  0.00     0.124 S 
ATOM     78  O   UNL A   1      32.513  35.639  29.870  1.00  0.00    -0.237 OA
ATOM     79  O   UNL A   1      34.035  36.122  27.983  1.00  0.00    -0.237 OA
ATOM     80  O   UNL A   1      32.707  34.044  27.997  1.00  0.00    -0.744 OA
ENDBRANCH  76  77
ENDBRANCH  55  69
BRANCH  56  81
ATOM     81  C   UNL A   1      44.271  28.351  35.626  1.00  0.00     0.058 A 
ATOM     82  C   UNL A   1      45.592  28.732  35.352  1.00  0.00     0.135 A 
ATOM     83  C   UNL A   1      44.067  27.319  36.555  1.00  0.00     0.135 A 
ATOM     84  F   UNL A   1      45.840  29.703  34.460  1.00  0.00    -0.206 F 
ATOM     85  C   UNL A   1      46.673  28.110  35.970  1.00  0.00     0.059 A 
ATOM     86  C   UNL A   1      45.129  26.697  37.204  1.00  0.00     0.059 A 
ATOM     87  F   UNL A   1      42.820  26.921  36.853  1.00  0.00    -0.206 F 
ATOM     88  C   UNL A   1      46.430  27.095  36.897  1.00  0.00     0.060 A 
BRANCH  88  89
ATOM     89  S   UNL A   1      47.838  26.337  37.736  1.00  0.00     0.124 S 
ATOM     90  O   UNL A   1      48.878  27.336  37.523  1.00  0.00    -0.237 OA
ATOM     91  O   UNL A   1      47.348  26.208  39.105  1.00  0.00    -0.237 OA
ATOM     92  O   UNL A   1      48.015  25.076  37.021  1.00  0.00    -0.744 OA
ENDBRANCH  88  89
ENDBRANCH  56  81
BRANCH  68  93
ATOM     93  C   UNL A   1      40.139  33.711  37.361  1.00  0.00     0.058 A 
ATOM     94  C   UNL A   1      39.336  33.361  38.456  1.00  0.00     0.135 A 
ATOM     95  C   UNL A   1      40.952  34.851  37.476  1.00  0.00     0.135 A 
ATOM     96  F   UNL A   1      38.537  32.284  38.393  1.00  0.00    -0.206 F 
ATOM     97  C   UNL A   1      39.345  34.111  39.628  1.00  0.00     0.059 A 
ATOM     98  C   UNL A   1      40.990  35.603  38.644  1.00  0.00     0.059 A 
ATOM     99  F   UNL A   1      41.744  35.220  36.457  1.00  0.00    -0.206 F 
ATOM    100  C   UNL A   1      40.181  35.225  39.717  1.00  0.00     0.060 A 
BRANCH 100 101
ATOM    101  S   UNL A   1      40.249  36.141  41.273  1.00  0.00     0.124 S 
ATOM    102  O   UNL A   1      41.027  35.235  42.112  1.00  0.00    -0.237 OA
ATOM    103  O   UNL A   1      40.919  37.376  40.881  1.00  0.00    -0.237 OA
ATOM    104  O   UNL A   1      38.844  36.287  41.641  1.00  0.00    -0.744 OA
ENDBRANCH 100 101
ENDBRANCH  68  93
ENDBRANCH  42  43
ENDBRANCH  35  37
ENDBRANCH  34  35
ENDBRANCH  33  34
ENDBRANCH  32  33
ENDBRANCH  31  32
ENDBRANCH  30  31
ENDBRANCH   1  30
TORSDOF 23
ENDMDL
MODEL 3
REMARK VINA RESULT:     -10.3      1.956      4.141
REMARK SMILES Cc1nc(-c2ccc(S(=O)(=O)N3CC[NH2+][C@H](C(=O)OCCOCCOCCOC(=O)c4ccc(-c5c6nc(c(-c7c(F)cc(S(=O)(=O)[O-])cc7F)c7ccc([nH]7)c(-c7c(F)cc(S(=O)(=O)[O-])cc7F)c7nc(c(-c8c(F)cc(S(=O)(=O)[O-])cc8F)c8ccc5[nH]8)C=C7)C=C6)cc4)C3)s2)cs1
REMARK SMILES IDX 23 1 22 2 21 3 20 4 19 5 17 6 18 7 16 8 12 9 13 10 97 11
REMARK SMILES IDX 14 12 15 13 9 16 10 17 11 18 8 19 5 20 6 21 98 22 7 23 4 24
REMARK SMILES IDX 1 25 2 26 3 27 100 28 99 29 24 30 25 31 26 32 27 33 28 34
REMARK SMILES IDX 29 35 30 36 31 37 32 38 96 39 33 40 95 41 34 42 35 43 36 44
REMARK SMILES IDX 89 45 37 46 94 47 88 48 90 49 38 50 93 51 87 52 86 53 39 55
REMARK SMILES IDX 73 56 52 57 72 58 53 59 56 60 71 61 91 62 54 63 55 64 70 66
REMARK SMILES IDX 92 67 57 68 40 69 41 70 50 71 42 72 43 73 49 74 51 75 44 76
REMARK SMILES IDX 45 77 46 78 47 79 48 80 74 81 75 82 84 83 76 84 77 85 83 86
REMARK SMILES IDX 85 87 78 88 79 89 80 90 81 91 82 92 58 93 59 94 68 95 60 96
REMARK SMILES IDX 61 97 67 98 69 99 62 100 63 101 64 102 65 103 66 104
REMARK H PARENT 15 14 15 15 90 54 56 65
REMARK Flexibility Score: inf
ROOT
ATOM      1  C   UNL A   1      41.510  21.006  26.583  1.00  0.00     0.188 C 
ENDROOT
BRANCH   1   2
ATOM      2  O   UNL A   1      40.772  22.192  26.307  1.00  0.00    -0.376 OA
BRANCH   2   3
ATOM      3  C   UNL A   1      39.360  22.158  26.448  1.00  0.00     0.202 C 
BRANCH   3   4
ATOM      4  C   UNL A   1      38.612  21.319  25.415  1.00  0.00     0.261 C 
BRANCH   4   5
ATOM      5  O   UNL A   1      37.318  21.873  25.105  1.00  0.00    -0.459 OA
BRANCH   5   6
ATOM      6  C   UNL A   1      36.275  21.011  25.230  1.00  0.00     0.366 C 
ATOM      7  O   UNL A   1      36.340  19.807  25.004  1.00  0.00    -0.245 OA
BRANCH   6   8
ATOM      8  C   UNL A   1      34.994  21.681  25.704  1.00  0.00     0.308 C 
ATOM      9  N   UNL A   1      33.489  23.587  25.474  1.00  0.00    -0.185 NA
ATOM     10  C   UNL A   1      32.988  23.426  26.865  1.00  0.00     0.164 C 
ATOM     11  C   UNL A   1      34.905  23.157  25.325  1.00  0.00     0.180 C 
ATOM     12  C   UNL A   1      33.393  22.084  27.527  1.00  0.00     0.278 C 
ATOM     13  N   UNL A   1      34.695  21.480  27.155  1.00  0.00    -0.332 N 
ATOM     14  H   UNL A   1      34.666  20.480  27.352  1.00  0.00     0.347 HD
ATOM     15  H   UNL A   1      35.428  21.936  27.699  1.00  0.00     0.347 HD
BRANCH   9  16
ATOM     16  S   UNL A   1      32.443  23.355  24.149  1.00  0.00     0.253 S 
ATOM     17  O   UNL A   1      31.262  22.695  24.688  1.00  0.00    -0.206 OA
ATOM     18  O   UNL A   1      33.206  22.772  23.078  1.00  0.00    -0.206 OA
BRANCH  16  19
ATOM     19  C   UNL A   1      31.860  24.919  23.486  1.00  0.00     0.135 A 
ATOM     20  C   UNL A   1      30.429  26.900  23.072  1.00  0.00     0.055 A 
ATOM     21  C   UNL A   1      31.607  26.951  22.364  1.00  0.00     0.023 A 
ATOM     22  S   UNL A   1      30.344  25.513  24.057  1.00  0.00    -0.121 S 
ATOM     23  C   UNL A   1      32.384  25.783  22.544  1.00  0.00     0.034 A 
BRANCH  20  24
ATOM     24  C   UNL A   1      29.400  27.971  22.889  1.00  0.00     0.091 A 
ATOM     25  C   UNL A   1      28.671  31.067  21.097  1.00  0.00     0.079 C 
ATOM     26  C   UNL A   1      28.678  29.854  21.962  1.00  0.00     0.090 A 
ATOM     27  N   UNL A   1      29.696  29.032  22.050  1.00  0.00    -0.241 NA
ATOM     28  S   UNL A   1      27.313  29.421  22.914  1.00  0.00    -0.127 S 
ATOM     29  C   UNL A   1      28.144  28.010  23.452  1.00  0.00     0.096 A 
ENDBRANCH  20  24
ENDBRANCH  16  19
ENDBRANCH   9  16
ENDBRANCH   6   8
ENDBRANCH   5   6
ENDBRANCH   4   5
ENDBRANCH   3   4
ENDBRANCH   2   3
ENDBRANCH   1   2
BRANCH   1  30
ATOM     30  C   UNL A   1      42.950  20.908  26.044  1.00  0.00     0.188 C 
BRANCH  30  31
ATOM     31  O   UNL A   1      43.496  22.007  25.329  1.00  0.00    -0.376 OA
BRANCH  31  32
ATOM     32  C   UNL A   1      44.717  22.561  25.800  1.00  0.00     0.202 C 
BRANCH  32  33
ATOM     33  C   UNL A   1      44.613  23.993  26.320  1.00  0.00     0.261 C 
BRANCH  33  34
ATOM     34  O   UNL A   1      43.307  24.270  26.855  1.00  0.00    -0.460 OA
BRANCH  34  35
ATOM     35  C   UNL A   1      42.635  25.305  26.293  1.00  0.00     0.338 C 
ATOM     36  O   UNL A   1      42.366  25.449  25.112  1.00  0.00    -0.246 OA
BRANCH  35  37
ATOM     37  C   UNL A   1      42.116  26.194  27.352  1.00  0.00     0.060 A 
ATOM     38  C   UNL A   1      42.772  27.411  27.581  1.00  0.00     0.016 A 
ATOM     39  C   UNL A   1      41.039  25.811  28.155  1.00  0.00     0.016 A 
ATOM     40  C   UNL A   1      42.385  28.227  28.646  1.00  0.00     0.010 A 
ATOM     41  C   UNL A   1      40.663  26.621  29.228  1.00  0.00     0.010 A 
ATOM     42  C   UNL A   1      41.356  27.814  29.500  1.00  0.00    -0.014 A 
BRANCH  42  43
ATOM     43  C   UNL A   1      41.099  28.515  30.780  1.00  0.00     0.031 A 
ATOM     44  C   UNL A   1      40.011  29.553  30.819  1.00  0.00     0.074 A 
ATOM     45  C   UNL A   1      41.847  28.276  31.870  1.00  0.00     0.049 A 
ATOM     46  N   UNL A   1      39.726  30.421  31.753  1.00  0.00    -0.248 NA
ATOM     47  C   UNL A   1      39.129  29.620  29.641  1.00  0.00     0.031 C 
ATOM     48  C   UNL A   1      42.887  27.256  31.976  1.00  0.00     0.029 A 
ATOM     49  N   UNL A   1      41.860  28.903  33.092  1.00  0.00    -0.354 N 
ATOM     50  C   UNL A   1      38.648  31.152  31.271  1.00  0.00     0.074 A 
ATOM     51  C   UNL A   1      38.330  30.629  29.959  1.00  0.00     0.031 C 
ATOM     52  C   UNL A   1      43.461  27.346  33.188  1.00  0.00     0.029 A 
ATOM     53  C   UNL A   1      42.860  28.458  33.923  1.00  0.00     0.049 A 
ATOM     54  H   UNL A   1      41.216  29.602  33.347  1.00  0.00     0.167 HD
ATOM     55  C   UNL A   1      37.987  32.173  31.864  1.00  0.00     0.037 A 
ATOM     56  C   UNL A   1      43.268  28.926  35.120  1.00  0.00     0.037 A 
ATOM     57  C   UNL A   1      38.312  32.696  33.164  1.00  0.00     0.049 A 
ATOM     58  C   UNL A   1      42.574  30.118  35.729  1.00  0.00     0.074 A 
ATOM     59  C   UNL A   1      37.706  33.734  33.849  1.00  0.00     0.029 A 
ATOM     60  N   UNL A   1      39.336  32.226  33.969  1.00  0.00    -0.354 N 
ATOM     61  N   UNL A   1      41.561  30.808  35.262  1.00  0.00    -0.248 NA
ATOM     62  C   UNL A   1      43.084  30.603  37.020  1.00  0.00     0.031 C 
ATOM     63  C   UNL A   1      38.389  33.915  35.057  1.00  0.00     0.029 A 
ATOM     64  C   UNL A   1      39.392  32.962  35.140  1.00  0.00     0.049 A 
ATOM     65  H   UNL A   1      39.936  31.478  33.744  1.00  0.00     0.167 HD
ATOM     66  C   UNL A   1      41.294  31.787  36.215  1.00  0.00     0.074 A 
ATOM     67  C   UNL A   1      42.253  31.604  37.283  1.00  0.00     0.031 C 
ATOM     68  C   UNL A   1      40.338  32.749  36.206  1.00  0.00     0.037 A 
BRANCH  55  69
ATOM     69  C   UNL A   1      36.870  32.815  31.093  1.00  0.00     0.058 A 
ATOM     70  C   UNL A   1      35.526  32.618  31.443  1.00  0.00     0.135 A 
ATOM     71  C   UNL A   1      37.152  33.650  30.000  1.00  0.00     0.135 A 
ATOM     72  F   UNL A   1      35.205  31.812  32.467  1.00  0.00    -0.206 F 
ATOM     73  C   UNL A   1      34.496  33.210  30.719  1.00  0.00     0.059 A 
ATOM     74  C   UNL A   1      36.138  34.268  29.276  1.00  0.00     0.059 A 
ATOM     75  F   UNL A   1      38.422  33.866  29.623  1.00  0.00    -0.206 F 
ATOM     76  C   UNL A   1      34.812  34.029  29.634  1.00  0.00     0.060 A 
BRANCH  76  77
ATOM     77  S   UNL A   1      33.465  34.781  28.696  1.00  0.00     0.124 S 
ATOM     78  O   UNL A   1      34.130  35.945  28.119  1.00  0.00    -0.237 OA
ATOM     79  O   UNL A   1      33.110  33.723  27.754  1.00  0.00    -0.237 OA
ATOM     80  O   UNL A   1      32.462  35.070  29.714  1.00  0.00    -0.744 OA
ENDBRANCH  76  77
ENDBRANCH  55  69
BRANCH  56  81
ATOM     81  C   UNL A   1      44.414  28.284  35.815  1.00  0.00     0.058 A 
ATOM     82  C   UNL A   1      44.208  27.252  36.740  1.00  0.00     0.135 A 
ATOM     83  C   UNL A   1      45.736  28.689  35.568  1.00  0.00     0.135 A 
ATOM     84  F   UNL A   1      42.963  26.841  37.021  1.00  0.00    -0.206 F 
ATOM     85  C   UNL A   1      45.270  26.646  37.404  1.00  0.00     0.059 A 
ATOM     86  C   UNL A   1      46.817  28.083  36.202  1.00  0.00     0.059 A 
ATOM     87  F   UNL A   1      45.985  29.670  34.687  1.00  0.00    -0.206 F 
ATOM     88  C   UNL A   1      46.572  27.067  37.125  1.00  0.00     0.060 A 
BRANCH  88  89
ATOM     89  S   UNL A   1      47.945  26.231  37.949  1.00  0.00     0.124 S 
ATOM     90  O   UNL A   1      47.256  25.527  39.023  1.00  0.00    -0.237 OA
ATOM     91  O   UNL A   1      48.483  25.396  36.879  1.00  0.00    -0.237 OA
ATOM     92  O   UNL A   1      48.807  27.335  38.365  1.00  0.00    -0.744 OA
ENDBRANCH  88  89
ENDBRANCH  56  81
BRANCH  68  93
ATOM     93  C   UNL A   1      40.235  33.653  37.402  1.00  0.00     0.058 A 
ATOM     94  C   UNL A   1      39.384  33.357  38.476  1.00  0.00     0.135 A 
ATOM     95  C   UNL A   1      41.083  34.767  37.520  1.00  0.00     0.135 A 
ATOM     96  F   UNL A   1      38.550  32.307  38.409  1.00  0.00    -0.206 F 
ATOM     97  C   UNL A   1      39.380  34.133  39.631  1.00  0.00     0.059 A 
ATOM     98  C   UNL A   1      41.109  35.544  38.672  1.00  0.00     0.059 A 
ATOM     99  F   UNL A   1      41.922  35.085  36.521  1.00  0.00    -0.206 F 
ATOM    100  C   UNL A   1      40.253  35.219  39.724  1.00  0.00     0.060 A 
BRANCH 100 101
ATOM    101  S   UNL A   1      40.301  36.167  41.261  1.00  0.00     0.124 S 
ATOM    102  O   UNL A   1      41.706  36.555  41.323  1.00  0.00    -0.237 OA
ATOM    103  O   UNL A   1      39.357  37.247  40.993  1.00  0.00    -0.237 OA
ATOM    104  O   UNL A   1      39.870  35.202  42.269  1.00  0.00    -0.744 OA
ENDBRANCH 100 101
ENDBRANCH  68  93
ENDBRANCH  42  43
ENDBRANCH  35  37
ENDBRANCH  34  35
ENDBRANCH  33  34
ENDBRANCH  32  33
ENDBRANCH  31  32
ENDBRANCH  30  31
ENDBRANCH   1  30
TORSDOF 23
ENDMDL
