MODEL 1
REMARK VINA RESULT:     -12.2      0.000      0.000
REMARK SMILES C[C@H]1CCc2sc3ncn4nc(/C=C\C(=O)OCCOCCOCCOC(=O)c5ccc(-c6c7nc(c(-c8c(F)cc(S(=O)(=O)[O-])cc8F)c8ccc([nH]8)c(-c8c(F)cc(S(=O)(=O)[O-])cc8F)c8nc(c(-c9c(F)cc(S(=O)(=O)[O-])cc9F)c9ccc6[nH]9)C=C8)C=C7)cc5)nc4c3c2C1
REMARK SMILES IDX 22 1 21 2 20 3 19 4 18 5 17 6 15 7 16 8 14 9 13 10 12 11
REMARK SMILES IDX 1 12 2 13 3 14 99 15 4 16 98 17 5 18 97 19 6 20 7 21 96 22
REMARK SMILES IDX 8 23 10 24 95 25 9 26 11 27 23 28 24 29 25 30 26 31 27 32
REMARK SMILES IDX 28 33 29 34 30 35 94 36 31 37 93 38 32 39 33 40 34 41 87 42
REMARK SMILES IDX 35 43 92 44 86 45 88 46 36 47 91 48 85 49 84 50 37 52 71 53
REMARK SMILES IDX 50 54 70 55 51 56 54 57 69 58 89 59 52 60 53 61 68 63 90 64
REMARK SMILES IDX 55 65 38 66 39 67 48 68 40 69 41 70 47 71 49 72 42 73 43 74
REMARK SMILES IDX 44 75 45 76 46 77 72 78 73 79 82 80 74 81 75 82 81 83 83 84
REMARK SMILES IDX 76 85 77 86 78 87 79 88 80 89 56 90 57 91 66 92 58 93 59 94
REMARK SMILES IDX 65 95 67 96 60 97 61 98 62 99 63 100 64 101
REMARK H PARENT 88 51 54 62
REMARK Flexibility Score: inf
ROOT
ATOM      1  C   UNL A   1      43.295  17.981  26.202  1.00  0.00     0.188 C 
ENDROOT
BRANCH   1   2
ATOM      2  C   UNL A   1      42.478  19.281  26.413  1.00  0.00     0.188 C 
BRANCH   2   3
ATOM      3  O   UNL A   1      41.324  19.540  25.621  1.00  0.00    -0.376 OA
BRANCH   3   4
ATOM      4  C   UNL A   1      40.130  19.968  26.271  1.00  0.00     0.202 C 
BRANCH   4   5
ATOM      5  C   UNL A   1      39.824  21.471  26.374  1.00  0.00     0.261 C 
BRANCH   5   6
ATOM      6  O   UNL A   1      38.955  21.945  25.341  1.00  0.00    -0.460 OA
BRANCH   6   7
ATOM      7  C   UNL A   1      37.649  22.089  25.641  1.00  0.00     0.330 C 
ATOM      8  O   UNL A   1      37.098  23.102  26.022  1.00  0.00    -0.247 OA
BRANCH   7   9
ATOM      9  C   UNL A   1      36.876  20.894  25.241  1.00  0.00     0.097 C 
ATOM     10  C   UNL A   1      35.550  20.698  25.198  1.00  0.00     0.058 C 
BRANCH  10  11
ATOM     11  C   UNL A   1      34.462  21.567  25.506  1.00  0.00     0.175 A 
ATOM     12  C   UNL A   1      32.348  26.019  20.870  1.00  0.00     0.008 C 
ATOM     13  C   UNL A   1      33.252  26.555  21.983  1.00  0.00    -0.009 C 
ATOM     14  C   UNL A   1      32.695  27.845  22.624  1.00  0.00     0.009 C 
ATOM     15  C   UNL A   1      33.516  25.458  23.030  1.00  0.00     0.041 C 
ATOM     16  C   UNL A   1      31.422  27.626  23.461  1.00  0.00     0.047 C 
ATOM     17  C   UNL A   1      32.510  25.423  24.128  1.00  0.00    -0.020 A 
ATOM     18  C   UNL A   1      31.575  26.417  24.331  1.00  0.00     0.011 A 
ATOM     19  C   UNL A   1      32.390  24.431  25.122  1.00  0.00     0.060 A 
ATOM     20  S   UNL A   1      30.567  26.113  25.681  1.00  0.00    -0.120 S 
ATOM     21  C   UNL A   1      31.388  24.654  26.052  1.00  0.00     0.129 A 
ATOM     22  C   UNL A   1      33.166  23.205  25.355  1.00  0.00     0.168 A 
ATOM     23  N   UNL A   1      31.056  23.866  27.132  1.00  0.00    -0.225 NA
ATOM     24  N   UNL A   1      32.852  22.474  26.455  1.00  0.00    -0.201 N 
ATOM     25  N   UNL A   1      34.139  22.632  24.697  1.00  0.00    -0.207 NA
ATOM     26  C   UNL A   1      31.802  22.802  27.315  1.00  0.00     0.227 A 
ATOM     27  N   UNL A   1      33.669  21.413  26.584  1.00  0.00    -0.145 NA
ENDBRANCH  10  11
ENDBRANCH   7   9
ENDBRANCH   6   7
ENDBRANCH   5   6
ENDBRANCH   4   5
ENDBRANCH   3   4
ENDBRANCH   2   3
ENDBRANCH   1   2
BRANCH   1  28
ATOM     28  O   UNL A   1      44.351  18.081  25.272  1.00  0.00    -0.376 OA
BRANCH  28  29
ATOM     29  C   UNL A   1      45.640  18.545  25.630  1.00  0.00     0.202 C 
BRANCH  29  30
ATOM     30  C   UNL A   1      46.397  19.647  24.900  1.00  0.00     0.261 C 
BRANCH  30  31
ATOM     31  O   UNL A   1      46.066  20.966  25.275  1.00  0.00    -0.460 OA
BRANCH  31  32
ATOM     32  C   UNL A   1      44.937  21.407  24.692  1.00  0.00     0.338 C 
ATOM     33  O   UNL A   1      44.592  21.232  23.522  1.00  0.00    -0.246 OA
BRANCH  32  34
ATOM     34  C   UNL A   1      44.193  22.244  25.618  1.00  0.00     0.060 A 
ATOM     35  C   UNL A   1      43.117  22.951  25.084  1.00  0.00     0.016 A 
ATOM     36  C   UNL A   1      44.760  22.555  26.864  1.00  0.00     0.016 A 
ATOM     37  C   UNL A   1      42.757  24.123  25.699  1.00  0.00     0.010 A 
ATOM     38  C   UNL A   1      44.395  23.729  27.478  1.00  0.00     0.010 A 
ATOM     39  C   UNL A   1      43.468  24.539  26.835  1.00  0.00    -0.014 A 
BRANCH  39  40
ATOM     40  C   UNL A   1      43.149  25.849  27.354  1.00  0.00     0.031 A 
ATOM     41  C   UNL A   1      44.186  26.848  27.039  1.00  0.00     0.074 A 
ATOM     42  C   UNL A   1      42.032  26.117  28.054  1.00  0.00     0.049 A 
ATOM     43  N   UNL A   1      45.069  27.330  27.845  1.00  0.00    -0.248 NA
ATOM     44  C   UNL A   1      44.404  27.183  25.625  1.00  0.00     0.031 C 
ATOM     45  C   UNL A   1      40.837  25.291  28.236  1.00  0.00     0.029 A 
ATOM     46  N   UNL A   1      41.717  27.261  28.714  1.00  0.00    -0.354 N 
ATOM     47  C   UNL A   1      45.814  28.221  27.086  1.00  0.00     0.074 A 
ATOM     48  C   UNL A   1      45.496  27.944  25.710  1.00  0.00     0.031 C 
ATOM     49  C   UNL A   1      39.849  26.049  28.769  1.00  0.00     0.029 A 
ATOM     50  C   UNL A   1      40.389  27.358  29.101  1.00  0.00     0.049 A 
ATOM     51  H   UNL A   1      42.379  27.966  28.902  1.00  0.00     0.167 HD
ATOM     52  C   UNL A   1      46.430  29.281  27.673  1.00  0.00     0.037 A 
ATOM     53  C   UNL A   1      39.785  28.463  29.607  1.00  0.00     0.037 A 
ATOM     54  C   UNL A   1      46.574  29.078  29.094  1.00  0.00     0.049 A 
ATOM     55  C   UNL A   1      40.863  29.312  30.185  1.00  0.00     0.074 A 
ATOM     56  C   UNL A   1      47.223  28.145  29.881  1.00  0.00     0.029 A 
ATOM     57  N   UNL A   1      45.676  29.707  29.922  1.00  0.00    -0.354 N 
ATOM     58  N   UNL A   1      41.574  28.974  31.227  1.00  0.00    -0.248 NA
ATOM     59  C   UNL A   1      41.456  30.334  29.335  1.00  0.00     0.031 C 
ATOM     60  C   UNL A   1      46.369  27.947  31.007  1.00  0.00     0.029 A 
ATOM     61  C   UNL A   1      45.277  28.805  30.875  1.00  0.00     0.049 A 
ATOM     62  H   UNL A   1      45.371  30.640  29.843  1.00  0.00     0.167 HD
ATOM     63  C   UNL A   1      42.860  29.408  30.939  1.00  0.00     0.074 A 
ATOM     64  C   UNL A   1      42.706  30.317  29.806  1.00  0.00     0.031 C 
ATOM     65  C   UNL A   1      43.953  28.781  31.465  1.00  0.00     0.037 A 
BRANCH  52  66
ATOM     66  C   UNL A   1      46.515  30.646  27.035  1.00  0.00     0.058 A 
ATOM     67  C   UNL A   1      47.760  31.305  27.000  1.00  0.00     0.135 A 
ATOM     68  C   UNL A   1      45.391  31.451  26.737  1.00  0.00     0.135 A 
ATOM     69  F   UNL A   1      48.895  30.637  27.263  1.00  0.00    -0.206 F 
ATOM     70  C   UNL A   1      47.871  32.678  26.782  1.00  0.00     0.059 A 
ATOM     71  C   UNL A   1      45.485  32.809  26.464  1.00  0.00     0.059 A 
ATOM     72  F   UNL A   1      44.136  30.994  26.793  1.00  0.00    -0.206 F 
ATOM     73  C   UNL A   1      46.722  33.423  26.535  1.00  0.00     0.060 A 
BRANCH  73  74
ATOM     74  S   UNL A   1      46.844  35.211  26.384  1.00  0.00     0.124 S 
ATOM     75  O   UNL A   1      45.464  35.570  26.078  1.00  0.00    -0.237 OA
ATOM     76  O   UNL A   1      47.329  35.590  27.707  1.00  0.00    -0.237 OA
ATOM     77  O   UNL A   1      47.801  35.391  25.297  1.00  0.00    -0.744 OA
ENDBRANCH  73  74
ENDBRANCH  52  66
BRANCH  53  78
ATOM     78  C   UNL A   1      38.443  29.006  29.261  1.00  0.00     0.058 A 
ATOM     79  C   UNL A   1      37.502  29.299  30.265  1.00  0.00     0.135 A 
ATOM     80  C   UNL A   1      38.164  29.527  27.981  1.00  0.00     0.135 A 
ATOM     81  F   UNL A   1      37.693  28.857  31.518  1.00  0.00    -0.206 F 
ATOM     82  C   UNL A   1      36.388  30.115  30.033  1.00  0.00     0.059 A 
ATOM     83  C   UNL A   1      37.056  30.334  27.723  1.00  0.00     0.059 A 
ATOM     84  F   UNL A   1      39.013  29.347  26.958  1.00  0.00    -0.206 F 
ATOM     85  C   UNL A   1      36.187  30.649  28.761  1.00  0.00     0.060 A 
BRANCH  85  86
ATOM     86  S   UNL A   1      34.854  31.842  28.499  1.00  0.00     0.124 S 
ATOM     87  O   UNL A   1      33.830  31.017  27.869  1.00  0.00    -0.237 OA
ATOM     88  O   UNL A   1      34.568  32.287  29.859  1.00  0.00    -0.237 OA
ATOM     89  O   UNL A   1      35.464  32.848  27.632  1.00  0.00    -0.744 OA
ENDBRANCH  85  86
ENDBRANCH  53  78
BRANCH  65  90
ATOM     90  C   UNL A   1      43.746  27.826  32.613  1.00  0.00     0.058 A 
ATOM     91  C   UNL A   1      43.744  26.424  32.498  1.00  0.00     0.135 A 
ATOM     92  C   UNL A   1      43.710  28.360  33.910  1.00  0.00     0.135 A 
ATOM     93  F   UNL A   1      43.869  25.829  31.302  1.00  0.00    -0.206 F 
ATOM     94  C   UNL A   1      43.679  25.594  33.622  1.00  0.00     0.059 A 
ATOM     95  C   UNL A   1      43.677  27.554  35.044  1.00  0.00     0.059 A 
ATOM     96  F   UNL A   1      43.767  29.691  34.090  1.00  0.00    -0.206 F 
ATOM     97  C   UNL A   1      43.653  26.170  34.892  1.00  0.00     0.060 A 
BRANCH  97  98
ATOM     98  S   UNL A   1      43.660  25.099  36.348  1.00  0.00     0.124 S 
ATOM     99  O   UNL A   1      44.795  25.614  37.106  1.00  0.00    -0.237 OA
ATOM    100  O   UNL A   1      42.344  25.348  36.930  1.00  0.00    -0.237 OA
ATOM    101  O   UNL A   1      43.840  23.761  35.789  1.00  0.00    -0.744 OA
ENDBRANCH  97  98
ENDBRANCH  65  90
ENDBRANCH  39  40
ENDBRANCH  32  34
ENDBRANCH  31  32
ENDBRANCH  30  31
ENDBRANCH  29  30
ENDBRANCH  28  29
ENDBRANCH   1  28
TORSDOF 21
ENDMDL
MODEL 2
REMARK VINA RESULT:     -11.9      1.752      2.901
REMARK SMILES C[C@H]1CCc2sc3ncn4nc(/C=C\C(=O)OCCOCCOCCOC(=O)c5ccc(-c6c7nc(c(-c8c(F)cc(S(=O)(=O)[O-])cc8F)c8ccc([nH]8)c(-c8c(F)cc(S(=O)(=O)[O-])cc8F)c8nc(c(-c9c(F)cc(S(=O)(=O)[O-])cc9F)c9ccc6[nH]9)C=C8)C=C7)cc5)nc4c3c2C1
REMARK SMILES IDX 22 1 21 2 20 3 19 4 18 5 17 6 15 7 16 8 14 9 13 10 12 11
REMARK SMILES IDX 1 12 2 13 3 14 99 15 4 16 98 17 5 18 97 19 6 20 7 21 96 22
REMARK SMILES IDX 8 23 10 24 95 25 9 26 11 27 23 28 24 29 25 30 26 31 27 32
REMARK SMILES IDX 28 33 29 34 30 35 94 36 31 37 93 38 32 39 33 40 34 41 87 42
REMARK SMILES IDX 35 43 92 44 86 45 88 46 36 47 91 48 85 49 84 50 37 52 71 53
REMARK SMILES IDX 50 54 70 55 51 56 54 57 69 58 89 59 52 60 53 61 68 63 90 64
REMARK SMILES IDX 55 65 38 66 39 67 48 68 40 69 41 70 47 71 49 72 42 73 43 74
REMARK SMILES IDX 44 75 45 76 46 77 72 78 73 79 82 80 74 81 75 82 81 83 83 84
REMARK SMILES IDX 76 85 77 86 78 87 79 88 80 89 56 90 57 91 66 92 58 93 59 94
REMARK SMILES IDX 65 95 67 96 60 97 61 98 62 99 63 100 64 101
REMARK H PARENT 88 51 54 62
REMARK Flexibility Score: inf
ROOT
ATOM      1  C   UNL A   1      39.847  21.401  26.121  1.00  0.00     0.188 C 
ENDROOT
BRANCH   1   2
ATOM      2  C   UNL A   1      39.121  22.718  26.496  1.00  0.00     0.188 C 
BRANCH   2   3
ATOM      3  O   UNL A   1      37.994  23.156  25.745  1.00  0.00    -0.376 OA
BRANCH   3   4
ATOM      4  C   UNL A   1      36.816  22.355  25.747  1.00  0.00     0.202 C 
BRANCH   4   5
ATOM      5  C   UNL A   1      36.380  21.650  24.453  1.00  0.00     0.261 C 
BRANCH   5   6
ATOM      6  O   UNL A   1      34.963  21.647  24.258  1.00  0.00    -0.460 OA
BRANCH   6   7
ATOM      7  C   UNL A   1      34.444  22.577  23.432  1.00  0.00     0.330 C 
ATOM      8  O   UNL A   1      35.061  23.327  22.703  1.00  0.00    -0.247 OA
BRANCH   7   9
ATOM      9  C   UNL A   1      32.975  22.446  23.340  1.00  0.00     0.097 C 
ATOM     10  C   UNL A   1      32.006  23.299  23.708  1.00  0.00     0.058 C 
BRANCH  10  11
ATOM     11  C   UNL A   1      32.072  24.600  24.288  1.00  0.00     0.175 A 
ATOM     12  C   UNL A   1      27.085  29.020  23.122  1.00  0.00     0.008 C 
ATOM     13  C   UNL A   1      28.364  29.188  22.299  1.00  0.00    -0.009 C 
ATOM     14  C   UNL A   1      28.869  30.647  22.285  1.00  0.00     0.009 C 
ATOM     15  C   UNL A   1      29.446  28.208  22.790  1.00  0.00     0.041 C 
ATOM     16  C   UNL A   1      29.415  31.131  23.641  1.00  0.00     0.047 C 
ATOM     17  C   UNL A   1      30.303  28.756  23.877  1.00  0.00    -0.020 A 
ATOM     18  C   UNL A   1      30.299  30.085  24.247  1.00  0.00     0.011 A 
ATOM     19  C   UNL A   1      31.249  28.041  24.638  1.00  0.00     0.060 A 
ATOM     20  S   UNL A   1      31.403  30.424  25.511  1.00  0.00    -0.120 S 
ATOM     21  C   UNL A   1      31.943  28.798  25.568  1.00  0.00     0.129 A 
ATOM     22  C   UNL A   1      31.646  26.626  24.596  1.00  0.00     0.168 A 
ATOM     23  N   UNL A   1      32.928  28.369  26.430  1.00  0.00    -0.225 NA
ATOM     24  N   UNL A   1      32.654  26.242  25.420  1.00  0.00    -0.201 N 
ATOM     25  N   UNL A   1      31.212  25.604  23.909  1.00  0.00    -0.207 NA
ATOM     26  C   UNL A   1      33.268  27.105  26.328  1.00  0.00     0.227 A 
ATOM     27  N   UNL A   1      32.957  24.943  25.246  1.00  0.00    -0.145 NA
ENDBRANCH  10  11
ENDBRANCH   7   9
ENDBRANCH   6   7
ENDBRANCH   5   6
ENDBRANCH   4   5
ENDBRANCH   3   4
ENDBRANCH   2   3
ENDBRANCH   1   2
BRANCH   1  28
ATOM     28  O   UNL A   1      41.234  21.386  26.382  1.00  0.00    -0.376 OA
BRANCH  28  29
ATOM     29  C   UNL A   1      41.919  20.217  26.793  1.00  0.00     0.202 C 
BRANCH  29  30
ATOM     30  C   UNL A   1      42.823  19.382  25.895  1.00  0.00     0.261 C 
BRANCH  30  31
ATOM     31  O   UNL A   1      43.393  20.065  24.800  1.00  0.00    -0.460 OA
BRANCH  31  32
ATOM     32  C   UNL A   1      44.683  20.388  24.999  1.00  0.00     0.338 C 
ATOM     33  O   UNL A   1      45.623  19.608  25.167  1.00  0.00    -0.246 OA
BRANCH  32  34
ATOM     34  C   UNL A   1      44.825  21.830  25.107  1.00  0.00     0.060 A 
ATOM     35  C   UNL A   1      45.654  22.295  26.127  1.00  0.00     0.016 A 
ATOM     36  C   UNL A   1      43.909  22.658  24.440  1.00  0.00     0.016 A 
ATOM     37  C   UNL A   1      45.399  23.542  26.636  1.00  0.00     0.010 A 
ATOM     38  C   UNL A   1      43.658  23.908  24.952  1.00  0.00     0.010 A 
ATOM     39  C   UNL A   1      44.340  24.290  26.100  1.00  0.00    -0.014 A 
BRANCH  39  40
ATOM     40  C   UNL A   1      44.019  25.530  26.768  1.00  0.00     0.031 A 
ATOM     41  C   UNL A   1      45.033  26.575  26.533  1.00  0.00     0.074 A 
ATOM     42  C   UNL A   1      42.922  25.702  27.526  1.00  0.00     0.049 A 
ATOM     43  N   UNL A   1      45.934  26.982  27.360  1.00  0.00    -0.248 NA
ATOM     44  C   UNL A   1      45.201  27.065  25.158  1.00  0.00     0.031 C 
ATOM     45  C   UNL A   1      41.745  24.840  27.653  1.00  0.00     0.029 A 
ATOM     46  N   UNL A   1      42.612  26.762  28.316  1.00  0.00    -0.354 N 
ATOM     47  C   UNL A   1      46.642  27.963  26.681  1.00  0.00     0.074 A 
ATOM     48  C   UNL A   1      46.285  27.831  25.293  1.00  0.00     0.031 C 
ATOM     49  C   UNL A   1      40.764  25.519  28.295  1.00  0.00     0.029 A 
ATOM     50  C   UNL A   1      41.296  26.794  28.751  1.00  0.00     0.049 A 
ATOM     51  H   UNL A   1      43.270  27.453  28.560  1.00  0.00     0.167 HD
ATOM     52  C   UNL A   1      47.262  28.963  27.361  1.00  0.00     0.037 A 
ATOM     53  C   UNL A   1      40.693  27.826  29.393  1.00  0.00     0.037 A 
ATOM     54  C   UNL A   1      47.454  28.609  28.747  1.00  0.00     0.049 A 
ATOM     55  C   UNL A   1      41.777  28.625  30.027  1.00  0.00     0.074 A 
ATOM     56  C   UNL A   1      48.139  27.607  29.407  1.00  0.00     0.029 A 
ATOM     57  N   UNL A   1      46.573  29.129  29.665  1.00  0.00    -0.354 N 
ATOM     58  N   UNL A   1      42.525  28.188  31.004  1.00  0.00    -0.248 NA
ATOM     59  C   UNL A   1      42.329  29.744  29.276  1.00  0.00     0.031 C 
ATOM     60  C   UNL A   1      47.325  27.274  30.530  1.00  0.00     0.029 A 
ATOM     61  C   UNL A   1      46.217  28.122  30.525  1.00  0.00     0.049 A 
ATOM     62  H   UNL A   1      46.254  30.060  29.697  1.00  0.00     0.167 HD
ATOM     63  C   UNL A   1      43.795  28.673  30.727  1.00  0.00     0.074 A 
ATOM     64  C   UNL A   1      43.594  29.697  29.705  1.00  0.00     0.031 C 
ATOM     65  C   UNL A   1      44.913  28.012  31.148  1.00  0.00     0.037 A 
BRANCH  52  66
ATOM     66  C   UNL A   1      47.308  30.391  26.874  1.00  0.00     0.058 A 
ATOM     67  C   UNL A   1      48.526  31.095  26.944  1.00  0.00     0.135 A 
ATOM     68  C   UNL A   1      46.161  31.180  26.630  1.00  0.00     0.135 A 
ATOM     69  F   UNL A   1      49.679  30.446  27.169  1.00  0.00    -0.206 F 
ATOM     70  C   UNL A   1      48.587  32.486  26.876  1.00  0.00     0.059 A 
ATOM     71  C   UNL A   1      46.207  32.562  26.504  1.00  0.00     0.059 A 
ATOM     72  F   UNL A   1      44.924  30.673  26.601  1.00  0.00    -0.206 F 
ATOM     73  C   UNL A   1      47.415  33.211  26.676  1.00  0.00     0.060 A 
BRANCH  73  74
ATOM     74  S   UNL A   1      47.470  35.008  26.719  1.00  0.00     0.124 S 
ATOM     75  O   UNL A   1      46.050  35.339  26.741  1.00  0.00    -0.237 OA
ATOM     76  O   UNL A   1      48.207  35.255  27.953  1.00  0.00    -0.237 OA
ATOM     77  O   UNL A   1      48.181  35.350  25.491  1.00  0.00    -0.744 OA
ENDBRANCH  73  74
ENDBRANCH  52  66
BRANCH  53  78
ATOM     78  C   UNL A   1      39.333  28.380  29.148  1.00  0.00     0.058 A 
ATOM     79  C   UNL A   1      38.421  28.547  30.206  1.00  0.00     0.135 A 
ATOM     80  C   UNL A   1      39.007  29.033  27.942  1.00  0.00     0.135 A 
ATOM     81  F   UNL A   1      38.658  27.975  31.397  1.00  0.00    -0.206 F 
ATOM     82  C   UNL A   1      37.289  29.364  30.098  1.00  0.00     0.059 A 
ATOM     83  C   UNL A   1      37.881  29.844  27.806  1.00  0.00     0.059 A 
ATOM     84  F   UNL A   1      39.825  28.978  26.880  1.00  0.00    -0.206 F 
ATOM     85  C   UNL A   1      37.041  30.030  28.898  1.00  0.00     0.060 A 
BRANCH  85  86
ATOM     86  S   UNL A   1      35.684  31.221  28.807  1.00  0.00     0.124 S 
ATOM     87  O   UNL A   1      36.301  32.329  28.086  1.00  0.00    -0.237 OA
ATOM     88  O   UNL A   1      34.666  30.473  28.076  1.00  0.00    -0.237 OA
ATOM     89  O   UNL A   1      35.371  31.488  30.209  1.00  0.00    -0.744 OA
ENDBRANCH  85  86
ENDBRANCH  53  78
BRANCH  65  90
ATOM     90  C   UNL A   1      44.756  26.934  32.191  1.00  0.00     0.058 A 
ATOM     91  C   UNL A   1      44.670  27.166  33.576  1.00  0.00     0.135 A 
ATOM     92  C   UNL A   1      44.522  25.623  31.747  1.00  0.00     0.135 A 
ATOM     93  F   UNL A   1      44.789  28.404  34.077  1.00  0.00    -0.206 F 
ATOM     94  C   UNL A   1      44.391  26.134  34.478  1.00  0.00     0.059 A 
ATOM     95  C   UNL A   1      44.212  24.588  32.624  1.00  0.00     0.059 A 
ATOM     96  F   UNL A   1      44.534  25.348  30.432  1.00  0.00    -0.206 F 
ATOM     97  C   UNL A   1      44.157  24.848  33.991  1.00  0.00     0.060 A 
BRANCH  97  98
ATOM     98  S   UNL A   1      43.708  23.534  35.146  1.00  0.00     0.124 S 
ATOM     99  O   UNL A   1      42.270  23.409  34.931  1.00  0.00    -0.237 OA
ATOM    100  O   UNL A   1      44.518  22.411  34.678  1.00  0.00    -0.237 OA
ATOM    101  O   UNL A   1      44.099  24.071  36.447  1.00  0.00    -0.744 OA
ENDBRANCH  97  98
ENDBRANCH  65  90
ENDBRANCH  39  40
ENDBRANCH  32  34
ENDBRANCH  31  32
ENDBRANCH  30  31
ENDBRANCH  29  30
ENDBRANCH  28  29
ENDBRANCH   1  28
TORSDOF 21
ENDMDL
MODEL 3
REMARK VINA RESULT:     -11.7      1.982      3.034
REMARK SMILES C[C@H]1CCc2sc3ncn4nc(/C=C\C(=O)OCCOCCOCCOC(=O)c5ccc(-c6c7nc(c(-c8c(F)cc(S(=O)(=O)[O-])cc8F)c8ccc([nH]8)c(-c8c(F)cc(S(=O)(=O)[O-])cc8F)c8nc(c(-c9c(F)cc(S(=O)(=O)[O-])cc9F)c9ccc6[nH]9)C=C8)C=C7)cc5)nc4c3c2C1
REMARK SMILES IDX 22 1 21 2 20 3 19 4 18 5 17 6 15 7 16 8 14 9 13 10 12 11
REMARK SMILES IDX 1 12 2 13 3 14 99 15 4 16 98 17 5 18 97 19 6 20 7 21 96 22
REMARK SMILES IDX 8 23 10 24 95 25 9 26 11 27 23 28 24 29 25 30 26 31 27 32
REMARK SMILES IDX 28 33 29 34 30 35 94 36 31 37 93 38 32 39 33 40 34 41 87 42
REMARK SMILES IDX 35 43 92 44 86 45 88 46 36 47 91 48 85 49 84 50 37 52 71 53
REMARK SMILES IDX 50 54 70 55 51 56 54 57 69 58 89 59 52 60 53 61 68 63 90 64
REMARK SMILES IDX 55 65 38 66 39 67 48 68 40 69 41 70 47 71 49 72 42 73 43 74
REMARK SMILES IDX 44 75 45 76 46 77 72 78 73 79 82 80 74 81 75 82 81 83 83 84
REMARK SMILES IDX 76 85 77 86 78 87 79 88 80 89 56 90 57 91 66 92 58 93 59 94
REMARK SMILES IDX 65 95 67 96 60 97 61 98 62 99 63 100 64 101
REMARK H PARENT 88 51 54 62
REMARK Flexibility Score: inf
ROOT
ATOM      1  C   UNL A   1      40.118  20.633  26.229  1.00  0.00     0.188 C 
ENDROOT
BRANCH   1   2
ATOM      2  C   UNL A   1      39.139  21.833  26.155  1.00  0.00     0.188 C 
BRANCH   2   3
ATOM      3  O   UNL A   1      38.182  21.915  25.105  1.00  0.00    -0.376 OA
BRANCH   3   4
ATOM      4  C   UNL A   1      36.847  22.296  25.423  1.00  0.00     0.202 C 
BRANCH   4   5
ATOM      5  C   UNL A   1      35.800  21.209  25.714  1.00  0.00     0.261 C 
BRANCH   5   6
ATOM      6  O   UNL A   1      34.817  21.078  24.683  1.00  0.00    -0.460 OA
BRANCH   6   7
ATOM      7  C   UNL A   1      34.026  19.987  24.711  1.00  0.00     0.330 C 
ATOM      8  O   UNL A   1      34.380  18.830  24.614  1.00  0.00    -0.247 OA
BRANCH   7   9
ATOM      9  C   UNL A   1      32.645  20.341  25.100  1.00  0.00     0.097 C 
ATOM     10  C   UNL A   1      31.936  21.453  24.854  1.00  0.00     0.058 C 
BRANCH  10  11
ATOM     11  C   UNL A   1      32.269  22.637  24.133  1.00  0.00     0.175 A 
ATOM     12  C   UNL A   1      33.448  28.374  27.521  1.00  0.00     0.008 C 
ATOM     13  C   UNL A   1      32.068  28.222  26.877  1.00  0.00    -0.009 C 
ATOM     14  C   UNL A   1      31.654  29.472  26.070  1.00  0.00     0.009 C 
ATOM     15  C   UNL A   1      32.017  26.941  26.023  1.00  0.00     0.041 C 
ATOM     16  C   UNL A   1      32.475  29.685  24.785  1.00  0.00     0.047 C 
ATOM     17  C   UNL A   1      32.441  27.145  24.610  1.00  0.00    -0.020 A 
ATOM     18  C   UNL A   1      32.630  28.391  24.048  1.00  0.00     0.011 A 
ATOM     19  C   UNL A   1      32.664  26.138  23.650  1.00  0.00     0.060 A 
ATOM     20  S   UNL A   1      33.096  28.311  22.403  1.00  0.00    -0.120 S 
ATOM     21  C   UNL A   1      33.020  26.598  22.393  1.00  0.00     0.129 A 
ATOM     22  C   UNL A   1      32.558  24.675  23.748  1.00  0.00     0.168 A 
ATOM     23  N   UNL A   1      33.280  25.847  21.268  1.00  0.00    -0.225 NA
ATOM     24  N   UNL A   1      32.770  23.962  22.612  1.00  0.00    -0.201 N 
ATOM     25  N   UNL A   1      32.298  23.870  24.743  1.00  0.00    -0.207 NA
ATOM     26  C   UNL A   1      33.139  24.549  21.401  1.00  0.00     0.227 A 
ATOM     27  N   UNL A   1      32.589  22.646  22.823  1.00  0.00    -0.145 NA
ENDBRANCH  10  11
ENDBRANCH   7   9
ENDBRANCH   6   7
ENDBRANCH   5   6
ENDBRANCH   4   5
ENDBRANCH   3   4
ENDBRANCH   2   3
ENDBRANCH   1   2
BRANCH   1  28
ATOM     28  O   UNL A   1      41.428  20.953  26.643  1.00  0.00    -0.376 OA
BRANCH  28  29
ATOM     29  C   UNL A   1      42.420  19.967  26.860  1.00  0.00     0.202 C 
BRANCH  29  30
ATOM     30  C   UNL A   1      42.941  19.013  25.792  1.00  0.00     0.261 C 
BRANCH  30  31
ATOM     31  O   UNL A   1      43.341  19.614  24.580  1.00  0.00    -0.460 OA
BRANCH  31  32
ATOM     32  C   UNL A   1      44.665  19.836  24.518  1.00  0.00     0.338 C 
ATOM     33  O   UNL A   1      45.552  18.988  24.401  1.00  0.00    -0.246 OA
BRANCH  32  34
ATOM     34  C   UNL A   1      44.944  21.247  24.724  1.00  0.00     0.060 A 
ATOM     35  C   UNL A   1      45.758  21.564  25.810  1.00  0.00     0.016 A 
ATOM     36  C   UNL A   1      44.153  22.202  24.066  1.00  0.00     0.016 A 
ATOM     37  C   UNL A   1      45.601  22.800  26.384  1.00  0.00     0.010 A 
ATOM     38  C   UNL A   1      44.000  23.440  24.643  1.00  0.00     0.010 A 
ATOM     39  C   UNL A   1      44.653  23.683  25.845  1.00  0.00    -0.014 A 
BRANCH  39  40
ATOM     40  C   UNL A   1      44.422  24.908  26.574  1.00  0.00     0.031 A 
ATOM     41  C   UNL A   1      45.514  25.883  26.398  1.00  0.00     0.074 A 
ATOM     42  C   UNL A   1      43.333  25.125  27.334  1.00  0.00     0.049 A 
ATOM     43  N   UNL A   1      46.436  26.177  27.250  1.00  0.00    -0.248 NA
ATOM     44  C   UNL A   1      45.732  26.428  25.052  1.00  0.00     0.031 C 
ATOM     45  C   UNL A   1      42.092  24.351  27.410  1.00  0.00     0.029 A 
ATOM     46  N   UNL A   1      43.098  26.164  28.175  1.00  0.00    -0.354 N 
ATOM     47  C   UNL A   1      47.223  27.134  26.626  1.00  0.00     0.074 A 
ATOM     48  C   UNL A   1      46.870  27.100  25.231  1.00  0.00     0.031 C 
ATOM     49  C   UNL A   1      41.160  25.069  28.080  1.00  0.00     0.029 A 
ATOM     50  C   UNL A   1      41.783  26.275  28.603  1.00  0.00     0.049 A 
ATOM     51  H   UNL A   1      43.803  26.789  28.458  1.00  0.00     0.167 HD
ATOM     52  C   UNL A   1      47.911  28.048  27.360  1.00  0.00     0.037 A 
ATOM     53  C   UNL A   1      41.255  27.317  29.294  1.00  0.00     0.037 A 
ATOM     54  C   UNL A   1      48.061  27.611  28.727  1.00  0.00     0.049 A 
ATOM     55  C   UNL A   1      42.391  27.997  29.975  1.00  0.00     0.074 A 
ATOM     56  C   UNL A   1      48.662  26.528  29.339  1.00  0.00     0.029 A 
ATOM     57  N   UNL A   1      47.214  28.150  29.665  1.00  0.00    -0.354 N 
ATOM     58  N   UNL A   1      43.094  27.456  30.932  1.00  0.00    -0.248 NA
ATOM     59  C   UNL A   1      43.033  29.107  29.285  1.00  0.00     0.031 C 
ATOM     60  C   UNL A   1      47.814  26.201  30.439  1.00  0.00     0.029 A 
ATOM     61  C   UNL A   1      46.775  27.131  30.471  1.00  0.00     0.049 A 
ATOM     62  H   UNL A   1      46.967  29.099  29.743  1.00  0.00     0.167 HD
ATOM     63  C   UNL A   1      44.400  27.855  30.687  1.00  0.00     0.074 A 
ATOM     64  C   UNL A   1      44.287  28.942  29.718  1.00  0.00     0.031 C 
ATOM     65  C   UNL A   1      45.460  27.089  31.080  1.00  0.00     0.037 A 
BRANCH  52  66
ATOM     66  C   UNL A   1      48.070  29.491  26.947  1.00  0.00     0.058 A 
ATOM     67  C   UNL A   1      49.343  30.087  27.035  1.00  0.00     0.135 A 
ATOM     68  C   UNL A   1      46.990  30.384  26.761  1.00  0.00     0.135 A 
ATOM     69  F   UNL A   1      50.441  29.334  27.209  1.00  0.00    -0.206 F 
ATOM     70  C   UNL A   1      49.519  31.471  27.038  1.00  0.00     0.059 A 
ATOM     71  C   UNL A   1      47.149  31.762  26.707  1.00  0.00     0.059 A 
ATOM     72  F   UNL A   1      45.715  29.983  26.724  1.00  0.00    -0.206 F 
ATOM     73  C   UNL A   1      48.409  32.299  26.894  1.00  0.00     0.060 A 
BRANCH  73  74
ATOM     74  S   UNL A   1      48.613  34.080  27.028  1.00  0.00     0.124 S 
ATOM     75  O   UNL A   1      49.552  34.181  28.139  1.00  0.00    -0.237 OA
ATOM     76  O   UNL A   1      49.138  34.421  25.710  1.00  0.00    -0.237 OA
ATOM     77  O   UNL A   1      47.259  34.553  27.299  1.00  0.00    -0.744 OA
ENDBRANCH  73  74
ENDBRANCH  52  66
BRANCH  53  78
ATOM     78  C   UNL A   1      39.944  27.985  29.070  1.00  0.00     0.058 A 
ATOM     79  C   UNL A   1      39.031  28.154  30.127  1.00  0.00     0.135 A 
ATOM     80  C   UNL A   1      39.685  28.733  27.903  1.00  0.00     0.135 A 
ATOM     81  F   UNL A   1      39.206  27.494  31.282  1.00  0.00    -0.206 F 
ATOM     82  C   UNL A   1      37.964  29.059  30.058  1.00  0.00     0.059 A 
ATOM     83  C   UNL A   1      38.624  29.633  27.807  1.00  0.00     0.059 A 
ATOM     84  F   UNL A   1      40.513  28.683  26.849  1.00  0.00    -0.206 F 
ATOM     85  C   UNL A   1      37.784  29.814  28.900  1.00  0.00     0.060 A 
BRANCH  85  86
ATOM     86  S   UNL A   1      36.521  31.107  28.869  1.00  0.00     0.124 S 
ATOM     87  O   UNL A   1      35.774  30.830  30.091  1.00  0.00    -0.237 OA
ATOM     88  O   UNL A   1      37.326  32.324  28.876  1.00  0.00    -0.237 OA
ATOM     89  O   UNL A   1      35.798  30.848  27.626  1.00  0.00    -0.744 OA
ENDBRANCH  85  86
ENDBRANCH  53  78
BRANCH  65  90
ATOM     90  C   UNL A   1      45.211  25.975  32.066  1.00  0.00     0.058 A 
ATOM     91  C   UNL A   1      44.783  24.681  31.720  1.00  0.00     0.135 A 
ATOM     92  C   UNL A   1      45.579  26.191  33.403  1.00  0.00     0.135 A 
ATOM     93  F   UNL A   1      44.500  24.365  30.448  1.00  0.00    -0.206 F 
ATOM     94  C   UNL A   1      44.698  23.657  32.668  1.00  0.00     0.059 A 
ATOM     95  C   UNL A   1      45.534  25.178  34.356  1.00  0.00     0.059 A 
ATOM     96  F   UNL A   1      46.050  27.390  33.785  1.00  0.00    -0.206 F 
ATOM     97  C   UNL A   1      45.083  23.914  33.984  1.00  0.00     0.060 A 
BRANCH  97  98
ATOM     98  S   UNL A   1      45.061  22.569  35.191  1.00  0.00     0.124 S 
ATOM     99  O   UNL A   1      46.463  22.166  35.232  1.00  0.00    -0.237 OA
ATOM    100  O   UNL A   1      44.556  23.230  36.392  1.00  0.00    -0.237 OA
ATOM    101  O   UNL A   1      44.149  21.592  34.599  1.00  0.00    -0.744 OA
ENDBRANCH  97  98
ENDBRANCH  65  90
ENDBRANCH  39  40
ENDBRANCH  32  34
ENDBRANCH  31  32
ENDBRANCH  30  31
ENDBRANCH  29  30
ENDBRANCH  28  29
ENDBRANCH   1  28
TORSDOF 21
ENDMDL
