MODEL 1
REMARK VINA RESULT:     -10.4      0.000      0.000
REMARK SMILES C[C@H]1CCC[C@H](C)N1C(=O)[C@H]1[C@@H](C(=O)OCCOCCOCCOC(=O)c2ccc(-c3c4nc(c(-c5c(F)cc(S(=O)(=O)[O-])cc5F)c5ccc([nH]5)c(-c5c(F)cc(S(=O)(=O)[O-])cc5F)c5nc(c(-c6c(F)cc(S(=O)(=O)[O-])cc6F)c6ccc3[nH]6)C=C5)C=C4)cc2)[C@H]2CC[C@@H]1O2
REMARK SMILES IDX 20 1 19 2 18 3 17 4 16 5 15 6 13 7 14 8 12 9 11 10 96 11
REMARK SMILES IDX 93 12 95 13 97 14 94 15 9 16 1 17 2 18 3 19 8 20 4 21 6 22
REMARK SMILES IDX 5 23 7 24 10 25 21 26 22 27 23 28 24 29 25 30 26 31 27 32
REMARK SMILES IDX 28 33 92 34 29 35 91 36 30 37 31 38 32 39 85 40 33 41 90 42
REMARK SMILES IDX 84 43 86 44 34 45 89 46 83 47 82 48 35 50 69 51 48 52 68 53
REMARK SMILES IDX 49 54 52 55 67 56 87 57 50 58 51 59 66 61 88 62 53 63 36 64
REMARK SMILES IDX 37 65 46 66 38 67 39 68 45 69 47 70 40 71 41 72 42 73 43 74
REMARK SMILES IDX 44 75 70 76 71 77 80 78 72 79 73 80 79 81 81 82 74 83 75 84
REMARK SMILES IDX 76 85 77 86 78 87 54 88 55 89 64 90 56 91 57 92 63 93 65 94
REMARK SMILES IDX 58 95 59 96 60 97 61 98 62 99
REMARK H PARENT 86 49 52 60
REMARK Flexibility Score: inf
ROOT
ATOM      1  C   UNL A   1      34.361  33.570  28.774  1.00  0.00     0.188 C 
ENDROOT
BRANCH   1   2
ATOM      2  C   UNL A   1      33.728  32.724  27.663  1.00  0.00     0.188 C 
BRANCH   2   3
ATOM      3  O   UNL A   1      33.483  31.373  28.037  1.00  0.00    -0.376 OA
BRANCH   3   4
ATOM      4  C   UNL A   1      33.034  30.506  27.003  1.00  0.00     0.202 C 
BRANCH   4   5
ATOM      5  C   UNL A   1      32.914  29.022  27.412  1.00  0.00     0.261 C 
BRANCH   5   6
ATOM      6  O   UNL A   1      33.065  27.958  26.426  1.00  0.00    -0.463 OA
BRANCH   6   7
ATOM      7  C   UNL A   1      32.031  27.176  26.062  1.00  0.00     0.312 C 
ATOM      8  O   UNL A   1      31.447  26.395  26.803  1.00  0.00    -0.252 OA
BRANCH   7   9
ATOM      9  C   UNL A   1      31.589  27.320  24.631  1.00  0.00     0.143 C 
ATOM     10  C   UNL A   1      32.084  26.242  23.660  1.00  0.00     0.124 C 
ATOM     11  C   UNL A   1      32.409  27.102  22.423  1.00  0.00     0.132 C 
ATOM     12  C   UNL A   1      31.746  28.622  23.847  1.00  0.00     0.133 C 
ATOM     13  C   UNL A   1      33.625  28.014  22.521  1.00  0.00     0.035 C 
ATOM     14  O   UNL A   1      31.350  28.115  22.533  1.00  0.00    -0.373 OA
ATOM     15  C   UNL A   1      33.143  29.101  23.477  1.00  0.00     0.036 C 
BRANCH  10  16
ATOM     16  C   UNL A   1      33.157  25.314  24.222  1.00  0.00     0.229 C 
ATOM     17  C   UNL A   1      30.688  23.564  23.205  1.00  0.00     0.031 C 
ATOM     18  C   UNL A   1      31.726  23.101  24.224  1.00  0.00     0.082 C 
ATOM     19  C   UNL A   1      32.331  21.792  23.666  1.00  0.00     0.025 C 
ATOM     20  N   UNL A   1      32.835  24.017  24.649  1.00  0.00    -0.337 N 
ATOM     21  C   UNL A   1      33.299  21.123  24.632  1.00  0.00     0.004 C 
ATOM     22  C   UNL A   1      33.772  23.398  25.630  1.00  0.00     0.082 C 
ATOM     23  C   UNL A   1      34.376  22.104  25.079  1.00  0.00     0.025 C 
ATOM     24  C   UNL A   1      33.113  23.141  26.992  1.00  0.00     0.031 C 
ATOM     25  O   UNL A   1      34.298  25.758  24.385  1.00  0.00    -0.274 OA
ENDBRANCH  10  16
ENDBRANCH   7   9
ENDBRANCH   6   7
ENDBRANCH   5   6
ENDBRANCH   4   5
ENDBRANCH   3   4
ENDBRANCH   2   3
ENDBRANCH   1   2
BRANCH   1  26
ATOM     26  O   UNL A   1      33.893  33.423  30.109  1.00  0.00    -0.376 OA
BRANCH  26  27
ATOM     27  C   UNL A   1      34.821  32.976  31.087  1.00  0.00     0.202 C 
BRANCH  27  28
ATOM     28  C   UNL A   1      36.084  32.284  30.565  1.00  0.00     0.261 C 
BRANCH  28  29
ATOM     29  O   UNL A   1      36.198  30.916  30.991  1.00  0.00    -0.460 OA
BRANCH  29  30
ATOM     30  C   UNL A   1      36.481  30.030  30.001  1.00  0.00     0.338 C 
ATOM     31  O   UNL A   1      35.679  29.484  29.258  1.00  0.00    -0.246 OA
BRANCH  30  32
ATOM     32  C   UNL A   1      37.946  29.981  29.773  1.00  0.00     0.060 A 
ATOM     33  C   UNL A   1      38.398  30.052  28.445  1.00  0.00     0.016 A 
ATOM     34  C   UNL A   1      38.861  29.870  30.821  1.00  0.00     0.016 A 
ATOM     35  C   UNL A   1      39.758  29.949  28.155  1.00  0.00     0.010 A 
ATOM     36  C   UNL A   1      40.223  29.728  30.528  1.00  0.00     0.010 A 
ATOM     37  C   UNL A   1      40.667  29.715  29.193  1.00  0.00    -0.014 A 
BRANCH  37  38
ATOM     38  C   UNL A   1      41.994  29.138  28.866  1.00  0.00     0.031 A 
ATOM     39  C   UNL A   1      43.181  30.066  28.941  1.00  0.00     0.074 A 
ATOM     40  C   UNL A   1      42.164  27.842  28.548  1.00  0.00     0.049 A 
ATOM     41  N   UNL A   1      44.431  29.846  28.632  1.00  0.00    -0.248 NA
ATOM     42  C   UNL A   1      42.915  31.428  29.438  1.00  0.00     0.031 C 
ATOM     43  C   UNL A   1      41.114  26.827  28.515  1.00  0.00     0.029 A 
ATOM     44  N   UNL A   1      43.301  27.162  28.187  1.00  0.00    -0.354 N 
ATOM     45  C   UNL A   1      45.099  31.035  28.903  1.00  0.00     0.074 A 
ATOM     46  C   UNL A   1      44.115  31.983  29.374  1.00  0.00     0.031 C 
ATOM     47  C   UNL A   1      41.654  25.654  28.135  1.00  0.00     0.029 A 
ATOM     48  C   UNL A   1      43.081  25.843  27.868  1.00  0.00     0.049 A 
ATOM     49  H   UNL A   1      44.192  27.580  28.160  1.00  0.00     0.167 HD
ATOM     50  C   UNL A   1      46.415  31.316  28.777  1.00  0.00     0.037 A 
ATOM     51  C   UNL A   1      43.932  24.910  27.392  1.00  0.00     0.037 A 
ATOM     52  C   UNL A   1      47.392  30.385  28.289  1.00  0.00     0.049 A 
ATOM     53  C   UNL A   1      45.377  25.280  27.153  1.00  0.00     0.074 A 
ATOM     54  C   UNL A   1      48.744  30.586  28.077  1.00  0.00     0.029 A 
ATOM     55  N   UNL A   1      47.119  29.073  27.936  1.00  0.00    -0.354 N 
ATOM     56  N   UNL A   1      45.990  26.417  27.387  1.00  0.00    -0.248 NA
ATOM     57  C   UNL A   1      46.245  24.240  26.580  1.00  0.00     0.031 C 
ATOM     58  C   UNL A   1      49.285  29.401  27.565  1.00  0.00     0.029 A 
ATOM     59  C   UNL A   1      48.276  28.453  27.499  1.00  0.00     0.049 A 
ATOM     60  H   UNL A   1      46.234  28.645  27.988  1.00  0.00     0.167 HD
ATOM     61  C   UNL A   1      47.318  26.216  27.020  1.00  0.00     0.074 A 
ATOM     62  C   UNL A   1      47.423  24.850  26.555  1.00  0.00     0.031 C 
ATOM     63  C   UNL A   1      48.361  27.082  27.063  1.00  0.00     0.037 A 
BRANCH  50  64
ATOM     64  C   UNL A   1      46.862  32.698  29.154  1.00  0.00     0.058 A 
ATOM     65  C   UNL A   1      47.387  32.975  30.427  1.00  0.00     0.135 A 
ATOM     66  C   UNL A   1      46.779  33.753  28.232  1.00  0.00     0.135 A 
ATOM     67  F   UNL A   1      47.458  32.006  31.354  1.00  0.00    -0.206 F 
ATOM     68  C   UNL A   1      47.800  34.255  30.777  1.00  0.00     0.059 A 
ATOM     69  C   UNL A   1      47.208  35.035  28.554  1.00  0.00     0.059 A 
ATOM     70  F   UNL A   1      46.272  33.541  27.008  1.00  0.00    -0.206 F 
ATOM     71  C   UNL A   1      47.708  35.278  29.833  1.00  0.00     0.060 A 
BRANCH  71  72
ATOM     72  S   UNL A   1      48.265  36.932  30.297  1.00  0.00     0.124 S 
ATOM     73  O   UNL A   1      49.604  36.655  30.807  1.00  0.00    -0.237 OA
ATOM     74  O   UNL A   1      48.205  37.650  29.028  1.00  0.00    -0.237 OA
ATOM     75  O   UNL A   1      47.287  37.351  31.297  1.00  0.00    -0.744 OA
ENDBRANCH  71  72
ENDBRANCH  50  64
BRANCH  51  76
ATOM     76  C   UNL A   1      43.452  23.538  27.069  1.00  0.00     0.058 A 
ATOM     77  C   UNL A   1      43.257  22.582  28.076  1.00  0.00     0.135 A 
ATOM     78  C   UNL A   1      43.240  23.137  25.741  1.00  0.00     0.135 A 
ATOM     79  F   UNL A   1      43.464  22.911  29.361  1.00  0.00    -0.206 F 
ATOM     80  C   UNL A   1      42.897  21.271  27.780  1.00  0.00     0.059 A 
ATOM     81  C   UNL A   1      42.856  21.839  25.420  1.00  0.00     0.059 A 
ATOM     82  F   UNL A   1      43.408  24.014  24.738  1.00  0.00    -0.206 F 
ATOM     83  C   UNL A   1      42.703  20.908  26.446  1.00  0.00     0.060 A 
BRANCH  83  84
ATOM     84  S   UNL A   1      42.223  19.208  26.067  1.00  0.00     0.124 S 
ATOM     85  O   UNL A   1      40.785  19.347  25.869  1.00  0.00    -0.237 OA
ATOM     86  O   UNL A   1      43.008  18.925  24.869  1.00  0.00    -0.237 OA
ATOM     87  O   UNL A   1      42.630  18.473  27.261  1.00  0.00    -0.744 OA
ENDBRANCH  83  84
ENDBRANCH  51  76
BRANCH  63  88
ATOM     88  C   UNL A   1      49.712  26.572  26.649  1.00  0.00     0.058 A 
ATOM     89  C   UNL A   1      50.596  25.993  27.571  1.00  0.00     0.135 A 
ATOM     90  C   UNL A   1      50.097  26.605  25.299  1.00  0.00     0.135 A 
ATOM     91  F   UNL A   1      50.276  25.939  28.873  1.00  0.00    -0.206 F 
ATOM     92  C   UNL A   1      51.826  25.479  27.171  1.00  0.00     0.059 A 
ATOM     93  C   UNL A   1      51.311  26.075  24.873  1.00  0.00     0.059 A 
ATOM     94  F   UNL A   1      49.280  27.137  24.376  1.00  0.00    -0.206 F 
ATOM     95  C   UNL A   1      52.174  25.524  25.819  1.00  0.00     0.060 A 
BRANCH  95  96
ATOM     96  S   UNL A   1      53.755  24.819  25.307  1.00  0.00     0.124 S 
ATOM     97  O   UNL A   1      54.082  25.642  24.148  1.00  0.00    -0.237 OA
ATOM     98  O   UNL A   1      54.590  25.026  26.487  1.00  0.00    -0.237 OA
ATOM     99  O   UNL A   1      53.427  23.426  25.016  1.00  0.00    -0.744 OA
ENDBRANCH  95  96
ENDBRANCH  63  88
ENDBRANCH  37  38
ENDBRANCH  30  32
ENDBRANCH  29  30
ENDBRANCH  28  29
ENDBRANCH  27  28
ENDBRANCH  26  27
ENDBRANCH   1  26
TORSDOF 21
ENDMDL
MODEL 2
REMARK VINA RESULT:     -10.3      1.468      2.504
REMARK SMILES C[C@H]1CCC[C@H](C)N1C(=O)[C@H]1[C@@H](C(=O)OCCOCCOCCOC(=O)c2ccc(-c3c4nc(c(-c5c(F)cc(S(=O)(=O)[O-])cc5F)c5ccc([nH]5)c(-c5c(F)cc(S(=O)(=O)[O-])cc5F)c5nc(c(-c6c(F)cc(S(=O)(=O)[O-])cc6F)c6ccc3[nH]6)C=C5)C=C4)cc2)[C@H]2CC[C@@H]1O2
REMARK SMILES IDX 20 1 19 2 18 3 17 4 16 5 15 6 13 7 14 8 12 9 11 10 96 11
REMARK SMILES IDX 93 12 95 13 97 14 94 15 9 16 1 17 2 18 3 19 8 20 4 21 6 22
REMARK SMILES IDX 5 23 7 24 10 25 21 26 22 27 23 28 24 29 25 30 26 31 27 32
REMARK SMILES IDX 28 33 92 34 29 35 91 36 30 37 31 38 32 39 85 40 33 41 90 42
REMARK SMILES IDX 84 43 86 44 34 45 89 46 83 47 82 48 35 50 69 51 48 52 68 53
REMARK SMILES IDX 49 54 52 55 67 56 87 57 50 58 51 59 66 61 88 62 53 63 36 64
REMARK SMILES IDX 37 65 46 66 38 67 39 68 45 69 47 70 40 71 41 72 42 73 43 74
REMARK SMILES IDX 44 75 70 76 71 77 80 78 72 79 73 80 79 81 81 82 74 83 75 84
REMARK SMILES IDX 76 85 77 86 78 87 54 88 55 89 64 90 56 91 57 92 63 93 65 94
REMARK SMILES IDX 58 95 59 96 60 97 61 98 62 99
REMARK H PARENT 86 49 52 60
REMARK Flexibility Score: inf
ROOT
ATOM      1  C   UNL A   1      34.833  31.586  27.651  1.00  0.00     0.188 C 
ENDROOT
BRANCH   1   2
ATOM      2  C   UNL A   1      34.882  30.059  27.775  1.00  0.00     0.188 C 
BRANCH   2   3
ATOM      3  O   UNL A   1      33.734  29.402  27.251  1.00  0.00    -0.376 OA
BRANCH   3   4
ATOM      4  C   UNL A   1      33.960  28.510  26.167  1.00  0.00     0.202 C 
BRANCH   4   5
ATOM      5  C   UNL A   1      33.055  27.259  26.160  1.00  0.00     0.261 C 
BRANCH   5   6
ATOM      6  O   UNL A   1      33.506  26.010  25.558  1.00  0.00    -0.463 OA
BRANCH   6   7
ATOM      7  C   UNL A   1      33.022  24.817  25.952  1.00  0.00     0.312 C 
ATOM      8  O   UNL A   1      33.355  24.227  26.973  1.00  0.00    -0.252 OA
BRANCH   7   9
ATOM      9  C   UNL A   1      31.988  24.211  25.043  1.00  0.00     0.143 C 
ATOM     10  C   UNL A   1      32.519  23.315  23.918  1.00  0.00     0.124 C 
ATOM     11  C   UNL A   1      31.598  23.740  22.759  1.00  0.00     0.132 C 
ATOM     12  C   UNL A   1      30.896  25.041  24.369  1.00  0.00     0.133 C 
ATOM     13  C   UNL A   1      31.820  25.131  22.179  1.00  0.00     0.035 C 
ATOM     14  O   UNL A   1      30.356  23.994  23.501  1.00  0.00    -0.373 OA
ATOM     15  C   UNL A   1      31.284  26.035  23.284  1.00  0.00     0.036 C 
BRANCH  10  16
ATOM     16  C   UNL A   1      34.032  23.360  23.721  1.00  0.00     0.229 C 
ATOM     17  C   UNL A   1      33.269  20.733  25.367  1.00  0.00     0.031 C 
ATOM     18  C   UNL A   1      34.647  21.389  25.358  1.00  0.00     0.082 C 
ATOM     19  C   UNL A   1      35.646  20.298  24.908  1.00  0.00     0.025 C 
ATOM     20  N   UNL A   1      34.889  22.638  24.565  1.00  0.00    -0.337 N 
ATOM     21  C   UNL A   1      37.097  20.754  24.972  1.00  0.00     0.004 C 
ATOM     22  C   UNL A   1      36.295  23.130  24.647  1.00  0.00     0.082 C 
ATOM     23  C   UNL A   1      37.286  22.054  24.198  1.00  0.00     0.025 C 
ATOM     24  C   UNL A   1      36.659  23.640  26.048  1.00  0.00     0.031 C 
ATOM     25  O   UNL A   1      34.495  24.120  22.864  1.00  0.00    -0.274 OA
ENDBRANCH  10  16
ENDBRANCH   7   9
ENDBRANCH   6   7
ENDBRANCH   5   6
ENDBRANCH   4   5
ENDBRANCH   3   4
ENDBRANCH   2   3
ENDBRANCH   1   2
BRANCH   1  26
ATOM     26  O   UNL A   1      33.996  32.327  28.531  1.00  0.00    -0.376 OA
BRANCH  26  27
ATOM     27  C   UNL A   1      34.577  33.421  29.226  1.00  0.00     0.202 C 
BRANCH  27  28
ATOM     28  C   UNL A   1      34.803  33.233  30.730  1.00  0.00     0.261 C 
BRANCH  28  29
ATOM     29  O   UNL A   1      35.607  32.084  31.044  1.00  0.00    -0.460 OA
BRANCH  29  30
ATOM     30  C   UNL A   1      36.848  32.367  31.516  1.00  0.00     0.338 C 
ATOM     31  O   UNL A   1      37.124  33.111  32.445  1.00  0.00    -0.246 OA
BRANCH  30  32
ATOM     32  C   UNL A   1      37.843  31.458  30.896  1.00  0.00     0.060 A 
ATOM     33  C   UNL A   1      38.666  30.712  31.758  1.00  0.00     0.016 A 
ATOM     34  C   UNL A   1      37.976  31.328  29.513  1.00  0.00     0.016 A 
ATOM     35  C   UNL A   1      39.662  29.886  31.243  1.00  0.00     0.010 A 
ATOM     36  C   UNL A   1      39.002  30.528  28.996  1.00  0.00     0.010 A 
ATOM     37  C   UNL A   1      39.879  29.846  29.860  1.00  0.00    -0.014 A 
BRANCH  37  38
ATOM     38  C   UNL A   1      41.192  29.377  29.355  1.00  0.00     0.031 A 
ATOM     39  C   UNL A   1      42.306  30.393  29.298  1.00  0.00     0.074 A 
ATOM     40  C   UNL A   1      41.416  28.102  28.991  1.00  0.00     0.049 A 
ATOM     41  N   UNL A   1      43.519  30.273  28.828  1.00  0.00    -0.248 NA
ATOM     42  C   UNL A   1      42.005  31.724  29.853  1.00  0.00     0.031 C 
ATOM     43  C   UNL A   1      40.449  27.009  29.070  1.00  0.00     0.029 A 
ATOM     44  N   UNL A   1      42.545  27.515  28.473  1.00  0.00    -0.354 N 
ATOM     45  C   UNL A   1      44.125  31.507  29.037  1.00  0.00     0.074 A 
ATOM     46  C   UNL A   1      43.142  32.371  29.649  1.00  0.00     0.031 C 
ATOM     47  C   UNL A   1      41.023  25.886  28.600  1.00  0.00     0.029 A 
ATOM     48  C   UNL A   1      42.385  26.187  28.158  1.00  0.00     0.049 A 
ATOM     49  H   UNL A   1      43.391  28.001  28.342  1.00  0.00     0.167 HD
ATOM     50  C   UNL A   1      45.389  31.890  28.750  1.00  0.00     0.037 A 
ATOM     51  C   UNL A   1      43.235  25.328  27.557  1.00  0.00     0.037 A 
ATOM     52  C   UNL A   1      46.362  31.043  28.121  1.00  0.00     0.049 A 
ATOM     53  C   UNL A   1      44.606  25.811  27.144  1.00  0.00     0.074 A 
ATOM     54  C   UNL A   1      47.656  31.349  27.743  1.00  0.00     0.029 A 
ATOM     55  N   UNL A   1      46.145  29.718  27.778  1.00  0.00    -0.354 N 
ATOM     56  N   UNL A   1      45.157  26.989  27.322  1.00  0.00    -0.248 NA
ATOM     57  C   UNL A   1      45.469  24.847  26.443  1.00  0.00     0.031 C 
ATOM     58  C   UNL A   1      48.214  30.216  27.142  1.00  0.00     0.029 A 
ATOM     59  C   UNL A   1      47.279  29.194  27.185  1.00  0.00     0.049 A 
ATOM     60  H   UNL A   1      45.309  29.223  27.934  1.00  0.00     0.167 HD
ATOM     61  C   UNL A   1      46.438  26.895  26.784  1.00  0.00     0.074 A 
ATOM     62  C   UNL A   1      46.584  25.546  26.281  1.00  0.00     0.031 C 
ATOM     63  C   UNL A   1      47.410  27.838  26.713  1.00  0.00     0.037 A 
BRANCH  50  64
ATOM     64  C   UNL A   1      45.776  33.298  29.096  1.00  0.00     0.058 A 
ATOM     65  C   UNL A   1      45.570  34.355  28.194  1.00  0.00     0.135 A 
ATOM     66  C   UNL A   1      46.344  33.598  30.343  1.00  0.00     0.135 A 
ATOM     67  F   UNL A   1      45.058  34.114  26.976  1.00  0.00    -0.206 F 
ATOM     68  C   UNL A   1      45.929  35.659  28.513  1.00  0.00     0.059 A 
ATOM     69  C   UNL A   1      46.689  34.899  30.691  1.00  0.00     0.059 A 
ATOM     70  F   UNL A   1      46.573  32.620  31.233  1.00  0.00    -0.206 F 
ATOM     71  C   UNL A   1      46.487  35.922  29.765  1.00  0.00     0.060 A 
BRANCH  71  72
ATOM     72  S   UNL A   1      46.932  37.623  30.172  1.00  0.00     0.124 S 
ATOM     73  O   UNL A   1      46.476  37.720  31.555  1.00  0.00    -0.237 OA
ATOM     74  O   UNL A   1      48.378  37.623  29.979  1.00  0.00    -0.237 OA
ATOM     75  O   UNL A   1      46.174  38.412  29.205  1.00  0.00    -0.744 OA
ENDBRANCH  71  72
ENDBRANCH  50  64
BRANCH  51  76
ATOM     76  C   UNL A   1      42.822  23.927  27.268  1.00  0.00     0.058 A 
ATOM     77  C   UNL A   1      42.779  22.960  28.284  1.00  0.00     0.135 A 
ATOM     78  C   UNL A   1      42.523  23.512  25.961  1.00  0.00     0.135 A 
ATOM     79  F   UNL A   1      43.073  23.302  29.548  1.00  0.00    -0.206 F 
ATOM     80  C   UNL A   1      42.483  21.628  28.012  1.00  0.00     0.059 A 
ATOM     81  C   UNL A   1      42.201  22.191  25.668  1.00  0.00     0.059 A 
ATOM     82  F   UNL A   1      42.545  24.398  24.953  1.00  0.00    -0.206 F 
ATOM     83  C   UNL A   1      42.200  21.252  26.698  1.00  0.00     0.060 A 
BRANCH  83  84
ATOM     84  S   UNL A   1      41.803  19.524  26.351  1.00  0.00     0.124 S 
ATOM     85  O   UNL A   1      42.316  18.861  27.545  1.00  0.00    -0.237 OA
ATOM     86  O   UNL A   1      40.350  19.561  26.214  1.00  0.00    -0.237 OA
ATOM     87  O   UNL A   1      42.533  19.257  25.115  1.00  0.00    -0.744 OA
ENDBRANCH  83  84
ENDBRANCH  51  76
BRANCH  63  88
ATOM     88  C   UNL A   1      48.731  27.439  26.119  1.00  0.00     0.058 A 
ATOM     89  C   UNL A   1      48.961  27.482  24.736  1.00  0.00     0.135 A 
ATOM     90  C   UNL A   1      49.800  27.072  26.953  1.00  0.00     0.135 A 
ATOM     91  F   UNL A   1      47.972  27.825  23.896  1.00  0.00    -0.206 F 
ATOM     92  C   UNL A   1      50.203  27.157  24.198  1.00  0.00     0.059 A 
ATOM     93  C   UNL A   1      51.056  26.767  26.438  1.00  0.00     0.059 A 
ATOM     94  F   UNL A   1      49.634  27.029  28.284  1.00  0.00    -0.206 F 
ATOM     95  C   UNL A   1      51.244  26.802  25.057  1.00  0.00     0.060 A 
BRANCH  95  96
ATOM     96  S   UNL A   1      52.861  26.420  24.350  1.00  0.00     0.124 S 
ATOM     97  O   UNL A   1      53.074  25.057  24.824  1.00  0.00    -0.237 OA
ATOM     98  O   UNL A   1      52.620  26.563  22.917  1.00  0.00    -0.237 OA
ATOM     99  O   UNL A   1      53.734  27.433  24.936  1.00  0.00    -0.744 OA
ENDBRANCH  95  96
ENDBRANCH  63  88
ENDBRANCH  37  38
ENDBRANCH  30  32
ENDBRANCH  29  30
ENDBRANCH  28  29
ENDBRANCH  27  28
ENDBRANCH  26  27
ENDBRANCH   1  26
TORSDOF 21
ENDMDL
MODEL 3
REMARK VINA RESULT:     -10.2      6.054     11.576
REMARK SMILES C[C@H]1CCC[C@H](C)N1C(=O)[C@H]1[C@@H](C(=O)OCCOCCOCCOC(=O)c2ccc(-c3c4nc(c(-c5c(F)cc(S(=O)(=O)[O-])cc5F)c5ccc([nH]5)c(-c5c(F)cc(S(=O)(=O)[O-])cc5F)c5nc(c(-c6c(F)cc(S(=O)(=O)[O-])cc6F)c6ccc3[nH]6)C=C5)C=C4)cc2)[C@H]2CC[C@@H]1O2
REMARK SMILES IDX 20 1 19 2 18 3 17 4 16 5 15 6 13 7 14 8 12 9 11 10 96 11
REMARK SMILES IDX 93 12 95 13 97 14 94 15 9 16 1 17 2 18 3 19 8 20 4 21 6 22
REMARK SMILES IDX 5 23 7 24 10 25 21 26 22 27 23 28 24 29 25 30 26 31 27 32
REMARK SMILES IDX 28 33 92 34 29 35 91 36 30 37 31 38 32 39 85 40 33 41 90 42
REMARK SMILES IDX 84 43 86 44 34 45 89 46 83 47 82 48 35 50 69 51 48 52 68 53
REMARK SMILES IDX 49 54 52 55 67 56 87 57 50 58 51 59 66 61 88 62 53 63 36 64
REMARK SMILES IDX 37 65 46 66 38 67 39 68 45 69 47 70 40 71 41 72 42 73 43 74
REMARK SMILES IDX 44 75 70 76 71 77 80 78 72 79 73 80 79 81 81 82 74 83 75 84
REMARK SMILES IDX 76 85 77 86 78 87 54 88 55 89 64 90 56 91 57 92 63 93 65 94
REMARK SMILES IDX 58 95 59 96 60 97 61 98 62 99
REMARK H PARENT 86 49 52 60
REMARK Flexibility Score: inf
ROOT
ATOM      1  C   UNL A   1      40.180  20.857  26.311  1.00  0.00     0.188 C 
ENDROOT
BRANCH   1   2
ATOM      2  C   UNL A   1      39.414  22.183  26.396  1.00  0.00     0.188 C 
BRANCH   2   3
ATOM      3  O   UNL A   1      38.140  22.153  25.765  1.00  0.00    -0.376 OA
BRANCH   3   4
ATOM      4  C   UNL A   1      37.480  23.404  25.619  1.00  0.00     0.202 C 
BRANCH   4   5
ATOM      5  C   UNL A   1      36.678  23.563  24.310  1.00  0.00     0.261 C 
BRANCH   5   6
ATOM      6  O   UNL A   1      35.668  22.583  23.925  1.00  0.00    -0.463 OA
BRANCH   6   7
ATOM      7  C   UNL A   1      34.520  22.946  23.323  1.00  0.00     0.312 C 
ATOM      8  O   UNL A   1      34.429  23.784  22.433  1.00  0.00    -0.252 OA
BRANCH   7   9
ATOM      9  C   UNL A   1      33.288  22.231  23.803  1.00  0.00     0.143 C 
ATOM     10  C   UNL A   1      32.349  23.035  24.710  1.00  0.00     0.124 C 
ATOM     11  C   UNL A   1      31.957  21.959  25.739  1.00  0.00     0.132 C 
ATOM     12  C   UNL A   1      33.339  20.851  24.458  1.00  0.00     0.133 C 
ATOM     13  C   UNL A   1      33.037  21.521  26.720  1.00  0.00     0.035 C 
ATOM     14  O   UNL A   1      31.938  20.773  24.872  1.00  0.00    -0.373 OA
ATOM     15  C   UNL A   1      33.974  20.707  25.834  1.00  0.00     0.036 C 
BRANCH  10  16
ATOM     16  C   UNL A   1      32.915  24.364  25.202  1.00  0.00     0.229 C 
ATOM     17  C   UNL A   1      30.146  24.897  23.706  1.00  0.00     0.031 C 
ATOM     18  C   UNL A   1      31.234  25.944  23.928  1.00  0.00     0.082 C 
ATOM     19  C   UNL A   1      30.564  27.119  24.677  1.00  0.00     0.025 C 
ATOM     20  N   UNL A   1      32.510  25.577  24.625  1.00  0.00    -0.337 N 
ATOM     21  C   UNL A   1      31.488  28.314  24.862  1.00  0.00     0.004 C 
ATOM     22  C   UNL A   1      33.452  26.723  24.780  1.00  0.00     0.082 C 
ATOM     23  C   UNL A   1      32.793  27.886  25.524  1.00  0.00     0.025 C 
ATOM     24  C   UNL A   1      34.021  27.203  23.437  1.00  0.00     0.031 C 
ATOM     25  O   UNL A   1      33.809  24.347  26.055  1.00  0.00    -0.274 OA
ENDBRANCH  10  16
ENDBRANCH   7   9
ENDBRANCH   6   7
ENDBRANCH   5   6
ENDBRANCH   4   5
ENDBRANCH   3   4
ENDBRANCH   2   3
ENDBRANCH   1   2
BRANCH   1  26
ATOM     26  O   UNL A   1      41.598  20.881  26.211  1.00  0.00    -0.376 OA
BRANCH  26  27
ATOM     27  C   UNL A   1      42.278  21.995  26.772  1.00  0.00     0.202 C 
BRANCH  27  28
ATOM     28  C   UNL A   1      42.938  22.962  25.784  1.00  0.00     0.261 C 
BRANCH  28  29
ATOM     29  O   UNL A   1      42.282  24.239  25.717  1.00  0.00    -0.460 OA
BRANCH  29  30
ATOM     30  C   UNL A   1      43.081  25.306  25.978  1.00  0.00     0.338 C 
ATOM     31  O   UNL A   1      44.080  25.639  25.358  1.00  0.00    -0.246 OA
BRANCH  30  32
ATOM     32  C   UNL A   1      42.443  26.176  26.996  1.00  0.00     0.060 A 
ATOM     33  C   UNL A   1      42.917  27.494  27.112  1.00  0.00     0.016 A 
ATOM     34  C   UNL A   1      41.410  25.727  27.820  1.00  0.00     0.016 A 
ATOM     35  C   UNL A   1      42.406  28.345  28.090  1.00  0.00     0.010 A 
ATOM     36  C   UNL A   1      40.923  26.569  28.827  1.00  0.00     0.010 A 
ATOM     37  C   UNL A   1      41.456  27.860  28.997  1.00  0.00    -0.014 A 
BRANCH  37  38
ATOM     38  C   UNL A   1      41.273  28.567  30.288  1.00  0.00     0.031 A 
ATOM     39  C   UNL A   1      40.177  29.601  30.353  1.00  0.00     0.074 A 
ATOM     40  C   UNL A   1      42.013  28.292  31.378  1.00  0.00     0.049 A 
ATOM     41  N   UNL A   1      39.855  30.414  31.323  1.00  0.00    -0.248 NA
ATOM     42  C   UNL A   1      39.326  29.727  29.156  1.00  0.00     0.031 C 
ATOM     43  C   UNL A   1      43.049  27.266  31.469  1.00  0.00     0.029 A 
ATOM     44  N   UNL A   1      42.001  28.869  32.623  1.00  0.00    -0.354 N 
ATOM     45  C   UNL A   1      38.765  31.141  30.857  1.00  0.00     0.074 A 
ATOM     46  C   UNL A   1      38.496  30.695  29.510  1.00  0.00     0.031 C 
ATOM     47  C   UNL A   1      43.585  27.298  32.703  1.00  0.00     0.029 A 
ATOM     48  C   UNL A   1      42.954  28.367  33.477  1.00  0.00     0.049 A 
ATOM     49  H   UNL A   1      41.367  29.577  32.882  1.00  0.00     0.167 HD
ATOM     50  C   UNL A   1      38.046  32.092  31.493  1.00  0.00     0.037 A 
ATOM     51  C   UNL A   1      43.289  28.749  34.727  1.00  0.00     0.037 A 
ATOM     52  C   UNL A   1      38.324  32.554  32.824  1.00  0.00     0.049 A 
ATOM     53  C   UNL A   1      42.543  29.891  35.377  1.00  0.00     0.074 A 
ATOM     54  C   UNL A   1      37.686  33.549  33.542  1.00  0.00     0.029 A 
ATOM     55  N   UNL A   1      39.326  32.049  33.637  1.00  0.00    -0.354 N 
ATOM     56  N   UNL A   1      41.532  30.590  34.915  1.00  0.00    -0.248 NA
ATOM     57  C   UNL A   1      42.988  30.301  36.718  1.00  0.00     0.031 C 
ATOM     58  C   UNL A   1      38.323  33.667  34.782  1.00  0.00     0.029 A 
ATOM     59  C   UNL A   1      39.329  32.717  34.849  1.00  0.00     0.049 A 
ATOM     60  H   UNL A   1      39.943  31.323  33.390  1.00  0.00     0.167 HD
ATOM     61  C   UNL A   1      41.204  31.496  35.920  1.00  0.00     0.074 A 
ATOM     62  C   UNL A   1      42.116  31.255  37.016  1.00  0.00     0.031 C 
ATOM     63  C   UNL A   1      40.233  32.443  35.937  1.00  0.00     0.037 A 
BRANCH  50  64
ATOM     64  C   UNL A   1      36.905  32.710  30.740  1.00  0.00     0.058 A 
ATOM     65  C   UNL A   1      37.118  33.735  29.803  1.00  0.00     0.135 A 
ATOM     66  C   UNL A   1      35.590  32.267  30.944  1.00  0.00     0.135 A 
ATOM     67  F   UNL A   1      38.354  34.216  29.596  1.00  0.00    -0.206 F 
ATOM     68  C   UNL A   1      36.061  34.309  29.106  1.00  0.00     0.059 A 
ATOM     69  C   UNL A   1      34.521  32.811  30.240  1.00  0.00     0.059 A 
ATOM     70  F   UNL A   1      35.335  31.299  31.838  1.00  0.00    -0.206 F 
ATOM     71  C   UNL A   1      34.766  33.839  29.330  1.00  0.00     0.060 A 
BRANCH  71  72
ATOM     72  S   UNL A   1      33.407  34.582  28.404  1.00  0.00     0.124 S 
ATOM     73  O   UNL A   1      32.917  33.439  27.638  1.00  0.00    -0.237 OA
ATOM     74  O   UNL A   1      32.527  35.057  29.466  1.00  0.00    -0.237 OA
ATOM     75  O   UNL A   1      34.060  35.627  27.622  1.00  0.00    -0.744 OA
ENDBRANCH  71  72
ENDBRANCH  50  64
BRANCH  51  76
ATOM     76  C   UNL A   1      44.403  28.080  35.454  1.00  0.00     0.058 A 
ATOM     77  C   UNL A   1      45.720  28.554  35.355  1.00  0.00     0.135 A 
ATOM     78  C   UNL A   1      44.184  26.919  36.210  1.00  0.00     0.135 A 
ATOM     79  F   UNL A   1      45.985  29.652  34.629  1.00  0.00    -0.206 F 
ATOM     80  C   UNL A   1      46.784  27.887  35.955  1.00  0.00     0.059 A 
ATOM     81  C   UNL A   1      45.228  26.247  36.839  1.00  0.00     0.059 A 
ATOM     82  F   UNL A   1      42.943  26.426  36.341  1.00  0.00    -0.206 F 
ATOM     83  C   UNL A   1      46.527  26.729  36.692  1.00  0.00     0.060 A 
BRANCH  83  84
ATOM     84  S   UNL A   1      47.909  25.873  37.479  1.00  0.00     0.124 S 
ATOM     85  O   UNL A   1      49.044  26.390  36.723  1.00  0.00    -0.237 OA
ATOM     86  O   UNL A   1      47.804  26.324  38.864  1.00  0.00    -0.237 OA
ATOM     87  O   UNL A   1      47.594  24.464  37.264  1.00  0.00    -0.744 OA
ENDBRANCH  83  84
ENDBRANCH  51  76
BRANCH  63  88
ATOM     88  C   UNL A   1      40.070  33.254  37.190  1.00  0.00     0.058 A 
ATOM     89  C   UNL A   1      40.893  34.356  37.469  1.00  0.00     0.135 A 
ATOM     90  C   UNL A   1      39.031  32.965  38.091  1.00  0.00     0.135 A 
ATOM     91  F   UNL A   1      41.900  34.673  36.641  1.00  0.00    -0.206 F 
ATOM     92  C   UNL A   1      40.704  35.131  38.609  1.00  0.00     0.059 A 
ATOM     93  C   UNL A   1      38.809  33.741  39.223  1.00  0.00     0.059 A 
ATOM     94  F   UNL A   1      38.208  31.929  37.861  1.00  0.00    -0.206 F 
ATOM     95  C   UNL A   1      39.658  34.817  39.480  1.00  0.00     0.060 A 
BRANCH  95  96
ATOM     96  S   UNL A   1      39.399  35.853  40.934  1.00  0.00     0.124 S 
ATOM     97  O   UNL A   1      38.562  34.993  41.764  1.00  0.00    -0.237 OA
ATOM     98  O   UNL A   1      40.760  36.069  41.416  1.00  0.00    -0.237 OA
ATOM     99  O   UNL A   1      38.738  37.038  40.393  1.00  0.00    -0.744 OA
ENDBRANCH  95  96
ENDBRANCH  63  88
ENDBRANCH  37  38
ENDBRANCH  30  32
ENDBRANCH  29  30
ENDBRANCH  28  29
ENDBRANCH  27  28
ENDBRANCH  26  27
ENDBRANCH   1  26
TORSDOF 21
ENDMDL
