MODEL 1
REMARK VINA RESULT:      -8.8      0.000      0.000
REMARK SMILES O=C(Cc1cccc(-c2ccn(C(F)F)c(=O)c2)c1)OCCOCCOCCOC(=O)c1ccc(-c2c3nc(c(-c4c(F)cc(S(=O)(=O)[O-])cc4F)c4ccc([nH]4)c(-c4c(F)cc(S(=O)(=O)[O-])cc4F)c4nc(c(-c5c(F)cc(S(=O)(=O)[O-])cc5F)c5ccc2[nH]5)C=C4)C=C3)cc1
REMARK SMILES IDX 24 1 23 2 22 3 21 4 20 5 2 6 1 7 3 8 4 9 5 10 19 11 6 12
REMARK SMILES IDX 8 13 7 14 9 15 10 16 18 17 11 18 16 19 12 20 17 21 13 22
REMARK SMILES IDX 14 23 15 24 25 25 26 26 27 27 28 28 29 29 30 30 31 31 32 32
REMARK SMILES IDX 33 33 97 34 34 35 96 36 35 37 36 38 37 39 90 40 38 41 95 42
REMARK SMILES IDX 89 43 91 44 39 45 94 46 88 47 87 48 40 50 74 51 53 52 73 53
REMARK SMILES IDX 54 54 57 55 72 56 92 57 55 58 56 59 71 61 93 62 58 63 41 64
REMARK SMILES IDX 42 65 51 66 43 67 44 68 50 69 52 70 45 71 46 72 47 73 48 74
REMARK SMILES IDX 49 75 75 76 76 77 85 78 77 79 78 80 84 81 86 82 79 83 80 84
REMARK SMILES IDX 81 85 82 86 83 87 59 88 60 89 69 90 61 91 62 92 68 93 70 94
REMARK SMILES IDX 63 95 64 96 65 97 66 98 67 99
REMARK H PARENT 91 49 57 60
REMARK Flexibility Score: inf
ROOT
ATOM      1  C   UNL A   1      42.269  43.150  18.952  1.00  0.00     0.188 C 
ENDROOT
BRANCH   1   2
ATOM      2  O   UNL A   1      42.556  43.917  17.789  1.00  0.00    -0.376 OA
BRANCH   2   3
ATOM      3  C   UNL A   1      41.884  45.157  17.631  1.00  0.00     0.202 C 
BRANCH   3   4
ATOM      4  C   UNL A   1      41.848  45.822  16.252  1.00  0.00     0.261 C 
BRANCH   4   5
ATOM      5  O   UNL A   1      42.519  47.078  16.120  1.00  0.00    -0.463 OA
BRANCH   5   6
ATOM      6  C   UNL A   1      42.467  48.065  17.051  1.00  0.00     0.310 C 
ATOM      7  O   UNL A   1      41.436  48.726  17.169  1.00  0.00    -0.252 OA
BRANCH   6   8
ATOM      8  C   UNL A   1      43.713  48.403  17.847  1.00  0.00     0.158 C 
BRANCH   8   9
ATOM      9  C   UNL A   1      44.825  47.403  17.691  1.00  0.00    -0.036 A 
ATOM     10  C   UNL A   1      45.837  47.590  16.745  1.00  0.00     0.004 A 
ATOM     11  C   UNL A   1      44.907  46.313  18.565  1.00  0.00     0.013 A 
ATOM     12  C   UNL A   1      46.932  46.726  16.713  1.00  0.00     0.001 A 
ATOM     13  C   UNL A   1      46.052  45.514  18.616  1.00  0.00    -0.018 A 
ATOM     14  C   UNL A   1      47.054  45.709  17.662  1.00  0.00     0.009 A 
BRANCH  13  15
ATOM     15  C   UNL A   1      46.215  44.616  19.777  1.00  0.00    -0.011 A 
ATOM     16  C   UNL A   1      45.717  44.923  21.104  1.00  0.00     0.027 A 
ATOM     17  C   UNL A   1      47.015  43.548  19.612  1.00  0.00     0.080 A 
ATOM     18  C   UNL A   1      46.055  44.159  22.149  1.00  0.00     0.095 A 
ATOM     19  C   UNL A   1      47.383  42.676  20.760  1.00  0.00     0.255 A 
ATOM     20  N   UNL A   1      46.870  43.053  21.991  1.00  0.00    -0.258 N 
ATOM     21  O   UNL A   1      48.120  41.717  20.556  1.00  0.00    -0.269 OA
BRANCH  20  22
ATOM     22  C   UNL A   1      47.233  42.240  23.121  1.00  0.00     0.451 C 
ATOM     23  F   UNL A   1      47.197  42.956  24.272  1.00  0.00    -0.185 F 
ATOM     24  F   UNL A   1      46.389  41.187  23.257  1.00  0.00    -0.185 F 
ENDBRANCH  20  22
ENDBRANCH  13  15
ENDBRANCH   8   9
ENDBRANCH   6   8
ENDBRANCH   5   6
ENDBRANCH   4   5
ENDBRANCH   3   4
ENDBRANCH   2   3
ENDBRANCH   1   2
BRANCH   1  25
ATOM     25  C   UNL A   1      41.098  43.534  19.869  1.00  0.00     0.188 C 
BRANCH  25  26
ATOM     26  O   UNL A   1      41.143  43.189  21.241  1.00  0.00    -0.376 OA
BRANCH  26  27
ATOM     27  C   UNL A   1      42.340  42.608  21.758  1.00  0.00     0.202 C 
BRANCH  27  28
ATOM     28  C   UNL A   1      42.715  42.875  23.215  1.00  0.00     0.261 C 
BRANCH  28  29
ATOM     29  O   UNL A   1      43.017  41.657  23.926  1.00  0.00    -0.460 OA
BRANCH  29  30
ATOM     30  C   UNL A   1      43.653  41.835  25.102  1.00  0.00     0.338 C 
ATOM     31  O   UNL A   1      44.139  42.885  25.523  1.00  0.00    -0.246 OA
BRANCH  30  32
ATOM     32  C   UNL A   1      43.604  40.627  25.934  1.00  0.00     0.060 A 
ATOM     33  C   UNL A   1      42.371  40.269  26.494  1.00  0.00     0.016 A 
ATOM     34  C   UNL A   1      44.778  39.975  26.320  1.00  0.00     0.016 A 
ATOM     35  C   UNL A   1      42.317  39.312  27.503  1.00  0.00     0.010 A 
ATOM     36  C   UNL A   1      44.723  39.021  27.343  1.00  0.00     0.010 A 
ATOM     37  C   UNL A   1      43.501  38.731  27.977  1.00  0.00    -0.014 A 
BRANCH  37  38
ATOM     38  C   UNL A   1      43.475  38.015  29.278  1.00  0.00     0.031 A 
ATOM     39  C   UNL A   1      43.895  38.761  30.519  1.00  0.00     0.074 A 
ATOM     40  C   UNL A   1      43.035  36.748  29.371  1.00  0.00     0.049 A 
ATOM     41  N   UNL A   1      43.925  38.356  31.762  1.00  0.00    -0.248 NA
ATOM     42  C   UNL A   1      44.341  40.152  30.330  1.00  0.00     0.031 C 
ATOM     43  C   UNL A   1      42.565  35.931  28.255  1.00  0.00     0.029 A 
ATOM     44  N   UNL A   1      42.910  35.930  30.466  1.00  0.00    -0.354 N 
ATOM     45  C   UNL A   1      44.395  39.436  32.502  1.00  0.00     0.074 A 
ATOM     46  C   UNL A   1      44.666  40.504  31.564  1.00  0.00     0.031 C 
ATOM     47  C   UNL A   1      42.202  34.724  28.723  1.00  0.00     0.029 A 
ATOM     48  C   UNL A   1      42.432  34.678  30.167  1.00  0.00     0.049 A 
ATOM     49  H   UNL A   1      43.141  36.214  31.380  1.00  0.00     0.167 HD
ATOM     50  C   UNL A   1      44.576  39.535  33.840  1.00  0.00     0.037 A 
ATOM     51  C   UNL A   1      42.211  33.616  30.967  1.00  0.00     0.037 A 
ATOM     52  C   UNL A   1      44.301  38.477  34.776  1.00  0.00     0.049 A 
ATOM     53  C   UNL A   1      42.470  33.732  32.447  1.00  0.00     0.074 A 
ATOM     54  C   UNL A   1      44.428  38.491  36.155  1.00  0.00     0.029 A 
ATOM     55  N   UNL A   1      43.850  37.213  34.429  1.00  0.00    -0.354 N 
ATOM     56  N   UNL A   1      42.884  34.769  33.136  1.00  0.00    -0.248 NA
ATOM     57  C   UNL A   1      42.222  32.533  33.261  1.00  0.00     0.031 C 
ATOM     58  C   UNL A   1      44.094  37.221  36.637  1.00  0.00     0.029 A 
ATOM     59  C   UNL A   1      43.715  36.431  35.563  1.00  0.00     0.049 A 
ATOM     60  H   UNL A   1      43.654  36.915  33.511  1.00  0.00     0.167 HD
ATOM     61  C   UNL A   1      42.913  34.358  34.465  1.00  0.00     0.074 A 
ATOM     62  C   UNL A   1      42.472  32.979  34.485  1.00  0.00     0.031 C 
ATOM     63  C   UNL A   1      43.266  35.061  35.570  1.00  0.00     0.037 A 
BRANCH  50  64
ATOM     64  C   UNL A   1      45.127  40.831  34.367  1.00  0.00     0.058 A 
ATOM     65  C   UNL A   1      46.505  41.035  34.536  1.00  0.00     0.135 A 
ATOM     66  C   UNL A   1      44.263  41.887  34.696  1.00  0.00     0.135 A 
ATOM     67  F   UNL A   1      47.373  40.050  34.254  1.00  0.00    -0.206 F 
ATOM     68  C   UNL A   1      47.006  42.229  35.043  1.00  0.00     0.059 A 
ATOM     69  C   UNL A   1      44.742  43.099  35.182  1.00  0.00     0.059 A 
ATOM     70  F   UNL A   1      42.935  41.744  34.555  1.00  0.00    -0.206 F 
ATOM     71  C   UNL A   1      46.116  43.255  35.369  1.00  0.00     0.060 A 
BRANCH  71  72
ATOM     72  S   UNL A   1      46.775  44.796  36.039  1.00  0.00     0.124 S 
ATOM     73  O   UNL A   1      48.194  44.663  35.727  1.00  0.00    -0.237 OA
ATOM     74  O   UNL A   1      46.051  45.806  35.275  1.00  0.00    -0.237 OA
ATOM     75  O   UNL A   1      46.434  44.722  37.457  1.00  0.00    -0.744 OA
ENDBRANCH  71  72
ENDBRANCH  50  64
BRANCH  51  76
ATOM     76  C   UNL A   1      41.707  32.343  30.389  1.00  0.00     0.058 A 
ATOM     77  C   UNL A   1      40.333  32.064  30.341  1.00  0.00     0.135 A 
ATOM     78  C   UNL A   1      42.590  31.376  29.881  1.00  0.00     0.135 A 
ATOM     79  F   UNL A   1      39.453  32.952  30.825  1.00  0.00    -0.206 F 
ATOM     80  C   UNL A   1      39.851  30.867  29.823  1.00  0.00     0.059 A 
ATOM     81  C   UNL A   1      42.130  30.182  29.338  1.00  0.00     0.059 A 
ATOM     82  F   UNL A   1      43.913  31.600  29.896  1.00  0.00    -0.206 F 
ATOM     83  C   UNL A   1      40.758  29.931  29.323  1.00  0.00     0.060 A 
BRANCH  83  84
ATOM     84  S   UNL A   1      40.121  28.400  28.607  1.00  0.00     0.124 S 
ATOM     85  O   UNL A   1      39.067  28.052  29.553  1.00  0.00    -0.237 OA
ATOM     86  O   UNL A   1      39.678  28.837  27.287  1.00  0.00    -0.237 OA
ATOM     87  O   UNL A   1      41.287  27.522  28.609  1.00  0.00    -0.744 OA
ENDBRANCH  83  84
ENDBRANCH  51  76
BRANCH  63  88
ATOM     88  C   UNL A   1      43.147  34.367  36.900  1.00  0.00     0.058 A 
ATOM     89  C   UNL A   1      41.969  34.422  37.661  1.00  0.00     0.135 A 
ATOM     90  C   UNL A   1      44.214  33.602  37.399  1.00  0.00     0.135 A 
ATOM     91  F   UNL A   1      40.920  35.141  37.231  1.00  0.00    -0.206 F 
ATOM     92  C   UNL A   1      41.863  33.769  38.885  1.00  0.00     0.059 A 
ATOM     93  C   UNL A   1      44.122  32.921  38.608  1.00  0.00     0.059 A 
ATOM     94  F   UNL A   1      45.359  33.505  36.705  1.00  0.00    -0.206 F 
ATOM     95  C   UNL A   1      42.947  33.022  39.352  1.00  0.00     0.060 A 
BRANCH  95  96
ATOM     96  S   UNL A   1      42.795  32.162  40.933  1.00  0.00     0.124 S 
ATOM     97  O   UNL A   1      43.045  33.243  41.880  1.00  0.00    -0.237 OA
ATOM     98  O   UNL A   1      41.424  31.663  40.890  1.00  0.00    -0.237 OA
ATOM     99  O   UNL A   1      43.831  31.136  40.860  1.00  0.00    -0.744 OA
ENDBRANCH  95  96
ENDBRANCH  63  88
ENDBRANCH  37  38
ENDBRANCH  30  32
ENDBRANCH  29  30
ENDBRANCH  28  29
ENDBRANCH  27  28
ENDBRANCH  26  27
ENDBRANCH  25  26
ENDBRANCH   1  25
TORSDOF 23
ENDMDL
MODEL 2
REMARK VINA RESULT:      -8.5     10.114     16.429
REMARK SMILES O=C(Cc1cccc(-c2ccn(C(F)F)c(=O)c2)c1)OCCOCCOCCOC(=O)c1ccc(-c2c3nc(c(-c4c(F)cc(S(=O)(=O)[O-])cc4F)c4ccc([nH]4)c(-c4c(F)cc(S(=O)(=O)[O-])cc4F)c4nc(c(-c5c(F)cc(S(=O)(=O)[O-])cc5F)c5ccc2[nH]5)C=C4)C=C3)cc1
REMARK SMILES IDX 24 1 23 2 22 3 21 4 20 5 2 6 1 7 3 8 4 9 5 10 19 11 6 12
REMARK SMILES IDX 8 13 7 14 9 15 10 16 18 17 11 18 16 19 12 20 17 21 13 22
REMARK SMILES IDX 14 23 15 24 25 25 26 26 27 27 28 28 29 29 30 30 31 31 32 32
REMARK SMILES IDX 33 33 97 34 34 35 96 36 35 37 36 38 37 39 90 40 38 41 95 42
REMARK SMILES IDX 89 43 91 44 39 45 94 46 88 47 87 48 40 50 74 51 53 52 73 53
REMARK SMILES IDX 54 54 57 55 72 56 92 57 55 58 56 59 71 61 93 62 58 63 41 64
REMARK SMILES IDX 42 65 51 66 43 67 44 68 50 69 52 70 45 71 46 72 47 73 48 74
REMARK SMILES IDX 49 75 75 76 76 77 85 78 77 79 78 80 84 81 86 82 79 83 80 84
REMARK SMILES IDX 81 85 82 86 83 87 59 88 60 89 69 90 61 91 62 92 68 93 70 94
REMARK SMILES IDX 63 95 64 96 65 97 66 98 67 99
REMARK H PARENT 91 49 57 60
REMARK Flexibility Score: inf
ROOT
ATOM      1  C   UNL A   1      34.669  33.711  28.595  1.00  0.00     0.188 C 
ENDROOT
BRANCH   1   2
ATOM      2  O   UNL A   1      34.803  32.657  27.650  1.00  0.00    -0.376 OA
BRANCH   2   3
ATOM      3  C   UNL A   1      33.904  31.564  27.746  1.00  0.00     0.202 C 
BRANCH   3   4
ATOM      4  C   UNL A   1      34.362  30.171  27.303  1.00  0.00     0.261 C 
BRANCH   4   5
ATOM      5  O   UNL A   1      33.720  29.609  26.156  1.00  0.00    -0.463 OA
BRANCH   5   6
ATOM      6  C   UNL A   1      33.046  28.430  26.169  1.00  0.00     0.310 C 
ATOM      7  O   UNL A   1      31.816  28.441  26.224  1.00  0.00    -0.252 OA
BRANCH   6   8
ATOM      8  C   UNL A   1      33.823  27.129  26.225  1.00  0.00     0.158 C 
BRANCH   8   9
ATOM      9  C   UNL A   1      33.600  26.234  25.038  1.00  0.00    -0.036 A 
ATOM     10  C   UNL A   1      33.568  26.752  23.740  1.00  0.00     0.004 A 
ATOM     11  C   UNL A   1      33.514  24.850  25.218  1.00  0.00     0.013 A 
ATOM     12  C   UNL A   1      33.500  25.889  22.645  1.00  0.00     0.001 A 
ATOM     13  C   UNL A   1      33.563  23.976  24.129  1.00  0.00    -0.018 A 
ATOM     14  C   UNL A   1      33.526  24.506  22.836  1.00  0.00     0.009 A 
BRANCH  13  15
ATOM     15  C   UNL A   1      33.816  22.547  24.402  1.00  0.00    -0.011 A 
ATOM     16  C   UNL A   1      35.088  22.034  24.874  1.00  0.00     0.027 A 
ATOM     17  C   UNL A   1      32.863  21.677  24.025  1.00  0.00     0.080 A 
ATOM     18  C   UNL A   1      35.311  20.716  24.925  1.00  0.00     0.095 A 
ATOM     19  C   UNL A   1      33.087  20.208  24.096  1.00  0.00     0.255 A 
ATOM     20  N   UNL A   1      34.335  19.811  24.549  1.00  0.00    -0.258 N 
ATOM     21  O   UNL A   1      32.186  19.458  23.735  1.00  0.00    -0.269 OA
BRANCH  20  22
ATOM     22  C   UNL A   1      34.586  18.395  24.602  1.00  0.00     0.451 C 
ATOM     23  F   UNL A   1      34.087  17.767  23.510  1.00  0.00    -0.185 F 
ATOM     24  F   UNL A   1      35.916  18.138  24.662  1.00  0.00    -0.185 F 
ENDBRANCH  20  22
ENDBRANCH  13  15
ENDBRANCH   8   9
ENDBRANCH   6   8
ENDBRANCH   5   6
ENDBRANCH   4   5
ENDBRANCH   3   4
ENDBRANCH   2   3
ENDBRANCH   1   2
BRANCH   1  25
ATOM     25  C   UNL A   1      35.551  33.747  29.852  1.00  0.00     0.188 C 
BRANCH  25  26
ATOM     26  O   UNL A   1      36.718  32.948  29.910  1.00  0.00    -0.376 OA
BRANCH  26  27
ATOM     27  C   UNL A   1      37.346  32.751  31.176  1.00  0.00     0.202 C 
BRANCH  27  28
ATOM     28  C   UNL A   1      36.469  32.464  32.394  1.00  0.00     0.261 C 
BRANCH  28  29
ATOM     29  O   UNL A   1      37.045  31.456  33.248  1.00  0.00    -0.460 OA
BRANCH  29  30
ATOM     30  C   UNL A   1      37.032  30.208  32.734  1.00  0.00     0.338 C 
ATOM     31  O   UNL A   1      36.156  29.717  32.021  1.00  0.00    -0.246 OA
BRANCH  30  32
ATOM     32  C   UNL A   1      38.281  29.492  33.017  1.00  0.00     0.060 A 
ATOM     33  C   UNL A   1      39.216  30.114  33.853  1.00  0.00     0.016 A 
ATOM     34  C   UNL A   1      38.614  28.329  32.316  1.00  0.00     0.016 A 
ATOM     35  C   UNL A   1      40.516  29.622  33.931  1.00  0.00     0.010 A 
ATOM     36  C   UNL A   1      39.924  27.843  32.387  1.00  0.00     0.010 A 
ATOM     37  C   UNL A   1      40.893  28.522  33.147  1.00  0.00    -0.014 A 
BRANCH  37  38
ATOM     38  C   UNL A   1      42.339  28.247  32.951  1.00  0.00     0.031 A 
ATOM     39  C   UNL A   1      43.073  28.995  31.867  1.00  0.00     0.074 A 
ATOM     40  C   UNL A   1      43.005  27.397  33.750  1.00  0.00     0.049 A 
ATOM     41  N   UNL A   1      44.336  28.945  31.531  1.00  0.00    -0.248 NA
ATOM     42  C   UNL A   1      42.272  29.925  31.052  1.00  0.00     0.031 C 
ATOM     43  C   UNL A   1      42.421  26.643  34.858  1.00  0.00     0.029 A 
ATOM     44  N   UNL A   1      44.327  27.030  33.751  1.00  0.00    -0.354 N 
ATOM     45  C   UNL A   1      44.482  29.828  30.467  1.00  0.00     0.074 A 
ATOM     46  C   UNL A   1      43.172  30.380  30.194  1.00  0.00     0.031 C 
ATOM     47  C   UNL A   1      43.383  25.900  35.432  1.00  0.00     0.029 A 
ATOM     48  C   UNL A   1      44.645  26.112  34.722  1.00  0.00     0.049 A 
ATOM     49  H   UNL A   1      44.987  27.391  33.116  1.00  0.00     0.167 HD
ATOM     50  C   UNL A   1      45.604  30.161  29.785  1.00  0.00     0.037 A 
ATOM     51  C   UNL A   1      45.818  25.509  35.000  1.00  0.00     0.037 A 
ATOM     52  C   UNL A   1      46.908  29.620  30.060  1.00  0.00     0.049 A 
ATOM     53  C   UNL A   1      47.042  25.854  34.194  1.00  0.00     0.074 A 
ATOM     54  C   UNL A   1      48.111  29.914  29.439  1.00  0.00     0.029 A 
ATOM     55  N   UNL A   1      47.181  28.667  31.029  1.00  0.00    -0.354 N 
ATOM     56  N   UNL A   1      47.171  26.715  33.212  1.00  0.00    -0.248 NA
ATOM     57  C   UNL A   1      48.286  25.150  34.540  1.00  0.00     0.031 C 
ATOM     58  C   UNL A   1      49.104  29.108  30.007  1.00  0.00     0.029 A 
ATOM     59  C   UNL A   1      48.528  28.345  31.010  1.00  0.00     0.049 A 
ATOM     60  H   UNL A   1      46.516  28.277  31.641  1.00  0.00     0.167 HD
ATOM     61  C   UNL A   1      48.514  26.681  32.848  1.00  0.00     0.074 A 
ATOM     62  C   UNL A   1      49.158  25.717  33.716  1.00  0.00     0.031 C 
ATOM     63  C   UNL A   1      49.158  27.389  31.887  1.00  0.00     0.037 A 
BRANCH  50  64
ATOM     64  C   UNL A   1      45.458  31.138  28.652  1.00  0.00     0.058 A 
ATOM     65  C   UNL A   1      45.207  30.716  27.338  1.00  0.00     0.135 A 
ATOM     66  C   UNL A   1      45.560  32.518  28.890  1.00  0.00     0.135 A 
ATOM     67  F   UNL A   1      45.119  29.406  27.055  1.00  0.00    -0.206 F 
ATOM     68  C   UNL A   1      45.093  31.625  26.292  1.00  0.00     0.059 A 
ATOM     69  C   UNL A   1      45.425  33.447  27.863  1.00  0.00     0.059 A 
ATOM     70  F   UNL A   1      45.801  32.975  30.128  1.00  0.00    -0.206 F 
ATOM     71  C   UNL A   1      45.209  32.990  26.563  1.00  0.00     0.060 A 
BRANCH  71  72
ATOM     72  S   UNL A   1      45.074  34.161  25.196  1.00  0.00     0.124 S 
ATOM     73  O   UNL A   1      44.191  35.172  25.768  1.00  0.00    -0.237 OA
ATOM     74  O   UNL A   1      46.460  34.571  24.994  1.00  0.00    -0.237 OA
ATOM     75  O   UNL A   1      44.498  33.360  24.120  1.00  0.00    -0.744 OA
ENDBRANCH  71  72
ENDBRANCH  50  64
BRANCH  51  76
ATOM     76  C   UNL A   1      45.899  24.516  36.104  1.00  0.00     0.058 A 
ATOM     77  C   UNL A   1      46.113  24.923  37.429  1.00  0.00     0.135 A 
ATOM     78  C   UNL A   1      45.771  23.140  35.854  1.00  0.00     0.135 A 
ATOM     79  F   UNL A   1      46.253  26.226  37.715  1.00  0.00    -0.206 F 
ATOM     80  C   UNL A   1      46.214  24.003  38.466  1.00  0.00     0.059 A 
ATOM     81  C   UNL A   1      45.845  22.203  36.877  1.00  0.00     0.059 A 
ATOM     82  F   UNL A   1      45.556  22.701  34.604  1.00  0.00    -0.206 F 
ATOM     83  C   UNL A   1      46.077  22.642  38.180  1.00  0.00     0.060 A 
BRANCH  83  84
ATOM     84  S   UNL A   1      46.159  21.456  39.540  1.00  0.00     0.124 S 
ATOM     85  O   UNL A   1      45.924  20.197  38.844  1.00  0.00    -0.237 OA
ATOM     86  O   UNL A   1      47.512  21.663  40.048  1.00  0.00    -0.237 OA
ATOM     87  O   UNL A   1      45.090  21.897  40.430  1.00  0.00    -0.744 OA
ENDBRANCH  83  84
ENDBRANCH  51  76
BRANCH  63  88
ATOM     88  C   UNL A   1      50.642  27.184  31.751  1.00  0.00     0.058 A 
ATOM     89  C   UNL A   1      51.562  27.889  32.541  1.00  0.00     0.135 A 
ATOM     90  C   UNL A   1      51.147  26.236  30.845  1.00  0.00     0.135 A 
ATOM     91  F   UNL A   1      51.133  28.808  33.421  1.00  0.00    -0.206 F 
ATOM     92  C   UNL A   1      52.933  27.685  32.417  1.00  0.00     0.059 A 
ATOM     93  C   UNL A   1      52.512  25.998  30.722  1.00  0.00     0.059 A 
ATOM     94  F   UNL A   1      50.309  25.524  30.075  1.00  0.00    -0.206 F 
ATOM     95  C   UNL A   1      53.399  26.739  31.502  1.00  0.00     0.060 A 
BRANCH  95  96
ATOM     96  S   UNL A   1      55.179  26.467  31.360  1.00  0.00     0.124 S 
ATOM     97  O   UNL A   1      55.710  27.625  32.071  1.00  0.00    -0.237 OA
ATOM     98  O   UNL A   1      55.355  25.179  32.025  1.00  0.00    -0.237 OA
ATOM     99  O   UNL A   1      55.405  26.456  29.917  1.00  0.00    -0.744 OA
ENDBRANCH  95  96
ENDBRANCH  63  88
ENDBRANCH  37  38
ENDBRANCH  30  32
ENDBRANCH  29  30
ENDBRANCH  28  29
ENDBRANCH  27  28
ENDBRANCH  26  27
ENDBRANCH  25  26
ENDBRANCH   1  25
TORSDOF 23
ENDMDL
MODEL 3
REMARK VINA RESULT:      -8.3     10.212     14.621
REMARK SMILES O=C(Cc1cccc(-c2ccn(C(F)F)c(=O)c2)c1)OCCOCCOCCOC(=O)c1ccc(-c2c3nc(c(-c4c(F)cc(S(=O)(=O)[O-])cc4F)c4ccc([nH]4)c(-c4c(F)cc(S(=O)(=O)[O-])cc4F)c4nc(c(-c5c(F)cc(S(=O)(=O)[O-])cc5F)c5ccc2[nH]5)C=C4)C=C3)cc1
REMARK SMILES IDX 24 1 23 2 22 3 21 4 20 5 2 6 1 7 3 8 4 9 5 10 19 11 6 12
REMARK SMILES IDX 8 13 7 14 9 15 10 16 18 17 11 18 16 19 12 20 17 21 13 22
REMARK SMILES IDX 14 23 15 24 25 25 26 26 27 27 28 28 29 29 30 30 31 31 32 32
REMARK SMILES IDX 33 33 97 34 34 35 96 36 35 37 36 38 37 39 90 40 38 41 95 42
REMARK SMILES IDX 89 43 91 44 39 45 94 46 88 47 87 48 40 50 74 51 53 52 73 53
REMARK SMILES IDX 54 54 57 55 72 56 92 57 55 58 56 59 71 61 93 62 58 63 41 64
REMARK SMILES IDX 42 65 51 66 43 67 44 68 50 69 52 70 45 71 46 72 47 73 48 74
REMARK SMILES IDX 49 75 75 76 76 77 85 78 77 79 78 80 84 81 86 82 79 83 80 84
REMARK SMILES IDX 81 85 82 86 83 87 59 88 60 89 69 90 61 91 62 92 68 93 70 94
REMARK SMILES IDX 63 95 64 96 65 97 66 98 67 99
REMARK H PARENT 91 49 57 60
REMARK Flexibility Score: inf
ROOT
ATOM      1  C   UNL A   1      41.852  20.102  26.900  1.00  0.00     0.188 C 
ENDROOT
BRANCH   1   2
ATOM      2  O   UNL A   1      41.903  19.212  25.792  1.00  0.00    -0.376 OA
BRANCH   2   3
ATOM      3  C   UNL A   1      43.059  18.402  25.646  1.00  0.00     0.202 C 
BRANCH   3   4
ATOM      4  C   UNL A   1      44.265  18.945  24.873  1.00  0.00     0.261 C 
BRANCH   4   5
ATOM      5  O   UNL A   1      44.271  20.343  24.577  1.00  0.00    -0.463 OA
BRANCH   5   6
ATOM      6  C   UNL A   1      45.131  21.232  25.139  1.00  0.00     0.310 C 
ATOM      7  O   UNL A   1      46.248  20.849  25.485  1.00  0.00    -0.252 OA
BRANCH   6   8
ATOM      8  C   UNL A   1      44.659  22.644  25.428  1.00  0.00     0.158 C 
BRANCH   8   9
ATOM      9  C   UNL A   1      45.728  23.688  25.266  1.00  0.00    -0.036 A 
ATOM     10  C   UNL A   1      46.680  23.595  24.246  1.00  0.00     0.004 A 
ATOM     11  C   UNL A   1      45.722  24.822  26.086  1.00  0.00     0.013 A 
ATOM     12  C   UNL A   1      47.574  24.643  24.026  1.00  0.00     0.001 A 
ATOM     13  C   UNL A   1      46.533  25.923  25.801  1.00  0.00    -0.018 A 
ATOM     14  C   UNL A   1      47.484  25.814  24.782  1.00  0.00     0.009 A 
BRANCH  13  15
ATOM     15  C   UNL A   1      46.232  27.197  26.484  1.00  0.00    -0.011 A 
ATOM     16  C   UNL A   1      45.565  27.280  27.768  1.00  0.00     0.027 A 
ATOM     17  C   UNL A   1      46.441  28.326  25.784  1.00  0.00     0.080 A 
ATOM     18  C   UNL A   1      45.157  28.461  28.246  1.00  0.00     0.095 A 
ATOM     19  C   UNL A   1      46.012  29.650  26.310  1.00  0.00     0.255 A 
ATOM     20  N   UNL A   1      45.373  29.630  27.540  1.00  0.00    -0.258 N 
ATOM     21  O   UNL A   1      46.222  30.648  25.629  1.00  0.00    -0.269 OA
BRANCH  20  22
ATOM     22  C   UNL A   1      44.926  30.896  28.059  1.00  0.00     0.451 C 
ATOM     23  F   UNL A   1      45.933  31.803  28.077  1.00  0.00    -0.185 F 
ATOM     24  F   UNL A   1      43.919  31.404  27.304  1.00  0.00    -0.185 F 
ENDBRANCH  20  22
ENDBRANCH  13  15
ENDBRANCH   8   9
ENDBRANCH   6   8
ENDBRANCH   5   6
ENDBRANCH   4   5
ENDBRANCH   3   4
ENDBRANCH   2   3
ENDBRANCH   1   2
BRANCH   1  25
ATOM     25  C   UNL A   1      40.530  20.774  27.298  1.00  0.00     0.188 C 
BRANCH  25  26
ATOM     26  O   UNL A   1      40.397  22.179  27.182  1.00  0.00    -0.376 OA
BRANCH  26  27
ATOM     27  C   UNL A   1      39.391  22.698  26.314  1.00  0.00     0.202 C 
BRANCH  27  28
ATOM     28  C   UNL A   1      39.310  24.209  26.103  1.00  0.00     0.261 C 
BRANCH  28  29
ATOM     29  O   UNL A   1      40.103  24.931  27.067  1.00  0.00    -0.460 OA
BRANCH  29  30
ATOM     30  C   UNL A   1      41.043  25.737  26.531  1.00  0.00     0.338 C 
ATOM     31  O   UNL A   1      41.400  25.767  25.352  1.00  0.00    -0.246 OA
BRANCH  30  32
ATOM     32  C   UNL A   1      41.543  26.713  27.507  1.00  0.00     0.060 A 
ATOM     33  C   UNL A   1      41.843  26.252  28.795  1.00  0.00     0.016 A 
ATOM     34  C   UNL A   1      41.524  28.081  27.226  1.00  0.00     0.016 A 
ATOM     35  C   UNL A   1      42.048  27.161  29.829  1.00  0.00     0.010 A 
ATOM     36  C   UNL A   1      41.718  28.994  28.270  1.00  0.00     0.010 A 
ATOM     37  C   UNL A   1      41.921  28.535  29.585  1.00  0.00    -0.014 A 
BRANCH  37  38
ATOM     38  C   UNL A   1      41.767  29.455  30.739  1.00  0.00     0.031 A 
ATOM     39  C   UNL A   1      40.574  30.377  30.770  1.00  0.00     0.074 A 
ATOM     40  C   UNL A   1      42.631  29.439  31.769  1.00  0.00     0.049 A 
ATOM     41  N   UNL A   1      40.214  31.240  31.684  1.00  0.00    -0.248 NA
ATOM     42  C   UNL A   1      39.664  30.314  29.613  1.00  0.00     0.031 C 
ATOM     43  C   UNL A   1      43.800  28.569  31.879  1.00  0.00     0.029 A 
ATOM     44  N   UNL A   1      42.649  30.179  32.924  1.00  0.00    -0.354 N 
ATOM     45  C   UNL A   1      39.044  31.827  31.213  1.00  0.00     0.074 A 
ATOM     46  C   UNL A   1      38.769  31.241  29.919  1.00  0.00     0.031 C 
ATOM     47  C   UNL A   1      44.425  28.827  33.040  1.00  0.00     0.029 A 
ATOM     48  C   UNL A   1      43.712  29.892  33.746  1.00  0.00     0.049 A 
ATOM     49  H   UNL A   1      41.966  30.853  33.144  1.00  0.00     0.167 HD
ATOM     50  C   UNL A   1      38.261  32.759  31.807  1.00  0.00     0.037 A 
ATOM     51  C   UNL A   1      44.068  30.431  34.929  1.00  0.00     0.037 A 
ATOM     52  C   UNL A   1      38.527  33.337  33.097  1.00  0.00     0.049 A 
ATOM     53  C   UNL A   1      43.211  31.505  35.546  1.00  0.00     0.074 A 
ATOM     54  C   UNL A   1      37.779  34.271  33.794  1.00  0.00     0.029 A 
ATOM     55  N   UNL A   1      39.631  33.044  33.882  1.00  0.00    -0.354 N 
ATOM     56  N   UNL A   1      42.090  32.026  35.104  1.00  0.00    -0.248 NA
ATOM     57  C   UNL A   1      43.664  32.060  36.831  1.00  0.00     0.031 C 
ATOM     58  C   UNL A   1      38.453  34.573  34.982  1.00  0.00     0.029 A 
ATOM     59  C   UNL A   1      39.597  33.794  35.046  1.00  0.00     0.049 A 
ATOM     60  H   UNL A   1      40.336  32.398  33.648  1.00  0.00     0.167 HD
ATOM     61  C   UNL A   1      41.688  32.942  36.071  1.00  0.00     0.074 A 
ATOM     62  C   UNL A   1      42.683  32.904  37.123  1.00  0.00     0.031 C 
ATOM     63  C   UNL A   1      40.590  33.739  36.090  1.00  0.00     0.037 A 
BRANCH  50  64
ATOM     64  C   UNL A   1      37.054  33.232  31.046  1.00  0.00     0.058 A 
ATOM     65  C   UNL A   1      37.161  34.130  29.972  1.00  0.00     0.135 A 
ATOM     66  C   UNL A   1      35.774  32.770  31.389  1.00  0.00     0.135 A 
ATOM     67  F   UNL A   1      38.361  34.616  29.616  1.00  0.00    -0.206 F 
ATOM     68  C   UNL A   1      36.038  34.578  29.285  1.00  0.00     0.059 A 
ATOM     69  C   UNL A   1      34.638  33.186  30.701  1.00  0.00     0.059 A 
ATOM     70  F   UNL A   1      35.615  31.912  32.409  1.00  0.00    -0.206 F 
ATOM     71  C   UNL A   1      34.779  34.105  29.661  1.00  0.00     0.060 A 
BRANCH  71  72
ATOM     72  S   UNL A   1      33.327  34.704  28.772  1.00  0.00     0.124 S 
ATOM     73  O   UNL A   1      33.865  35.880  28.097  1.00  0.00    -0.237 OA
ATOM     74  O   UNL A   1      32.998  33.574  27.909  1.00  0.00    -0.237 OA
ATOM     75  O   UNL A   1      32.366  34.976  29.837  1.00  0.00    -0.744 OA
ENDBRANCH  71  72
ENDBRANCH  50  64
BRANCH  51  76
ATOM     76  C   UNL A   1      45.295  29.958  35.620  1.00  0.00     0.058 A 
ATOM     77  C   UNL A   1      45.238  28.933  36.577  1.00  0.00     0.135 A 
ATOM     78  C   UNL A   1      46.549  30.526  35.344  1.00  0.00     0.135 A 
ATOM     79  F   UNL A   1      44.061  28.368  36.882  1.00  0.00    -0.206 F 
ATOM     80  C   UNL A   1      46.376  28.498  37.247  1.00  0.00     0.059 A 
ATOM     81  C   UNL A   1      47.704  30.092  35.985  1.00  0.00     0.059 A 
ATOM     82  F   UNL A   1      46.658  31.504  34.431  1.00  0.00    -0.206 F 
ATOM     83  C   UNL A   1      47.607  29.084  36.943  1.00  0.00     0.060 A 
BRANCH  83  84
ATOM     84  S   UNL A   1      49.087  28.479  37.782  1.00  0.00     0.124 S 
ATOM     85  O   UNL A   1      49.605  27.524  36.809  1.00  0.00    -0.237 OA
ATOM     86  O   UNL A   1      49.865  29.702  37.954  1.00  0.00    -0.237 OA
ATOM     87  O   UNL A   1      48.559  27.903  39.015  1.00  0.00    -0.744 OA
ENDBRANCH  83  84
ENDBRANCH  51  76
BRANCH  63  88
ATOM     88  C   UNL A   1      40.380  34.602  37.305  1.00  0.00     0.058 A 
ATOM     89  C   UNL A   1      40.928  35.890  37.402  1.00  0.00     0.135 A 
ATOM     90  C   UNL A   1      39.582  34.147  38.368  1.00  0.00     0.135 A 
ATOM     91  F   UNL A   1      41.700  36.371  36.415  1.00  0.00    -0.206 F 
ATOM     92  C   UNL A   1      40.720  36.685  38.524  1.00  0.00     0.059 A 
ATOM     93  C   UNL A   1      39.340  34.936  39.488  1.00  0.00     0.059 A 
ATOM     94  F   UNL A   1      39.022  32.929  38.319  1.00  0.00    -0.206 F 
ATOM     95  C   UNL A   1      39.927  36.198  39.565  1.00  0.00     0.060 A 
BRANCH  95  96
ATOM     96  S   UNL A   1      39.646  37.245  41.010  1.00  0.00     0.124 S 
ATOM     97  O   UNL A   1      38.875  36.356  41.870  1.00  0.00    -0.237 OA
ATOM     98  O   UNL A   1      41.005  37.537  41.456  1.00  0.00    -0.237 OA
ATOM     99  O   UNL A   1      38.915  38.385  40.464  1.00  0.00    -0.744 OA
ENDBRANCH  95  96
ENDBRANCH  63  88
ENDBRANCH  37  38
ENDBRANCH  30  32
ENDBRANCH  29  30
ENDBRANCH  28  29
ENDBRANCH  27  28
ENDBRANCH  26  27
ENDBRANCH  25  26
ENDBRANCH   1  25
TORSDOF 23
ENDMDL
