MODEL 1
REMARK VINA RESULT:      -9.1      0.000      0.000
REMARK SMILES NS(=O)(=O)c1ccc(-n2nc(C(=O)NCCCC(=O)OCCOCCOCCOC(=O)c3ccc(-c4c5nc(c(-c6c(F)cc(S(=O)(=O)[O-])cc6F)c6ccc([nH]6)c(-c6c(F)cc(S(=O)(=O)[O-])cc6F)c6nc(c(-c7c(F)cc(S(=O)(=O)[O-])cc7F)c7ccc4[nH]7)C=C6)C=C5)cc3)cc2-c2ccccc2)cc1
REMARK SMILES IDX 22 1 21 2 20 3 18 4 19 5 17 6 16 7 15 8 14 9 12 10 13 11
REMARK SMILES IDX 11 13 9 14 10 15 99 16 98 17 8 18 5 19 6 20 107 21 7 22
REMARK SMILES IDX 106 23 2 24 3 25 4 26 1 27 100 30 101 31 105 32 102 33
REMARK SMILES IDX 104 34 103 35 23 36 24 37 25 38 26 39 27 40 28 41 29 42
REMARK SMILES IDX 30 43 31 44 32 45 33 46 97 47 34 48 96 49 35 50 36 51 37 52
REMARK SMILES IDX 90 53 38 54 95 55 89 56 91 57 39 58 94 59 88 60 87 61 40 63
REMARK SMILES IDX 74 64 53 65 73 66 54 67 57 68 72 69 92 70 55 71 56 72 71 74
REMARK SMILES IDX 93 75 58 76 41 77 42 78 51 79 43 80 44 81 50 82 52 83 45 84
REMARK SMILES IDX 46 85 47 86 48 87 49 88 75 89 76 90 85 91 77 92 78 93 84 94
REMARK SMILES IDX 86 95 79 96 80 97 81 98 82 99 83 100 59 101 60 102 69 103
REMARK SMILES IDX 61 104 62 105 68 106 70 107 63 108 64 109 65 110 66 111
REMARK SMILES IDX 67 112
REMARK H PARENT 14 12 1 28 1 29 91 62 57 73
REMARK Flexibility Score: inf
ROOT
ATOM      1  C   UNL A   1      45.673  22.539  26.372  1.00  0.00     0.202 C 
ENDROOT
BRANCH   1   2
ATOM      2  C   UNL A   1      45.317  22.034  24.965  1.00  0.00     0.261 C 
BRANCH   2   3
ATOM      3  O   UNL A   1      43.902  22.022  24.696  1.00  0.00    -0.463 OA
BRANCH   3   4
ATOM      4  C   UNL A   1      43.155  23.017  25.226  1.00  0.00     0.305 C 
ATOM      5  O   UNL A   1      43.153  24.176  24.824  1.00  0.00    -0.252 OA
BRANCH   4   6
ATOM      6  C   UNL A   1      42.244  22.573  26.356  1.00  0.00     0.124 C 
BRANCH   6   7
ATOM      7  C   UNL A   1      41.195  21.487  26.143  1.00  0.00     0.033 C 
BRANCH   7   8
ATOM      8  C   UNL A   1      39.784  21.754  26.644  1.00  0.00     0.117 C 
BRANCH   8   9
ATOM      9  N   UNL A   1      39.550  23.149  26.935  1.00  0.00    -0.351 N 
ATOM     10  C   UNL A   1      38.475  23.980  26.716  1.00  0.00     0.271 C 
ATOM     11  O   UNL A   1      38.655  25.159  27.035  1.00  0.00    -0.267 OA
ATOM     12  H   UNL A   1      40.309  23.593  27.377  1.00  0.00     0.163 HD
BRANCH  10  13
ATOM     13  C   UNL A   1      37.182  23.506  26.164  1.00  0.00     0.151 A 
ATOM     14  N   UNL A   1      35.252  23.717  25.233  1.00  0.00    -0.232 N 
ATOM     15  N   UNL A   1      36.431  24.351  25.422  1.00  0.00    -0.162 NA
ATOM     16  C   UNL A   1      35.319  22.384  25.586  1.00  0.00     0.075 A 
ATOM     17  C   UNL A   1      36.505  22.264  26.279  1.00  0.00     0.065 A 
BRANCH  14  18
ATOM     18  C   UNL A   1      34.127  24.420  24.735  1.00  0.00     0.065 A 
ATOM     19  C   UNL A   1      32.053  25.984  23.763  1.00  0.00     0.082 A 
ATOM     20  C   UNL A   1      32.885  25.320  22.861  1.00  0.00     0.024 A 
ATOM     21  C   UNL A   1      32.215  25.827  25.146  1.00  0.00     0.024 A 
ATOM     22  C   UNL A   1      33.933  24.545  23.350  1.00  0.00     0.030 A 
ATOM     23  C   UNL A   1      33.242  25.020  25.636  1.00  0.00     0.030 A 
BRANCH  19  24
ATOM     24  S   UNL A   1      30.759  27.031  23.174  1.00  0.00     0.238 S 
ATOM     25  O   UNL A   1      29.544  26.724  23.876  1.00  0.00    -0.207 OA
ATOM     26  O   UNL A   1      30.821  27.107  21.726  1.00  0.00    -0.207 OA
BRANCH  24  27
ATOM     27  N   UNL A   1      31.262  28.534  23.727  1.00  0.00    -0.225 NA
ATOM     28  H   UNL A   1      31.825  28.415  24.570  1.00  0.00     0.137 HD
ATOM     29  H   UNL A   1      30.447  29.107  23.941  1.00  0.00     0.137 HD
ENDBRANCH  24  27
ENDBRANCH  19  24
ENDBRANCH  14  18
BRANCH  16  30
ATOM     30  C   UNL A   1      34.351  21.347  25.231  1.00  0.00     0.000 A 
ATOM     31  C   UNL A   1      34.780  20.094  24.767  1.00  0.00     0.010 A 
ATOM     32  C   UNL A   1      32.981  21.583  25.383  1.00  0.00     0.010 A 
ATOM     33  C   UNL A   1      33.852  19.108  24.434  1.00  0.00     0.001 A 
ATOM     34  C   UNL A   1      32.054  20.594  25.052  1.00  0.00     0.001 A 
ATOM     35  C   UNL A   1      32.490  19.359  24.574  1.00  0.00     0.000 A 
ENDBRANCH  16  30
ENDBRANCH  10  13
ENDBRANCH   8   9
ENDBRANCH   7   8
ENDBRANCH   6   7
ENDBRANCH   4   6
ENDBRANCH   3   4
ENDBRANCH   2   3
ENDBRANCH   1   2
BRANCH   1  36
ATOM     36  O   UNL A   1      46.819  23.375  26.489  1.00  0.00    -0.376 OA
BRANCH  36  37
ATOM     37  C   UNL A   1      46.728  24.695  25.952  1.00  0.00     0.188 C 
BRANCH  37  38
ATOM     38  C   UNL A   1      46.937  25.854  26.936  1.00  0.00     0.188 C 
BRANCH  38  39
ATOM     39  O   UNL A   1      48.281  26.225  27.177  1.00  0.00    -0.376 OA
BRANCH  39  40
ATOM     40  C   UNL A   1      49.281  25.325  27.658  1.00  0.00     0.202 C 
BRANCH  40  41
ATOM     41  C   UNL A   1      50.461  25.625  28.600  1.00  0.00     0.261 C 
BRANCH  41  42
ATOM     42  O   UNL A   1      50.284  25.383  29.972  1.00  0.00    -0.460 OA
BRANCH  42  43
ATOM     43  C   UNL A   1      51.295  25.788  30.772  1.00  0.00     0.338 C 
ATOM     44  O   UNL A   1      52.484  25.763  30.517  1.00  0.00    -0.246 OA
BRANCH  43  45
ATOM     45  C   UNL A   1      50.675  26.313  31.999  1.00  0.00     0.060 A 
ATOM     46  C   UNL A   1      51.371  26.131  33.190  1.00  0.00     0.016 A 
ATOM     47  C   UNL A   1      49.343  26.768  31.976  1.00  0.00     0.016 A 
ATOM     48  C   UNL A   1      50.634  26.074  34.348  1.00  0.00     0.010 A 
ATOM     49  C   UNL A   1      48.608  26.707  33.129  1.00  0.00     0.010 A 
ATOM     50  C   UNL A   1      49.243  26.223  34.262  1.00  0.00    -0.014 A 
BRANCH  50  51
ATOM     51  C   UNL A   1      48.445  25.866  35.408  1.00  0.00     0.031 A 
ATOM     52  C   UNL A   1      48.083  24.441  35.403  1.00  0.00     0.074 A 
ATOM     53  C   UNL A   1      48.123  26.757  36.366  1.00  0.00     0.049 A 
ATOM     54  N   UNL A   1      46.950  23.941  35.040  1.00  0.00    -0.248 NA
ATOM     55  C   UNL A   1      49.155  23.451  35.572  1.00  0.00     0.031 C 
ATOM     56  C   UNL A   1      48.619  28.122  36.565  1.00  0.00     0.029 A 
ATOM     57  N   UNL A   1      47.295  26.583  37.429  1.00  0.00    -0.354 N 
ATOM     58  C   UNL A   1      47.092  22.574  35.204  1.00  0.00     0.074 A 
ATOM     59  C   UNL A   1      48.506  22.320  35.293  1.00  0.00     0.031 C 
ATOM     60  C   UNL A   1      48.258  28.556  37.798  1.00  0.00     0.029 A 
ATOM     61  C   UNL A   1      47.387  27.566  38.410  1.00  0.00     0.049 A 
ATOM     62  H   UNL A   1      46.676  25.820  37.500  1.00  0.00     0.167 HD
ATOM     63  C   UNL A   1      46.024  21.809  35.551  1.00  0.00     0.037 A 
ATOM     64  C   UNL A   1      46.820  27.511  39.645  1.00  0.00     0.037 A 
ATOM     65  C   UNL A   1      44.784  22.516  35.344  1.00  0.00     0.049 A 
ATOM     66  C   UNL A   1      45.696  26.537  39.550  1.00  0.00     0.074 A 
ATOM     67  C   UNL A   1      44.152  23.063  34.244  1.00  0.00     0.029 A 
ATOM     68  N   UNL A   1      44.204  23.102  36.444  1.00  0.00    -0.354 N 
ATOM     69  N   UNL A   1      44.624  26.749  38.833  1.00  0.00    -0.248 NA
ATOM     70  C   UNL A   1      45.991  25.138  39.829  1.00  0.00     0.031 C 
ATOM     71  C   UNL A   1      43.558  24.269  34.716  1.00  0.00     0.029 A 
ATOM     72  C   UNL A   1      43.791  24.361  36.089  1.00  0.00     0.049 A 
ATOM     73  H   UNL A   1      44.101  22.689  37.333  1.00  0.00     0.167 HD
ATOM     74  C   UNL A   1      44.362  25.532  38.215  1.00  0.00     0.074 A 
ATOM     75  C   UNL A   1      45.201  24.562  38.917  1.00  0.00     0.031 C 
ATOM     76  C   UNL A   1      43.721  25.477  37.009  1.00  0.00     0.037 A 
BRANCH  63  77
ATOM     77  C   UNL A   1      46.125  20.604  36.446  1.00  0.00     0.058 A 
ATOM     78  C   UNL A   1      45.471  19.417  36.073  1.00  0.00     0.135 A 
ATOM     79  C   UNL A   1      46.608  20.651  37.774  1.00  0.00     0.135 A 
ATOM     80  F   UNL A   1      44.954  19.281  34.840  1.00  0.00    -0.206 F 
ATOM     81  C   UNL A   1      45.262  18.372  36.971  1.00  0.00     0.059 A 
ATOM     82  C   UNL A   1      46.464  19.599  38.666  1.00  0.00     0.059 A 
ATOM     83  F   UNL A   1      47.153  21.753  38.303  1.00  0.00    -0.206 F 
ATOM     84  C   UNL A   1      45.758  18.477  38.268  1.00  0.00     0.060 A 
BRANCH  84  85
ATOM     85  S   UNL A   1      45.430  17.161  39.447  1.00  0.00     0.124 S 
ATOM     86  O   UNL A   1      44.761  16.176  38.606  1.00  0.00    -0.237 OA
ATOM     87  O   UNL A   1      46.777  16.817  39.892  1.00  0.00    -0.237 OA
ATOM     88  O   UNL A   1      44.591  17.810  40.450  1.00  0.00    -0.744 OA
ENDBRANCH  84  85
ENDBRANCH  63  77
BRANCH  64  89
ATOM     89  C   UNL A   1      47.426  27.900  40.951  1.00  0.00     0.058 A 
ATOM     90  C   UNL A   1      46.672  28.558  41.942  1.00  0.00     0.135 A 
ATOM     91  C   UNL A   1      48.663  27.369  41.371  1.00  0.00     0.135 A 
ATOM     92  F   UNL A   1      45.472  29.077  41.640  1.00  0.00    -0.206 F 
ATOM     93  C   UNL A   1      47.092  28.638  43.278  1.00  0.00     0.059 A 
ATOM     94  C   UNL A   1      49.104  27.441  42.693  1.00  0.00     0.059 A 
ATOM     95  F   UNL A   1      49.442  26.679  40.525  1.00  0.00    -0.206 F 
ATOM     96  C   UNL A   1      48.302  28.054  43.649  1.00  0.00     0.060 A 
BRANCH  96  97
ATOM     97  S   UNL A   1      48.768  27.990  45.397  1.00  0.00     0.124 S 
ATOM     98  O   UNL A   1      49.904  28.903  45.441  1.00  0.00    -0.237 OA
ATOM     99  O   UNL A   1      47.552  28.452  46.059  1.00  0.00    -0.237 OA
ATOM    100  O   UNL A   1      49.092  26.581  45.610  1.00  0.00    -0.744 OA
ENDBRANCH  96  97
ENDBRANCH  64  89
BRANCH  76 101
ATOM    101  C   UNL A   1      43.045  26.729  36.504  1.00  0.00     0.058 A 
ATOM    102  C   UNL A   1      43.663  27.713  35.710  1.00  0.00     0.135 A 
ATOM    103  C   UNL A   1      41.664  26.855  36.716  1.00  0.00     0.135 A 
ATOM    104  F   UNL A   1      44.956  27.616  35.375  1.00  0.00    -0.206 F 
ATOM    105  C   UNL A   1      42.944  28.792  35.187  1.00  0.00     0.059 A 
ATOM    106  C   UNL A   1      40.924  27.903  36.180  1.00  0.00     0.059 A 
ATOM    107  F   UNL A   1      41.004  25.915  37.415  1.00  0.00    -0.206 F 
ATOM    108  C   UNL A   1      41.573  28.879  35.427  1.00  0.00     0.060 A 
BRANCH 108 109
ATOM    109  S   UNL A   1      40.628  30.237  34.702  1.00  0.00     0.124 S 
ATOM    110  O   UNL A   1      40.415  29.768  33.337  1.00  0.00    -0.237 OA
ATOM    111  O   UNL A   1      39.438  30.284  35.549  1.00  0.00    -0.237 OA
ATOM    112  O   UNL A   1      41.521  31.385  34.836  1.00  0.00    -0.744 OA
ENDBRANCH 108 109
ENDBRANCH  76 101
ENDBRANCH  50  51
ENDBRANCH  43  45
ENDBRANCH  42  43
ENDBRANCH  41  42
ENDBRANCH  40  41
ENDBRANCH  39  40
ENDBRANCH  38  39
ENDBRANCH  37  38
ENDBRANCH  36  37
ENDBRANCH   1  36
TORSDOF 28
ENDMDL
MODEL 2
REMARK VINA RESULT:      -8.9      5.449     10.798
REMARK SMILES NS(=O)(=O)c1ccc(-n2nc(C(=O)NCCCC(=O)OCCOCCOCCOC(=O)c3ccc(-c4c5nc(c(-c6c(F)cc(S(=O)(=O)[O-])cc6F)c6ccc([nH]6)c(-c6c(F)cc(S(=O)(=O)[O-])cc6F)c6nc(c(-c7c(F)cc(S(=O)(=O)[O-])cc7F)c7ccc4[nH]7)C=C6)C=C5)cc3)cc2-c2ccccc2)cc1
REMARK SMILES IDX 22 1 21 2 20 3 18 4 19 5 17 6 16 7 15 8 14 9 12 10 13 11
REMARK SMILES IDX 11 13 9 14 10 15 99 16 98 17 8 18 5 19 6 20 107 21 7 22
REMARK SMILES IDX 106 23 2 24 3 25 4 26 1 27 100 30 101 31 105 32 102 33
REMARK SMILES IDX 104 34 103 35 23 36 24 37 25 38 26 39 27 40 28 41 29 42
REMARK SMILES IDX 30 43 31 44 32 45 33 46 97 47 34 48 96 49 35 50 36 51 37 52
REMARK SMILES IDX 90 53 38 54 95 55 89 56 91 57 39 58 94 59 88 60 87 61 40 63
REMARK SMILES IDX 74 64 53 65 73 66 54 67 57 68 72 69 92 70 55 71 56 72 71 74
REMARK SMILES IDX 93 75 58 76 41 77 42 78 51 79 43 80 44 81 50 82 52 83 45 84
REMARK SMILES IDX 46 85 47 86 48 87 49 88 75 89 76 90 85 91 77 92 78 93 84 94
REMARK SMILES IDX 86 95 79 96 80 97 81 98 82 99 83 100 59 101 60 102 69 103
REMARK SMILES IDX 61 104 62 105 68 106 70 107 63 108 64 109 65 110 66 111
REMARK SMILES IDX 67 112
REMARK H PARENT 14 12 1 28 1 29 91 62 57 73
REMARK Flexibility Score: inf
ROOT
ATOM      1  C   UNL A   1      38.078  30.327  30.225  1.00  0.00     0.202 C 
ENDROOT
BRANCH   1   2
ATOM      2  C   UNL A   1      38.024  29.310  29.075  1.00  0.00     0.261 C 
BRANCH   2   3
ATOM      3  O   UNL A   1      38.800  28.120  29.318  1.00  0.00    -0.463 OA
BRANCH   3   4
ATOM      4  C   UNL A   1      39.966  27.985  28.647  1.00  0.00     0.305 C 
ATOM      5  O   UNL A   1      40.972  28.654  28.859  1.00  0.00    -0.252 OA
BRANCH   4   6
ATOM      6  C   UNL A   1      39.963  26.870  27.616  1.00  0.00     0.124 C 
BRANCH   6   7
ATOM      7  C   UNL A   1      39.927  25.405  28.040  1.00  0.00     0.033 C 
BRANCH   7   8
ATOM      8  C   UNL A   1      39.036  24.460  27.248  1.00  0.00     0.117 C 
BRANCH   8   9
ATOM      9  N   UNL A   1      39.740  23.289  26.781  1.00  0.00    -0.351 N 
ATOM     10  C   UNL A   1      39.325  22.147  26.134  1.00  0.00     0.271 C 
ATOM     11  O   UNL A   1      40.209  21.303  25.950  1.00  0.00    -0.267 OA
ATOM     12  H   UNL A   1      40.708  23.311  26.962  1.00  0.00     0.163 HD
BRANCH  10  13
ATOM     13  C   UNL A   1      37.934  21.941  25.664  1.00  0.00     0.151 A 
ATOM     14  N   UNL A   1      36.006  22.544  24.920  1.00  0.00    -0.232 N 
ATOM     15  N   UNL A   1      37.286  22.956  25.050  1.00  0.00    -0.162 NA
ATOM     16  C   UNL A   1      35.869  21.193  25.172  1.00  0.00     0.075 A 
ATOM     17  C   UNL A   1      37.065  20.823  25.751  1.00  0.00     0.065 A 
BRANCH  14  18
ATOM     18  C   UNL A   1      34.984  23.462  24.571  1.00  0.00     0.065 A 
ATOM     19  C   UNL A   1      32.837  25.085  23.902  1.00  0.00     0.082 A 
ATOM     20  C   UNL A   1      33.223  24.984  25.238  1.00  0.00     0.024 A 
ATOM     21  C   UNL A   1      33.551  24.425  22.892  1.00  0.00     0.024 A 
ATOM     22  C   UNL A   1      34.294  24.160  25.575  1.00  0.00     0.030 A 
ATOM     23  C   UNL A   1      34.646  23.629  23.224  1.00  0.00     0.030 A 
BRANCH  19  24
ATOM     24  S   UNL A   1      31.440  26.066  23.452  1.00  0.00     0.238 S 
ATOM     25  O   UNL A   1      31.397  26.202  22.022  1.00  0.00    -0.207 OA
ATOM     26  O   UNL A   1      31.343  27.206  24.344  1.00  0.00    -0.207 OA
BRANCH  24  27
ATOM     27  N   UNL A   1      30.167  25.054  23.870  1.00  0.00    -0.225 NA
ATOM     28  H   UNL A   1      30.385  24.098  23.587  1.00  0.00     0.137 HD
ATOM     29  H   UNL A   1      29.318  25.364  23.399  1.00  0.00     0.137 HD
ENDBRANCH  24  27
ENDBRANCH  19  24
ENDBRANCH  14  18
BRANCH  16  30
ATOM     30  C   UNL A   1      34.715  20.364  24.831  1.00  0.00     0.000 A 
ATOM     31  C   UNL A   1      34.870  18.996  24.559  1.00  0.00     0.010 A 
ATOM     32  C   UNL A   1      33.432  20.921  24.804  1.00  0.00     0.010 A 
ATOM     33  C   UNL A   1      33.765  18.208  24.238  1.00  0.00     0.001 A 
ATOM     34  C   UNL A   1      32.327  20.131  24.485  1.00  0.00     0.001 A 
ATOM     35  C   UNL A   1      32.494  18.777  24.198  1.00  0.00     0.000 A 
ENDBRANCH  16  30
ENDBRANCH  10  13
ENDBRANCH   8   9
ENDBRANCH   7   8
ENDBRANCH   6   7
ENDBRANCH   4   6
ENDBRANCH   3   4
ENDBRANCH   2   3
ENDBRANCH   1   2
BRANCH   1  36
ATOM     36  O   UNL A   1      36.935  31.155  30.413  1.00  0.00    -0.376 OA
BRANCH  36  37
ATOM     37  C   UNL A   1      37.105  32.561  30.234  1.00  0.00     0.188 C 
BRANCH  37  38
ATOM     38  C   UNL A   1      38.503  33.039  29.819  1.00  0.00     0.188 C 
BRANCH  38  39
ATOM     39  O   UNL A   1      38.598  34.392  29.417  1.00  0.00    -0.376 OA
BRANCH  39  40
ATOM     40  C   UNL A   1      39.800  35.162  29.488  1.00  0.00     0.202 C 
BRANCH  40  41
ATOM     41  C   UNL A   1      41.063  35.042  28.617  1.00  0.00     0.261 C 
BRANCH  41  42
ATOM     42  O   UNL A   1      41.935  36.141  28.569  1.00  0.00    -0.460 OA
BRANCH  42  43
ATOM     43  C   UNL A   1      42.677  36.249  27.445  1.00  0.00     0.338 C 
ATOM     44  O   UNL A   1      42.564  37.088  26.572  1.00  0.00    -0.246 OA
BRANCH  43  45
ATOM     45  C   UNL A   1      43.686  35.179  27.505  1.00  0.00     0.060 A 
ATOM     46  C   UNL A   1      43.589  34.162  26.561  1.00  0.00     0.016 A 
ATOM     47  C   UNL A   1      44.556  35.091  28.609  1.00  0.00     0.016 A 
ATOM     48  C   UNL A   1      44.097  32.933  26.905  1.00  0.00     0.010 A 
ATOM     49  C   UNL A   1      45.059  33.866  28.953  1.00  0.00     0.010 A 
ATOM     50  C   UNL A   1      44.696  32.786  28.163  1.00  0.00    -0.014 A 
BRANCH  50  51
ATOM     51  C   UNL A   1      44.953  31.452  28.648  1.00  0.00     0.031 A 
ATOM     52  C   UNL A   1      44.385  31.236  29.987  1.00  0.00     0.074 A 
ATOM     53  C   UNL A   1      45.607  30.534  27.912  1.00  0.00     0.049 A 
ATOM     54  N   UNL A   1      45.030  31.266  31.104  1.00  0.00    -0.248 NA
ATOM     55  C   UNL A   1      42.923  31.239  30.131  1.00  0.00     0.031 C 
ATOM     56  C   UNL A   1      46.006  30.590  26.502  1.00  0.00     0.029 A 
ATOM     57  N   UNL A   1      46.008  29.291  28.286  1.00  0.00    -0.354 N 
ATOM     58  C   UNL A   1      44.076  31.013  32.076  1.00  0.00     0.074 A 
ATOM     59  C   UNL A   1      42.797  31.245  31.459  1.00  0.00     0.031 C 
ATOM     60  C   UNL A   1      46.378  29.352  26.091  1.00  0.00     0.029 A 
ATOM     61  C   UNL A   1      46.388  28.458  27.237  1.00  0.00     0.049 A 
ATOM     62  H   UNL A   1      46.030  29.000  29.227  1.00  0.00     0.167 HD
ATOM     63  C   UNL A   1      44.413  30.348  33.212  1.00  0.00     0.037 A 
ATOM     64  C   UNL A   1      46.631  27.123  27.331  1.00  0.00     0.037 A 
ATOM     65  C   UNL A   1      45.842  30.315  33.395  1.00  0.00     0.049 A 
ATOM     66  C   UNL A   1      46.947  26.852  28.762  1.00  0.00     0.074 A 
ATOM     67  C   UNL A   1      46.821  31.276  33.559  1.00  0.00     0.029 A 
ATOM     68  N   UNL A   1      46.498  29.168  33.017  1.00  0.00    -0.354 N 
ATOM     69  N   UNL A   1      48.019  27.305  29.357  1.00  0.00    -0.248 NA
ATOM     70  C   UNL A   1      45.838  26.521  29.646  1.00  0.00     0.031 C 
ATOM     71  C   UNL A   1      47.946  30.791  32.832  1.00  0.00     0.029 A 
ATOM     72  C   UNL A   1      47.627  29.530  32.326  1.00  0.00     0.049 A 
ATOM     73  H   UNL A   1      46.208  28.246  33.209  1.00  0.00     0.167 HD
ATOM     74  C   UNL A   1      47.583  27.724  30.607  1.00  0.00     0.074 A 
ATOM     75  C   UNL A   1      46.243  27.157  30.750  1.00  0.00     0.031 C 
ATOM     76  C   UNL A   1      48.223  28.729  31.277  1.00  0.00     0.037 A 
BRANCH  63  77
ATOM     77  C   UNL A   1      43.487  29.395  33.917  1.00  0.00     0.058 A 
ATOM     78  C   UNL A   1      43.213  29.590  35.282  1.00  0.00     0.135 A 
ATOM     79  C   UNL A   1      43.078  28.154  33.377  1.00  0.00     0.135 A 
ATOM     80  F   UNL A   1      43.582  30.726  35.897  1.00  0.00    -0.206 F 
ATOM     81  C   UNL A   1      42.625  28.601  36.069  1.00  0.00     0.059 A 
ATOM     82  C   UNL A   1      42.437  27.180  34.128  1.00  0.00     0.059 A 
ATOM     83  F   UNL A   1      43.368  27.784  32.124  1.00  0.00    -0.206 F 
ATOM     84  C   UNL A   1      42.246  27.397  35.481  1.00  0.00     0.060 A 
BRANCH  84  85
ATOM     85  S   UNL A   1      41.551  26.095  36.508  1.00  0.00     0.124 S 
ATOM     86  O   UNL A   1      42.756  25.463  37.032  1.00  0.00    -0.237 OA
ATOM     87  O   UNL A   1      40.760  26.861  37.465  1.00  0.00    -0.237 OA
ATOM     88  O   UNL A   1      40.779  25.297  35.560  1.00  0.00    -0.744 OA
ENDBRANCH  84  85
ENDBRANCH  63  77
BRANCH  64  89
ATOM     89  C   UNL A   1      46.204  26.045  26.393  1.00  0.00     0.058 A 
ATOM     90  C   UNL A   1      47.087  25.018  26.006  1.00  0.00     0.135 A 
ATOM     91  C   UNL A   1      44.843  25.828  26.097  1.00  0.00     0.135 A 
ATOM     92  F   UNL A   1      48.400  25.127  26.265  1.00  0.00    -0.206 F 
ATOM     93  C   UNL A   1      46.644  23.828  25.412  1.00  0.00     0.059 A 
ATOM     94  C   UNL A   1      44.378  24.654  25.502  1.00  0.00     0.059 A 
ATOM     95  F   UNL A   1      43.906  26.715  26.464  1.00  0.00    -0.206 F 
ATOM     96  C   UNL A   1      45.280  23.645  25.185  1.00  0.00     0.060 A 
BRANCH  96  97
ATOM     97  S   UNL A   1      44.677  22.046  24.590  1.00  0.00     0.124 S 
ATOM     98  O   UNL A   1      43.548  21.798  25.480  1.00  0.00    -0.237 OA
ATOM     99  O   UNL A   1      44.341  22.338  23.201  1.00  0.00    -0.237 OA
ATOM    100  O   UNL A   1      45.823  21.160  24.777  1.00  0.00    -0.744 OA
ENDBRANCH  96  97
ENDBRANCH  64  89
BRANCH  76 101
ATOM    101  C   UNL A   1      49.576  29.171  30.775  1.00  0.00     0.058 A 
ATOM    102  C   UNL A   1      50.795  28.537  31.081  1.00  0.00     0.135 A 
ATOM    103  C   UNL A   1      49.614  30.197  29.819  1.00  0.00     0.135 A 
ATOM    104  F   UNL A   1      50.835  27.482  31.907  1.00  0.00    -0.206 F 
ATOM    105  C   UNL A   1      51.999  28.935  30.491  1.00  0.00     0.059 A 
ATOM    106  C   UNL A   1      50.795  30.589  29.197  1.00  0.00     0.059 A 
ATOM    107  F   UNL A   1      48.475  30.800  29.438  1.00  0.00    -0.206 F 
ATOM    108  C   UNL A   1      51.988  29.963  29.549  1.00  0.00     0.060 A 
BRANCH 108 109
ATOM    109  S   UNL A   1      53.530  30.441  28.738  1.00  0.00     0.124 S 
ATOM    110  O   UNL A   1      53.979  31.555  29.565  1.00  0.00    -0.237 OA
ATOM    111  O   UNL A   1      54.329  29.221  28.831  1.00  0.00    -0.237 OA
ATOM    112  O   UNL A   1      53.110  30.796  27.385  1.00  0.00    -0.744 OA
ENDBRANCH 108 109
ENDBRANCH  76 101
ENDBRANCH  50  51
ENDBRANCH  43  45
ENDBRANCH  42  43
ENDBRANCH  41  42
ENDBRANCH  40  41
ENDBRANCH  39  40
ENDBRANCH  38  39
ENDBRANCH  37  38
ENDBRANCH  36  37
ENDBRANCH   1  36
TORSDOF 28
ENDMDL
MODEL 3
REMARK VINA RESULT:      -8.6      6.080     10.298
REMARK SMILES NS(=O)(=O)c1ccc(-n2nc(C(=O)NCCCC(=O)OCCOCCOCCOC(=O)c3ccc(-c4c5nc(c(-c6c(F)cc(S(=O)(=O)[O-])cc6F)c6ccc([nH]6)c(-c6c(F)cc(S(=O)(=O)[O-])cc6F)c6nc(c(-c7c(F)cc(S(=O)(=O)[O-])cc7F)c7ccc4[nH]7)C=C6)C=C5)cc3)cc2-c2ccccc2)cc1
REMARK SMILES IDX 22 1 21 2 20 3 18 4 19 5 17 6 16 7 15 8 14 9 12 10 13 11
REMARK SMILES IDX 11 13 9 14 10 15 99 16 98 17 8 18 5 19 6 20 107 21 7 22
REMARK SMILES IDX 106 23 2 24 3 25 4 26 1 27 100 30 101 31 105 32 102 33
REMARK SMILES IDX 104 34 103 35 23 36 24 37 25 38 26 39 27 40 28 41 29 42
REMARK SMILES IDX 30 43 31 44 32 45 33 46 97 47 34 48 96 49 35 50 36 51 37 52
REMARK SMILES IDX 90 53 38 54 95 55 89 56 91 57 39 58 94 59 88 60 87 61 40 63
REMARK SMILES IDX 74 64 53 65 73 66 54 67 57 68 72 69 92 70 55 71 56 72 71 74
REMARK SMILES IDX 93 75 58 76 41 77 42 78 51 79 43 80 44 81 50 82 52 83 45 84
REMARK SMILES IDX 46 85 47 86 48 87 49 88 75 89 76 90 85 91 77 92 78 93 84 94
REMARK SMILES IDX 86 95 79 96 80 97 81 98 82 99 83 100 59 101 60 102 69 103
REMARK SMILES IDX 61 104 62 105 68 106 70 107 63 108 64 109 65 110 66 111
REMARK SMILES IDX 67 112
REMARK H PARENT 14 12 1 28 1 29 91 62 57 73
REMARK Flexibility Score: inf
ROOT
ATOM      1  C   UNL A   1      37.769  29.503  28.975  1.00  0.00     0.202 C 
ENDROOT
BRANCH   1   2
ATOM      2  C   UNL A   1      36.810  29.499  27.775  1.00  0.00     0.261 C 
BRANCH   2   3
ATOM      3  O   UNL A   1      35.983  30.676  27.691  1.00  0.00    -0.463 OA
BRANCH   3   4
ATOM      4  C   UNL A   1      34.642  30.499  27.682  1.00  0.00     0.305 C 
ATOM      5  O   UNL A   1      33.825  31.359  27.995  1.00  0.00    -0.252 OA
BRANCH   4   6
ATOM      6  C   UNL A   1      34.200  29.135  27.182  1.00  0.00     0.124 C 
BRANCH   6   7
ATOM      7  C   UNL A   1      32.751  28.677  27.316  1.00  0.00     0.033 C 
BRANCH   7   8
ATOM      8  C   UNL A   1      31.992  28.341  26.041  1.00  0.00     0.117 C 
BRANCH   8   9
ATOM      9  N   UNL A   1      30.864  27.472  26.277  1.00  0.00    -0.351 N 
ATOM     10  C   UNL A   1      30.687  26.114  26.137  1.00  0.00     0.271 C 
ATOM     11  O   UNL A   1      29.542  25.711  26.365  1.00  0.00    -0.267 OA
ATOM     12  H   UNL A   1      30.063  27.943  26.602  1.00  0.00     0.163 HD
BRANCH  10  13
ATOM     13  C   UNL A   1      31.784  25.187  25.767  1.00  0.00     0.151 A 
ATOM     14  N   UNL A   1      32.641  23.313  25.142  1.00  0.00    -0.232 N 
ATOM     15  N   UNL A   1      31.483  24.008  25.176  1.00  0.00    -0.162 NA
ATOM     16  C   UNL A   1      33.731  24.109  25.432  1.00  0.00     0.075 A 
ATOM     17  C   UNL A   1      33.190  25.273  25.937  1.00  0.00     0.065 A 
BRANCH  14  18
ATOM     18  C   UNL A   1      32.642  21.928  24.843  1.00  0.00     0.065 A 
ATOM     19  C   UNL A   1      32.861  19.240  24.191  1.00  0.00     0.082 A 
ATOM     20  C   UNL A   1      33.128  19.647  25.498  1.00  0.00     0.024 A 
ATOM     21  C   UNL A   1      32.432  20.158  23.222  1.00  0.00     0.024 A 
ATOM     22  C   UNL A   1      33.029  20.999  25.822  1.00  0.00     0.030 A 
ATOM     23  C   UNL A   1      32.297  21.505  23.556  1.00  0.00     0.030 A 
BRANCH  19  24
ATOM     24  S   UNL A   1      33.046  17.546  23.732  1.00  0.00     0.238 S 
ATOM     25  O   UNL A   1      34.371  17.104  24.073  1.00  0.00    -0.207 OA
ATOM     26  O   UNL A   1      32.473  17.337  22.416  1.00  0.00    -0.207 OA
BRANCH  24  27
ATOM     27  N   UNL A   1      32.002  16.789  24.806  1.00  0.00    -0.225 NA
ATOM     28  H   UNL A   1      31.099  16.641  24.354  1.00  0.00     0.137 HD
ATOM     29  H   UNL A   1      31.878  17.375  25.630  1.00  0.00     0.137 HD
ENDBRANCH  24  27
ENDBRANCH  19  24
ENDBRANCH  14  18
BRANCH  16  30
ATOM     30  C   UNL A   1      35.133  23.775  25.188  1.00  0.00     0.000 A 
ATOM     31  C   UNL A   1      35.543  23.266  23.947  1.00  0.00     0.010 A 
ATOM     32  C   UNL A   1      36.092  23.993  26.184  1.00  0.00     0.010 A 
ATOM     33  C   UNL A   1      36.883  22.952  23.718  1.00  0.00     0.001 A 
ATOM     34  C   UNL A   1      37.433  23.681  25.952  1.00  0.00     0.001 A 
ATOM     35  C   UNL A   1      37.826  23.157  24.721  1.00  0.00     0.000 A 
ENDBRANCH  16  30
ENDBRANCH  10  13
ENDBRANCH   8   9
ENDBRANCH   7   8
ENDBRANCH   6   7
ENDBRANCH   4   6
ENDBRANCH   3   4
ENDBRANCH   2   3
ENDBRANCH   1   2
BRANCH   1  36
ATOM     36  O   UNL A   1      37.993  28.260  29.630  1.00  0.00    -0.376 OA
BRANCH  36  37
ATOM     37  C   UNL A   1      39.220  27.583  29.355  1.00  0.00     0.188 C 
BRANCH  37  38
ATOM     38  C   UNL A   1      39.497  27.226  27.888  1.00  0.00     0.188 C 
BRANCH  38  39
ATOM     39  O   UNL A   1      40.851  26.987  27.556  1.00  0.00    -0.376 OA
BRANCH  39  40
ATOM     40  C   UNL A   1      41.581  25.831  27.972  1.00  0.00     0.202 C 
BRANCH  40  41
ATOM     41  C   UNL A   1      42.911  25.770  28.745  1.00  0.00     0.261 C 
BRANCH  41  42
ATOM     42  O   UNL A   1      44.093  25.611  28.006  1.00  0.00    -0.460 OA
BRANCH  42  43
ATOM     43  C   UNL A   1      44.416  26.638  27.190  1.00  0.00     0.338 C 
ATOM     44  O   UNL A   1      44.333  26.663  25.977  1.00  0.00    -0.246 OA
BRANCH  43  45
ATOM     45  C   UNL A   1      44.845  27.746  28.059  1.00  0.00     0.060 A 
ATOM     46  C   UNL A   1      45.336  27.412  29.317  1.00  0.00     0.016 A 
ATOM     47  C   UNL A   1      44.551  29.076  27.703  1.00  0.00     0.016 A 
ATOM     48  C   UNL A   1      45.207  28.349  30.313  1.00  0.00     0.010 A 
ATOM     49  C   UNL A   1      44.419  30.008  28.695  1.00  0.00     0.010 A 
ATOM     50  C   UNL A   1      44.615  29.580  29.999  1.00  0.00    -0.014 A 
BRANCH  50  51
ATOM     51  C   UNL A   1      44.203  30.437  31.083  1.00  0.00     0.031 A 
ATOM     52  C   UNL A   1      42.808  30.880  30.933  1.00  0.00     0.074 A 
ATOM     53  C   UNL A   1      45.020  30.742  32.109  1.00  0.00     0.049 A 
ATOM     54  N   UNL A   1      42.413  32.025  30.491  1.00  0.00    -0.248 NA
ATOM     55  C   UNL A   1      41.744  29.872  31.040  1.00  0.00     0.031 C 
ATOM     56  C   UNL A   1      46.328  30.175  32.450  1.00  0.00     0.029 A 
ATOM     57  N   UNL A   1      44.799  31.615  33.126  1.00  0.00    -0.354 N 
ATOM     58  C   UNL A   1      41.031  31.969  30.531  1.00  0.00     0.074 A 
ATOM     59  C   UNL A   1      40.685  30.575  30.638  1.00  0.00     0.031 C 
ATOM     60  C   UNL A   1      46.668  30.554  33.707  1.00  0.00     0.029 A 
ATOM     61  C   UNL A   1      45.681  31.501  34.197  1.00  0.00     0.049 A 
ATOM     62  H   UNL A   1      44.072  32.279  33.107  1.00  0.00     0.167 HD
ATOM     63  C   UNL A   1      40.303  33.090  30.773  1.00  0.00     0.037 A 
ATOM     64  C   UNL A   1      45.548  32.113  35.404  1.00  0.00     0.037 A 
ATOM     65  C   UNL A   1      41.099  34.279  30.596  1.00  0.00     0.049 A 
ATOM     66  C   UNL A   1      44.655  33.288  35.185  1.00  0.00     0.074 A 
ATOM     67  C   UNL A   1      41.782  34.840  29.534  1.00  0.00     0.029 A 
ATOM     68  N   UNL A   1      41.616  34.863  31.728  1.00  0.00    -0.354 N 
ATOM     69  N   UNL A   1      44.996  34.320  34.460  1.00  0.00    -0.248 NA
ATOM     70  C   UNL A   1      43.222  33.083  35.341  1.00  0.00     0.031 C 
ATOM     71  C   UNL A   1      42.974  35.380  30.099  1.00  0.00     0.029 A 
ATOM     72  C   UNL A   1      42.925  35.190  31.480  1.00  0.00     0.049 A 
ATOM     73  H   UNL A   1      41.130  35.020  32.571  1.00  0.00     0.167 HD
ATOM     74  C   UNL A   1      43.860  34.629  33.723  1.00  0.00     0.074 A 
ATOM     75  C   UNL A   1      42.781  33.872  34.356  1.00  0.00     0.031 C 
ATOM     76  C   UNL A   1      43.954  35.229  32.499  1.00  0.00     0.037 A 
BRANCH  63  77
ATOM     77  C   UNL A   1      39.017  33.089  31.553  1.00  0.00     0.058 A 
ATOM     78  C   UNL A   1      37.878  33.696  30.996  1.00  0.00     0.135 A 
ATOM     79  C   UNL A   1      38.932  32.760  32.926  1.00  0.00     0.135 A 
ATOM     80  F   UNL A   1      37.865  34.069  29.707  1.00  0.00    -0.206 F 
ATOM     81  C   UNL A   1      36.754  34.004  31.761  1.00  0.00     0.059 A 
ATOM     82  C   UNL A   1      37.801  33.003  33.690  1.00  0.00     0.059 A 
ATOM     83  F   UNL A   1      39.973  32.280  33.616  1.00  0.00    -0.206 F 
ATOM     84  C   UNL A   1      36.729  33.658  33.109  1.00  0.00     0.060 A 
BRANCH  84  85
ATOM     85  S   UNL A   1      35.310  34.117  34.113  1.00  0.00     0.124 S 
ATOM     86  O   UNL A   1      34.266  33.274  33.542  1.00  0.00    -0.237 OA
ATOM     87  O   UNL A   1      35.764  33.757  35.452  1.00  0.00    -0.237 OA
ATOM     88  O   UNL A   1      35.173  35.549  33.866  1.00  0.00    -0.744 OA
ENDBRANCH  84  85
ENDBRANCH  63  77
BRANCH  64  89
ATOM     89  C   UNL A   1      45.777  31.533  36.758  1.00  0.00     0.058 A 
ATOM     90  C   UNL A   1      46.412  32.272  37.775  1.00  0.00     0.135 A 
ATOM     91  C   UNL A   1      45.115  30.360  37.175  1.00  0.00     0.135 A 
ATOM     92  F   UNL A   1      47.050  33.415  37.478  1.00  0.00    -0.206 F 
ATOM     93  C   UNL A   1      46.348  31.902  39.126  1.00  0.00     0.059 A 
ATOM     94  C   UNL A   1      45.042  29.969  38.512  1.00  0.00     0.059 A 
ATOM     95  F   UNL A   1      44.435  29.603  36.300  1.00  0.00    -0.206 F 
ATOM     96  C   UNL A   1      45.639  30.758  39.488  1.00  0.00     0.060 A 
BRANCH  96  97
ATOM     97  S   UNL A   1      45.394  30.371  41.239  1.00  0.00     0.124 S 
ATOM     98  O   UNL A   1      46.277  31.334  41.888  1.00  0.00    -0.237 OA
ATOM     99  O   UNL A   1      43.964  30.600  41.411  1.00  0.00    -0.237 OA
ATOM    100  O   UNL A   1      45.814  28.976  41.339  1.00  0.00    -0.744 OA
ENDBRANCH  96  97
ENDBRANCH  64  89
BRANCH  76 101
ATOM    101  C   UNL A   1      45.285  35.814  32.093  1.00  0.00     0.058 A 
ATOM    102  C   UNL A   1      46.327  35.095  31.477  1.00  0.00     0.135 A 
ATOM    103  C   UNL A   1      45.448  37.203  32.203  1.00  0.00     0.135 A 
ATOM    104  F   UNL A   1      46.211  33.781  31.241  1.00  0.00    -0.206 F 
ATOM    105  C   UNL A   1      47.491  35.727  31.029  1.00  0.00     0.059 A 
ATOM    106  C   UNL A   1      46.584  37.857  31.737  1.00  0.00     0.059 A 
ATOM    107  F   UNL A   1      44.463  37.954  32.727  1.00  0.00    -0.206 F 
ATOM    108  C   UNL A   1      47.610  37.110  31.164  1.00  0.00     0.060 A 
BRANCH 108 109
ATOM    109  S   UNL A   1      49.085  37.940  30.531  1.00  0.00     0.124 S 
ATOM    110  O   UNL A   1      49.478  38.772  31.663  1.00  0.00    -0.237 OA
ATOM    111  O   UNL A   1      49.973  36.821  30.228  1.00  0.00    -0.237 OA
ATOM    112  O   UNL A   1      48.594  38.667  29.363  1.00  0.00    -0.744 OA
ENDBRANCH 108 109
ENDBRANCH  76 101
ENDBRANCH  50  51
ENDBRANCH  43  45
ENDBRANCH  42  43
ENDBRANCH  41  42
ENDBRANCH  40  41
ENDBRANCH  39  40
ENDBRANCH  38  39
ENDBRANCH  37  38
ENDBRANCH  36  37
ENDBRANCH   1  36
TORSDOF 28
ENDMDL
