MODEL 1
REMARK VINA RESULT:     -10.9      0.000      0.000
REMARK SMILES COc1ccc2c(c1)c(CC(=O)OCCOCCOCCOC(=O)c1ccc(-c3c4nc(c(-c5c(F)cc(S(=O)(=O)[O-])cc5F)c5ccc([nH]5)c(-c5c(F)cc(S(=O)(=O)[O-])cc5F)c5nc(c(-c6c(F)cc(S(=O)(=O)[O-])cc6F)c6ccc3[nH]6)C=C5)C=C4)cc1)c(C)n2Cc1ccc(Br)cc1
REMARK SMILES IDX 17 1 16 2 15 3 14 4 13 5 11 6 12 7 10 8 9 9 3 10 4 11 8 12
REMARK SMILES IDX 5 13 7 14 6 15 93 16 91 17 92 18 2 19 1 20 94 21 95 22 96 23
REMARK SMILES IDX 101 24 97 25 100 26 98 27 99 28 18 29 19 30 20 31 21 32
REMARK SMILES IDX 22 33 23 34 24 35 25 36 26 37 90 38 27 39 89 40 28 41 29 42
REMARK SMILES IDX 30 43 83 44 31 45 88 46 82 47 84 48 32 49 87 50 81 51 80 52
REMARK SMILES IDX 33 54 67 55 46 56 66 57 47 58 50 59 65 60 85 61 48 62 49 63
REMARK SMILES IDX 64 65 86 66 51 67 34 68 35 69 44 70 36 71 37 72 43 73 45 74
REMARK SMILES IDX 38 75 39 76 40 77 41 78 42 79 68 80 69 81 78 82 70 83 71 84
REMARK SMILES IDX 77 85 79 86 72 87 73 88 74 89 75 90 76 91 52 92 53 93 62 94
REMARK SMILES IDX 54 95 55 96 61 97 63 98 56 99 57 100 58 101 59 102 60 103
REMARK H PARENT 84 53 50 64
REMARK Flexibility Score: inf
ROOT
ATOM      1  C   UNL A   1      37.797  22.825  25.538  1.00  0.00     0.188 C 
ENDROOT
BRANCH   1   2
ATOM      2  O   UNL A   1      36.386  22.822  25.464  1.00  0.00    -0.376 OA
BRANCH   2   3
ATOM      3  C   UNL A   1      35.749  21.555  25.557  1.00  0.00     0.202 C 
BRANCH   3   4
ATOM      4  C   UNL A   1      34.633  21.447  26.611  1.00  0.00     0.261 C 
BRANCH   4   5
ATOM      5  O   UNL A   1      34.208  22.769  27.029  1.00  0.00    -0.463 OA
BRANCH   5   6
ATOM      6  C   UNL A   1      32.962  22.868  27.565  1.00  0.00     0.310 C 
ATOM      7  O   UNL A   1      32.615  22.234  28.555  1.00  0.00    -0.252 OA
BRANCH   6   8
ATOM      8  C   UNL A   1      32.135  24.013  26.982  1.00  0.00     0.160 C 
BRANCH   8   9
ATOM      9  C   UNL A   1      32.293  24.447  25.555  1.00  0.00    -0.008 A 
ATOM     10  C   UNL A   1      32.377  21.638  22.915  1.00  0.00     0.119 A 
ATOM     11  C   UNL A   1      32.808  22.417  21.859  1.00  0.00     0.048 A 
ATOM     12  C   UNL A   1      32.066  22.273  24.119  1.00  0.00     0.057 A 
ATOM     13  C   UNL A   1      32.927  23.819  22.011  1.00  0.00     0.031 A 
ATOM     14  C   UNL A   1      32.289  23.634  24.367  1.00  0.00     0.007 A 
ATOM     15  C   UNL A   1      32.715  24.399  23.286  1.00  0.00     0.049 A 
ATOM     16  N   UNL A   1      32.849  25.682  23.787  1.00  0.00    -0.340 N 
ATOM     17  C   UNL A   1      32.911  25.623  25.167  1.00  0.00     0.020 A 
ATOM     18  C   UNL A   1      33.591  26.612  26.052  1.00  0.00     0.065 C 
BRANCH  10  19
ATOM     19  O   UNL A   1      32.200  20.288  22.966  1.00  0.00    -0.497 OA
ATOM     20  C   UNL A   1      32.608  19.537  24.096  1.00  0.00     0.278 C 
ENDBRANCH  10  19
BRANCH  16  21
ATOM     21  C   UNL A   1      32.965  26.897  22.992  1.00  0.00     0.157 C 
BRANCH  21  22
ATOM     22  C   UNL A   1      31.629  27.611  22.917  1.00  0.00    -0.028 A 
ATOM     23  C   UNL A   1      31.549  28.956  22.519  1.00  0.00     0.007 A 
ATOM     24  C   UNL A   1      30.448  26.961  23.302  1.00  0.00     0.007 A 
ATOM     25  C   UNL A   1      30.338  29.646  22.529  1.00  0.00     0.016 A 
ATOM     26  C   UNL A   1      29.225  27.639  23.278  1.00  0.00     0.016 A 
ATOM     27  C   UNL A   1      29.177  28.981  22.899  1.00  0.00     0.017 A 
ATOM     28  Br  UNL A   1      27.528  29.900  22.878  1.00  0.00    -0.051 Br
ENDBRANCH  21  22
ENDBRANCH  16  21
ENDBRANCH   8   9
ENDBRANCH   6   8
ENDBRANCH   5   6
ENDBRANCH   4   5
ENDBRANCH   3   4
ENDBRANCH   2   3
ENDBRANCH   1   2
BRANCH   1  29
ATOM     29  C   UNL A   1      38.511  21.476  25.732  1.00  0.00     0.188 C 
BRANCH  29  30
ATOM     30  O   UNL A   1      39.775  21.440  26.355  1.00  0.00    -0.376 OA
BRANCH  30  31
ATOM     31  C   UNL A   1      40.451  20.195  26.360  1.00  0.00     0.202 C 
BRANCH  31  32
ATOM     32  C   UNL A   1      41.991  20.186  26.197  1.00  0.00     0.261 C 
BRANCH  32  33
ATOM     33  O   UNL A   1      42.632  21.318  26.833  1.00  0.00    -0.460 OA
BRANCH  33  34
ATOM     34  C   UNL A   1      42.879  22.402  26.012  1.00  0.00     0.338 C 
ATOM     35  O   UNL A   1      42.966  22.355  24.820  1.00  0.00    -0.246 OA
BRANCH  34  36
ATOM     36  C   UNL A   1      42.656  23.673  26.785  1.00  0.00     0.060 A 
ATOM     37  C   UNL A   1      42.809  23.839  28.159  1.00  0.00     0.016 A 
ATOM     38  C   UNL A   1      42.181  24.761  26.044  1.00  0.00     0.016 A 
ATOM     39  C   UNL A   1      42.400  25.051  28.766  1.00  0.00     0.010 A 
ATOM     40  C   UNL A   1      41.694  25.928  26.646  1.00  0.00     0.010 A 
ATOM     41  C   UNL A   1      41.785  26.089  28.024  1.00  0.00    -0.014 A 
BRANCH  41  42
ATOM     42  C   UNL A   1      41.718  27.471  28.564  1.00  0.00     0.031 A 
ATOM     43  C   UNL A   1      42.842  28.251  28.015  1.00  0.00     0.074 A 
ATOM     44  C   UNL A   1      40.812  28.176  29.290  1.00  0.00     0.049 A 
ATOM     45  N   UNL A   1      44.027  28.283  28.525  1.00  0.00    -0.248 NA
ATOM     46  C   UNL A   1      42.731  28.879  26.690  1.00  0.00     0.031 C 
ATOM     47  C   UNL A   1      39.498  27.758  29.747  1.00  0.00     0.029 A 
ATOM     48  N   UNL A   1      40.867  29.474  29.761  1.00  0.00    -0.354 N 
ATOM     49  C   UNL A   1      44.678  29.247  27.786  1.00  0.00     0.074 A 
ATOM     50  C   UNL A   1      43.977  29.338  26.530  1.00  0.00     0.031 C 
ATOM     51  C   UNL A   1      38.778  28.816  30.197  1.00  0.00     0.029 A 
ATOM     52  C   UNL A   1      39.668  29.959  30.294  1.00  0.00     0.049 A 
ATOM     53  H   UNL A   1      41.689  30.015  29.723  1.00  0.00     0.167 HD
ATOM     54  C   UNL A   1      45.430  30.173  28.436  1.00  0.00     0.037 A 
ATOM     55  C   UNL A   1      39.437  31.129  30.953  1.00  0.00     0.037 A 
ATOM     56  C   UNL A   1      45.587  29.845  29.834  1.00  0.00     0.049 A 
ATOM     57  C   UNL A   1      40.696  31.492  31.642  1.00  0.00     0.074 A 
ATOM     58  C   UNL A   1      46.263  28.914  30.593  1.00  0.00     0.029 A 
ATOM     59  N   UNL A   1      44.610  30.372  30.633  1.00  0.00    -0.354 N 
ATOM     60  N   UNL A   1      41.205  30.810  32.631  1.00  0.00    -0.248 NA
ATOM     61  C   UNL A   1      41.559  32.520  31.071  1.00  0.00     0.031 C 
ATOM     62  C   UNL A   1      45.615  28.866  31.866  1.00  0.00     0.029 A 
ATOM     63  C   UNL A   1      44.571  29.782  31.868  1.00  0.00     0.049 A 
ATOM     64  H   UNL A   1      44.003  31.095  30.351  1.00  0.00     0.167 HD
ATOM     65  C   UNL A   1      42.559  31.025  32.518  1.00  0.00     0.074 A 
ATOM     66  C   UNL A   1      42.704  32.201  31.674  1.00  0.00     0.031 C 
ATOM     67  C   UNL A   1      43.441  30.014  32.745  1.00  0.00     0.037 A 
BRANCH  54  68
ATOM     68  C   UNL A   1      45.590  31.594  27.971  1.00  0.00     0.058 A 
ATOM     69  C   UNL A   1      46.888  32.099  27.781  1.00  0.00     0.135 A 
ATOM     70  C   UNL A   1      44.546  32.546  27.957  1.00  0.00     0.135 A 
ATOM     71  F   UNL A   1      47.950  31.281  27.840  1.00  0.00    -0.206 F 
ATOM     72  C   UNL A   1      47.132  33.455  27.585  1.00  0.00     0.059 A 
ATOM     73  C   UNL A   1      44.758  33.892  27.697  1.00  0.00     0.059 A 
ATOM     74  F   UNL A   1      43.288  32.228  28.292  1.00  0.00    -0.206 F 
ATOM     75  C   UNL A   1      46.058  34.342  27.536  1.00  0.00     0.060 A 
BRANCH  75  76
ATOM     76  S   UNL A   1      46.375  36.094  27.287  1.00  0.00     0.124 S 
ATOM     77  O   UNL A   1      46.861  36.490  28.604  1.00  0.00    -0.237 OA
ATOM     78  O   UNL A   1      47.368  36.072  26.217  1.00  0.00    -0.237 OA
ATOM     79  O   UNL A   1      45.067  36.619  26.906  1.00  0.00    -0.744 OA
ENDBRANCH  75  76
ENDBRANCH  54  68
BRANCH  55  80
ATOM     80  C   UNL A   1      38.261  32.049  30.991  1.00  0.00     0.058 A 
ATOM     81  C   UNL A   1      38.218  33.199  30.170  1.00  0.00     0.135 A 
ATOM     82  C   UNL A   1      37.033  31.647  31.544  1.00  0.00     0.135 A 
ATOM     83  F   UNL A   1      39.340  33.681  29.614  1.00  0.00    -0.206 F 
ATOM     84  C   UNL A   1      37.021  33.830  29.816  1.00  0.00     0.059 A 
ATOM     85  C   UNL A   1      35.823  32.270  31.215  1.00  0.00     0.059 A 
ATOM     86  F   UNL A   1      36.966  30.572  32.346  1.00  0.00    -0.206 F 
ATOM     87  C   UNL A   1      35.820  33.332  30.313  1.00  0.00     0.060 A 
BRANCH  87  88
ATOM     88  S   UNL A   1      34.263  33.985  29.656  1.00  0.00     0.124 S 
ATOM     89  O   UNL A   1      34.731  34.906  28.626  1.00  0.00    -0.237 OA
ATOM     90  O   UNL A   1      33.600  32.777  29.176  1.00  0.00    -0.237 OA
ATOM     91  O   UNL A   1      33.644  34.613  30.820  1.00  0.00    -0.744 OA
ENDBRANCH  87  88
ENDBRANCH  55  80
BRANCH  67  92
ATOM     92  C   UNL A   1      43.172  29.074  33.877  1.00  0.00     0.058 A 
ATOM     93  C   UNL A   1      43.592  29.232  35.207  1.00  0.00     0.135 A 
ATOM     94  C   UNL A   1      42.369  27.958  33.582  1.00  0.00     0.135 A 
ATOM     95  F   UNL A   1      44.321  30.295  35.579  1.00  0.00    -0.206 F 
ATOM     96  C   UNL A   1      43.224  28.315  36.198  1.00  0.00     0.059 A 
ATOM     97  C   UNL A   1      41.971  27.050  34.556  1.00  0.00     0.059 A 
ATOM     98  F   UNL A   1      41.928  27.761  32.328  1.00  0.00    -0.206 F 
ATOM     99  C   UNL A   1      42.403  27.235  35.864  1.00  0.00     0.060 A 
BRANCH  99 100
ATOM    100  S   UNL A   1      41.835  26.111  37.161  1.00  0.00     0.124 S 
ATOM    101  O   UNL A   1      42.835  26.307  38.204  1.00  0.00    -0.237 OA
ATOM    102  O   UNL A   1      40.499  26.623  37.456  1.00  0.00    -0.237 OA
ATOM    103  O   UNL A   1      41.859  24.801  36.514  1.00  0.00    -0.744 OA
ENDBRANCH  99 100
ENDBRANCH  67  92
ENDBRANCH  41  42
ENDBRANCH  34  36
ENDBRANCH  33  34
ENDBRANCH  32  33
ENDBRANCH  31  32
ENDBRANCH  30  31
ENDBRANCH  29  30
ENDBRANCH   1  29
TORSDOF 24
ENDMDL
MODEL 2
REMARK VINA RESULT:     -10.3      3.153      9.797
REMARK SMILES COc1ccc2c(c1)c(CC(=O)OCCOCCOCCOC(=O)c1ccc(-c3c4nc(c(-c5c(F)cc(S(=O)(=O)[O-])cc5F)c5ccc([nH]5)c(-c5c(F)cc(S(=O)(=O)[O-])cc5F)c5nc(c(-c6c(F)cc(S(=O)(=O)[O-])cc6F)c6ccc3[nH]6)C=C5)C=C4)cc1)c(C)n2Cc1ccc(Br)cc1
REMARK SMILES IDX 17 1 16 2 15 3 14 4 13 5 11 6 12 7 10 8 9 9 3 10 4 11 8 12
REMARK SMILES IDX 5 13 7 14 6 15 93 16 91 17 92 18 2 19 1 20 94 21 95 22 96 23
REMARK SMILES IDX 101 24 97 25 100 26 98 27 99 28 18 29 19 30 20 31 21 32
REMARK SMILES IDX 22 33 23 34 24 35 25 36 26 37 90 38 27 39 89 40 28 41 29 42
REMARK SMILES IDX 30 43 83 44 31 45 88 46 82 47 84 48 32 49 87 50 81 51 80 52
REMARK SMILES IDX 33 54 67 55 46 56 66 57 47 58 50 59 65 60 85 61 48 62 49 63
REMARK SMILES IDX 64 65 86 66 51 67 34 68 35 69 44 70 36 71 37 72 43 73 45 74
REMARK SMILES IDX 38 75 39 76 40 77 41 78 42 79 68 80 69 81 78 82 70 83 71 84
REMARK SMILES IDX 77 85 79 86 72 87 73 88 74 89 75 90 76 91 52 92 53 93 62 94
REMARK SMILES IDX 54 95 55 96 61 97 63 98 56 99 57 100 58 101 59 102 60 103
REMARK H PARENT 84 53 50 64
REMARK Flexibility Score: inf
ROOT
ATOM      1  C   UNL A   1      34.130  33.827  28.012  1.00  0.00     0.188 C 
ENDROOT
BRANCH   1   2
ATOM      2  O   UNL A   1      34.019  32.436  28.232  1.00  0.00    -0.376 OA
BRANCH   2   3
ATOM      3  C   UNL A   1      35.053  31.625  27.692  1.00  0.00     0.202 C 
BRANCH   3   4
ATOM      4  C   UNL A   1      34.801  30.108  27.735  1.00  0.00     0.261 C 
BRANCH   4   5
ATOM      5  O   UNL A   1      33.859  29.727  26.700  1.00  0.00    -0.463 OA
BRANCH   5   6
ATOM      6  C   UNL A   1      32.574  29.518  27.092  1.00  0.00     0.310 C 
ATOM      7  O   UNL A   1      31.771  30.432  27.245  1.00  0.00    -0.252 OA
BRANCH   6   8
ATOM      8  C   UNL A   1      32.162  28.046  27.074  1.00  0.00     0.160 C 
BRANCH   8   9
ATOM      9  C   UNL A   1      31.738  27.366  25.806  1.00  0.00    -0.008 A 
ATOM     10  C   UNL A   1      29.863  29.549  23.240  1.00  0.00     0.119 A 
ATOM     11  C   UNL A   1      29.434  28.518  22.428  1.00  0.00     0.048 A 
ATOM     12  C   UNL A   1      30.731  29.245  24.290  1.00  0.00     0.057 A 
ATOM     13  C   UNL A   1      29.870  27.193  22.670  1.00  0.00     0.031 A 
ATOM     14  C   UNL A   1      31.090  27.941  24.656  1.00  0.00     0.007 A 
ATOM     15  C   UNL A   1      30.653  26.919  23.818  1.00  0.00     0.049 A 
ATOM     16  N   UNL A   1      31.141  25.756  24.388  1.00  0.00    -0.340 N 
ATOM     17  C   UNL A   1      31.489  26.009  25.702  1.00  0.00     0.020 A 
ATOM     18  C   UNL A   1      31.508  25.007  26.807  1.00  0.00     0.065 C 
BRANCH  10  19
ATOM     19  O   UNL A   1      29.558  30.875  23.172  1.00  0.00    -0.497 OA
ATOM     20  C   UNL A   1      29.513  31.679  24.338  1.00  0.00     0.278 C 
ENDBRANCH  10  19
BRANCH  16  21
ATOM     21  C   UNL A   1      31.225  24.459  23.731  1.00  0.00     0.157 C 
BRANCH  21  22
ATOM     22  C   UNL A   1      32.617  23.876  23.883  1.00  0.00    -0.028 A 
ATOM     23  C   UNL A   1      33.752  24.603  23.488  1.00  0.00     0.007 A 
ATOM     24  C   UNL A   1      32.798  22.573  24.366  1.00  0.00     0.007 A 
ATOM     25  C   UNL A   1      35.028  24.045  23.544  1.00  0.00     0.016 A 
ATOM     26  C   UNL A   1      34.080  22.022  24.459  1.00  0.00     0.016 A 
ATOM     27  C   UNL A   1      35.188  22.758  24.040  1.00  0.00     0.017 A 
ATOM     28  Br  UNL A   1      36.918  22.010  24.154  1.00  0.00    -0.051 Br
ENDBRANCH  21  22
ENDBRANCH  16  21
ENDBRANCH   8   9
ENDBRANCH   6   8
ENDBRANCH   5   6
ENDBRANCH   4   5
ENDBRANCH   3   4
ENDBRANCH   2   3
ENDBRANCH   1   2
BRANCH   1  29
ATOM     29  C   UNL A   1      34.699  34.693  29.149  1.00  0.00     0.188 C 
BRANCH  29  30
ATOM     30  O   UNL A   1      33.910  34.954  30.289  1.00  0.00    -0.376 OA
BRANCH  30  31
ATOM     31  C   UNL A   1      34.322  34.352  31.504  1.00  0.00     0.202 C 
BRANCH  31  32
ATOM     32  C   UNL A   1      34.923  32.925  31.458  1.00  0.00     0.261 C 
BRANCH  32  33
ATOM     33  O   UNL A   1      34.996  32.302  32.763  1.00  0.00    -0.460 OA
BRANCH  33  34
ATOM     34  C   UNL A   1      36.142  32.571  33.489  1.00  0.00     0.338 C 
ATOM     35  O   UNL A   1      36.163  33.046  34.586  1.00  0.00    -0.246 OA
BRANCH  34  36
ATOM     36  C   UNL A   1      37.305  31.850  32.865  1.00  0.00     0.060 A 
ATOM     37  C   UNL A   1      38.414  32.441  32.264  1.00  0.00     0.016 A 
ATOM     38  C   UNL A   1      37.210  30.454  32.834  1.00  0.00     0.016 A 
ATOM     39  C   UNL A   1      39.347  31.631  31.572  1.00  0.00     0.010 A 
ATOM     40  C   UNL A   1      38.080  29.656  32.079  1.00  0.00     0.010 A 
ATOM     41  C   UNL A   1      39.161  30.234  31.423  1.00  0.00    -0.014 A 
BRANCH  41  42
ATOM     42  C   UNL A   1      40.297  29.353  31.053  1.00  0.00     0.031 A 
ATOM     43  C   UNL A   1      41.038  28.995  32.276  1.00  0.00     0.074 A 
ATOM     44  C   UNL A   1      40.689  28.715  29.919  1.00  0.00     0.049 A 
ATOM     45  N   UNL A   1      41.976  29.712  32.798  1.00  0.00    -0.248 NA
ATOM     46  C   UNL A   1      40.586  27.877  33.117  1.00  0.00     0.031 C 
ATOM     47  C   UNL A   1      40.017  28.665  28.632  1.00  0.00     0.029 A 
ATOM     48  N   UNL A   1      41.796  27.923  29.684  1.00  0.00    -0.354 N 
ATOM     49  C   UNL A   1      42.473  28.920  33.810  1.00  0.00     0.074 A 
ATOM     50  C   UNL A   1      41.422  27.994  34.154  1.00  0.00     0.031 C 
ATOM     51  C   UNL A   1      40.561  27.712  27.835  1.00  0.00     0.029 A 
ATOM     52  C   UNL A   1      41.787  27.246  28.459  1.00  0.00     0.049 A 
ATOM     53  H   UNL A   1      42.535  27.842  30.328  1.00  0.00     0.167 HD
ATOM     54  C   UNL A   1      43.819  28.803  33.949  1.00  0.00     0.037 A 
ATOM     55  C   UNL A   1      42.776  26.511  27.880  1.00  0.00     0.037 A 
ATOM     56  C   UNL A   1      44.525  29.738  33.102  1.00  0.00     0.049 A 
ATOM     57  C   UNL A   1      44.062  27.077  28.346  1.00  0.00     0.074 A 
ATOM     58  C   UNL A   1      44.750  31.096  33.048  1.00  0.00     0.029 A 
ATOM     59  N   UNL A   1      44.813  29.239  31.861  1.00  0.00    -0.354 N 
ATOM     60  N   UNL A   1      44.491  28.267  28.023  1.00  0.00    -0.248 NA
ATOM     61  C   UNL A   1      44.808  26.400  29.401  1.00  0.00     0.031 C 
ATOM     62  C   UNL A   1      45.136  31.401  31.707  1.00  0.00     0.029 A 
ATOM     63  C   UNL A   1      45.159  30.223  30.972  1.00  0.00     0.049 A 
ATOM     64  H   UNL A   1      44.776  28.282  31.632  1.00  0.00     0.167 HD
ATOM     65  C   UNL A   1      45.261  28.643  29.099  1.00  0.00     0.074 A 
ATOM     66  C   UNL A   1      45.564  27.415  29.818  1.00  0.00     0.031 C 
ATOM     67  C   UNL A   1      45.231  29.924  29.556  1.00  0.00     0.037 A 
BRANCH  54  68
ATOM     68  C   UNL A   1      44.505  27.554  34.430  1.00  0.00     0.058 A 
ATOM     69  C   UNL A   1      44.335  26.368  33.695  1.00  0.00     0.135 A 
ATOM     70  C   UNL A   1      45.099  27.416  35.704  1.00  0.00     0.135 A 
ATOM     71  F   UNL A   1      43.724  26.390  32.500  1.00  0.00    -0.206 F 
ATOM     72  C   UNL A   1      44.732  25.129  34.190  1.00  0.00     0.059 A 
ATOM     73  C   UNL A   1      45.563  26.202  36.190  1.00  0.00     0.059 A 
ATOM     74  F   UNL A   1      45.164  28.432  36.573  1.00  0.00    -0.206 F 
ATOM     75  C   UNL A   1      45.354  25.058  35.435  1.00  0.00     0.060 A 
BRANCH  75  76
ATOM     76  S   UNL A   1      45.863  23.458  36.075  1.00  0.00     0.124 S 
ATOM     77  O   UNL A   1      45.151  23.415  37.347  1.00  0.00    -0.237 OA
ATOM     78  O   UNL A   1      45.378  22.551  35.038  1.00  0.00    -0.237 OA
ATOM     79  O   UNL A   1      47.315  23.579  36.161  1.00  0.00    -0.744 OA
ENDBRANCH  75  76
ENDBRANCH  54  68
BRANCH  55  80
ATOM     80  C   UNL A   1      42.755  25.286  27.025  1.00  0.00     0.058 A 
ATOM     81  C   UNL A   1      43.234  25.325  25.696  1.00  0.00     0.135 A 
ATOM     82  C   UNL A   1      42.607  24.005  27.585  1.00  0.00     0.135 A 
ATOM     83  F   UNL A   1      43.386  26.497  25.062  1.00  0.00    -0.206 F 
ATOM     84  C   UNL A   1      43.661  24.181  25.014  1.00  0.00     0.059 A 
ATOM     85  C   UNL A   1      43.016  22.844  26.917  1.00  0.00     0.059 A 
ATOM     86  F   UNL A   1      42.150  23.856  28.839  1.00  0.00    -0.206 F 
ATOM     87  C   UNL A   1      43.586  22.946  25.650  1.00  0.00     0.060 A 
BRANCH  87  88
ATOM     88  S   UNL A   1      44.370  21.511  24.869  1.00  0.00     0.124 S 
ATOM     89  O   UNL A   1      45.627  21.415  25.604  1.00  0.00    -0.237 OA
ATOM     90  O   UNL A   1      43.400  20.452  25.127  1.00  0.00    -0.237 OA
ATOM     91  O   UNL A   1      44.494  21.913  23.471  1.00  0.00    -0.744 OA
ENDBRANCH  87  88
ENDBRANCH  55  80
BRANCH  67  92
ATOM     92  C   UNL A   1      45.180  31.037  28.557  1.00  0.00     0.058 A 
ATOM     93  C   UNL A   1      44.028  31.712  28.124  1.00  0.00     0.135 A 
ATOM     94  C   UNL A   1      46.415  31.481  28.055  1.00  0.00     0.135 A 
ATOM     95  F   UNL A   1      42.815  31.379  28.592  1.00  0.00    -0.206 F 
ATOM     96  C   UNL A   1      44.109  32.785  27.229  1.00  0.00     0.059 A 
ATOM     97  C   UNL A   1      46.521  32.560  27.187  1.00  0.00     0.059 A 
ATOM     98  F   UNL A   1      47.553  30.880  28.443  1.00  0.00    -0.206 F 
ATOM     99  C   UNL A   1      45.361  33.210  26.777  1.00  0.00     0.060 A 
BRANCH  99 100
ATOM    100  S   UNL A   1      45.479  34.663  25.709  1.00  0.00     0.124 S 
ATOM    101  O   UNL A   1      45.247  34.097  24.385  1.00  0.00    -0.237 OA
ATOM    102  O   UNL A   1      44.419  35.522  26.231  1.00  0.00    -0.237 OA
ATOM    103  O   UNL A   1      46.836  35.153  25.947  1.00  0.00    -0.744 OA
ENDBRANCH  99 100
ENDBRANCH  67  92
ENDBRANCH  41  42
ENDBRANCH  34  36
ENDBRANCH  33  34
ENDBRANCH  32  33
ENDBRANCH  31  32
ENDBRANCH  30  31
ENDBRANCH  29  30
ENDBRANCH   1  29
TORSDOF 24
ENDMDL
MODEL 3
REMARK VINA RESULT:      -9.4      3.206      4.775
REMARK SMILES COc1ccc2c(c1)c(CC(=O)OCCOCCOCCOC(=O)c1ccc(-c3c4nc(c(-c5c(F)cc(S(=O)(=O)[O-])cc5F)c5ccc([nH]5)c(-c5c(F)cc(S(=O)(=O)[O-])cc5F)c5nc(c(-c6c(F)cc(S(=O)(=O)[O-])cc6F)c6ccc3[nH]6)C=C5)C=C4)cc1)c(C)n2Cc1ccc(Br)cc1
REMARK SMILES IDX 17 1 16 2 15 3 14 4 13 5 11 6 12 7 10 8 9 9 3 10 4 11 8 12
REMARK SMILES IDX 5 13 7 14 6 15 93 16 91 17 92 18 2 19 1 20 94 21 95 22 96 23
REMARK SMILES IDX 101 24 97 25 100 26 98 27 99 28 18 29 19 30 20 31 21 32
REMARK SMILES IDX 22 33 23 34 24 35 25 36 26 37 90 38 27 39 89 40 28 41 29 42
REMARK SMILES IDX 30 43 83 44 31 45 88 46 82 47 84 48 32 49 87 50 81 51 80 52
REMARK SMILES IDX 33 54 67 55 46 56 66 57 47 58 50 59 65 60 85 61 48 62 49 63
REMARK SMILES IDX 64 65 86 66 51 67 34 68 35 69 44 70 36 71 37 72 43 73 45 74
REMARK SMILES IDX 38 75 39 76 40 77 41 78 42 79 68 80 69 81 78 82 70 83 71 84
REMARK SMILES IDX 77 85 79 86 72 87 73 88 74 89 75 90 76 91 52 92 53 93 62 94
REMARK SMILES IDX 54 95 55 96 61 97 63 98 56 99 57 100 58 101 59 102 60 103
REMARK H PARENT 84 53 50 64
REMARK Flexibility Score: inf
ROOT
ATOM      1  C   UNL A   1      37.877  22.730  25.770  1.00  0.00     0.188 C 
ENDROOT
BRANCH   1   2
ATOM      2  O   UNL A   1      36.476  22.857  25.638  1.00  0.00    -0.376 OA
BRANCH   2   3
ATOM      3  C   UNL A   1      35.739  21.649  25.517  1.00  0.00     0.202 C 
BRANCH   3   4
ATOM      4  C   UNL A   1      34.561  21.486  26.493  1.00  0.00     0.261 C 
BRANCH   4   5
ATOM      5  O   UNL A   1      34.157  22.779  27.011  1.00  0.00    -0.463 OA
BRANCH   5   6
ATOM      6  C   UNL A   1      32.916  22.856  27.561  1.00  0.00     0.310 C 
ATOM      7  O   UNL A   1      32.604  22.245  28.578  1.00  0.00    -0.252 OA
BRANCH   6   8
ATOM      8  C   UNL A   1      32.044  23.953  26.953  1.00  0.00     0.160 C 
BRANCH   8   9
ATOM      9  C   UNL A   1      32.239  24.415  25.539  1.00  0.00    -0.008 A 
ATOM     10  C   UNL A   1      32.352  21.665  22.840  1.00  0.00     0.119 A 
ATOM     11  C   UNL A   1      32.815  22.461  21.812  1.00  0.00     0.048 A 
ATOM     12  C   UNL A   1      32.020  22.276  24.051  1.00  0.00     0.057 A 
ATOM     13  C   UNL A   1      32.947  23.858  21.998  1.00  0.00     0.031 A 
ATOM     14  C   UNL A   1      32.253  23.628  24.335  1.00  0.00     0.007 A 
ATOM     15  C   UNL A   1      32.712  24.413  23.280  1.00  0.00     0.049 A 
ATOM     16  N   UNL A   1      32.849  25.683  23.812  1.00  0.00    -0.340 N 
ATOM     17  C   UNL A   1      32.878  25.593  25.192  1.00  0.00     0.020 A 
ATOM     18  C   UNL A   1      33.549  26.555  26.114  1.00  0.00     0.065 C 
BRANCH  10  19
ATOM     19  O   UNL A   1      32.159  20.316  22.858  1.00  0.00    -0.497 OA
ATOM     20  C   UNL A   1      32.594  19.526  23.951  1.00  0.00     0.278 C 
ENDBRANCH  10  19
BRANCH  16  21
ATOM     21  C   UNL A   1      32.996  26.913  23.047  1.00  0.00     0.157 C 
BRANCH  21  22
ATOM     22  C   UNL A   1      31.679  27.664  22.992  1.00  0.00    -0.028 A 
ATOM     23  C   UNL A   1      30.493  27.081  23.468  1.00  0.00     0.007 A 
ATOM     24  C   UNL A   1      31.606  28.937  22.410  1.00  0.00     0.007 A 
ATOM     25  C   UNL A   1      29.265  27.727  23.345  1.00  0.00     0.016 A 
ATOM     26  C   UNL A   1      30.381  29.606  22.318  1.00  0.00     0.016 A 
ATOM     27  C   UNL A   1      29.215  28.995  22.780  1.00  0.00     0.017 A 
ATOM     28  Br  UNL A   1      27.559  29.892  22.645  1.00  0.00    -0.051 Br
ENDBRANCH  21  22
ENDBRANCH  16  21
ENDBRANCH   8   9
ENDBRANCH   6   8
ENDBRANCH   5   6
ENDBRANCH   4   5
ENDBRANCH   3   4
ENDBRANCH   2   3
ENDBRANCH   1   2
BRANCH   1  29
ATOM     29  C   UNL A   1      38.488  21.324  25.644  1.00  0.00     0.188 C 
BRANCH  29  30
ATOM     30  O   UNL A   1      39.795  21.086  26.118  1.00  0.00    -0.376 OA
BRANCH  30  31
ATOM     31  C   UNL A   1      40.280  19.759  26.017  1.00  0.00     0.202 C 
BRANCH  31  32
ATOM     32  C   UNL A   1      41.797  19.509  26.198  1.00  0.00     0.261 C 
BRANCH  32  33
ATOM     33  O   UNL A   1      42.498  20.654  26.742  1.00  0.00    -0.460 OA
BRANCH  33  34
ATOM     34  C   UNL A   1      43.397  21.263  25.887  1.00  0.00     0.338 C 
ATOM     35  O   UNL A   1      43.625  20.912  24.767  1.00  0.00    -0.246 OA
BRANCH  34  36
ATOM     36  C   UNL A   1      43.759  22.618  26.430  1.00  0.00     0.060 A 
ATOM     37  C   UNL A   1      43.661  23.027  27.757  1.00  0.00     0.016 A 
ATOM     38  C   UNL A   1      44.162  23.566  25.482  1.00  0.00     0.016 A 
ATOM     39  C   UNL A   1      43.880  24.387  28.087  1.00  0.00     0.010 A 
ATOM     40  C   UNL A   1      44.295  24.927  25.785  1.00  0.00     0.010 A 
ATOM     41  C   UNL A   1      44.144  25.364  27.096  1.00  0.00    -0.014 A 
BRANCH  41  42
ATOM     42  C   UNL A   1      44.745  26.672  27.462  1.00  0.00     0.031 A 
ATOM     43  C   UNL A   1      46.211  26.574  27.331  1.00  0.00     0.074 A 
ATOM     44  C   UNL A   1      44.260  27.913  27.726  1.00  0.00     0.049 A 
ATOM     45  N   UNL A   1      46.999  26.137  28.255  1.00  0.00    -0.248 NA
ATOM     46  C   UNL A   1      46.853  26.767  26.023  1.00  0.00     0.031 C 
ATOM     47  C   UNL A   1      42.884  28.375  27.671  1.00  0.00     0.029 A 
ATOM     48  N   UNL A   1      44.926  29.070  28.082  1.00  0.00    -0.354 N 
ATOM     49  C   UNL A   1      48.260  26.377  27.754  1.00  0.00     0.074 A 
ATOM     50  C   UNL A   1      48.119  26.456  26.321  1.00  0.00     0.031 C 
ATOM     51  C   UNL A   1      42.821  29.729  27.727  1.00  0.00     0.029 A 
ATOM     52  C   UNL A   1      44.140  30.229  28.073  1.00  0.00     0.049 A 
ATOM     53  H   UNL A   1      45.880  29.078  28.323  1.00  0.00     0.167 HD
ATOM     54  C   UNL A   1      49.196  26.927  28.571  1.00  0.00     0.037 A 
ATOM     55  C   UNL A   1      44.460  31.482  28.500  1.00  0.00     0.037 A 
ATOM     56  C   UNL A   1      48.743  26.975  29.942  1.00  0.00     0.049 A 
ATOM     57  C   UNL A   1      45.448  31.325  29.591  1.00  0.00     0.074 A 
ATOM     58  C   UNL A   1      48.513  26.088  30.972  1.00  0.00     0.029 A 
ATOM     59  N   UNL A   1      48.079  28.129  30.259  1.00  0.00    -0.354 N 
ATOM     60  N   UNL A   1      45.172  30.791  30.749  1.00  0.00    -0.248 NA
ATOM     61  C   UNL A   1      46.862  31.557  29.321  1.00  0.00     0.031 C 
ATOM     62  C   UNL A   1      47.640  26.740  31.896  1.00  0.00     0.029 A 
ATOM     63  C   UNL A   1      47.369  28.018  31.425  1.00  0.00     0.049 A 
ATOM     64  H   UNL A   1      48.109  28.946  29.711  1.00  0.00     0.167 HD
ATOM     65  C   UNL A   1      46.367  30.240  31.151  1.00  0.00     0.074 A 
ATOM     66  C   UNL A   1      47.391  30.882  30.342  1.00  0.00     0.031 C 
ATOM     67  C   UNL A   1      46.396  29.032  31.777  1.00  0.00     0.037 A 
BRANCH  54  68
ATOM     68  C   UNL A   1      50.269  27.868  28.097  1.00  0.00     0.058 A 
ATOM     69  C   UNL A   1      51.606  27.584  28.426  1.00  0.00     0.135 A 
ATOM     70  C   UNL A   1      50.020  29.153  27.567  1.00  0.00     0.135 A 
ATOM     71  F   UNL A   1      51.932  26.412  28.992  1.00  0.00    -0.206 F 
ATOM     72  C   UNL A   1      52.626  28.511  28.236  1.00  0.00     0.059 A 
ATOM     73  C   UNL A   1      51.029  30.069  27.307  1.00  0.00     0.059 A 
ATOM     74  F   UNL A   1      48.778  29.614  27.372  1.00  0.00    -0.206 F 
ATOM     75  C   UNL A   1      52.328  29.748  27.667  1.00  0.00     0.060 A 
BRANCH  75  76
ATOM     76  S   UNL A   1      53.646  30.946  27.426  1.00  0.00     0.124 S 
ATOM     77  O   UNL A   1      54.795  30.224  27.960  1.00  0.00    -0.237 OA
ATOM     78  O   UNL A   1      53.622  31.134  25.979  1.00  0.00    -0.237 OA
ATOM     79  O   UNL A   1      53.198  32.096  28.206  1.00  0.00    -0.744 OA
ENDBRANCH  75  76
ENDBRANCH  54  68
BRANCH  55  80
ATOM     80  C   UNL A   1      44.081  32.841  28.011  1.00  0.00     0.058 A 
ATOM     81  C   UNL A   1      43.215  33.665  28.766  1.00  0.00     0.135 A 
ATOM     82  C   UNL A   1      44.820  33.489  27.005  1.00  0.00     0.135 A 
ATOM     83  F   UNL A   1      42.447  33.139  29.732  1.00  0.00    -0.206 F 
ATOM     84  C   UNL A   1      43.180  35.056  28.621  1.00  0.00     0.059 A 
ATOM     85  C   UNL A   1      44.791  34.879  26.834  1.00  0.00     0.059 A 
ATOM     86  F   UNL A   1      45.665  32.797  26.226  1.00  0.00    -0.206 F 
ATOM     87  C   UNL A   1      44.004  35.660  27.677  1.00  0.00     0.060 A 
BRANCH  87  88
ATOM     88  S   UNL A   1      44.146  37.466  27.667  1.00  0.00     0.124 S 
ATOM     89  O   UNL A   1      42.841  37.870  27.155  1.00  0.00    -0.237 OA
ATOM     90  O   UNL A   1      44.397  37.763  29.073  1.00  0.00    -0.237 OA
ATOM     91  O   UNL A   1      45.271  37.711  26.769  1.00  0.00    -0.744 OA
ENDBRANCH  87  88
ENDBRANCH  55  80
BRANCH  67  92
ATOM     92  C   UNL A   1      45.334  28.727  32.786  1.00  0.00     0.058 A 
ATOM     93  C   UNL A   1      45.291  29.183  34.112  1.00  0.00     0.135 A 
ATOM     94  C   UNL A   1      44.248  27.957  32.333  1.00  0.00     0.135 A 
ATOM     95  F   UNL A   1      46.266  29.962  34.607  1.00  0.00    -0.206 F 
ATOM     96  C   UNL A   1      44.210  28.883  34.949  1.00  0.00     0.059 A 
ATOM     97  C   UNL A   1      43.153  27.670  33.138  1.00  0.00     0.059 A 
ATOM     98  F   UNL A   1      44.229  27.502  31.069  1.00  0.00    -0.206 F 
ATOM     99  C   UNL A   1      43.140  28.137  34.448  1.00  0.00     0.060 A 
BRANCH  99 100
ATOM    100  S   UNL A   1      41.692  27.842  35.489  1.00  0.00     0.124 S 
ATOM    101  O   UNL A   1      40.867  29.012  35.214  1.00  0.00    -0.237 OA
ATOM    102  O   UNL A   1      41.188  26.572  34.971  1.00  0.00    -0.237 OA
ATOM    103  O   UNL A   1      42.248  27.775  36.838  1.00  0.00    -0.744 OA
ENDBRANCH  99 100
ENDBRANCH  67  92
ENDBRANCH  41  42
ENDBRANCH  34  36
ENDBRANCH  33  34
ENDBRANCH  32  33
ENDBRANCH  31  32
ENDBRANCH  30  31
ENDBRANCH  29  30
ENDBRANCH   1  29
TORSDOF 24
ENDMDL
