MODEL 1
REMARK VINA RESULT:     -10.7      0.000      0.000
REMARK SMILES N#Cc1ccc2c(c1)C=C(C(=O)OCCOCCOCCOC(=O)c1ccc(-c3c4nc(c(-c5c(F)cc(S(=O)(=O)[O-])cc5F)c5ccc([nH]5)c(-c5c(F)cc(S(=O)(=O)[O-])cc5F)c5nc(c(-c6c(F)cc(S(=O)(=O)[O-])cc6F)c6ccc3[nH]6)C=C5)C=C4)cc1)[C@@H](C(F)(F)F)O2
REMARK SMILES IDX 18 1 17 2 16 3 15 4 14 5 13 6 11 7 12 8 10 9 3 10 4 11 8 12
REMARK SMILES IDX 5 13 7 14 6 15 9 16 96 17 91 18 2 19 1 20 92 21 93 22 94 23
REMARK SMILES IDX 95 24 19 25 20 26 21 27 22 28 23 29 24 30 25 31 26 32 90 33
REMARK SMILES IDX 27 34 89 35 28 36 29 37 30 38 83 39 31 40 88 41 82 42 84 43
REMARK SMILES IDX 32 44 87 45 81 46 80 47 33 49 67 50 46 51 66 52 47 53 50 54
REMARK SMILES IDX 65 55 85 56 48 57 49 58 64 60 86 61 51 62 34 63 35 64 44 65
REMARK SMILES IDX 36 66 37 67 43 68 45 69 38 70 39 71 40 72 41 73 42 74 68 75
REMARK SMILES IDX 69 76 78 77 70 78 71 79 77 80 79 81 72 82 73 83 74 84 75 85
REMARK SMILES IDX 76 86 52 87 53 88 62 89 54 90 55 91 61 92 63 93 56 94 57 95
REMARK SMILES IDX 58 96 59 97 60 98
REMARK H PARENT 84 48 50 59
REMARK Flexibility Score: inf
ROOT
ATOM      1  C   UNL A   1      37.155  19.933  24.863  1.00  0.00     0.188 C 
ENDROOT
BRANCH   1   2
ATOM      2  C   UNL A   1      35.750  20.557  25.000  1.00  0.00     0.188 C 
BRANCH   2   3
ATOM      3  O   UNL A   1      34.679  19.644  24.964  1.00  0.00    -0.376 OA
BRANCH   3   4
ATOM      4  C   UNL A   1      33.347  20.104  24.820  1.00  0.00     0.202 C 
BRANCH   4   5
ATOM      5  C   UNL A   1      32.586  21.011  25.811  1.00  0.00     0.261 C 
BRANCH   5   6
ATOM      6  O   UNL A   1      32.210  22.321  25.377  1.00  0.00    -0.460 OA
BRANCH   6   7
ATOM      7  C   UNL A   1      32.016  23.236  26.358  1.00  0.00     0.338 C 
ATOM      8  O   UNL A   1      31.724  23.008  27.518  1.00  0.00    -0.246 OA
BRANCH   7   9
ATOM      9  C   UNL A   1      32.369  24.579  25.847  1.00  0.00     0.087 C 
ATOM     10  C   UNL A   1      31.254  28.414  23.159  1.00  0.00     0.053 A 
ATOM     11  C   UNL A   1      32.564  28.881  23.302  1.00  0.00     0.023 A 
ATOM     12  C   UNL A   1      30.853  27.251  23.826  1.00  0.00     0.031 A 
ATOM     13  C   UNL A   1      33.461  28.202  24.128  1.00  0.00     0.048 A 
ATOM     14  C   UNL A   1      31.770  26.540  24.614  1.00  0.00     0.019 A 
ATOM     15  C   UNL A   1      33.065  27.035  24.781  1.00  0.00     0.128 A 
ATOM     16  C   UNL A   1      31.414  25.254  25.189  1.00  0.00     0.027 C 
ATOM     17  O   UNL A   1      34.014  26.437  25.557  1.00  0.00    -0.475 OA
ATOM     18  C   UNL A   1      33.749  25.118  26.108  1.00  0.00     0.316 C 
BRANCH  10  19
ATOM     19  C   UNL A   1      30.345  29.112  22.299  1.00  0.00     0.099 C 
ATOM     20  N   UNL A   1      29.634  29.675  21.573  1.00  0.00    -0.192 NA
ENDBRANCH  10  19
BRANCH  18  21
ATOM     21  C   UNL A   1      34.842  24.162  25.616  1.00  0.00     0.430 C 
ATOM     22  F   UNL A   1      34.524  23.627  24.411  1.00  0.00    -0.167 F 
ATOM     23  F   UNL A   1      36.029  24.794  25.454  1.00  0.00    -0.167 F 
ATOM     24  F   UNL A   1      35.043  23.136  26.473  1.00  0.00    -0.167 F 
ENDBRANCH  18  21
ENDBRANCH   7   9
ENDBRANCH   6   7
ENDBRANCH   5   6
ENDBRANCH   4   5
ENDBRANCH   3   4
ENDBRANCH   2   3
ENDBRANCH   1   2
BRANCH   1  25
ATOM     25  O   UNL A   1      38.294  20.762  24.978  1.00  0.00    -0.376 OA
BRANCH  25  26
ATOM     26  C   UNL A   1      38.245  21.896  25.832  1.00  0.00     0.202 C 
BRANCH  26  27
ATOM     27  C   UNL A   1      39.480  22.545  26.501  1.00  0.00     0.261 C 
BRANCH  27  28
ATOM     28  O   UNL A   1      39.597  23.973  26.472  1.00  0.00    -0.460 OA
BRANCH  28  29
ATOM     29  C   UNL A   1      40.824  24.486  26.751  1.00  0.00     0.338 C 
ATOM     30  O   UNL A   1      41.859  24.283  26.142  1.00  0.00    -0.246 OA
BRANCH  29  31
ATOM     31  C   UNL A   1      40.663  25.523  27.796  1.00  0.00     0.060 A 
ATOM     32  C   UNL A   1      39.485  25.594  28.536  1.00  0.00     0.016 A 
ATOM     33  C   UNL A   1      41.689  26.458  28.008  1.00  0.00     0.016 A 
ATOM     34  C   UNL A   1      39.340  26.597  29.497  1.00  0.00     0.010 A 
ATOM     35  C   UNL A   1      41.532  27.475  28.956  1.00  0.00     0.010 A 
ATOM     36  C   UNL A   1      40.362  27.540  29.724  1.00  0.00    -0.014 A 
BRANCH  36  37
ATOM     37  C   UNL A   1      40.257  28.474  30.876  1.00  0.00     0.031 A 
ATOM     38  C   UNL A   1      41.143  28.367  32.083  1.00  0.00     0.074 A 
ATOM     39  C   UNL A   1      39.336  29.456  30.806  1.00  0.00     0.049 A 
ATOM     40  N   UNL A   1      41.232  29.177  33.108  1.00  0.00    -0.248 NA
ATOM     41  C   UNL A   1      42.039  27.204  32.154  1.00  0.00     0.031 C 
ATOM     42  C   UNL A   1      38.395  29.637  29.698  1.00  0.00     0.029 A 
ATOM     43  N   UNL A   1      39.049  30.490  31.660  1.00  0.00    -0.354 N 
ATOM     44  C   UNL A   1      42.210  28.642  33.938  1.00  0.00     0.074 A 
ATOM     45  C   UNL A   1      42.645  27.404  33.320  1.00  0.00     0.031 C 
ATOM     46  C   UNL A   1      37.669  30.742  29.917  1.00  0.00     0.029 A 
ATOM     47  C   UNL A   1      38.063  31.327  31.195  1.00  0.00     0.049 A 
ATOM     48  H   UNL A   1      39.506  30.621  32.522  1.00  0.00     0.167 HD
ATOM     49  C   UNL A   1      42.711  29.151  35.092  1.00  0.00     0.037 A 
ATOM     50  C   UNL A   1      37.533  32.445  31.731  1.00  0.00     0.037 A 
ATOM     51  C   UNL A   1      42.254  30.377  35.705  1.00  0.00     0.049 A 
ATOM     52  C   UNL A   1      38.070  32.958  33.039  1.00  0.00     0.074 A 
ATOM     53  C   UNL A   1      42.725  30.987  36.857  1.00  0.00     0.029 A 
ATOM     54  N   UNL A   1      41.217  31.170  35.235  1.00  0.00    -0.354 N 
ATOM     55  N   UNL A   1      39.050  32.483  33.769  1.00  0.00    -0.248 NA
ATOM     56  C   UNL A   1      37.433  34.161  33.593  1.00  0.00     0.031 C 
ATOM     57  C   UNL A   1      41.932  32.109  37.118  1.00  0.00     0.029 A 
ATOM     58  C   UNL A   1      41.010  32.242  36.092  1.00  0.00     0.049 A 
ATOM     59  H   UNL A   1      40.702  30.998  34.413  1.00  0.00     0.167 HD
ATOM     60  C   UNL A   1      39.160  33.340  34.860  1.00  0.00     0.074 A 
ATOM     61  C   UNL A   1      38.163  34.374  34.680  1.00  0.00     0.031 C 
ATOM     62  C   UNL A   1      40.011  33.270  35.914  1.00  0.00     0.037 A 
BRANCH  49  63
ATOM     63  C   UNL A   1      43.821  28.394  35.776  1.00  0.00     0.058 A 
ATOM     64  C   UNL A   1      43.551  27.347  36.672  1.00  0.00     0.135 A 
ATOM     65  C   UNL A   1      45.168  28.658  35.475  1.00  0.00     0.135 A 
ATOM     66  F   UNL A   1      42.283  27.048  37.001  1.00  0.00    -0.206 F 
ATOM     67  C   UNL A   1      44.572  26.610  37.264  1.00  0.00     0.059 A 
ATOM     68  C   UNL A   1      46.206  27.915  36.031  1.00  0.00     0.059 A 
ATOM     69  F   UNL A   1      45.488  29.641  34.618  1.00  0.00    -0.206 F 
ATOM     70  C   UNL A   1      45.898  26.900  36.936  1.00  0.00     0.060 A 
BRANCH  70  71
ATOM     71  S   UNL A   1      47.206  25.933  37.718  1.00  0.00     0.124 S 
ATOM     72  O   UNL A   1      48.132  25.740  36.606  1.00  0.00    -0.237 OA
ATOM     73  O   UNL A   1      47.664  26.829  38.775  1.00  0.00    -0.237 OA
ATOM     74  O   UNL A   1      46.517  24.729  38.174  1.00  0.00    -0.744 OA
ENDBRANCH  70  71
ENDBRANCH  49  63
BRANCH  50  75
ATOM     75  C   UNL A   1      36.454  33.165  31.004  1.00  0.00     0.058 A 
ATOM     76  C   UNL A   1      35.122  33.104  31.441  1.00  0.00     0.135 A 
ATOM     77  C   UNL A   1      36.736  33.961  29.882  1.00  0.00     0.135 A 
ATOM     78  F   UNL A   1      34.798  32.350  32.503  1.00  0.00    -0.206 F 
ATOM     79  C   UNL A   1      34.110  33.803  30.792  1.00  0.00     0.059 A 
ATOM     80  C   UNL A   1      35.747  34.695  29.236  1.00  0.00     0.059 A 
ATOM     81  F   UNL A   1      37.997  34.066  29.432  1.00  0.00    -0.206 F 
ATOM     82  C   UNL A   1      34.435  34.604  29.696  1.00  0.00     0.060 A 
BRANCH  82  83
ATOM     83  S   UNL A   1      33.121  35.557  28.905  1.00  0.00     0.124 S 
ATOM     84  O   UNL A   1      32.530  34.563  28.016  1.00  0.00    -0.237 OA
ATOM     85  O   UNL A   1      32.308  35.956  30.049  1.00  0.00    -0.237 OA
ATOM     86  O   UNL A   1      33.841  36.643  28.246  1.00  0.00    -0.744 OA
ENDBRANCH  82  83
ENDBRANCH  50  75
BRANCH  62  87
ATOM     87  C   UNL A   1      39.917  34.348  36.965  1.00  0.00     0.058 A 
ATOM     88  C   UNL A   1      40.643  35.545  36.862  1.00  0.00     0.135 A 
ATOM     89  C   UNL A   1      39.037  34.212  38.053  1.00  0.00     0.135 A 
ATOM     90  F   UNL A   1      41.505  35.727  35.849  1.00  0.00    -0.206 F 
ATOM     91  C   UNL A   1      40.514  36.559  37.806  1.00  0.00     0.059 A 
ATOM     92  C   UNL A   1      38.867  35.228  38.990  1.00  0.00     0.059 A 
ATOM     93  F   UNL A   1      38.310  33.093  38.199  1.00  0.00    -0.206 F 
ATOM     94  C   UNL A   1      39.617  36.395  38.863  1.00  0.00     0.060 A 
BRANCH  94  95
ATOM     95  S   UNL A   1      39.435  37.738  40.055  1.00  0.00     0.124 S 
ATOM     96  O   UNL A   1      40.667  38.493  39.842  1.00  0.00    -0.237 OA
ATOM     97  O   UNL A   1      38.208  38.388  39.602  1.00  0.00    -0.237 OA
ATOM     98  O   UNL A   1      39.337  37.048  41.338  1.00  0.00    -0.744 OA
ENDBRANCH  94  95
ENDBRANCH  62  87
ENDBRANCH  36  37
ENDBRANCH  29  31
ENDBRANCH  28  29
ENDBRANCH  27  28
ENDBRANCH  26  27
ENDBRANCH  25  26
ENDBRANCH   1  25
TORSDOF 22
ENDMDL
MODEL 2
REMARK VINA RESULT:     -10.6      1.588      2.444
REMARK SMILES N#Cc1ccc2c(c1)C=C(C(=O)OCCOCCOCCOC(=O)c1ccc(-c3c4nc(c(-c5c(F)cc(S(=O)(=O)[O-])cc5F)c5ccc([nH]5)c(-c5c(F)cc(S(=O)(=O)[O-])cc5F)c5nc(c(-c6c(F)cc(S(=O)(=O)[O-])cc6F)c6ccc3[nH]6)C=C5)C=C4)cc1)[C@@H](C(F)(F)F)O2
REMARK SMILES IDX 18 1 17 2 16 3 15 4 14 5 13 6 11 7 12 8 10 9 3 10 4 11 8 12
REMARK SMILES IDX 5 13 7 14 6 15 9 16 96 17 91 18 2 19 1 20 92 21 93 22 94 23
REMARK SMILES IDX 95 24 19 25 20 26 21 27 22 28 23 29 24 30 25 31 26 32 90 33
REMARK SMILES IDX 27 34 89 35 28 36 29 37 30 38 83 39 31 40 88 41 82 42 84 43
REMARK SMILES IDX 32 44 87 45 81 46 80 47 33 49 67 50 46 51 66 52 47 53 50 54
REMARK SMILES IDX 65 55 85 56 48 57 49 58 64 60 86 61 51 62 34 63 35 64 44 65
REMARK SMILES IDX 36 66 37 67 43 68 45 69 38 70 39 71 40 72 41 73 42 74 68 75
REMARK SMILES IDX 69 76 78 77 70 78 71 79 77 80 79 81 72 82 73 83 74 84 75 85
REMARK SMILES IDX 76 86 52 87 53 88 62 89 54 90 55 91 61 92 63 93 56 94 57 95
REMARK SMILES IDX 58 96 59 97 60 98
REMARK H PARENT 84 48 50 59
REMARK Flexibility Score: inf
ROOT
ATOM      1  C   UNL A   1      36.740  20.530  25.162  1.00  0.00     0.188 C 
ENDROOT
BRANCH   1   2
ATOM      2  C   UNL A   1      35.488  21.423  25.025  1.00  0.00     0.188 C 
BRANCH   2   3
ATOM      3  O   UNL A   1      34.256  20.748  25.103  1.00  0.00    -0.376 OA
BRANCH   3   4
ATOM      4  C   UNL A   1      33.180  21.115  24.258  1.00  0.00     0.202 C 
BRANCH   4   5
ATOM      5  C   UNL A   1      32.353  22.416  24.350  1.00  0.00     0.261 C 
BRANCH   5   6
ATOM      6  O   UNL A   1      33.055  23.659  24.437  1.00  0.00    -0.460 OA
BRANCH   6   7
ATOM      7  C   UNL A   1      32.990  24.454  23.341  1.00  0.00     0.338 C 
ATOM      8  O   UNL A   1      33.120  24.106  22.181  1.00  0.00    -0.246 OA
BRANCH   7   9
ATOM      9  C   UNL A   1      32.575  25.813  23.751  1.00  0.00     0.087 C 
ATOM     10  C   UNL A   1      33.389  29.792  26.335  1.00  0.00     0.053 A 
ATOM     11  C   UNL A   1      32.092  30.229  26.050  1.00  0.00     0.023 A 
ATOM     12  C   UNL A   1      33.865  28.605  25.766  1.00  0.00     0.031 A 
ATOM     13  C   UNL A   1      31.283  29.496  25.180  1.00  0.00     0.048 A 
ATOM     14  C   UNL A   1      33.033  27.842  24.934  1.00  0.00     0.019 A 
ATOM     15  C   UNL A   1      31.753  28.306  24.625  1.00  0.00     0.128 A 
ATOM     16  C   UNL A   1      33.457  26.535  24.459  1.00  0.00     0.027 C 
ATOM     17  O   UNL A   1      30.887  27.655  23.796  1.00  0.00    -0.475 OA
ATOM     18  C   UNL A   1      31.218  26.315  23.338  1.00  0.00     0.316 C 
BRANCH  10  19
ATOM     19  C   UNL A   1      34.206  30.546  27.239  1.00  0.00     0.099 C 
ATOM     20  N   UNL A   1      34.849  31.190  27.962  1.00  0.00    -0.192 NA
ENDBRANCH  10  19
BRANCH  18  21
ATOM     21  C   UNL A   1      30.096  25.366  23.775  1.00  0.00     0.430 C 
ATOM     22  F   UNL A   1      28.884  25.970  23.706  1.00  0.00    -0.167 F 
ATOM     23  F   UNL A   1      30.025  24.271  22.981  1.00  0.00    -0.167 F 
ATOM     24  F   UNL A   1      30.261  24.935  25.046  1.00  0.00    -0.167 F 
ENDBRANCH  18  21
ENDBRANCH   7   9
ENDBRANCH   6   7
ENDBRANCH   5   6
ENDBRANCH   4   5
ENDBRANCH   3   4
ENDBRANCH   2   3
ENDBRANCH   1   2
BRANCH   1  25
ATOM     25  O   UNL A   1      38.021  21.128  25.138  1.00  0.00    -0.376 OA
BRANCH  25  26
ATOM     26  C   UNL A   1      38.252  22.307  25.896  1.00  0.00     0.202 C 
BRANCH  26  27
ATOM     27  C   UNL A   1      39.632  22.741  26.445  1.00  0.00     0.261 C 
BRANCH  27  28
ATOM     28  O   UNL A   1      39.955  24.137  26.444  1.00  0.00    -0.460 OA
BRANCH  28  29
ATOM     29  C   UNL A   1      41.177  24.476  26.932  1.00  0.00     0.338 C 
ATOM     30  O   UNL A   1      42.261  24.138  26.493  1.00  0.00    -0.246 OA
BRANCH  29  31
ATOM     31  C   UNL A   1      40.987  25.520  27.966  1.00  0.00     0.060 A 
ATOM     32  C   UNL A   1      39.766  25.639  28.625  1.00  0.00     0.016 A 
ATOM     33  C   UNL A   1      42.034  26.413  28.249  1.00  0.00     0.016 A 
ATOM     34  C   UNL A   1      39.597  26.648  29.576  1.00  0.00     0.010 A 
ATOM     35  C   UNL A   1      41.854  27.436  29.186  1.00  0.00     0.010 A 
ATOM     36  C   UNL A   1      40.639  27.549  29.874  1.00  0.00    -0.014 A 
BRANCH  36  37
ATOM     37  C   UNL A   1      40.493  28.487  31.018  1.00  0.00     0.031 A 
ATOM     38  C   UNL A   1      41.378  28.423  32.229  1.00  0.00     0.074 A 
ATOM     39  C   UNL A   1      39.536  29.432  30.936  1.00  0.00     0.049 A 
ATOM     40  N   UNL A   1      41.432  29.243  33.248  1.00  0.00    -0.248 NA
ATOM     41  C   UNL A   1      42.318  27.296  32.312  1.00  0.00     0.031 C 
ATOM     42  C   UNL A   1      38.593  29.568  29.824  1.00  0.00     0.029 A 
ATOM     43  N   UNL A   1      39.206  30.461  31.781  1.00  0.00    -0.354 N 
ATOM     44  C   UNL A   1      42.427  28.753  34.086  1.00  0.00     0.074 A 
ATOM     45  C   UNL A   1      42.911  27.527  33.479  1.00  0.00     0.031 C 
ATOM     46  C   UNL A   1      37.824  30.647  30.031  1.00  0.00     0.029 A 
ATOM     47  C   UNL A   1      38.190  31.256  31.307  1.00  0.00     0.049 A 
ATOM     48  H   UNL A   1      39.655  30.616  32.644  1.00  0.00     0.167 HD
ATOM     49  C   UNL A   1      42.903  29.290  35.237  1.00  0.00     0.037 A 
ATOM     50  C   UNL A   1      37.617  32.358  31.832  1.00  0.00     0.037 A 
ATOM     51  C   UNL A   1      42.398  30.502  35.839  1.00  0.00     0.049 A 
ATOM     52  C   UNL A   1      38.128  32.900  33.137  1.00  0.00     0.074 A 
ATOM     53  C   UNL A   1      42.840  31.139  36.987  1.00  0.00     0.029 A 
ATOM     54  N   UNL A   1      41.333  31.251  35.359  1.00  0.00    -0.354 N 
ATOM     55  N   UNL A   1      39.123  32.469  33.875  1.00  0.00    -0.248 NA
ATOM     56  C   UNL A   1      37.444  34.082  33.679  1.00  0.00     0.031 C 
ATOM     57  C   UNL A   1      42.004  32.231  37.237  1.00  0.00     0.029 A 
ATOM     58  C   UNL A   1      41.081  32.321  36.207  1.00  0.00     0.049 A 
ATOM     59  H   UNL A   1      40.828  31.053  34.537  1.00  0.00     0.167 HD
ATOM     60  C   UNL A   1      39.196  33.338  34.960  1.00  0.00     0.074 A 
ATOM     61  C   UNL A   1      38.161  34.332  34.767  1.00  0.00     0.031 C 
ATOM     62  C   UNL A   1      40.045  33.309  36.017  1.00  0.00     0.037 A 
BRANCH  49  63
ATOM     63  C   UNL A   1      44.039  28.581  35.932  1.00  0.00     0.058 A 
ATOM     64  C   UNL A   1      45.377  28.941  35.705  1.00  0.00     0.135 A 
ATOM     65  C   UNL A   1      43.788  27.590  36.897  1.00  0.00     0.135 A 
ATOM     66  F   UNL A   1      45.680  29.880  34.793  1.00  0.00    -0.206 F 
ATOM     67  C   UNL A   1      46.424  28.326  36.384  1.00  0.00     0.059 A 
ATOM     68  C   UNL A   1      44.818  26.982  37.611  1.00  0.00     0.059 A 
ATOM     69  F   UNL A   1      42.528  27.211  37.165  1.00  0.00    -0.206 F 
ATOM     70  C   UNL A   1      46.135  27.349  37.338  1.00  0.00     0.060 A 
BRANCH  70  71
ATOM     71  S   UNL A   1      47.510  26.563  38.205  1.00  0.00     0.124 S 
ATOM     72  O   UNL A   1      48.446  27.676  38.335  1.00  0.00    -0.237 OA
ATOM     73  O   UNL A   1      46.880  26.118  39.444  1.00  0.00    -0.237 OA
ATOM     74  O   UNL A   1      47.925  25.499  37.297  1.00  0.00    -0.744 OA
ENDBRANCH  70  71
ENDBRANCH  49  63
BRANCH  50  75
ATOM     75  C   UNL A   1      36.514  33.030  31.095  1.00  0.00     0.058 A 
ATOM     76  C   UNL A   1      35.188  32.947  31.545  1.00  0.00     0.135 A 
ATOM     77  C   UNL A   1      36.767  33.802  29.950  1.00  0.00     0.135 A 
ATOM     78  F   UNL A   1      34.891  32.215  32.630  1.00  0.00    -0.206 F 
ATOM     79  C   UNL A   1      34.152  33.603  30.886  1.00  0.00     0.059 A 
ATOM     80  C   UNL A   1      35.754  34.493  29.293  1.00  0.00     0.059 A 
ATOM     81  F   UNL A   1      38.021  33.926  29.486  1.00  0.00    -0.206 F 
ATOM     82  C   UNL A   1      34.449  34.382  29.766  1.00  0.00     0.060 A 
BRANCH  82  83
ATOM     83  S   UNL A   1      33.104  35.279  28.961  1.00  0.00     0.124 S 
ATOM     84  O   UNL A   1      32.229  35.575  30.090  1.00  0.00    -0.237 OA
ATOM     85  O   UNL A   1      33.807  36.419  28.381  1.00  0.00    -0.237 OA
ATOM     86  O   UNL A   1      32.584  34.314  27.997  1.00  0.00    -0.744 OA
ENDBRANCH  82  83
ENDBRANCH  50  75
BRANCH  62  87
ATOM     87  C   UNL A   1      39.906  34.390  37.059  1.00  0.00     0.058 A 
ATOM     88  C   UNL A   1      39.059  34.242  38.168  1.00  0.00     0.135 A 
ATOM     89  C   UNL A   1      40.682  35.560  36.984  1.00  0.00     0.135 A 
ATOM     90  F   UNL A   1      38.288  33.149  38.289  1.00  0.00    -0.206 F 
ATOM     91  C   UNL A   1      38.972  35.220  39.155  1.00  0.00     0.059 A 
ATOM     92  C   UNL A   1      40.636  36.535  37.978  1.00  0.00     0.059 A 
ATOM     93  F   UNL A   1      41.516  35.754  35.950  1.00  0.00    -0.206 F 
ATOM     94  C   UNL A   1      39.770  36.359  39.055  1.00  0.00     0.060 A 
BRANCH  94  95
ATOM     95  S   UNL A   1      39.673  37.597  40.366  1.00  0.00     0.124 S 
ATOM     96  O   UNL A   1      40.887  38.374  40.130  1.00  0.00    -0.237 OA
ATOM     97  O   UNL A   1      38.418  38.275  40.058  1.00  0.00    -0.237 OA
ATOM     98  O   UNL A   1      39.667  36.802  41.590  1.00  0.00    -0.744 OA
ENDBRANCH  94  95
ENDBRANCH  62  87
ENDBRANCH  36  37
ENDBRANCH  29  31
ENDBRANCH  28  29
ENDBRANCH  27  28
ENDBRANCH  26  27
ENDBRANCH  25  26
ENDBRANCH   1  25
TORSDOF 22
ENDMDL
MODEL 3
REMARK VINA RESULT:     -10.5      1.621      2.961
REMARK SMILES N#Cc1ccc2c(c1)C=C(C(=O)OCCOCCOCCOC(=O)c1ccc(-c3c4nc(c(-c5c(F)cc(S(=O)(=O)[O-])cc5F)c5ccc([nH]5)c(-c5c(F)cc(S(=O)(=O)[O-])cc5F)c5nc(c(-c6c(F)cc(S(=O)(=O)[O-])cc6F)c6ccc3[nH]6)C=C5)C=C4)cc1)[C@@H](C(F)(F)F)O2
REMARK SMILES IDX 18 1 17 2 16 3 15 4 14 5 13 6 11 7 12 8 10 9 3 10 4 11 8 12
REMARK SMILES IDX 5 13 7 14 6 15 9 16 96 17 91 18 2 19 1 20 92 21 93 22 94 23
REMARK SMILES IDX 95 24 19 25 20 26 21 27 22 28 23 29 24 30 25 31 26 32 90 33
REMARK SMILES IDX 27 34 89 35 28 36 29 37 30 38 83 39 31 40 88 41 82 42 84 43
REMARK SMILES IDX 32 44 87 45 81 46 80 47 33 49 67 50 46 51 66 52 47 53 50 54
REMARK SMILES IDX 65 55 85 56 48 57 49 58 64 60 86 61 51 62 34 63 35 64 44 65
REMARK SMILES IDX 36 66 37 67 43 68 45 69 38 70 39 71 40 72 41 73 42 74 68 75
REMARK SMILES IDX 69 76 78 77 70 78 71 79 77 80 79 81 72 82 73 83 74 84 75 85
REMARK SMILES IDX 76 86 52 87 53 88 62 89 54 90 55 91 61 92 63 93 56 94 57 95
REMARK SMILES IDX 58 96 59 97 60 98
REMARK H PARENT 84 48 50 59
REMARK Flexibility Score: inf
ROOT
ATOM      1  C   UNL A   1      41.920  20.246  26.138  1.00  0.00     0.188 C 
ENDROOT
BRANCH   1   2
ATOM      2  C   UNL A   1      40.438  20.373  26.549  1.00  0.00     0.188 C 
BRANCH   2   3
ATOM      3  O   UNL A   1      40.157  21.389  27.481  1.00  0.00    -0.376 OA
BRANCH   3   4
ATOM      4  C   UNL A   1      39.647  22.639  27.051  1.00  0.00     0.202 C 
BRANCH   4   5
ATOM      5  C   UNL A   1      38.803  22.890  25.783  1.00  0.00     0.261 C 
BRANCH   5   6
ATOM      6  O   UNL A   1      37.379  22.915  25.912  1.00  0.00    -0.460 OA
BRANCH   6   7
ATOM      7  C   UNL A   1      36.678  22.599  24.797  1.00  0.00     0.338 C 
ATOM      8  O   UNL A   1      37.052  21.894  23.877  1.00  0.00    -0.246 OA
BRANCH   7   9
ATOM      9  C   UNL A   1      35.298  23.118  24.927  1.00  0.00     0.087 C 
ATOM     10  C   UNL A   1      32.307  26.644  26.268  1.00  0.00     0.053 A 
ATOM     11  C   UNL A   1      31.227  25.769  26.118  1.00  0.00     0.023 A 
ATOM     12  C   UNL A   1      33.598  26.220  25.932  1.00  0.00     0.031 A 
ATOM     13  C   UNL A   1      31.433  24.484  25.613  1.00  0.00     0.048 A 
ATOM     14  C   UNL A   1      33.812  24.912  25.475  1.00  0.00     0.019 A 
ATOM     15  C   UNL A   1      32.722  24.057  25.294  1.00  0.00     0.128 A 
ATOM     16  C   UNL A   1      35.160  24.408  25.267  1.00  0.00     0.027 C 
ATOM     17  O   UNL A   1      32.825  22.783  24.817  1.00  0.00    -0.475 OA
ATOM     18  C   UNL A   1      34.143  22.194  24.651  1.00  0.00     0.316 C 
BRANCH  10  19
ATOM     19  C   UNL A   1      32.085  27.956  26.799  1.00  0.00     0.099 C 
ATOM     20  N   UNL A   1      31.869  29.020  27.215  1.00  0.00    -0.192 NA
ENDBRANCH  10  19
BRANCH  18  21
ATOM     21  C   UNL A   1      34.212  20.919  25.500  1.00  0.00     0.430 C 
ATOM     22  F   UNL A   1      35.117  20.042  25.000  1.00  0.00    -0.167 F 
ATOM     23  F   UNL A   1      34.594  21.181  26.772  1.00  0.00    -0.167 F 
ATOM     24  F   UNL A   1      33.021  20.281  25.556  1.00  0.00    -0.167 F 
ENDBRANCH  18  21
ENDBRANCH   7   9
ENDBRANCH   6   7
ENDBRANCH   5   6
ENDBRANCH   4   5
ENDBRANCH   3   4
ENDBRANCH   2   3
ENDBRANCH   1   2
BRANCH   1  25
ATOM     25  O   UNL A   1      42.885  21.064  26.769  1.00  0.00    -0.376 OA
BRANCH  25  26
ATOM     26  C   UNL A   1      43.804  21.798  25.972  1.00  0.00     0.202 C 
BRANCH  26  27
ATOM     27  C   UNL A   1      43.812  23.339  25.835  1.00  0.00     0.261 C 
BRANCH  27  28
ATOM     28  O   UNL A   1      42.913  24.099  26.652  1.00  0.00    -0.460 OA
BRANCH  28  29
ATOM     29  C   UNL A   1      42.484  25.283  26.141  1.00  0.00     0.338 C 
ATOM     30  O   UNL A   1      42.268  25.540  24.970  1.00  0.00    -0.246 OA
BRANCH  29  31
ATOM     31  C   UNL A   1      42.100  26.160  27.270  1.00  0.00     0.060 A 
ATOM     32  C   UNL A   1      41.062  25.790  28.123  1.00  0.00     0.016 A 
ATOM     33  C   UNL A   1      42.762  27.386  27.453  1.00  0.00     0.016 A 
ATOM     34  C   UNL A   1      40.695  26.644  29.166  1.00  0.00     0.010 A 
ATOM     35  C   UNL A   1      42.376  28.249  28.484  1.00  0.00     0.010 A 
ATOM     36  C   UNL A   1      41.352  27.875  29.363  1.00  0.00    -0.014 A 
BRANCH  36  37
ATOM     37  C   UNL A   1      41.067  28.671  30.586  1.00  0.00     0.031 A 
ATOM     38  C   UNL A   1      41.877  28.533  31.843  1.00  0.00     0.074 A 
ATOM     39  C   UNL A   1      40.051  29.554  30.537  1.00  0.00     0.049 A 
ATOM     40  N   UNL A   1      41.807  29.239  32.943  1.00  0.00    -0.248 NA
ATOM     41  C   UNL A   1      42.889  27.468  31.873  1.00  0.00     0.031 C 
ATOM     42  C   UNL A   1      39.172  29.749  29.382  1.00  0.00     0.029 A 
ATOM     43  N   UNL A   1      39.595  30.461  31.460  1.00  0.00    -0.354 N 
ATOM     44  C   UNL A   1      42.781  28.727  33.793  1.00  0.00     0.074 A 
ATOM     45  C   UNL A   1      43.390  27.609  33.097  1.00  0.00     0.031 C 
ATOM     46  C   UNL A   1      38.315  30.745  29.647  1.00  0.00     0.029 A 
ATOM     47  C   UNL A   1      38.555  31.234  31.001  1.00  0.00     0.049 A 
ATOM     48  H   UNL A   1      39.976  30.549  32.363  1.00  0.00     0.167 HD
ATOM     49  C   UNL A   1      43.144  29.165  35.024  1.00  0.00     0.037 A 
ATOM     50  C   UNL A   1      37.871  32.232  31.597  1.00  0.00     0.037 A 
ATOM     51  C   UNL A   1      42.515  30.268  35.713  1.00  0.00     0.049 A 
ATOM     52  C   UNL A   1      38.259  32.661  32.985  1.00  0.00     0.074 A 
ATOM     53  C   UNL A   1      42.837  30.803  36.950  1.00  0.00     0.029 A 
ATOM     54  N   UNL A   1      41.430  30.993  35.241  1.00  0.00    -0.354 N 
ATOM     55  N   UNL A   1      39.234  32.218  33.741  1.00  0.00    -0.248 NA
ATOM     56  C   UNL A   1      37.458  33.729  33.599  1.00  0.00     0.031 C 
ATOM     57  C   UNL A   1      41.909  31.805  37.253  1.00  0.00     0.029 A 
ATOM     58  C   UNL A   1      41.049  31.946  36.176  1.00  0.00     0.049 A 
ATOM     59  H   UNL A   1      40.994  30.853  34.369  1.00  0.00     0.167 HD
ATOM     60  C   UNL A   1      39.176  32.966  34.913  1.00  0.00     0.074 A 
ATOM     61  C   UNL A   1      38.085  33.905  34.754  1.00  0.00     0.031 C 
ATOM     62  C   UNL A   1      39.957  32.878  36.019  1.00  0.00     0.037 A 
BRANCH  49  63
ATOM     63  C   UNL A   1      44.282  28.461  35.719  1.00  0.00     0.058 A 
ATOM     64  C   UNL A   1      45.617  28.854  35.525  1.00  0.00     0.135 A 
ATOM     65  C   UNL A   1      44.037  27.439  36.652  1.00  0.00     0.135 A 
ATOM     66  F   UNL A   1      45.914  29.824  34.644  1.00  0.00    -0.206 F 
ATOM     67  C   UNL A   1      46.665  28.242  36.204  1.00  0.00     0.059 A 
ATOM     68  C   UNL A   1      45.067  26.833  37.368  1.00  0.00     0.059 A 
ATOM     69  F   UNL A   1      42.781  27.027  36.888  1.00  0.00    -0.206 F 
ATOM     70  C   UNL A   1      46.381  27.233  37.126  1.00  0.00     0.060 A 
BRANCH  70  71
ATOM     71  S   UNL A   1      47.757  26.453  37.995  1.00  0.00     0.124 S 
ATOM     72  O   UNL A   1      48.501  25.857  36.889  1.00  0.00    -0.237 OA
ATOM     73  O   UNL A   1      48.397  27.592  38.647  1.00  0.00    -0.237 OA
ATOM     74  O   UNL A   1      47.104  25.505  38.892  1.00  0.00    -0.744 OA
ENDBRANCH  70  71
ENDBRANCH  49  63
BRANCH  50  75
ATOM     75  C   UNL A   1      36.770  32.906  30.859  1.00  0.00     0.058 A 
ATOM     76  C   UNL A   1      35.432  32.536  31.061  1.00  0.00     0.135 A 
ATOM     77  C   UNL A   1      37.028  33.961  29.970  1.00  0.00     0.135 A 
ATOM     78  F   UNL A   1      35.132  31.529  31.894  1.00  0.00    -0.206 F 
ATOM     79  C   UNL A   1      34.390  33.186  30.405  1.00  0.00     0.059 A 
ATOM     80  C   UNL A   1      36.003  34.647  29.327  1.00  0.00     0.059 A 
ATOM     81  F   UNL A   1      38.291  34.364  29.753  1.00  0.00    -0.206 F 
ATOM     82  C   UNL A   1      34.687  34.247  29.548  1.00  0.00     0.060 A 
BRANCH  82  83
ATOM     83  S   UNL A   1      33.320  35.121  28.755  1.00  0.00     0.124 S 
ATOM     84  O   UNL A   1      34.024  36.158  28.011  1.00  0.00    -0.237 OA
ATOM     85  O   UNL A   1      32.708  34.064  27.957  1.00  0.00    -0.237 OA
ATOM     86  O   UNL A   1      32.519  35.589  29.883  1.00  0.00    -0.744 OA
ENDBRANCH  82  83
ENDBRANCH  50  75
BRANCH  62  87
ATOM     87  C   UNL A   1      39.674  33.827  37.156  1.00  0.00     0.058 A 
ATOM     88  C   UNL A   1      38.776  33.501  38.184  1.00  0.00     0.135 A 
ATOM     89  C   UNL A   1      40.363  35.049  37.256  1.00  0.00     0.135 A 
ATOM     90  F   UNL A   1      38.084  32.351  38.138  1.00  0.00    -0.206 F 
ATOM     91  C   UNL A   1      38.557  34.358  39.259  1.00  0.00     0.059 A 
ATOM     92  C   UNL A   1      40.184  35.905  38.340  1.00  0.00     0.059 A 
ATOM     93  F   UNL A   1      41.240  35.411  36.306  1.00  0.00    -0.206 F 
ATOM     94  C   UNL A   1      39.271  35.554  39.333  1.00  0.00     0.060 A 
BRANCH  94  95
ATOM     95  S   UNL A   1      39.003  36.632  40.755  1.00  0.00     0.124 S 
ATOM     96  O   UNL A   1      38.224  35.769  41.638  1.00  0.00    -0.237 OA
ATOM     97  O   UNL A   1      40.368  36.916  41.189  1.00  0.00    -0.237 OA
ATOM     98  O   UNL A   1      38.279  37.769  40.193  1.00  0.00    -0.744 OA
ENDBRANCH  94  95
ENDBRANCH  62  87
ENDBRANCH  36  37
ENDBRANCH  29  31
ENDBRANCH  28  29
ENDBRANCH  27  28
ENDBRANCH  26  27
ENDBRANCH  25  26
ENDBRANCH   1  25
TORSDOF 22
ENDMDL
