MODEL 1
REMARK VINA RESULT:      -8.3      0.000      0.000
REMARK SMILES CC1(C)[C@H](C(=O)OCCOCCOCCOC(=O)c2ccc(-c3c4nc(c(-c5c(F)cc(S(=O)(=O)[O-])cc5F)c5ccc([nH]5)c(-c5c(F)cc(S(=O)(=O)[O-])cc5F)c5nc(c(-c6c(F)cc(S(=O)(=O)[O-])cc6F)c6ccc3[nH]6)C=C5)C=C4)cc2)[C@@H]1c1nc2ccc(F)cc2s1
REMARK SMILES IDX 12 1 11 2 10 3 9 4 8 5 7 6 5 7 6 8 4 9 1 10 2 11 3 12 85 13
REMARK SMILES IDX 86 14 87 15 95 16 88 17 94 18 89 19 93 20 90 21 91 22 92 23
REMARK SMILES IDX 13 24 14 25 15 26 16 27 17 28 18 29 19 30 20 31 84 32 21 33
REMARK SMILES IDX 83 34 22 35 23 36 24 37 77 38 25 39 82 40 76 41 78 42 26 43
REMARK SMILES IDX 81 44 75 45 74 46 27 48 61 49 40 50 60 51 41 52 44 53 59 54
REMARK SMILES IDX 79 55 42 56 43 57 58 59 80 60 45 61 28 62 29 63 38 64 30 65
REMARK SMILES IDX 31 66 37 67 39 68 32 69 33 70 34 71 35 72 36 73 62 74 63 75
REMARK SMILES IDX 72 76 64 77 65 78 71 79 73 80 66 81 67 82 68 83 69 84 70 85
REMARK SMILES IDX 46 86 47 87 56 88 48 89 49 90 55 91 57 92 50 93 51 94 52 95
REMARK SMILES IDX 53 96 54 97
REMARK H PARENT 78 47 44 58
REMARK Flexibility Score: inf
ROOT
ATOM      1  C   UNL A   1      50.753  40.657  29.842  1.00  0.00     0.188 C 
ENDROOT
BRANCH   1   2
ATOM      2  C   UNL A   1      49.982  41.834  29.222  1.00  0.00     0.188 C 
BRANCH   2   3
ATOM      3  O   UNL A   1      49.199  42.666  30.068  1.00  0.00    -0.376 OA
BRANCH   3   4
ATOM      4  C   UNL A   1      47.963  43.183  29.586  1.00  0.00     0.202 C 
BRANCH   4   5
ATOM      5  C   UNL A   1      47.538  42.933  28.130  1.00  0.00     0.261 C 
BRANCH   5   6
ATOM      6  O   UNL A   1      46.511  41.934  27.984  1.00  0.00    -0.463 OA
BRANCH   6   7
ATOM      7  C   UNL A   1      45.252  42.425  27.823  1.00  0.00     0.310 C 
ATOM      8  O   UNL A   1      44.528  42.800  28.719  1.00  0.00    -0.252 OA
BRANCH   7   9
ATOM      9  C   UNL A   1      44.844  42.641  26.402  1.00  0.00     0.116 C 
ATOM     10  C   UNL A   1      45.031  42.835  23.842  1.00  0.00     0.013 C 
ATOM     11  C   UNL A   1      45.164  41.957  25.076  1.00  0.00    -0.011 C 
ATOM     12  C   UNL A   1      46.292  40.967  24.922  1.00  0.00     0.013 C 
ATOM     13  C   UNL A   1      43.880  41.621  25.808  1.00  0.00     0.070 C 
BRANCH  13  14
ATOM     14  C   UNL A   1      43.613  40.364  26.644  1.00  0.00     0.098 A 
ATOM     15  N   UNL A   1      44.475  39.378  26.561  1.00  0.00    -0.241 NA
ATOM     16  S   UNL A   1      42.230  40.050  27.590  1.00  0.00    -0.118 S 
ATOM     17  C   UNL A   1      43.888  38.219  27.025  1.00  0.00     0.082 A 
ATOM     18  C   UNL A   1      42.658  38.392  27.665  1.00  0.00     0.057 A 
ATOM     19  C   UNL A   1      44.403  36.915  26.884  1.00  0.00     0.033 A 
ATOM     20  C   UNL A   1      41.947  37.319  28.220  1.00  0.00     0.060 A 
ATOM     21  C   UNL A   1      43.685  35.832  27.397  1.00  0.00     0.041 A 
ATOM     22  C   UNL A   1      42.486  36.045  28.064  1.00  0.00     0.124 A 
ATOM     23  F   UNL A   1      41.818  34.995  28.557  1.00  0.00    -0.207 F 
ENDBRANCH  13  14
ENDBRANCH   7   9
ENDBRANCH   6   7
ENDBRANCH   5   6
ENDBRANCH   4   5
ENDBRANCH   3   4
ENDBRANCH   2   3
ENDBRANCH   1   2
BRANCH   1  24
ATOM     24  O   UNL A   1      50.016  39.482  30.070  1.00  0.00    -0.376 OA
BRANCH  24  25
ATOM     25  C   UNL A   1      48.699  39.548  30.586  1.00  0.00     0.202 C 
BRANCH  25  26
ATOM     26  C   UNL A   1      47.499  38.714  30.093  1.00  0.00     0.261 C 
BRANCH  26  27
ATOM     27  O   UNL A   1      47.684  37.318  29.856  1.00  0.00    -0.460 OA
BRANCH  27  28
ATOM     28  C   UNL A   1      47.373  36.485  30.879  1.00  0.00     0.338 C 
ATOM     29  O   UNL A   1      47.124  36.795  32.029  1.00  0.00    -0.246 OA
BRANCH  28  30
ATOM     30  C   UNL A   1      47.174  35.140  30.303  1.00  0.00     0.060 A 
ATOM     31  C   UNL A   1      46.902  35.012  28.932  1.00  0.00     0.016 A 
ATOM     32  C   UNL A   1      47.263  34.014  31.119  1.00  0.00     0.016 A 
ATOM     33  C   UNL A   1      46.695  33.749  28.377  1.00  0.00     0.010 A 
ATOM     34  C   UNL A   1      47.030  32.754  30.568  1.00  0.00     0.010 A 
ATOM     35  C   UNL A   1      46.716  32.620  29.203  1.00  0.00    -0.014 A 
BRANCH  35  36
ATOM     36  C   UNL A   1      46.212  31.315  28.714  1.00  0.00     0.031 A 
ATOM     37  C   UNL A   1      44.757  31.001  28.927  1.00  0.00     0.074 A 
ATOM     38  C   UNL A   1      47.029  30.417  28.138  1.00  0.00     0.049 A 
ATOM     39  N   UNL A   1      44.116  29.877  28.754  1.00  0.00    -0.248 NA
ATOM     40  C   UNL A   1      43.916  32.110  29.413  1.00  0.00     0.031 C 
ATOM     41  C   UNL A   1      48.442  30.629  27.832  1.00  0.00     0.029 A 
ATOM     42  N   UNL A   1      46.786  29.127  27.736  1.00  0.00    -0.354 N 
ATOM     43  C   UNL A   1      42.803  30.133  29.131  1.00  0.00     0.074 A 
ATOM     44  C   UNL A   1      42.742  31.514  29.557  1.00  0.00     0.031 C 
ATOM     45  C   UNL A   1      48.950  29.496  27.317  1.00  0.00     0.029 A 
ATOM     46  C   UNL A   1      47.910  28.467  27.300  1.00  0.00     0.049 A 
ATOM     47  H   UNL A   1      45.892  28.714  27.757  1.00  0.00     0.167 HD
ATOM     48  C   UNL A   1      41.745  29.290  29.122  1.00  0.00     0.037 A 
ATOM     49  C   UNL A   1      48.085  27.172  26.969  1.00  0.00     0.037 A 
ATOM     50  C   UNL A   1      41.821  27.916  28.701  1.00  0.00     0.049 A 
ATOM     51  C   UNL A   1      46.910  26.228  27.038  1.00  0.00     0.074 A 
ATOM     52  C   UNL A   1      40.806  26.977  28.648  1.00  0.00     0.029 A 
ATOM     53  N   UNL A   1      42.976  27.284  28.268  1.00  0.00    -0.354 N 
ATOM     54  N   UNL A   1      45.670  26.477  27.392  1.00  0.00    -0.248 NA
ATOM     55  C   UNL A   1      47.154  24.827  26.666  1.00  0.00     0.031 C 
ATOM     56  C   UNL A   1      41.360  25.762  28.232  1.00  0.00     0.029 A 
ATOM     57  C   UNL A   1      42.705  25.961  27.964  1.00  0.00     0.049 A 
ATOM     58  H   UNL A   1      43.860  27.712  28.189  1.00  0.00     0.167 HD
ATOM     59  C   UNL A   1      44.980  25.277  27.243  1.00  0.00     0.074 A 
ATOM     60  C   UNL A   1      45.940  24.301  26.772  1.00  0.00     0.031 C 
ATOM     61  C   UNL A   1      43.670  25.009  27.468  1.00  0.00     0.037 A 
BRANCH  48  62
ATOM     62  C   UNL A   1      40.428  29.818  29.618  1.00  0.00     0.058 A 
ATOM     63  C   UNL A   1      39.347  30.047  28.752  1.00  0.00     0.135 A 
ATOM     64  C   UNL A   1      40.236  30.074  30.985  1.00  0.00     0.135 A 
ATOM     65  F   UNL A   1      39.482  29.840  27.431  1.00  0.00    -0.206 F 
ATOM     66  C   UNL A   1      38.131  30.532  29.219  1.00  0.00     0.059 A 
ATOM     67  C   UNL A   1      39.019  30.533  31.480  1.00  0.00     0.059 A 
ATOM     68  F   UNL A   1      41.238  29.880  31.857  1.00  0.00    -0.206 F 
ATOM     69  C   UNL A   1      37.977  30.772  30.586  1.00  0.00     0.060 A 
BRANCH  69  70
ATOM     70  S   UNL A   1      36.389  31.396  31.178  1.00  0.00     0.124 S 
ATOM     71  O   UNL A   1      35.967  30.318  32.068  1.00  0.00    -0.237 OA
ATOM     72  O   UNL A   1      36.768  32.643  31.831  1.00  0.00    -0.237 OA
ATOM     73  O   UNL A   1      35.605  31.544  29.957  1.00  0.00    -0.744 OA
ENDBRANCH  69  70
ENDBRANCH  48  62
BRANCH  49  74
ATOM     74  C   UNL A   1      49.429  26.681  26.558  1.00  0.00     0.058 A 
ATOM     75  C   UNL A   1      49.804  26.646  25.207  1.00  0.00     0.135 A 
ATOM     76  C   UNL A   1      50.363  26.234  27.507  1.00  0.00     0.135 A 
ATOM     77  F   UNL A   1      48.942  27.048  24.261  1.00  0.00    -0.206 F 
ATOM     78  C   UNL A   1      51.050  26.172  24.808  1.00  0.00     0.059 A 
ATOM     79  C   UNL A   1      51.626  25.783  27.135  1.00  0.00     0.059 A 
ATOM     80  F   UNL A   1      50.058  26.254  28.813  1.00  0.00    -0.206 F 
ATOM     81  C   UNL A   1      51.956  25.746  25.782  1.00  0.00     0.060 A 
BRANCH  81  82
ATOM     82  S   UNL A   1      53.587  25.176  25.254  1.00  0.00     0.124 S 
ATOM     83  O   UNL A   1      53.705  25.801  23.941  1.00  0.00    -0.237 OA
ATOM     84  O   UNL A   1      54.453  25.715  26.298  1.00  0.00    -0.237 OA
ATOM     85  O   UNL A   1      53.450  23.722  25.251  1.00  0.00    -0.744 OA
ENDBRANCH  81  82
ENDBRANCH  49  74
BRANCH  61  86
ATOM     86  C   UNL A   1      43.165  23.630  27.143  1.00  0.00     0.058 A 
ATOM     87  C   UNL A   1      42.886  23.228  25.828  1.00  0.00     0.135 A 
ATOM     88  C   UNL A   1      43.050  22.667  28.161  1.00  0.00     0.135 A 
ATOM     89  F   UNL A   1      42.975  24.108  24.819  1.00  0.00    -0.206 F 
ATOM     90  C   UNL A   1      42.500  21.923  25.534  1.00  0.00     0.059 A 
ATOM     91  C   UNL A   1      42.694  21.350  27.887  1.00  0.00     0.059 A 
ATOM     92  F   UNL A   1      43.316  22.997  29.435  1.00  0.00    -0.206 F 
ATOM     93  C   UNL A   1      42.415  20.989  26.570  1.00  0.00     0.060 A 
BRANCH  93  94
ATOM     94  S   UNL A   1      41.976  19.285  26.167  1.00  0.00     0.124 S 
ATOM     95  O   UNL A   1      42.843  19.019  25.024  1.00  0.00    -0.237 OA
ATOM     96  O   UNL A   1      42.314  18.576  27.397  1.00  0.00    -0.237 OA
ATOM     97  O   UNL A   1      40.549  19.362  25.867  1.00  0.00    -0.744 OA
ENDBRANCH  93  94
ENDBRANCH  61  86
ENDBRANCH  35  36
ENDBRANCH  28  30
ENDBRANCH  27  28
ENDBRANCH  26  27
ENDBRANCH  25  26
ENDBRANCH  24  25
ENDBRANCH   1  24
TORSDOF 21
ENDMDL
MODEL 2
REMARK VINA RESULT:      -8.2      1.869      8.645
REMARK SMILES CC1(C)[C@H](C(=O)OCCOCCOCCOC(=O)c2ccc(-c3c4nc(c(-c5c(F)cc(S(=O)(=O)[O-])cc5F)c5ccc([nH]5)c(-c5c(F)cc(S(=O)(=O)[O-])cc5F)c5nc(c(-c6c(F)cc(S(=O)(=O)[O-])cc6F)c6ccc3[nH]6)C=C5)C=C4)cc2)[C@@H]1c1nc2ccc(F)cc2s1
REMARK SMILES IDX 12 1 11 2 10 3 9 4 8 5 7 6 5 7 6 8 4 9 1 10 2 11 3 12 85 13
REMARK SMILES IDX 86 14 87 15 95 16 88 17 94 18 89 19 93 20 90 21 91 22 92 23
REMARK SMILES IDX 13 24 14 25 15 26 16 27 17 28 18 29 19 30 20 31 84 32 21 33
REMARK SMILES IDX 83 34 22 35 23 36 24 37 77 38 25 39 82 40 76 41 78 42 26 43
REMARK SMILES IDX 81 44 75 45 74 46 27 48 61 49 40 50 60 51 41 52 44 53 59 54
REMARK SMILES IDX 79 55 42 56 43 57 58 59 80 60 45 61 28 62 29 63 38 64 30 65
REMARK SMILES IDX 31 66 37 67 39 68 32 69 33 70 34 71 35 72 36 73 62 74 63 75
REMARK SMILES IDX 72 76 64 77 65 78 71 79 73 80 66 81 67 82 68 83 69 84 70 85
REMARK SMILES IDX 46 86 47 87 56 88 48 89 49 90 55 91 57 92 50 93 51 94 52 95
REMARK SMILES IDX 53 96 54 97
REMARK H PARENT 78 47 44 58
REMARK Flexibility Score: inf
ROOT
ATOM      1  C   UNL A   1      51.140  41.116  29.127  1.00  0.00     0.188 C 
ENDROOT
BRANCH   1   2
ATOM      2  C   UNL A   1      50.073  42.136  29.555  1.00  0.00     0.188 C 
BRANCH   2   3
ATOM      3  O   UNL A   1      49.791  43.236  28.701  1.00  0.00    -0.376 OA
BRANCH   3   4
ATOM      4  C   UNL A   1      48.824  43.086  27.667  1.00  0.00     0.202 C 
BRANCH   4   5
ATOM      5  C   UNL A   1      47.440  42.497  27.985  1.00  0.00     0.261 C 
BRANCH   5   6
ATOM      6  O   UNL A   1      47.378  41.062  27.883  1.00  0.00    -0.463 OA
BRANCH   6   7
ATOM      7  C   UNL A   1      46.183  40.514  28.234  1.00  0.00     0.310 C 
ATOM      8  O   UNL A   1      45.330  41.062  28.896  1.00  0.00    -0.252 OA
BRANCH   7   9
ATOM      9  C   UNL A   1      45.890  39.195  27.596  1.00  0.00     0.116 C 
ATOM     10  C   UNL A   1      44.634  37.027  27.004  1.00  0.00     0.013 C 
ATOM     11  C   UNL A   1      44.650  38.547  26.985  1.00  0.00    -0.011 C 
ATOM     12  C   UNL A   1      43.262  39.110  27.171  1.00  0.00     0.013 C 
ATOM     13  C   UNL A   1      45.681  39.200  26.086  1.00  0.00     0.070 C 
BRANCH  13  14
ATOM     14  C   UNL A   1      45.562  40.575  25.417  1.00  0.00     0.098 A 
ATOM     15  N   UNL A   1      44.431  41.227  25.553  1.00  0.00    -0.241 NA
ATOM     16  S   UNL A   1      46.712  41.308  24.393  1.00  0.00    -0.118 S 
ATOM     17  C   UNL A   1      44.349  42.204  24.581  1.00  0.00     0.082 A 
ATOM     18  C   UNL A   1      45.526  42.426  23.862  1.00  0.00     0.057 A 
ATOM     19  C   UNL A   1      43.201  42.952  24.253  1.00  0.00     0.033 A 
ATOM     20  C   UNL A   1      45.618  43.404  22.862  1.00  0.00     0.060 A 
ATOM     21  C   UNL A   1      43.267  43.902  23.231  1.00  0.00     0.041 A 
ATOM     22  C   UNL A   1      44.465  44.125  22.565  1.00  0.00     0.124 A 
ATOM     23  F   UNL A   1      44.511  45.047  21.596  1.00  0.00    -0.207 F 
ENDBRANCH  13  14
ENDBRANCH   7   9
ENDBRANCH   6   7
ENDBRANCH   5   6
ENDBRANCH   4   5
ENDBRANCH   3   4
ENDBRANCH   2   3
ENDBRANCH   1   2
BRANCH   1  24
ATOM     24  O   UNL A   1      50.664  39.895  28.618  1.00  0.00    -0.376 OA
BRANCH  24  25
ATOM     25  C   UNL A   1      50.104  38.924  29.482  1.00  0.00     0.202 C 
BRANCH  25  26
ATOM     26  C   UNL A   1      48.891  38.028  29.161  1.00  0.00     0.261 C 
BRANCH  26  27
ATOM     27  O   UNL A   1      49.119  36.666  28.799  1.00  0.00    -0.460 OA
BRANCH  27  28
ATOM     28  C   UNL A   1      48.745  36.303  27.548  1.00  0.00     0.338 C 
ATOM     29  O   UNL A   1      49.098  36.809  26.499  1.00  0.00    -0.246 OA
BRANCH  28  30
ATOM     30  C   UNL A   1      47.997  35.035  27.666  1.00  0.00     0.060 A 
ATOM     31  C   UNL A   1      48.030  34.326  28.876  1.00  0.00     0.016 A 
ATOM     32  C   UNL A   1      47.261  34.558  26.582  1.00  0.00     0.016 A 
ATOM     33  C   UNL A   1      47.341  33.120  28.997  1.00  0.00     0.010 A 
ATOM     34  C   UNL A   1      46.596  33.338  26.696  1.00  0.00     0.010 A 
ATOM     35  C   UNL A   1      46.657  32.600  27.892  1.00  0.00    -0.014 A 
BRANCH  35  36
ATOM     36  C   UNL A   1      46.174  31.200  27.891  1.00  0.00     0.031 A 
ATOM     37  C   UNL A   1      47.136  30.127  27.465  1.00  0.00     0.074 A 
ATOM     38  C   UNL A   1      44.906  30.894  28.215  1.00  0.00     0.049 A 
ATOM     39  N   UNL A   1      46.914  28.865  27.211  1.00  0.00    -0.248 NA
ATOM     40  C   UNL A   1      48.539  30.542  27.291  1.00  0.00     0.031 C 
ATOM     41  C   UNL A   1      43.900  31.840  28.693  1.00  0.00     0.029 A 
ATOM     42  N   UNL A   1      44.241  29.694  28.159  1.00  0.00    -0.354 N 
ATOM     43  C   UNL A   1      48.142  28.339  26.826  1.00  0.00     0.074 A 
ATOM     44  C   UNL A   1      49.101  29.421  26.862  1.00  0.00     0.031 C 
ATOM     45  C   UNL A   1      42.735  31.189  28.858  1.00  0.00     0.029 A 
ATOM     46  C   UNL A   1      42.903  29.794  28.454  1.00  0.00     0.049 A 
ATOM     47  H   UNL A   1      44.682  28.843  27.929  1.00  0.00     0.167 HD
ATOM     48  C   UNL A   1      48.439  27.068  26.472  1.00  0.00     0.037 A 
ATOM     49  C   UNL A   1      41.921  28.873  28.365  1.00  0.00     0.037 A 
ATOM     50  C   UNL A   1      47.474  26.002  26.434  1.00  0.00     0.049 A 
ATOM     51  C   UNL A   1      42.259  27.479  27.896  1.00  0.00     0.074 A 
ATOM     52  C   UNL A   1      47.672  24.675  26.095  1.00  0.00     0.029 A 
ATOM     53  N   UNL A   1      46.128  26.142  26.738  1.00  0.00    -0.354 N 
ATOM     54  N   UNL A   1      43.422  26.987  27.536  1.00  0.00    -0.248 NA
ATOM     55  C   UNL A   1      41.153  26.514  27.817  1.00  0.00     0.031 C 
ATOM     56  C   UNL A   1      46.435  24.025  26.144  1.00  0.00     0.029 A 
ATOM     57  C   UNL A   1      45.478  24.930  26.576  1.00  0.00     0.049 A 
ATOM     58  H   UNL A   1      45.697  26.979  27.026  1.00  0.00     0.167 HD
ATOM     59  C   UNL A   1      43.194  25.648  27.231  1.00  0.00     0.074 A 
ATOM     60  C   UNL A   1      41.782  25.407  27.444  1.00  0.00     0.031 C 
ATOM     61  C   UNL A   1      44.075  24.702  26.820  1.00  0.00     0.037 A 
BRANCH  48  62
ATOM     62  C   UNL A   1      49.854  26.771  26.062  1.00  0.00     0.058 A 
ATOM     63  C   UNL A   1      50.817  26.330  26.983  1.00  0.00     0.135 A 
ATOM     64  C   UNL A   1      50.246  26.904  24.720  1.00  0.00     0.135 A 
ATOM     65  F   UNL A   1      50.503  26.206  28.283  1.00  0.00    -0.206 F 
ATOM     66  C   UNL A   1      52.123  26.054  26.595  1.00  0.00     0.059 A 
ATOM     67  C   UNL A   1      51.539  26.606  24.302  1.00  0.00     0.059 A 
ATOM     68  F   UNL A   1      49.368  27.329  23.798  1.00  0.00    -0.206 F 
ATOM     69  C   UNL A   1      52.474  26.195  25.250  1.00  0.00     0.060 A 
BRANCH  69  70
ATOM     70  S   UNL A   1      54.173  25.826  24.761  1.00  0.00     0.124 S 
ATOM     71  O   UNL A   1      54.225  24.381  24.963  1.00  0.00    -0.237 OA
ATOM     72  O   UNL A   1      54.201  26.272  23.373  1.00  0.00    -0.237 OA
ATOM     73  O   UNL A   1      54.974  26.618  25.688  1.00  0.00    -0.744 OA
ENDBRANCH  69  70
ENDBRANCH  48  62
BRANCH  49  74
ATOM     74  C   UNL A   1      40.521  29.239  28.710  1.00  0.00     0.058 A 
ATOM     75  C   UNL A   1      40.115  29.371  30.046  1.00  0.00     0.135 A 
ATOM     76  C   UNL A   1      39.558  29.461  27.711  1.00  0.00     0.135 A 
ATOM     77  F   UNL A   1      40.993  29.156  31.037  1.00  0.00    -0.206 F 
ATOM     78  C   UNL A   1      38.805  29.695  30.382  1.00  0.00     0.059 A 
ATOM     79  C   UNL A   1      38.248  29.814  28.022  1.00  0.00     0.059 A 
ATOM     80  F   UNL A   1      39.895  29.355  26.416  1.00  0.00    -0.206 F 
ATOM     81  C   UNL A   1      37.879  29.918  29.361  1.00  0.00     0.060 A 
BRANCH  81  82
ATOM     82  S   UNL A   1      36.192  30.382  29.811  1.00  0.00     0.124 S 
ATOM     83  O   UNL A   1      36.294  31.835  29.873  1.00  0.00    -0.237 OA
ATOM     84  O   UNL A   1      35.419  29.844  28.695  1.00  0.00    -0.237 OA
ATOM     85  O   UNL A   1      35.988  29.708  31.089  1.00  0.00    -0.744 OA
ENDBRANCH  81  82
ENDBRANCH  49  74
BRANCH  61  86
ATOM     86  C   UNL A   1      43.569  23.296  26.640  1.00  0.00     0.058 A 
ATOM     87  C   UNL A   1      43.461  22.698  25.376  1.00  0.00     0.135 A 
ATOM     88  C   UNL A   1      43.277  22.507  27.767  1.00  0.00     0.135 A 
ATOM     89  F   UNL A   1      43.723  23.407  24.268  1.00  0.00    -0.206 F 
ATOM     90  C   UNL A   1      43.072  21.369  25.233  1.00  0.00     0.059 A 
ATOM     91  C   UNL A   1      42.914  21.169  27.649  1.00  0.00     0.059 A 
ATOM     92  F   UNL A   1      43.375  23.028  29.000  1.00  0.00    -0.206 F 
ATOM     93  C   UNL A   1      42.808  20.610  26.376  1.00  0.00     0.060 A 
BRANCH  93  94
ATOM     94  S   UNL A   1      42.366  18.871  26.180  1.00  0.00     0.124 S 
ATOM     95  O   UNL A   1      43.299  18.445  25.142  1.00  0.00    -0.237 OA
ATOM     96  O   UNL A   1      42.613  18.333  27.514  1.00  0.00    -0.237 OA
ATOM     97  O   UNL A   1      40.963  18.919  25.780  1.00  0.00    -0.744 OA
ENDBRANCH  93  94
ENDBRANCH  61  86
ENDBRANCH  35  36
ENDBRANCH  28  30
ENDBRANCH  27  28
ENDBRANCH  26  27
ENDBRANCH  25  26
ENDBRANCH  24  25
ENDBRANCH   1  24
TORSDOF 21
ENDMDL
MODEL 3
REMARK VINA RESULT:      -8.2      2.358      8.819
REMARK SMILES CC1(C)[C@H](C(=O)OCCOCCOCCOC(=O)c2ccc(-c3c4nc(c(-c5c(F)cc(S(=O)(=O)[O-])cc5F)c5ccc([nH]5)c(-c5c(F)cc(S(=O)(=O)[O-])cc5F)c5nc(c(-c6c(F)cc(S(=O)(=O)[O-])cc6F)c6ccc3[nH]6)C=C5)C=C4)cc2)[C@@H]1c1nc2ccc(F)cc2s1
REMARK SMILES IDX 12 1 11 2 10 3 9 4 8 5 7 6 5 7 6 8 4 9 1 10 2 11 3 12 85 13
REMARK SMILES IDX 86 14 87 15 95 16 88 17 94 18 89 19 93 20 90 21 91 22 92 23
REMARK SMILES IDX 13 24 14 25 15 26 16 27 17 28 18 29 19 30 20 31 84 32 21 33
REMARK SMILES IDX 83 34 22 35 23 36 24 37 77 38 25 39 82 40 76 41 78 42 26 43
REMARK SMILES IDX 81 44 75 45 74 46 27 48 61 49 40 50 60 51 41 52 44 53 59 54
REMARK SMILES IDX 79 55 42 56 43 57 58 59 80 60 45 61 28 62 29 63 38 64 30 65
REMARK SMILES IDX 31 66 37 67 39 68 32 69 33 70 34 71 35 72 36 73 62 74 63 75
REMARK SMILES IDX 72 76 64 77 65 78 71 79 73 80 66 81 67 82 68 83 69 84 70 85
REMARK SMILES IDX 46 86 47 87 56 88 48 89 49 90 55 91 57 92 50 93 51 94 52 95
REMARK SMILES IDX 53 96 54 97
REMARK H PARENT 78 47 44 58
REMARK Flexibility Score: inf
ROOT
ATOM      1  C   UNL A   1      51.038  40.603  28.874  1.00  0.00     0.188 C 
ENDROOT
BRANCH   1   2
ATOM      2  C   UNL A   1      49.776  40.829  29.723  1.00  0.00     0.188 C 
BRANCH   2   3
ATOM      3  O   UNL A   1      48.509  40.851  29.079  1.00  0.00    -0.376 OA
BRANCH   3   4
ATOM      4  C   UNL A   1      48.412  41.340  27.746  1.00  0.00     0.202 C 
BRANCH   4   5
ATOM      5  C   UNL A   1      47.332  40.791  26.800  1.00  0.00     0.261 C 
BRANCH   5   6
ATOM      6  O   UNL A   1      46.485  41.806  26.228  1.00  0.00    -0.463 OA
BRANCH   6   7
ATOM      7  C   UNL A   1      46.896  42.282  25.021  1.00  0.00     0.310 C 
ATOM      8  O   UNL A   1      46.818  41.684  23.971  1.00  0.00    -0.252 OA
BRANCH   7   9
ATOM      9  C   UNL A   1      47.321  43.714  25.027  1.00  0.00     0.116 C 
ATOM     10  C   UNL A   1      48.751  45.808  24.579  1.00  0.00     0.013 C 
ATOM     11  C   UNL A   1      47.947  44.654  24.000  1.00  0.00    -0.011 C 
ATOM     12  C   UNL A   1      48.550  44.163  22.707  1.00  0.00     0.013 C 
ATOM     13  C   UNL A   1      46.450  44.687  24.241  1.00  0.00     0.070 C 
BRANCH  13  14
ATOM     14  C   UNL A   1      45.373  44.068  23.342  1.00  0.00     0.098 A 
ATOM     15  N   UNL A   1      45.633  43.954  22.061  1.00  0.00    -0.241 NA
ATOM     16  S   UNL A   1      43.797  43.617  23.813  1.00  0.00    -0.118 S 
ATOM     17  C   UNL A   1      44.452  43.779  21.370  1.00  0.00     0.082 A 
ATOM     18  C   UNL A   1      43.329  43.536  22.165  1.00  0.00     0.057 A 
ATOM     19  C   UNL A   1      44.292  43.851  19.971  1.00  0.00     0.033 A 
ATOM     20  C   UNL A   1      42.060  43.307  21.616  1.00  0.00     0.060 A 
ATOM     21  C   UNL A   1      43.025  43.664  19.413  1.00  0.00     0.041 A 
ATOM     22  C   UNL A   1      41.938  43.384  20.232  1.00  0.00     0.124 A 
ATOM     23  F   UNL A   1      40.734  43.197  19.677  1.00  0.00    -0.207 F 
ENDBRANCH  13  14
ENDBRANCH   7   9
ENDBRANCH   6   7
ENDBRANCH   5   6
ENDBRANCH   4   5
ENDBRANCH   3   4
ENDBRANCH   2   3
ENDBRANCH   1   2
BRANCH   1  24
ATOM     24  O   UNL A   1      50.954  39.604  27.889  1.00  0.00    -0.376 OA
BRANCH  24  25
ATOM     25  C   UNL A   1      51.224  38.251  28.211  1.00  0.00     0.202 C 
BRANCH  25  26
ATOM     26  C   UNL A   1      50.996  37.044  27.279  1.00  0.00     0.261 C 
BRANCH  26  27
ATOM     27  O   UNL A   1      50.088  36.021  27.690  1.00  0.00    -0.460 OA
BRANCH  27  28
ATOM     28  C   UNL A   1      48.771  36.339  27.668  1.00  0.00     0.338 C 
ATOM     29  O   UNL A   1      48.281  37.428  27.436  1.00  0.00    -0.246 OA
BRANCH  28  30
ATOM     30  C   UNL A   1      48.015  35.074  27.763  1.00  0.00     0.060 A 
ATOM     31  C   UNL A   1      47.967  34.391  28.988  1.00  0.00     0.016 A 
ATOM     32  C   UNL A   1      47.353  34.574  26.642  1.00  0.00     0.016 A 
ATOM     33  C   UNL A   1      47.270  33.187  29.087  1.00  0.00     0.010 A 
ATOM     34  C   UNL A   1      46.680  33.357  26.737  1.00  0.00     0.010 A 
ATOM     35  C   UNL A   1      46.660  32.644  27.950  1.00  0.00    -0.014 A 
BRANCH  35  36
ATOM     36  C   UNL A   1      46.176  31.244  27.946  1.00  0.00     0.031 A 
ATOM     37  C   UNL A   1      47.137  30.172  27.516  1.00  0.00     0.074 A 
ATOM     38  C   UNL A   1      44.909  30.938  28.271  1.00  0.00     0.049 A 
ATOM     39  N   UNL A   1      46.915  28.911  27.259  1.00  0.00    -0.248 NA
ATOM     40  C   UNL A   1      48.541  30.586  27.341  1.00  0.00     0.031 C 
ATOM     41  C   UNL A   1      43.904  31.883  28.753  1.00  0.00     0.029 A 
ATOM     42  N   UNL A   1      44.244  29.738  28.213  1.00  0.00    -0.354 N 
ATOM     43  C   UNL A   1      48.142  28.385  26.871  1.00  0.00     0.074 A 
ATOM     44  C   UNL A   1      49.101  29.467  26.909  1.00  0.00     0.031 C 
ATOM     45  C   UNL A   1      42.739  31.232  28.918  1.00  0.00     0.029 A 
ATOM     46  C   UNL A   1      42.906  29.838  28.510  1.00  0.00     0.049 A 
ATOM     47  H   UNL A   1      44.683  28.888  27.981  1.00  0.00     0.167 HD
ATOM     48  C   UNL A   1      48.438  27.115  26.513  1.00  0.00     0.037 A 
ATOM     49  C   UNL A   1      41.924  28.917  28.420  1.00  0.00     0.037 A 
ATOM     50  C   UNL A   1      47.472  26.049  26.473  1.00  0.00     0.049 A 
ATOM     51  C   UNL A   1      42.260  27.525  27.947  1.00  0.00     0.074 A 
ATOM     52  C   UNL A   1      47.669  24.723  26.131  1.00  0.00     0.029 A 
ATOM     53  N   UNL A   1      46.127  26.189  26.780  1.00  0.00    -0.354 N 
ATOM     54  N   UNL A   1      43.422  27.034  27.584  1.00  0.00    -0.248 NA
ATOM     55  C   UNL A   1      41.153  26.560  27.867  1.00  0.00     0.031 C 
ATOM     56  C   UNL A   1      46.432  24.074  26.180  1.00  0.00     0.029 A 
ATOM     57  C   UNL A   1      45.476  24.978  26.616  1.00  0.00     0.049 A 
ATOM     58  H   UNL A   1      45.697  27.026  27.071  1.00  0.00     0.167 HD
ATOM     59  C   UNL A   1      43.194  25.695  27.276  1.00  0.00     0.074 A 
ATOM     60  C   UNL A   1      41.781  25.454  27.490  1.00  0.00     0.031 C 
ATOM     61  C   UNL A   1      44.073  24.749  26.862  1.00  0.00     0.037 A 
BRANCH  48  62
ATOM     62  C   UNL A   1      49.852  26.818  26.100  1.00  0.00     0.058 A 
ATOM     63  C   UNL A   1      50.814  26.368  27.018  1.00  0.00     0.135 A 
ATOM     64  C   UNL A   1      50.244  26.961  24.759  1.00  0.00     0.135 A 
ATOM     65  F   UNL A   1      50.500  26.234  28.317  1.00  0.00    -0.206 F 
ATOM     66  C   UNL A   1      52.120  26.092  26.627  1.00  0.00     0.059 A 
ATOM     67  C   UNL A   1      51.537  26.665  24.339  1.00  0.00     0.059 A 
ATOM     68  F   UNL A   1      49.366  27.396  23.841  1.00  0.00    -0.206 F 
ATOM     69  C   UNL A   1      52.471  26.243  25.284  1.00  0.00     0.060 A 
BRANCH  69  70
ATOM     70  S   UNL A   1      54.169  25.875  24.791  1.00  0.00     0.124 S 
ATOM     71  O   UNL A   1      54.192  26.390  23.425  1.00  0.00    -0.237 OA
ATOM     72  O   UNL A   1      54.947  26.632  25.765  1.00  0.00    -0.237 OA
ATOM     73  O   UNL A   1      54.252  24.424  24.915  1.00  0.00    -0.744 OA
ENDBRANCH  69  70
ENDBRANCH  48  62
BRANCH  49  74
ATOM     74  C   UNL A   1      40.524  29.284  28.768  1.00  0.00     0.058 A 
ATOM     75  C   UNL A   1      40.120  29.412  30.105  1.00  0.00     0.135 A 
ATOM     76  C   UNL A   1      39.560  29.509  27.771  1.00  0.00     0.135 A 
ATOM     77  F   UNL A   1      40.999  29.193  31.094  1.00  0.00    -0.206 F 
ATOM     78  C   UNL A   1      38.810  29.735  30.444  1.00  0.00     0.059 A 
ATOM     79  C   UNL A   1      38.250  29.861  28.085  1.00  0.00     0.059 A 
ATOM     80  F   UNL A   1      39.895  29.407  26.476  1.00  0.00    -0.206 F 
ATOM     81  C   UNL A   1      37.883  29.962  29.425  1.00  0.00     0.060 A 
BRANCH  81  82
ATOM     82  S   UNL A   1      36.197  30.425  29.878  1.00  0.00     0.124 S 
ATOM     83  O   UNL A   1      36.029  29.720  31.143  1.00  0.00    -0.237 OA
ATOM     84  O   UNL A   1      36.292  31.879  29.965  1.00  0.00    -0.237 OA
ATOM     85  O   UNL A   1      35.399  29.922  28.764  1.00  0.00    -0.744 OA
ENDBRANCH  81  82
ENDBRANCH  49  74
BRANCH  61  86
ATOM     86  C   UNL A   1      43.566  23.345  26.679  1.00  0.00     0.058 A 
ATOM     87  C   UNL A   1      43.406  22.769  25.410  1.00  0.00     0.135 A 
ATOM     88  C   UNL A   1      43.328  22.534  27.802  1.00  0.00     0.135 A 
ATOM     89  F   UNL A   1      43.615  23.499  24.304  1.00  0.00    -0.206 F 
ATOM     90  C   UNL A   1      43.017  21.440  25.260  1.00  0.00     0.059 A 
ATOM     91  C   UNL A   1      42.967  21.196  27.676  1.00  0.00     0.059 A 
ATOM     92  F   UNL A   1      43.478  23.033  29.040  1.00  0.00    -0.206 F 
ATOM     93  C   UNL A   1      42.807  20.660  26.400  1.00  0.00     0.060 A 
BRANCH  93  94
ATOM     94  S   UNL A   1      42.365  18.922  26.191  1.00  0.00     0.124 S 
ATOM     95  O   UNL A   1      40.958  19.018  25.821  1.00  0.00    -0.237 OA
ATOM     96  O   UNL A   1      43.273  18.494  25.131  1.00  0.00    -0.237 OA
ATOM     97  O   UNL A   1      42.629  18.342  27.505  1.00  0.00    -0.744 OA
ENDBRANCH  93  94
ENDBRANCH  61  86
ENDBRANCH  35  36
ENDBRANCH  28  30
ENDBRANCH  27  28
ENDBRANCH  26  27
ENDBRANCH  25  26
ENDBRANCH  24  25
ENDBRANCH   1  24
TORSDOF 21
ENDMDL
