MODEL 1
REMARK VINA RESULT:      -9.9      0.000      0.000
REMARK SMILES CCCOC(=O)c1c(NC(=O)[C@@H]2CC=CC[C@H]2C(=O)OCCOCCOCCOC(=O)c2ccc(-c3c4nc(c(-c5c(F)cc(S(=O)(=O)[O-])cc5F)c5ccc([nH]5)c(-c5c(F)cc(S(=O)(=O)[O-])cc5F)c5nc(c(-c6c(F)cc(S(=O)(=O)[O-])cc6F)c6ccc3[nH]6)C=C5)C=C4)cc2)sc2c1CCCC2
REMARK SMILES IDX 23 1 22 2 21 3 20 4 18 5 19 6 17 7 12 8 13 9 14 10 16 11
REMARK SMILES IDX 15 12 10 13 9 14 11 16 8 17 7 18 100 19 98 20 99 21 101 22
REMARK SMILES IDX 104 23 102 24 103 25 5 26 6 27 4 28 3 29 2 30 1 31 24 32
REMARK SMILES IDX 25 33 26 34 27 35 28 36 29 37 30 38 31 39 32 40 33 41 97 42
REMARK SMILES IDX 34 43 96 44 35 45 36 46 37 47 90 48 38 49 95 50 89 51 91 52
REMARK SMILES IDX 39 53 94 54 88 55 87 56 40 58 74 59 53 60 73 61 54 62 57 63
REMARK SMILES IDX 72 64 92 65 55 66 56 67 71 69 93 70 58 71 41 72 42 73 51 74
REMARK SMILES IDX 43 75 44 76 50 77 52 78 45 79 46 80 47 81 48 82 49 83 75 84
REMARK SMILES IDX 76 85 85 86 77 87 78 88 84 89 86 90 79 91 80 92 81 93 82 94
REMARK SMILES IDX 83 95 59 96 60 97 69 98 61 99 62 100 68 101 70 102 63 103
REMARK SMILES IDX 64 104 65 105 66 106 67 107
REMARK H PARENT 9 15 91 57 57 68
REMARK Flexibility Score: inf
ROOT
ATOM      1  O   UNL A   1      32.504  21.854  24.616  1.00  0.00    -0.376 OA
ENDROOT
BRANCH   1   2
ATOM      2  C   UNL A   1      32.262  21.848  26.016  1.00  0.00     0.202 C 
BRANCH   2   3
ATOM      3  C   UNL A   1      30.945  22.462  26.539  1.00  0.00     0.261 C 
BRANCH   3   4
ATOM      4  O   UNL A   1      30.942  23.768  27.245  1.00  0.00    -0.463 OA
BRANCH   4   5
ATOM      5  C   UNL A   1      31.058  24.930  26.527  1.00  0.00     0.310 C 
ATOM      6  O   UNL A   1      30.282  25.859  26.752  1.00  0.00    -0.252 OA
BRANCH   5   7
ATOM      7  C   UNL A   1      32.192  25.084  25.386  1.00  0.00     0.116 C 
ATOM      8  C   UNL A   1      31.902  25.517  23.951  1.00  0.00     0.097 C 
ATOM      9  C   UNL A   1      32.900  24.838  22.979  1.00  0.00     0.041 C 
ATOM     10  C   UNL A   1      34.313  25.157  23.351  1.00  0.00    -0.030 C 
ATOM     11  C   UNL A   1      33.559  25.801  25.636  1.00  0.00     0.043 C 
ATOM     12  C   UNL A   1      34.608  25.623  24.567  1.00  0.00    -0.030 C 
BRANCH   8  13
ATOM     13  C   UNL A   1      30.551  25.224  23.473  1.00  0.00     0.229 C 
ATOM     14  N   UNL A   1      29.715  26.248  23.255  1.00  0.00    -0.317 N 
ATOM     15  H   UNL A   1      28.880  25.967  22.816  1.00  0.00     0.170 HD
ATOM     16  O   UNL A   1      30.207  24.081  23.184  1.00  0.00    -0.274 OA
BRANCH  14  17
ATOM     17  C   UNL A   1      29.749  27.600  23.502  1.00  0.00     0.110 A 
ATOM     18  C   UNL A   1      30.466  28.650  24.103  1.00  0.00     0.098 A 
ATOM     19  C   UNL A   1      29.737  29.898  23.780  1.00  0.00    -0.017 A 
ATOM     20  S   UNL A   1      28.334  28.108  22.660  1.00  0.00    -0.122 S 
ATOM     21  C   UNL A   1      28.572  29.702  23.064  1.00  0.00     0.011 A 
ATOM     22  C   UNL A   1      30.163  31.291  24.133  1.00  0.00     0.038 C 
ATOM     23  C   UNL A   1      27.570  30.730  22.658  1.00  0.00     0.047 C 
ATOM     24  C   UNL A   1      28.991  32.286  24.044  1.00  0.00     0.005 C 
ATOM     25  C   UNL A   1      28.185  32.123  22.747  1.00  0.00     0.006 C 
BRANCH  18  26
ATOM     26  C   UNL A   1      31.784  28.749  24.857  1.00  0.00     0.341 C 
ATOM     27  O   UNL A   1      32.830  28.964  24.251  1.00  0.00    -0.246 OA
BRANCH  26  28
ATOM     28  O   UNL A   1      31.761  28.750  26.246  1.00  0.00    -0.462 OA
BRANCH  28  29
ATOM     29  C   UNL A   1      31.972  29.956  27.090  1.00  0.00     0.233 C 
BRANCH  29  30
ATOM     30  C   UNL A   1      33.442  30.550  27.222  1.00  0.00     0.038 C 
ATOM     31  C   UNL A   1      34.759  29.752  27.355  1.00  0.00     0.007 C 
ENDBRANCH  29  30
ENDBRANCH  28  29
ENDBRANCH  26  28
ENDBRANCH  18  26
ENDBRANCH  14  17
ENDBRANCH   8  13
ENDBRANCH   5   7
ENDBRANCH   4   5
ENDBRANCH   3   4
ENDBRANCH   2   3
ENDBRANCH   1   2
BRANCH   1  32
ATOM     32  C   UNL A   1      33.270  20.780  24.110  1.00  0.00     0.188 C 
BRANCH  32  33
ATOM     33  C   UNL A   1      34.239  20.135  25.088  1.00  0.00     0.188 C 
BRANCH  33  34
ATOM     34  O   UNL A   1      35.626  20.357  24.981  1.00  0.00    -0.376 OA
BRANCH  34  35
ATOM     35  C   UNL A   1      36.043  21.656  24.607  1.00  0.00     0.202 C 
BRANCH  35  36
ATOM     36  C   UNL A   1      36.397  22.646  25.732  1.00  0.00     0.261 C 
BRANCH  36  37
ATOM     37  O   UNL A   1      37.506  23.529  25.451  1.00  0.00    -0.460 OA
BRANCH  37  38
ATOM     38  C   UNL A   1      38.709  23.173  25.991  1.00  0.00     0.338 C 
ATOM     39  O   UNL A   1      39.365  22.178  25.698  1.00  0.00    -0.246 OA
BRANCH  38  40
ATOM     40  C   UNL A   1      39.259  24.318  26.763  1.00  0.00     0.060 A 
ATOM     41  C   UNL A   1      38.894  24.491  28.111  1.00  0.00     0.016 A 
ATOM     42  C   UNL A   1      40.147  25.210  26.179  1.00  0.00     0.016 A 
ATOM     43  C   UNL A   1      39.406  25.529  28.883  1.00  0.00     0.010 A 
ATOM     44  C   UNL A   1      40.634  26.280  26.938  1.00  0.00     0.010 A 
ATOM     45  C   UNL A   1      40.257  26.452  28.286  1.00  0.00    -0.014 A 
BRANCH  45  46
ATOM     46  C   UNL A   1      40.645  27.688  29.000  1.00  0.00     0.031 A 
ATOM     47  C   UNL A   1      41.952  27.697  29.737  1.00  0.00     0.074 A 
ATOM     48  C   UNL A   1      39.842  28.765  29.019  1.00  0.00     0.049 A 
ATOM     49  N   UNL A   1      42.400  28.543  30.624  1.00  0.00    -0.248 NA
ATOM     50  C   UNL A   1      42.872  26.588  29.435  1.00  0.00     0.031 C 
ATOM     51  C   UNL A   1      38.604  28.915  28.256  1.00  0.00     0.029 A 
ATOM     52  N   UNL A   1      39.939  29.931  29.736  1.00  0.00    -0.354 N 
ATOM     53  C   UNL A   1      43.637  28.050  31.019  1.00  0.00     0.074 A 
ATOM     54  C   UNL A   1      43.860  26.822  30.284  1.00  0.00     0.031 C 
ATOM     55  C   UNL A   1      38.039  30.094  28.570  1.00  0.00     0.029 A 
ATOM     56  C   UNL A   1      38.843  30.749  29.600  1.00  0.00     0.049 A 
ATOM     57  H   UNL A   1      40.719  30.159  30.293  1.00  0.00     0.167 HD
ATOM     58  C   UNL A   1      44.503  28.576  31.917  1.00  0.00     0.037 A 
ATOM     59  C   UNL A   1      38.506  31.869  30.269  1.00  0.00     0.037 A 
ATOM     60  C   UNL A   1      44.257  29.799  32.635  1.00  0.00     0.049 A 
ATOM     61  C   UNL A   1      39.425  32.377  31.351  1.00  0.00     0.074 A 
ATOM     62  C   UNL A   1      45.060  30.426  33.570  1.00  0.00     0.029 A 
ATOM     63  N   UNL A   1      43.115  30.579  32.503  1.00  0.00    -0.354 N 
ATOM     64  N   UNL A   1      40.580  31.896  31.747  1.00  0.00    -0.248 NA
ATOM     65  C   UNL A   1      38.987  33.570  32.088  1.00  0.00     0.031 C 
ATOM     66  C   UNL A   1      44.377  31.551  34.046  1.00  0.00     0.029 A 
ATOM     67  C   UNL A   1      43.176  31.662  33.363  1.00  0.00     0.049 A 
ATOM     68  H   UNL A   1      42.371  30.389  31.887  1.00  0.00     0.167 HD
ATOM     69  C   UNL A   1      41.021  32.743  32.759  1.00  0.00     0.074 A 
ATOM     70  C   UNL A   1      40.010  33.771  32.909  1.00  0.00     0.031 C 
ATOM     71  C   UNL A   1      42.159  32.678  33.496  1.00  0.00     0.037 A 
BRANCH  58  72
ATOM     72  C   UNL A   1      45.758  27.797  32.207  1.00  0.00     0.058 A 
ATOM     73  C   UNL A   1      46.945  27.997  31.485  1.00  0.00     0.135 A 
ATOM     74  C   UNL A   1      45.767  26.822  33.219  1.00  0.00     0.135 A 
ATOM     75  F   UNL A   1      46.991  28.903  30.495  1.00  0.00    -0.206 F 
ATOM     76  C   UNL A   1      48.081  27.230  31.725  1.00  0.00     0.059 A 
ATOM     77  C   UNL A   1      46.901  26.066  33.499  1.00  0.00     0.059 A 
ATOM     78  F   UNL A   1      44.660  26.585  33.941  1.00  0.00    -0.206 F 
ATOM     79  C   UNL A   1      48.048  26.262  32.730  1.00  0.00     0.060 A 
BRANCH  79  80
ATOM     80  S   UNL A   1      49.520  25.256  33.010  1.00  0.00     0.124 S 
ATOM     81  O   UNL A   1      49.884  24.888  31.646  1.00  0.00    -0.237 OA
ATOM     82  O   UNL A   1      50.418  26.196  33.674  1.00  0.00    -0.237 OA
ATOM     83  O   UNL A   1      49.033  24.162  33.844  1.00  0.00    -0.744 OA
ENDBRANCH  79  80
ENDBRANCH  58  72
BRANCH  59  84
ATOM     84  C   UNL A   1      37.234  32.569  29.949  1.00  0.00     0.058 A 
ATOM     85  C   UNL A   1      36.036  32.204  30.581  1.00  0.00     0.135 A 
ATOM     86  C   UNL A   1      37.188  33.632  29.032  1.00  0.00     0.135 A 
ATOM     87  F   UNL A   1      36.022  31.182  31.450  1.00  0.00    -0.206 F 
ATOM     88  C   UNL A   1      34.841  32.865  30.319  1.00  0.00     0.059 A 
ATOM     89  C   UNL A   1      36.011  34.328  28.774  1.00  0.00     0.059 A 
ATOM     90  F   UNL A   1      38.306  34.024  28.400  1.00  0.00    -0.206 F 
ATOM     91  C   UNL A   1      34.841  33.935  29.421  1.00  0.00     0.060 A 
BRANCH  91  92
ATOM     92  S   UNL A   1      33.297  34.832  29.149  1.00  0.00     0.124 S 
ATOM     93  O   UNL A   1      32.703  34.809  30.481  1.00  0.00    -0.237 OA
ATOM     94  O   UNL A   1      33.776  36.132  28.688  1.00  0.00    -0.237 OA
ATOM     95  O   UNL A   1      32.614  34.029  28.140  1.00  0.00    -0.744 OA
ENDBRANCH  91  92
ENDBRANCH  59  84
BRANCH  71  96
ATOM     96  C   UNL A   1      42.394  33.763  34.513  1.00  0.00     0.058 A 
ATOM     97  C   UNL A   1      41.912  33.660  35.827  1.00  0.00     0.135 A 
ATOM     98  C   UNL A   1      43.175  34.884  34.189  1.00  0.00     0.135 A 
ATOM     99  F   UNL A   1      41.152  32.615  36.190  1.00  0.00    -0.206 F 
ATOM    100  C   UNL A   1      42.188  34.637  36.780  1.00  0.00     0.059 A 
ATOM    101  C   UNL A   1      43.488  35.857  35.133  1.00  0.00     0.059 A 
ATOM    102  F   UNL A   1      43.668  35.029  32.948  1.00  0.00    -0.206 F 
ATOM    103  C   UNL A   1      42.984  35.727  36.425  1.00  0.00     0.060 A 
BRANCH 103 104
ATOM    104  S   UNL A   1      43.380  36.954  37.689  1.00  0.00     0.124 S 
ATOM    105  O   UNL A   1      42.093  37.120  38.355  1.00  0.00    -0.237 OA
ATOM    106  O   UNL A   1      44.414  36.277  38.466  1.00  0.00    -0.237 OA
ATOM    107  O   UNL A   1      43.839  38.105  36.916  1.00  0.00    -0.744 OA
ENDBRANCH 103 104
ENDBRANCH  71  96
ENDBRANCH  45  46
ENDBRANCH  38  40
ENDBRANCH  37  38
ENDBRANCH  36  37
ENDBRANCH  35  36
ENDBRANCH  34  35
ENDBRANCH  33  34
ENDBRANCH  32  33
ENDBRANCH   1  32
TORSDOF 26
ENDMDL
MODEL 2
REMARK VINA RESULT:      -9.7      4.828     10.363
REMARK SMILES CCCOC(=O)c1c(NC(=O)[C@@H]2CC=CC[C@H]2C(=O)OCCOCCOCCOC(=O)c2ccc(-c3c4nc(c(-c5c(F)cc(S(=O)(=O)[O-])cc5F)c5ccc([nH]5)c(-c5c(F)cc(S(=O)(=O)[O-])cc5F)c5nc(c(-c6c(F)cc(S(=O)(=O)[O-])cc6F)c6ccc3[nH]6)C=C5)C=C4)cc2)sc2c1CCCC2
REMARK SMILES IDX 23 1 22 2 21 3 20 4 18 5 19 6 17 7 12 8 13 9 14 10 16 11
REMARK SMILES IDX 15 12 10 13 9 14 11 16 8 17 7 18 100 19 98 20 99 21 101 22
REMARK SMILES IDX 104 23 102 24 103 25 5 26 6 27 4 28 3 29 2 30 1 31 24 32
REMARK SMILES IDX 25 33 26 34 27 35 28 36 29 37 30 38 31 39 32 40 33 41 97 42
REMARK SMILES IDX 34 43 96 44 35 45 36 46 37 47 90 48 38 49 95 50 89 51 91 52
REMARK SMILES IDX 39 53 94 54 88 55 87 56 40 58 74 59 53 60 73 61 54 62 57 63
REMARK SMILES IDX 72 64 92 65 55 66 56 67 71 69 93 70 58 71 41 72 42 73 51 74
REMARK SMILES IDX 43 75 44 76 50 77 52 78 45 79 46 80 47 81 48 82 49 83 75 84
REMARK SMILES IDX 76 85 85 86 77 87 78 88 84 89 86 90 79 91 80 92 81 93 82 94
REMARK SMILES IDX 83 95 59 96 60 97 69 98 61 99 62 100 68 101 70 102 63 103
REMARK SMILES IDX 64 104 65 105 66 106 67 107
REMARK H PARENT 9 15 91 57 57 68
REMARK Flexibility Score: inf
ROOT
ATOM      1  O   UNL A   1      35.334  30.797  28.179  1.00  0.00    -0.376 OA
ENDROOT
BRANCH   1   2
ATOM      2  C   UNL A   1      34.051  30.629  27.593  1.00  0.00     0.202 C 
BRANCH   2   3
ATOM      3  C   UNL A   1      33.859  29.509  26.547  1.00  0.00     0.261 C 
BRANCH   3   4
ATOM      4  O   UNL A   1      33.202  28.229  26.913  1.00  0.00    -0.463 OA
BRANCH   4   5
ATOM      5  C   UNL A   1      33.176  27.195  26.014  1.00  0.00     0.310 C 
ATOM      6  O   UNL A   1      34.209  26.561  25.794  1.00  0.00    -0.252 OA
BRANCH   5   7
ATOM      7  C   UNL A   1      31.813  26.811  25.237  1.00  0.00     0.116 C 
ATOM      8  C   UNL A   1      31.773  26.083  23.896  1.00  0.00     0.097 C 
ATOM      9  C   UNL A   1      30.543  26.548  23.075  1.00  0.00     0.041 C 
ATOM     10  C   UNL A   1      29.275  26.324  23.834  1.00  0.00    -0.030 C 
ATOM     11  C   UNL A   1      30.577  26.172  25.952  1.00  0.00     0.043 C 
ATOM     12  C   UNL A   1      29.298  26.127  25.155  1.00  0.00    -0.030 C 
BRANCH   8  13
ATOM     13  C   UNL A   1      32.958  26.259  23.056  1.00  0.00     0.229 C 
ATOM     14  N   UNL A   1      33.774  25.212  22.875  1.00  0.00    -0.317 N 
ATOM     15  H   UNL A   1      34.467  25.386  22.199  1.00  0.00     0.170 HD
ATOM     16  O   UNL A   1      33.164  27.308  22.450  1.00  0.00    -0.274 OA
BRANCH  14  17
ATOM     17  C   UNL A   1      33.870  23.951  23.414  1.00  0.00     0.110 A 
ATOM     18  C   UNL A   1      34.476  23.158  24.405  1.00  0.00     0.098 A 
ATOM     19  C   UNL A   1      33.882  21.807  24.284  1.00  0.00    -0.017 A 
ATOM     20  S   UNL A   1      32.722  23.108  22.444  1.00  0.00    -0.122 S 
ATOM     21  C   UNL A   1      32.984  21.675  23.244  1.00  0.00     0.011 A 
ATOM     22  C   UNL A   1      34.153  20.636  25.181  1.00  0.00     0.038 C 
ATOM     23  C   UNL A   1      32.281  20.436  22.799  1.00  0.00     0.047 C 
ATOM     24  C   UNL A   1      33.731  19.307  24.527  1.00  0.00     0.005 C 
ATOM     25  C   UNL A   1      32.329  19.384  23.903  1.00  0.00     0.006 C 
BRANCH  18  26
ATOM     26  C   UNL A   1      35.453  23.428  25.539  1.00  0.00     0.341 C 
ATOM     27  O   UNL A   1      35.054  23.483  26.700  1.00  0.00    -0.246 OA
BRANCH  26  28
ATOM     28  O   UNL A   1      36.814  23.452  25.260  1.00  0.00    -0.462 OA
BRANCH  28  29
ATOM     29  C   UNL A   1      37.845  22.714  26.035  1.00  0.00     0.233 C 
BRANCH  29  30
ATOM     30  C   UNL A   1      38.514  21.424  25.386  1.00  0.00     0.038 C 
ATOM     31  C   UNL A   1      37.805  20.108  24.992  1.00  0.00     0.007 C 
ENDBRANCH  29  30
ENDBRANCH  28  29
ENDBRANCH  26  28
ENDBRANCH  18  26
ENDBRANCH  14  17
ENDBRANCH   8  13
ENDBRANCH   5   7
ENDBRANCH   4   5
ENDBRANCH   3   4
ENDBRANCH   2   3
ENDBRANCH   1   2
BRANCH   1  32
ATOM     32  C   UNL A   1      35.628  32.084  28.682  1.00  0.00     0.188 C 
BRANCH  32  33
ATOM     33  C   UNL A   1      34.471  32.822  29.337  1.00  0.00     0.188 C 
BRANCH  33  34
ATOM     34  O   UNL A   1      34.287  32.779  30.734  1.00  0.00    -0.376 OA
BRANCH  34  35
ATOM     35  C   UNL A   1      35.432  32.986  31.539  1.00  0.00     0.202 C 
BRANCH  35  36
ATOM     36  C   UNL A   1      35.916  31.813  32.411  1.00  0.00     0.261 C 
BRANCH  36  37
ATOM     37  O   UNL A   1      37.239  31.320  32.102  1.00  0.00    -0.460 OA
BRANCH  37  38
ATOM     38  C   UNL A   1      37.296  30.119  31.454  1.00  0.00     0.338 C 
ATOM     39  O   UNL A   1      36.346  29.377  31.226  1.00  0.00    -0.246 OA
BRANCH  38  40
ATOM     40  C   UNL A   1      38.620  29.981  30.792  1.00  0.00     0.060 A 
ATOM     41  C   UNL A   1      38.717  30.100  29.393  1.00  0.00     0.016 A 
ATOM     42  C   UNL A   1      39.769  29.757  31.538  1.00  0.00     0.016 A 
ATOM     43  C   UNL A   1      39.938  30.008  28.732  1.00  0.00     0.010 A 
ATOM     44  C   UNL A   1      40.994  29.623  30.874  1.00  0.00     0.010 A 
ATOM     45  C   UNL A   1      41.083  29.735  29.472  1.00  0.00    -0.014 A 
BRANCH  45  46
ATOM     46  C   UNL A   1      42.356  29.410  28.793  1.00  0.00     0.031 A 
ATOM     47  C   UNL A   1      42.572  27.998  28.336  1.00  0.00     0.074 A 
ATOM     48  C   UNL A   1      43.309  30.341  28.612  1.00  0.00     0.049 A 
ATOM     49  N   UNL A   1      43.670  27.408  27.948  1.00  0.00    -0.248 NA
ATOM     50  C   UNL A   1      41.383  27.131  28.331  1.00  0.00     0.031 C 
ATOM     51  C   UNL A   1      43.173  31.765  28.913  1.00  0.00     0.029 A 
ATOM     52  N   UNL A   1      44.597  30.214  28.155  1.00  0.00    -0.354 N 
ATOM     53  C   UNL A   1      43.316  26.090  27.690  1.00  0.00     0.074 A 
ATOM     54  C   UNL A   1      41.903  25.965  27.980  1.00  0.00     0.031 C 
ATOM     55  C   UNL A   1      44.345  32.376  28.662  1.00  0.00     0.029 A 
ATOM     56  C   UNL A   1      45.325  31.376  28.245  1.00  0.00     0.049 A 
ATOM     57  H   UNL A   1      44.963  29.372  27.799  1.00  0.00     0.167 HD
ATOM     58  C   UNL A   1      44.103  25.079  27.254  1.00  0.00     0.037 A 
ATOM     59  C   UNL A   1      46.642  31.593  28.061  1.00  0.00     0.037 A 
ATOM     60  C   UNL A   1      45.507  25.230  26.972  1.00  0.00     0.049 A 
ATOM     61  C   UNL A   1      47.528  30.430  27.691  1.00  0.00     0.074 A 
ATOM     62  C   UNL A   1      46.404  24.276  26.528  1.00  0.00     0.029 A 
ATOM     63  N   UNL A   1      46.220  26.413  27.115  1.00  0.00    -0.354 N 
ATOM     64  N   UNL A   1      47.201  29.178  27.475  1.00  0.00    -0.248 NA
ATOM     65  C   UNL A   1      48.965  30.707  27.555  1.00  0.00     0.031 C 
ATOM     66  C   UNL A   1      47.671  24.868  26.461  1.00  0.00     0.029 A 
ATOM     67  C   UNL A   1      47.553  26.207  26.802  1.00  0.00     0.049 A 
ATOM     68  H   UNL A   1      45.834  27.274  27.399  1.00  0.00     0.167 HD
ATOM     69  C   UNL A   1      48.385  28.523  27.151  1.00  0.00     0.074 A 
ATOM     70  C   UNL A   1      49.435  29.521  27.191  1.00  0.00     0.031 C 
ATOM     71  C   UNL A   1      48.585  27.215  26.845  1.00  0.00     0.037 A 
BRANCH  58  72
ATOM     72  C   UNL A   1      43.471  23.720  27.116  1.00  0.00     0.058 A 
ATOM     73  C   UNL A   1      43.188  22.911  28.229  1.00  0.00     0.135 A 
ATOM     74  C   UNL A   1      43.155  23.212  25.845  1.00  0.00     0.135 A 
ATOM     75  F   UNL A   1      43.485  23.337  29.468  1.00  0.00    -0.206 F 
ATOM     76  C   UNL A   1      42.657  21.633  28.084  1.00  0.00     0.059 A 
ATOM     77  C   UNL A   1      42.592  21.951  25.678  1.00  0.00     0.059 A 
ATOM     78  F   UNL A   1      43.405  23.940  24.744  1.00  0.00    -0.206 F 
ATOM     79  C   UNL A   1      42.368  21.159  26.803  1.00  0.00     0.060 A 
BRANCH  79  80
ATOM     80  S   UNL A   1      41.706  19.489  26.630  1.00  0.00     0.124 S 
ATOM     81  O   UNL A   1      41.275  19.490  25.236  1.00  0.00    -0.237 OA
ATOM     82  O   UNL A   1      42.869  18.660  26.933  1.00  0.00    -0.237 OA
ATOM     83  O   UNL A   1      40.632  19.443  27.617  1.00  0.00    -0.744 OA
ENDBRANCH  79  80
ENDBRANCH  58  72
BRANCH  59  84
ATOM     84  C   UNL A   1      47.202  32.958  28.246  1.00  0.00     0.058 A 
ATOM     85  C   UNL A   1      47.287  33.850  27.167  1.00  0.00     0.135 A 
ATOM     86  C   UNL A   1      47.636  33.412  29.502  1.00  0.00     0.135 A 
ATOM     87  F   UNL A   1      46.903  33.459  25.942  1.00  0.00    -0.206 F 
ATOM     88  C   UNL A   1      47.778  35.141  27.324  1.00  0.00     0.059 A 
ATOM     89  C   UNL A   1      48.106  34.709  29.691  1.00  0.00     0.059 A 
ATOM     90  F   UNL A   1      47.576  32.599  30.569  1.00  0.00    -0.206 F 
ATOM     91  C   UNL A   1      48.176  35.566  28.595  1.00  0.00     0.060 A 
BRANCH  91  92
ATOM     92  S   UNL A   1      48.741  37.269  28.797  1.00  0.00     0.124 S 
ATOM     93  O   UNL A   1      48.195  37.609  30.106  1.00  0.00    -0.237 OA
ATOM     94  O   UNL A   1      50.192  37.119  28.731  1.00  0.00    -0.237 OA
ATOM     95  O   UNL A   1      48.138  37.962  27.662  1.00  0.00    -0.744 OA
ENDBRANCH  91  92
ENDBRANCH  59  84
BRANCH  71  96
ATOM     96  C   UNL A   1      49.986  26.787  26.499  1.00  0.00     0.058 A 
ATOM     97  C   UNL A   1      50.862  26.274  27.467  1.00  0.00     0.135 A 
ATOM     98  C   UNL A   1      50.430  26.821  25.167  1.00  0.00     0.135 A 
ATOM     99  F   UNL A   1      50.495  26.228  28.757  1.00  0.00    -0.206 F 
ATOM    100  C   UNL A   1      52.134  25.820  27.128  1.00  0.00     0.059 A 
ATOM    101  C   UNL A   1      51.685  26.344  24.800  1.00  0.00     0.059 A 
ATOM    102  F   UNL A   1      49.629  27.295  24.199  1.00  0.00    -0.206 F 
ATOM    103  C   UNL A   1      52.533  25.851  25.790  1.00  0.00     0.060 A 
BRANCH 103 104
ATOM    104  S   UNL A   1      54.162  25.205  25.360  1.00  0.00     0.124 S 
ATOM    105  O   UNL A   1      53.836  23.861  24.896  1.00  0.00    -0.237 OA
ATOM    106  O   UNL A   1      54.606  26.142  24.331  1.00  0.00    -0.237 OA
ATOM    107  O   UNL A   1      54.900  25.272  26.618  1.00  0.00    -0.744 OA
ENDBRANCH 103 104
ENDBRANCH  71  96
ENDBRANCH  45  46
ENDBRANCH  38  40
ENDBRANCH  37  38
ENDBRANCH  36  37
ENDBRANCH  35  36
ENDBRANCH  34  35
ENDBRANCH  33  34
ENDBRANCH  32  33
ENDBRANCH   1  32
TORSDOF 26
ENDMDL
MODEL 3
REMARK VINA RESULT:      -9.5      2.998      8.033
REMARK SMILES CCCOC(=O)c1c(NC(=O)[C@@H]2CC=CC[C@H]2C(=O)OCCOCCOCCOC(=O)c2ccc(-c3c4nc(c(-c5c(F)cc(S(=O)(=O)[O-])cc5F)c5ccc([nH]5)c(-c5c(F)cc(S(=O)(=O)[O-])cc5F)c5nc(c(-c6c(F)cc(S(=O)(=O)[O-])cc6F)c6ccc3[nH]6)C=C5)C=C4)cc2)sc2c1CCCC2
REMARK SMILES IDX 23 1 22 2 21 3 20 4 18 5 19 6 17 7 12 8 13 9 14 10 16 11
REMARK SMILES IDX 15 12 10 13 9 14 11 16 8 17 7 18 100 19 98 20 99 21 101 22
REMARK SMILES IDX 104 23 102 24 103 25 5 26 6 27 4 28 3 29 2 30 1 31 24 32
REMARK SMILES IDX 25 33 26 34 27 35 28 36 29 37 30 38 31 39 32 40 33 41 97 42
REMARK SMILES IDX 34 43 96 44 35 45 36 46 37 47 90 48 38 49 95 50 89 51 91 52
REMARK SMILES IDX 39 53 94 54 88 55 87 56 40 58 74 59 53 60 73 61 54 62 57 63
REMARK SMILES IDX 72 64 92 65 55 66 56 67 71 69 93 70 58 71 41 72 42 73 51 74
REMARK SMILES IDX 43 75 44 76 50 77 52 78 45 79 46 80 47 81 48 82 49 83 75 84
REMARK SMILES IDX 76 85 85 86 77 87 78 88 84 89 86 90 79 91 80 92 81 93 82 94
REMARK SMILES IDX 83 95 59 96 60 97 69 98 61 99 62 100 68 101 70 102 63 103
REMARK SMILES IDX 64 104 65 105 66 106 67 107
REMARK H PARENT 9 15 91 57 57 68
REMARK Flexibility Score: inf
ROOT
ATOM      1  O   UNL A   1      32.410  21.875  24.482  1.00  0.00    -0.376 OA
ENDROOT
BRANCH   1   2
ATOM      2  C   UNL A   1      32.143  21.863  25.877  1.00  0.00     0.202 C 
BRANCH   2   3
ATOM      3  C   UNL A   1      30.973  22.717  26.412  1.00  0.00     0.261 C 
BRANCH   3   4
ATOM      4  O   UNL A   1      31.230  23.971  27.166  1.00  0.00    -0.463 OA
BRANCH   4   5
ATOM      5  C   UNL A   1      31.335  25.161  26.494  1.00  0.00     0.310 C 
ATOM      6  O   UNL A   1      30.693  26.134  26.887  1.00  0.00    -0.252 OA
BRANCH   5   7
ATOM      7  C   UNL A   1      32.283  25.290  25.192  1.00  0.00     0.116 C 
ATOM      8  C   UNL A   1      31.776  25.684  23.807  1.00  0.00     0.097 C 
ATOM      9  C   UNL A   1      32.622  24.985  22.712  1.00  0.00     0.041 C 
ATOM     10  C   UNL A   1      34.072  25.320  22.858  1.00  0.00    -0.030 C 
ATOM     11  C   UNL A   1      33.666  26.020  25.215  1.00  0.00     0.043 C 
ATOM     12  C   UNL A   1      34.543  25.819  24.005  1.00  0.00    -0.030 C 
BRANCH   8  13
ATOM     13  C   UNL A   1      30.371  25.373  23.546  1.00  0.00     0.229 C 
ATOM     14  N   UNL A   1      29.512  26.389  23.383  1.00  0.00    -0.317 N 
ATOM     15  H   UNL A   1      28.623  26.087  23.087  1.00  0.00     0.170 HD
ATOM     16  O   UNL A   1      29.990  24.217  23.383  1.00  0.00    -0.274 OA
BRANCH  14  17
ATOM     17  C   UNL A   1      29.580  27.753  23.536  1.00  0.00     0.110 A 
ATOM     18  C   UNL A   1      30.330  28.825  24.051  1.00  0.00     0.098 A 
ATOM     19  C   UNL A   1      29.623  30.064  23.654  1.00  0.00    -0.017 A 
ATOM     20  S   UNL A   1      28.162  28.234  22.683  1.00  0.00    -0.122 S 
ATOM     21  C   UNL A   1      28.442  29.846  22.972  1.00  0.00     0.011 A 
ATOM     22  C   UNL A   1      30.085  31.468  23.903  1.00  0.00     0.038 C 
ATOM     23  C   UNL A   1      27.455  30.867  22.511  1.00  0.00     0.047 C 
ATOM     24  C   UNL A   1      28.934  32.482  23.763  1.00  0.00     0.005 C 
ATOM     25  C   UNL A   1      28.103  32.248  22.493  1.00  0.00     0.006 C 
BRANCH  18  26
ATOM     26  C   UNL A   1      31.662  28.945  24.776  1.00  0.00     0.341 C 
ATOM     27  O   UNL A   1      32.699  29.118  24.141  1.00  0.00    -0.246 OA
BRANCH  26  28
ATOM     28  O   UNL A   1      31.665  29.015  26.164  1.00  0.00    -0.462 OA
BRANCH  28  29
ATOM     29  C   UNL A   1      32.683  29.742  26.967  1.00  0.00     0.233 C 
BRANCH  29  30
ATOM     30  C   UNL A   1      34.059  29.013  27.298  1.00  0.00     0.038 C 
ATOM     31  C   UNL A   1      35.376  29.679  27.759  1.00  0.00     0.007 C 
ENDBRANCH  29  30
ENDBRANCH  28  29
ENDBRANCH  26  28
ENDBRANCH  18  26
ENDBRANCH  14  17
ENDBRANCH   8  13
ENDBRANCH   5   7
ENDBRANCH   4   5
ENDBRANCH   3   4
ENDBRANCH   2   3
ENDBRANCH   1   2
BRANCH   1  32
ATOM     32  C   UNL A   1      33.029  20.720  23.953  1.00  0.00     0.188 C 
BRANCH  32  33
ATOM     33  C   UNL A   1      33.951  19.968  24.900  1.00  0.00     0.188 C 
BRANCH  33  34
ATOM     34  O   UNL A   1      35.345  20.164  24.857  1.00  0.00    -0.376 OA
BRANCH  34  35
ATOM     35  C   UNL A   1      35.802  21.486  24.638  1.00  0.00     0.202 C 
BRANCH  35  36
ATOM     36  C   UNL A   1      36.216  22.314  25.868  1.00  0.00     0.261 C 
BRANCH  36  37
ATOM     37  O   UNL A   1      37.288  23.257  25.644  1.00  0.00    -0.460 OA
BRANCH  37  38
ATOM     38  C   UNL A   1      38.505  22.917  26.163  1.00  0.00     0.338 C 
ATOM     39  O   UNL A   1      39.098  21.859  25.978  1.00  0.00    -0.246 OA
BRANCH  38  40
ATOM     40  C   UNL A   1      39.150  24.127  26.737  1.00  0.00     0.060 A 
ATOM     41  C   UNL A   1      39.864  25.002  25.897  1.00  0.00     0.016 A 
ATOM     42  C   UNL A   1      39.039  24.421  28.088  1.00  0.00     0.016 A 
ATOM     43  C   UNL A   1      40.458  26.162  26.381  1.00  0.00     0.010 A 
ATOM     44  C   UNL A   1      39.670  25.566  28.589  1.00  0.00     0.010 A 
ATOM     45  C   UNL A   1      40.391  26.433  27.743  1.00  0.00    -0.014 A 
BRANCH  45  46
ATOM     46  C   UNL A   1      41.192  27.528  28.332  1.00  0.00     0.031 A 
ATOM     47  C   UNL A   1      40.462  28.677  28.962  1.00  0.00     0.074 A 
ATOM     48  C   UNL A   1      42.536  27.517  28.281  1.00  0.00     0.049 A 
ATOM     49  N   UNL A   1      40.908  29.851  29.319  1.00  0.00    -0.248 NA
ATOM     50  C   UNL A   1      39.026  28.472  29.210  1.00  0.00     0.031 C 
ATOM     51  C   UNL A   1      43.357  26.410  27.794  1.00  0.00     0.029 A 
ATOM     52  N   UNL A   1      43.444  28.487  28.621  1.00  0.00    -0.354 N 
ATOM     53  C   UNL A   1      39.802  30.541  29.797  1.00  0.00     0.074 A 
ATOM     54  C   UNL A   1      38.662  29.659  29.670  1.00  0.00     0.031 C 
ATOM     55  C   UNL A   1      44.650  26.777  27.837  1.00  0.00     0.029 A 
ATOM     56  C   UNL A   1      44.738  28.162  28.293  1.00  0.00     0.049 A 
ATOM     57  H   UNL A   1      43.192  29.334  29.055  1.00  0.00     0.167 HD
ATOM     58  C   UNL A   1      39.749  31.800  30.293  1.00  0.00     0.037 A 
ATOM     59  C   UNL A   1      45.855  28.916  28.312  1.00  0.00     0.037 A 
ATOM     60  C   UNL A   1      40.899  32.658  30.408  1.00  0.00     0.049 A 
ATOM     61  C   UNL A   1      45.757  30.354  28.754  1.00  0.00     0.074 A 
ATOM     62  C   UNL A   1      40.964  33.951  30.893  1.00  0.00     0.029 A 
ATOM     63  N   UNL A   1      42.188  32.309  30.027  1.00  0.00    -0.354 N 
ATOM     64  N   UNL A   1      44.708  31.018  29.179  1.00  0.00    -0.248 NA
ATOM     65  C   UNL A   1      46.992  31.149  28.706  1.00  0.00     0.031 C 
ATOM     66  C   UNL A   1      42.280  34.405  30.748  1.00  0.00     0.029 A 
ATOM     67  C   UNL A   1      43.050  33.373  30.232  1.00  0.00     0.049 A 
ATOM     68  H   UNL A   1      42.452  31.433  29.663  1.00  0.00     0.167 HD
ATOM     69  C   UNL A   1      45.160  32.301  29.474  1.00  0.00     0.074 A 
ATOM     70  C   UNL A   1      46.580  32.316  29.187  1.00  0.00     0.031 C 
ATOM     71  C   UNL A   1      44.464  33.368  29.942  1.00  0.00     0.037 A 
BRANCH  58  72
ATOM     72  C   UNL A   1      38.397  32.332  30.686  1.00  0.00     0.058 A 
ATOM     73  C   UNL A   1      37.568  33.010  29.778  1.00  0.00     0.135 A 
ATOM     74  C   UNL A   1      37.929  32.171  32.001  1.00  0.00     0.135 A 
ATOM     75  F   UNL A   1      37.970  33.208  28.512  1.00  0.00    -0.206 F 
ATOM     76  C   UNL A   1      36.345  33.547  30.169  1.00  0.00     0.059 A 
ATOM     77  C   UNL A   1      36.695  32.670  32.406  1.00  0.00     0.059 A 
ATOM     78  F   UNL A   1      38.679  31.533  32.914  1.00  0.00    -0.206 F 
ATOM     79  C   UNL A   1      35.920  33.377  31.488  1.00  0.00     0.060 A 
BRANCH  79  80
ATOM     80  S   UNL A   1      34.345  34.104  31.987  1.00  0.00     0.124 S 
ATOM     81  O   UNL A   1      33.733  34.389  30.694  1.00  0.00    -0.237 OA
ATOM     82  O   UNL A   1      33.732  33.023  32.754  1.00  0.00    -0.237 OA
ATOM     83  O   UNL A   1      34.740  35.274  32.765  1.00  0.00    -0.744 OA
ENDBRANCH  79  80
ENDBRANCH  58  72
BRANCH  59  84
ATOM     84  C   UNL A   1      47.152  28.331  27.879  1.00  0.00     0.058 A 
ATOM     85  C   UNL A   1      48.023  27.750  28.811  1.00  0.00     0.135 A 
ATOM     86  C   UNL A   1      47.537  28.313  26.528  1.00  0.00     0.135 A 
ATOM     87  F   UNL A   1      47.712  27.759  30.116  1.00  0.00    -0.206 F 
ATOM     88  C   UNL A   1      49.227  27.171  28.423  1.00  0.00     0.059 A 
ATOM     89  C   UNL A   1      48.722  27.714  26.112  1.00  0.00     0.059 A 
ATOM     90  F   UNL A   1      46.739  28.854  25.593  1.00  0.00    -0.206 F 
ATOM     91  C   UNL A   1      49.563  27.148  27.067  1.00  0.00     0.060 A 
BRANCH  91  92
ATOM     92  S   UNL A   1      51.092  26.325  26.572  1.00  0.00     0.124 S 
ATOM     93  O   UNL A   1      50.859  24.963  27.038  1.00  0.00    -0.237 OA
ATOM     94  O   UNL A   1      51.085  26.513  25.125  1.00  0.00    -0.237 OA
ATOM     95  O   UNL A   1      52.123  27.069  27.289  1.00  0.00    -0.744 OA
ENDBRANCH  91  92
ENDBRANCH  59  84
BRANCH  71  96
ATOM     96  C   UNL A   1      45.229  34.638  30.205  1.00  0.00     0.058 A 
ATOM     97  C   UNL A   1      45.771  34.926  31.468  1.00  0.00     0.135 A 
ATOM     98  C   UNL A   1      45.488  35.540  29.161  1.00  0.00     0.135 A 
ATOM     99  F   UNL A   1      45.546  34.103  32.505  1.00  0.00    -0.206 F 
ATOM    100  C   UNL A   1      46.532  36.070  31.687  1.00  0.00     0.059 A 
ATOM    101  C   UNL A   1      46.272  36.675  29.351  1.00  0.00     0.059 A 
ATOM    102  F   UNL A   1      45.001  35.310  27.931  1.00  0.00    -0.206 F 
ATOM    103  C   UNL A   1      46.784  36.934  30.620  1.00  0.00     0.060 A 
BRANCH 103 104
ATOM    104  S   UNL A   1      47.822  38.383  30.909  1.00  0.00     0.124 S 
ATOM    105  O   UNL A   1      49.161  37.825  30.753  1.00  0.00    -0.237 OA
ATOM    106  O   UNL A   1      47.386  39.292  29.852  1.00  0.00    -0.237 OA
ATOM    107  O   UNL A   1      47.467  38.793  32.265  1.00  0.00    -0.744 OA
ENDBRANCH 103 104
ENDBRANCH  71  96
ENDBRANCH  45  46
ENDBRANCH  38  40
ENDBRANCH  37  38
ENDBRANCH  36  37
ENDBRANCH  35  36
ENDBRANCH  34  35
ENDBRANCH  33  34
ENDBRANCH  32  33
ENDBRANCH   1  32
TORSDOF 26
ENDMDL
