MODEL 1
REMARK VINA RESULT:     -12.1      0.000      0.000
REMARK SMILES CC1=Nc2c(c(C)nn2-c2ccc(F)cc2)[C@H](c2ccc(C(=O)OCCOCCOCCOC(=O)c3ccc(-c4c5nc(c(-c6c(F)cc(S(=O)(=O)[O-])cc6F)c6ccc([nH]6)c(-c6c(F)cc(S(=O)(=O)[O-])cc6F)c6nc(c(-c7c(F)cc(S(=O)(=O)[O-])cc7F)c7ccc4[nH]7)C=C6)C=C5)cc3)cc2)S1
REMARK SMILES IDX 29 1 28 2 27 3 26 4 25 5 24 6 22 7 23 8 21 9 18 10 19 11
REMARK SMILES IDX 103 12 20 13 102 14 17 15 1 16 2 17 3 18 104 19 4 20 5 21
REMARK SMILES IDX 9 22 6 23 8 24 7 25 10 26 11 27 16 28 12 29 15 30 13 31
REMARK SMILES IDX 14 32 30 33 31 34 32 35 33 36 34 37 35 38 36 39 37 40 101 41
REMARK SMILES IDX 38 42 100 43 39 44 40 45 41 46 94 47 42 48 99 49 93 50 95 51
REMARK SMILES IDX 43 52 98 53 92 54 91 55 44 57 78 58 57 59 77 60 58 61 61 62
REMARK SMILES IDX 76 63 96 64 59 65 60 66 75 68 97 69 62 70 45 71 46 72 55 73
REMARK SMILES IDX 47 74 48 75 54 76 56 77 49 78 50 79 51 80 52 81 53 82 79 83
REMARK SMILES IDX 80 84 89 85 81 86 82 87 88 88 90 89 83 90 84 91 85 92 86 93
REMARK SMILES IDX 87 94 63 95 64 96 73 97 65 98 66 99 72 100 74 101 67 102
REMARK SMILES IDX 68 103 69 104 70 105 71 106
REMARK H PARENT 95 56 61 67
REMARK Flexibility Score: inf
ROOT
ATOM      1  C   UNL A   1      36.397  18.860  24.829  1.00  0.00     0.188 C 
ENDROOT
BRANCH   1   2
ATOM      2  C   UNL A   1      35.561  17.565  24.853  1.00  0.00     0.188 C 
BRANCH   2   3
ATOM      3  O   UNL A   1      34.760  17.314  23.724  1.00  0.00    -0.376 OA
BRANCH   3   4
ATOM      4  C   UNL A   1      33.407  16.913  23.858  1.00  0.00     0.202 C 
BRANCH   4   5
ATOM      5  C   UNL A   1      32.205  17.839  24.149  1.00  0.00     0.261 C 
BRANCH   5   6
ATOM      6  O   UNL A   1      32.385  19.248  23.986  1.00  0.00    -0.460 OA
BRANCH   6   7
ATOM      7  C   UNL A   1      32.634  19.937  25.130  1.00  0.00     0.338 C 
ATOM      8  O   UNL A   1      32.969  19.475  26.195  1.00  0.00    -0.246 OA
BRANCH   7   9
ATOM      9  C   UNL A   1      32.626  21.399  24.859  1.00  0.00     0.060 A 
ATOM     10  C   UNL A   1      32.885  24.175  24.370  1.00  0.00    -0.030 A 
ATOM     11  C   UNL A   1      33.699  23.237  23.708  1.00  0.00     0.006 A 
ATOM     12  C   UNL A   1      31.872  23.676  25.215  1.00  0.00     0.006 A 
ATOM     13  C   UNL A   1      33.572  21.869  23.946  1.00  0.00     0.016 A 
ATOM     14  C   UNL A   1      31.749  22.296  25.470  1.00  0.00     0.016 A 
BRANCH  10  15
ATOM     15  C   UNL A   1      33.224  25.656  24.214  1.00  0.00     0.119 C 
ATOM     16  C   UNL A   1      31.583  27.742  27.400  1.00  0.00     0.075 C 
ATOM     17  C   UNL A   1      31.935  27.364  25.985  1.00  0.00     0.074 C 
ATOM     18  N   UNL A   1      31.093  27.681  25.056  1.00  0.00    -0.227 NA
ATOM     19  S   UNL A   1      33.470  26.534  25.794  1.00  0.00    -0.098 SA
ATOM     20  C   UNL A   1      31.342  27.266  23.793  1.00  0.00     0.161 A 
ATOM     21  C   UNL A   1      32.228  26.313  23.340  1.00  0.00     0.038 A 
ATOM     22  N   UNL A   1      30.638  27.711  22.683  1.00  0.00    -0.215 N 
ATOM     23  C   UNL A   1      32.004  26.255  21.938  1.00  0.00     0.067 A 
ATOM     24  N   UNL A   1      30.972  27.021  21.566  1.00  0.00    -0.171 NA
ATOM     25  C   UNL A   1      32.742  25.493  20.898  1.00  0.00     0.069 C 
BRANCH  22  26
ATOM     26  C   UNL A   1      29.702  28.772  22.632  1.00  0.00     0.067 A 
ATOM     27  C   UNL A   1      30.114  30.053  22.232  1.00  0.00     0.031 A 
ATOM     28  C   UNL A   1      28.374  28.535  23.008  1.00  0.00     0.031 A 
ATOM     29  C   UNL A   1      29.197  31.103  22.231  1.00  0.00     0.041 A 
ATOM     30  C   UNL A   1      27.479  29.605  23.059  1.00  0.00     0.041 A 
ATOM     31  C   UNL A   1      27.896  30.874  22.668  1.00  0.00     0.123 A 
ATOM     32  F   UNL A   1      27.034  31.899  22.716  1.00  0.00    -0.207 F 
ENDBRANCH  22  26
ENDBRANCH  10  15
ENDBRANCH   7   9
ENDBRANCH   6   7
ENDBRANCH   5   6
ENDBRANCH   4   5
ENDBRANCH   3   4
ENDBRANCH   2   3
ENDBRANCH   1   2
BRANCH   1  33
ATOM     33  O   UNL A   1      37.797  18.829  25.044  1.00  0.00    -0.376 OA
BRANCH  33  34
ATOM     34  C   UNL A   1      38.554  20.016  25.219  1.00  0.00     0.202 C 
BRANCH  34  35
ATOM     35  C   UNL A   1      37.956  21.397  25.483  1.00  0.00     0.261 C 
BRANCH  35  36
ATOM     36  O   UNL A   1      38.809  22.369  26.058  1.00  0.00    -0.460 OA
BRANCH  36  37
ATOM     37  C   UNL A   1      38.258  23.600  26.071  1.00  0.00     0.338 C 
ATOM     38  O   UNL A   1      37.258  23.958  25.462  1.00  0.00    -0.246 OA
BRANCH  37  39
ATOM     39  C   UNL A   1      39.122  24.524  26.803  1.00  0.00     0.060 A 
ATOM     40  C   UNL A   1      38.852  24.679  28.162  1.00  0.00     0.016 A 
ATOM     41  C   UNL A   1      39.964  25.406  26.106  1.00  0.00     0.016 A 
ATOM     42  C   UNL A   1      39.285  25.826  28.784  1.00  0.00     0.010 A 
ATOM     43  C   UNL A   1      40.395  26.558  26.733  1.00  0.00     0.010 A 
ATOM     44  C   UNL A   1      39.990  26.790  28.044  1.00  0.00    -0.014 A 
BRANCH  44  45
ATOM     45  C   UNL A   1      40.396  27.985  28.754  1.00  0.00     0.031 A 
ATOM     46  C   UNL A   1      41.682  28.522  28.263  1.00  0.00     0.074 A 
ATOM     47  C   UNL A   1      39.688  28.574  29.735  1.00  0.00     0.049 A 
ATOM     48  N   UNL A   1      42.819  28.482  28.870  1.00  0.00    -0.248 NA
ATOM     49  C   UNL A   1      41.754  28.979  26.866  1.00  0.00     0.031 C 
ATOM     50  C   UNL A   1      38.315  28.301  30.159  1.00  0.00     0.029 A 
ATOM     51  N   UNL A   1      40.049  29.626  30.523  1.00  0.00    -0.354 N 
ATOM     52  C   UNL A   1      43.707  29.135  28.029  1.00  0.00     0.074 A 
ATOM     53  C   UNL A   1      43.055  29.246  26.749  1.00  0.00     0.031 C 
ATOM     54  C   UNL A   1      37.891  29.308  30.958  1.00  0.00     0.029 A 
ATOM     55  C   UNL A   1      38.995  30.223  31.205  1.00  0.00     0.049 A 
ATOM     56  H   UNL A   1      40.980  29.936  30.603  1.00  0.00     0.167 HD
ATOM     57  C   UNL A   1      44.796  29.775  28.532  1.00  0.00     0.037 A 
ATOM     58  C   UNL A   1      39.030  31.413  31.860  1.00  0.00     0.037 A 
ATOM     59  C   UNL A   1      45.136  29.298  29.847  1.00  0.00     0.049 A 
ATOM     60  C   UNL A   1      40.455  31.681  32.201  1.00  0.00     0.074 A 
ATOM     61  C   UNL A   1      45.405  28.047  30.373  1.00  0.00     0.029 A 
ATOM     62  N   UNL A   1      44.846  30.099  30.926  1.00  0.00    -0.354 N 
ATOM     63  N   UNL A   1      41.139  30.984  33.067  1.00  0.00    -0.248 NA
ATOM     64  C   UNL A   1      41.249  32.435  31.241  1.00  0.00     0.031 C 
ATOM     65  C   UNL A   1      44.774  28.040  31.651  1.00  0.00     0.029 A 
ATOM     66  C   UNL A   1      44.227  29.307  31.861  1.00  0.00     0.049 A 
ATOM     67  H   UNL A   1      45.045  31.059  31.013  1.00  0.00     0.167 HD
ATOM     68  C   UNL A   1      42.395  30.849  32.494  1.00  0.00     0.074 A 
ATOM     69  C   UNL A   1      42.428  31.832  31.413  1.00  0.00     0.031 C 
ATOM     70  C   UNL A   1      43.192  29.772  32.759  1.00  0.00     0.037 A 
BRANCH  57  71
ATOM     71  C   UNL A   1      45.288  31.079  27.969  1.00  0.00     0.058 A 
ATOM     72  C   UNL A   1      46.470  31.193  27.202  1.00  0.00     0.135 A 
ATOM     73  C   UNL A   1      44.444  32.204  27.964  1.00  0.00     0.135 A 
ATOM     74  F   UNL A   1      47.292  30.156  26.998  1.00  0.00    -0.206 F 
ATOM     75  C   UNL A   1      46.817  32.348  26.521  1.00  0.00     0.059 A 
ATOM     76  C   UNL A   1      44.744  33.355  27.235  1.00  0.00     0.059 A 
ATOM     77  F   UNL A   1      43.271  32.179  28.618  1.00  0.00    -0.206 F 
ATOM     78  C   UNL A   1      45.939  33.419  26.526  1.00  0.00     0.060 A 
BRANCH  78  79
ATOM     79  S   UNL A   1      46.364  34.844  25.514  1.00  0.00     0.124 S 
ATOM     80  O   UNL A   1      45.588  34.581  24.306  1.00  0.00    -0.237 OA
ATOM     81  O   UNL A   1      45.900  35.952  26.342  1.00  0.00    -0.237 OA
ATOM     82  O   UNL A   1      47.812  34.732  25.370  1.00  0.00    -0.744 OA
ENDBRANCH  78  79
ENDBRANCH  57  71
BRANCH  58  83
ATOM     83  C   UNL A   1      37.998  32.495  31.856  1.00  0.00     0.058 A 
ATOM     84  C   UNL A   1      37.243  32.812  33.003  1.00  0.00     0.135 A 
ATOM     85  C   UNL A   1      37.524  33.035  30.642  1.00  0.00     0.135 A 
ATOM     86  F   UNL A   1      37.573  32.336  34.211  1.00  0.00    -0.206 F 
ATOM     87  C   UNL A   1      36.063  33.552  32.944  1.00  0.00     0.059 A 
ATOM     88  C   UNL A   1      36.336  33.774  30.557  1.00  0.00     0.059 A 
ATOM     89  F   UNL A   1      38.172  32.787  29.494  1.00  0.00    -0.206 F 
ATOM     90  C   UNL A   1      35.595  33.996  31.714  1.00  0.00     0.060 A 
BRANCH  90  91
ATOM     91  S   UNL A   1      33.964  34.775  31.664  1.00  0.00     0.124 S 
ATOM     92  O   UNL A   1      33.252  34.041  32.705  1.00  0.00    -0.237 OA
ATOM     93  O   UNL A   1      34.282  36.165  31.978  1.00  0.00    -0.237 OA
ATOM     94  O   UNL A   1      33.509  34.532  30.299  1.00  0.00    -0.744 OA
ENDBRANCH  90  91
ENDBRANCH  58  83
BRANCH  70  95
ATOM     95  C   UNL A   1      42.855  28.873  33.923  1.00  0.00     0.058 A 
ATOM     96  C   UNL A   1      43.726  28.886  35.024  1.00  0.00     0.135 A 
ATOM     97  C   UNL A   1      41.835  27.903  33.927  1.00  0.00     0.135 A 
ATOM     98  F   UNL A   1      44.750  29.754  35.063  1.00  0.00    -0.206 F 
ATOM     99  C   UNL A   1      43.605  27.984  36.076  1.00  0.00     0.059 A 
ATOM    100  C   UNL A   1      41.671  27.010  34.992  1.00  0.00     0.059 A 
ATOM    101  F   UNL A   1      41.018  27.752  32.873  1.00  0.00    -0.206 F 
ATOM    102  C   UNL A   1      42.572  27.050  36.054  1.00  0.00     0.060 A 
BRANCH 102 103
ATOM    103  S   UNL A   1      42.458  25.884  37.428  1.00  0.00     0.124 S 
ATOM    104  O   UNL A   1      43.077  24.688  36.862  1.00  0.00    -0.237 OA
ATOM    105  O   UNL A   1      43.229  26.556  38.471  1.00  0.00    -0.237 OA
ATOM    106  O   UNL A   1      41.025  25.781  37.683  1.00  0.00    -0.744 OA
ENDBRANCH 102 103
ENDBRANCH  70  95
ENDBRANCH  44  45
ENDBRANCH  37  39
ENDBRANCH  36  37
ENDBRANCH  35  36
ENDBRANCH  34  35
ENDBRANCH  33  34
ENDBRANCH   1  33
TORSDOF 22
ENDMDL
MODEL 2
REMARK VINA RESULT:     -11.4      6.124     12.839
REMARK SMILES CC1=Nc2c(c(C)nn2-c2ccc(F)cc2)[C@H](c2ccc(C(=O)OCCOCCOCCOC(=O)c3ccc(-c4c5nc(c(-c6c(F)cc(S(=O)(=O)[O-])cc6F)c6ccc([nH]6)c(-c6c(F)cc(S(=O)(=O)[O-])cc6F)c6nc(c(-c7c(F)cc(S(=O)(=O)[O-])cc7F)c7ccc4[nH]7)C=C6)C=C5)cc3)cc2)S1
REMARK SMILES IDX 29 1 28 2 27 3 26 4 25 5 24 6 22 7 23 8 21 9 18 10 19 11
REMARK SMILES IDX 103 12 20 13 102 14 17 15 1 16 2 17 3 18 104 19 4 20 5 21
REMARK SMILES IDX 9 22 6 23 8 24 7 25 10 26 11 27 16 28 12 29 15 30 13 31
REMARK SMILES IDX 14 32 30 33 31 34 32 35 33 36 34 37 35 38 36 39 37 40 101 41
REMARK SMILES IDX 38 42 100 43 39 44 40 45 41 46 94 47 42 48 99 49 93 50 95 51
REMARK SMILES IDX 43 52 98 53 92 54 91 55 44 57 78 58 57 59 77 60 58 61 61 62
REMARK SMILES IDX 76 63 96 64 59 65 60 66 75 68 97 69 62 70 45 71 46 72 55 73
REMARK SMILES IDX 47 74 48 75 54 76 56 77 49 78 50 79 51 80 52 81 53 82 79 83
REMARK SMILES IDX 80 84 89 85 81 86 82 87 88 88 90 89 83 90 84 91 85 92 86 93
REMARK SMILES IDX 87 94 63 95 64 96 73 97 65 98 66 99 72 100 74 101 67 102
REMARK SMILES IDX 68 103 69 104 70 105 71 106
REMARK H PARENT 95 56 61 67
REMARK Flexibility Score: inf
ROOT
ATOM      1  C   UNL A   1      32.534  35.968  31.352  1.00  0.00     0.188 C 
ENDROOT
BRANCH   1   2
ATOM      2  C   UNL A   1      33.069  35.503  32.720  1.00  0.00     0.188 C 
BRANCH   2   3
ATOM      3  O   UNL A   1      33.730  34.261  32.748  1.00  0.00    -0.376 OA
BRANCH   3   4
ATOM      4  C   UNL A   1      35.099  34.165  33.101  1.00  0.00     0.202 C 
BRANCH   4   5
ATOM      5  C   UNL A   1      35.755  33.025  33.913  1.00  0.00     0.261 C 
BRANCH   5   6
ATOM      6  O   UNL A   1      36.525  33.376  35.065  1.00  0.00    -0.460 OA
BRANCH   6   7
ATOM      7  C   UNL A   1      37.600  32.582  35.308  1.00  0.00     0.338 C 
ATOM      8  O   UNL A   1      37.603  31.530  35.903  1.00  0.00    -0.246 OA
BRANCH   7   9
ATOM      9  C   UNL A   1      38.787  33.086  34.569  1.00  0.00     0.060 A 
ATOM     10  C   UNL A   1      41.186  33.833  33.265  1.00  0.00    -0.030 A 
ATOM     11  C   UNL A   1      40.715  32.508  33.225  1.00  0.00     0.006 A 
ATOM     12  C   UNL A   1      40.371  34.795  33.897  1.00  0.00     0.006 A 
ATOM     13  C   UNL A   1      39.532  32.138  33.865  1.00  0.00     0.016 A 
ATOM     14  C   UNL A   1      39.184  34.424  34.558  1.00  0.00     0.016 A 
BRANCH  10  15
ATOM     15  C   UNL A   1      42.586  34.114  32.722  1.00  0.00     0.119 C 
ATOM     16  C   UNL A   1      43.694  37.958  33.815  1.00  0.00     0.075 C 
ATOM     17  C   UNL A   1      43.448  36.744  32.957  1.00  0.00     0.074 C 
ATOM     18  N   UNL A   1      43.160  36.943  31.712  1.00  0.00    -0.227 NA
ATOM     19  S   UNL A   1      43.592  35.203  33.785  1.00  0.00    -0.098 SA
ATOM     20  C   UNL A   1      42.839  35.874  30.947  1.00  0.00     0.161 A 
ATOM     21  C   UNL A   1      42.499  34.593  31.325  1.00  0.00     0.038 A 
ATOM     22  N   UNL A   1      42.717  35.924  29.566  1.00  0.00    -0.215 N 
ATOM     23  C   UNL A   1      42.199  33.928  30.106  1.00  0.00     0.067 A 
ATOM     24  N   UNL A   1      42.229  34.765  29.062  1.00  0.00    -0.171 NA
ATOM     25  C   UNL A   1      41.882  32.497  29.868  1.00  0.00     0.069 C 
BRANCH  22  26
ATOM     26  C   UNL A   1      43.073  36.997  28.713  1.00  0.00     0.067 A 
ATOM     27  C   UNL A   1      42.132  37.518  27.811  1.00  0.00     0.031 A 
ATOM     28  C   UNL A   1      44.374  37.510  28.763  1.00  0.00     0.031 A 
ATOM     29  C   UNL A   1      42.506  38.542  26.940  1.00  0.00     0.041 A 
ATOM     30  C   UNL A   1      44.754  38.495  27.848  1.00  0.00     0.041 A 
ATOM     31  C   UNL A   1      43.819  39.002  26.950  1.00  0.00     0.123 A 
ATOM     32  F   UNL A   1      44.185  39.947  26.075  1.00  0.00    -0.207 F 
ENDBRANCH  22  26
ENDBRANCH  10  15
ENDBRANCH   7   9
ENDBRANCH   6   7
ENDBRANCH   5   6
ENDBRANCH   4   5
ENDBRANCH   3   4
ENDBRANCH   2   3
ENDBRANCH   1   2
BRANCH   1  33
ATOM     33  O   UNL A   1      33.355  35.935  30.198  1.00  0.00    -0.376 OA
BRANCH  33  34
ATOM     34  C   UNL A   1      33.580  34.737  29.473  1.00  0.00     0.202 C 
BRANCH  34  35
ATOM     35  C   UNL A   1      34.956  34.217  29.060  1.00  0.00     0.261 C 
BRANCH  35  36
ATOM     36  O   UNL A   1      35.523  33.193  29.856  1.00  0.00    -0.460 OA
BRANCH  36  37
ATOM     37  C   UNL A   1      35.489  31.987  29.253  1.00  0.00     0.338 C 
ATOM     38  O   UNL A   1      34.616  31.573  28.500  1.00  0.00    -0.246 OA
BRANCH  37  39
ATOM     39  C   UNL A   1      36.580  31.151  29.750  1.00  0.00     0.060 A 
ATOM     40  C   UNL A   1      37.765  31.808  30.074  1.00  0.00     0.016 A 
ATOM     41  C   UNL A   1      36.516  29.754  29.618  1.00  0.00     0.016 A 
ATOM     42  C   UNL A   1      38.930  31.078  30.090  1.00  0.00     0.010 A 
ATOM     43  C   UNL A   1      37.687  29.025  29.632  1.00  0.00     0.010 A 
ATOM     44  C   UNL A   1      38.890  29.706  29.796  1.00  0.00    -0.014 A 
BRANCH  44  45
ATOM     45  C   UNL A   1      40.155  29.001  29.807  1.00  0.00     0.031 A 
ATOM     46  C   UNL A   1      40.676  28.799  31.174  1.00  0.00     0.074 A 
ATOM     47  C   UNL A   1      40.792  28.548  28.711  1.00  0.00     0.049 A 
ATOM     48  N   UNL A   1      41.677  29.404  31.718  1.00  0.00    -0.248 NA
ATOM     49  C   UNL A   1      39.883  27.979  32.104  1.00  0.00     0.031 C 
ATOM     50  C   UNL A   1      40.296  28.466  27.337  1.00  0.00     0.029 A 
ATOM     51  N   UNL A   1      42.027  27.981  28.625  1.00  0.00    -0.354 N 
ATOM     52  C   UNL A   1      41.791  28.857  32.987  1.00  0.00     0.074 A 
ATOM     53  C   UNL A   1      40.567  28.140  33.237  1.00  0.00     0.031 C 
ATOM     54  C   UNL A   1      41.127  27.679  26.614  1.00  0.00     0.029 A 
ATOM     55  C   UNL A   1      42.272  27.311  27.432  1.00  0.00     0.049 A 
ATOM     56  H   UNL A   1      42.691  28.040  29.349  1.00  0.00     0.167 HD
ATOM     57  C   UNL A   1      42.996  28.808  33.615  1.00  0.00     0.037 A 
ATOM     58  C   UNL A   1      43.309  26.469  27.177  1.00  0.00     0.037 A 
ATOM     59  C   UNL A   1      43.926  29.757  33.062  1.00  0.00     0.049 A 
ATOM     60  C   UNL A   1      44.394  26.814  28.137  1.00  0.00     0.074 A 
ATOM     61  C   UNL A   1      43.889  31.125  32.851  1.00  0.00     0.029 A 
ATOM     62  N   UNL A   1      44.939  29.287  32.260  1.00  0.00    -0.354 N 
ATOM     63  N   UNL A   1      45.066  27.934  28.106  1.00  0.00    -0.248 NA
ATOM     64  C   UNL A   1      44.420  26.108  29.411  1.00  0.00     0.031 C 
ATOM     65  C   UNL A   1      44.517  31.320  31.586  1.00  0.00     0.029 A 
ATOM     66  C   UNL A   1      44.966  30.077  31.138  1.00  0.00     0.049 A 
ATOM     67  H   UNL A   1      45.533  28.527  32.454  1.00  0.00     0.167 HD
ATOM     68  C   UNL A   1      45.210  28.293  29.438  1.00  0.00     0.074 A 
ATOM     69  C   UNL A   1      44.866  27.091  30.196  1.00  0.00     0.031 C 
ATOM     70  C   UNL A   1      45.321  29.600  29.820  1.00  0.00     0.037 A 
BRANCH  57  71
ATOM     71  C   UNL A   1      43.410  27.637  34.460  1.00  0.00     0.058 A 
ATOM     72  C   UNL A   1      43.722  26.367  33.922  1.00  0.00     0.135 A 
ATOM     73  C   UNL A   1      43.760  27.833  35.808  1.00  0.00     0.135 A 
ATOM     74  F   UNL A   1      43.580  26.088  32.619  1.00  0.00    -0.206 F 
ATOM     75  C   UNL A   1      44.292  25.351  34.671  1.00  0.00     0.059 A 
ATOM     76  C   UNL A   1      44.391  26.844  36.564  1.00  0.00     0.059 A 
ATOM     77  F   UNL A   1      43.555  29.021  36.399  1.00  0.00    -0.206 F 
ATOM     78  C   UNL A   1      44.642  25.603  35.987  1.00  0.00     0.060 A 
BRANCH  78  79
ATOM     79  S   UNL A   1      45.506  24.302  36.879  1.00  0.00     0.124 S 
ATOM     80  O   UNL A   1      45.259  24.691  38.264  1.00  0.00    -0.237 OA
ATOM     81  O   UNL A   1      44.809  23.106  36.419  1.00  0.00    -0.237 OA
ATOM     82  O   UNL A   1      46.885  24.441  36.422  1.00  0.00    -0.744 OA
ENDBRANCH  78  79
ENDBRANCH  57  71
BRANCH  58  83
ATOM     83  C   UNL A   1      43.274  25.162  26.453  1.00  0.00     0.058 A 
ATOM     84  C   UNL A   1      42.770  23.990  27.051  1.00  0.00     0.135 A 
ATOM     85  C   UNL A   1      44.011  24.977  25.265  1.00  0.00     0.135 A 
ATOM     86  F   UNL A   1      42.079  24.030  28.198  1.00  0.00    -0.206 F 
ATOM     87  C   UNL A   1      43.037  22.717  26.548  1.00  0.00     0.059 A 
ATOM     88  C   UNL A   1      44.300  23.707  24.747  1.00  0.00     0.059 A 
ATOM     89  F   UNL A   1      44.536  26.032  24.623  1.00  0.00    -0.206 F 
ATOM     90  C   UNL A   1      43.835  22.581  25.419  1.00  0.00     0.060 A 
BRANCH  90  91
ATOM     91  S   UNL A   1      44.317  20.910  24.925  1.00  0.00     0.124 S 
ATOM     92  O   UNL A   1      44.536  21.076  23.492  1.00  0.00    -0.237 OA
ATOM     93  O   UNL A   1      45.519  20.691  25.725  1.00  0.00    -0.237 OA
ATOM     94  O   UNL A   1      43.164  20.096  25.296  1.00  0.00    -0.744 OA
ENDBRANCH  90  91
ENDBRANCH  58  83
BRANCH  70  95
ATOM     95  C   UNL A   1      45.611  30.651  28.777  1.00  0.00     0.058 A 
ATOM     96  C   UNL A   1      46.881  31.250  28.797  1.00  0.00     0.135 A 
ATOM     97  C   UNL A   1      44.662  31.197  27.893  1.00  0.00     0.135 A 
ATOM     98  F   UNL A   1      47.821  30.809  29.651  1.00  0.00    -0.206 F 
ATOM     99  C   UNL A   1      47.200  32.340  27.994  1.00  0.00     0.059 A 
ATOM    100  C   UNL A   1      44.972  32.268  27.048  1.00  0.00     0.059 A 
ATOM    101  F   UNL A   1      43.396  30.753  27.875  1.00  0.00    -0.206 F 
ATOM    102  C   UNL A   1      46.240  32.842  27.119  1.00  0.00     0.060 A 
BRANCH 102 103
ATOM    103  S   UNL A   1      46.685  34.267  26.104  1.00  0.00     0.124 S 
ATOM    104  O   UNL A   1      45.664  34.226  25.060  1.00  0.00    -0.237 OA
ATOM    105  O   UNL A   1      46.568  35.372  27.053  1.00  0.00    -0.237 OA
ATOM    106  O   UNL A   1      48.043  33.972  25.659  1.00  0.00    -0.744 OA
ENDBRANCH 102 103
ENDBRANCH  70  95
ENDBRANCH  44  45
ENDBRANCH  37  39
ENDBRANCH  36  37
ENDBRANCH  35  36
ENDBRANCH  34  35
ENDBRANCH  33  34
ENDBRANCH   1  33
TORSDOF 22
ENDMDL
MODEL 3
REMARK VINA RESULT:     -11.3      1.937      3.060
REMARK SMILES CC1=Nc2c(c(C)nn2-c2ccc(F)cc2)[C@H](c2ccc(C(=O)OCCOCCOCCOC(=O)c3ccc(-c4c5nc(c(-c6c(F)cc(S(=O)(=O)[O-])cc6F)c6ccc([nH]6)c(-c6c(F)cc(S(=O)(=O)[O-])cc6F)c6nc(c(-c7c(F)cc(S(=O)(=O)[O-])cc7F)c7ccc4[nH]7)C=C6)C=C5)cc3)cc2)S1
REMARK SMILES IDX 29 1 28 2 27 3 26 4 25 5 24 6 22 7 23 8 21 9 18 10 19 11
REMARK SMILES IDX 103 12 20 13 102 14 17 15 1 16 2 17 3 18 104 19 4 20 5 21
REMARK SMILES IDX 9 22 6 23 8 24 7 25 10 26 11 27 16 28 12 29 15 30 13 31
REMARK SMILES IDX 14 32 30 33 31 34 32 35 33 36 34 37 35 38 36 39 37 40 101 41
REMARK SMILES IDX 38 42 100 43 39 44 40 45 41 46 94 47 42 48 99 49 93 50 95 51
REMARK SMILES IDX 43 52 98 53 92 54 91 55 44 57 78 58 57 59 77 60 58 61 61 62
REMARK SMILES IDX 76 63 96 64 59 65 60 66 75 68 97 69 62 70 45 71 46 72 55 73
REMARK SMILES IDX 47 74 48 75 54 76 56 77 49 78 50 79 51 80 52 81 53 82 79 83
REMARK SMILES IDX 80 84 89 85 81 86 82 87 88 88 90 89 83 90 84 91 85 92 86 93
REMARK SMILES IDX 87 94 63 95 64 96 73 97 65 98 66 99 72 100 74 101 67 102
REMARK SMILES IDX 68 103 69 104 70 105 71 106
REMARK H PARENT 95 56 61 67
REMARK Flexibility Score: inf
ROOT
ATOM      1  C   UNL A   1      36.525  18.442  25.005  1.00  0.00     0.188 C 
ENDROOT
BRANCH   1   2
ATOM      2  C   UNL A   1      35.306  17.813  24.304  1.00  0.00     0.188 C 
BRANCH   2   3
ATOM      3  O   UNL A   1      34.561  16.882  25.052  1.00  0.00    -0.376 OA
BRANCH   3   4
ATOM      4  C   UNL A   1      33.145  16.931  25.086  1.00  0.00     0.202 C 
BRANCH   4   5
ATOM      5  C   UNL A   1      32.282  18.181  25.365  1.00  0.00     0.261 C 
BRANCH   5   6
ATOM      6  O   UNL A   1      32.800  19.457  24.982  1.00  0.00    -0.460 OA
BRANCH   6   7
ATOM      7  C   UNL A   1      32.486  19.858  23.723  1.00  0.00     0.338 C 
ATOM      8  O   UNL A   1      32.234  19.147  22.779  1.00  0.00    -0.246 OA
BRANCH   7   9
ATOM      9  C   UNL A   1      32.299  21.332  23.686  1.00  0.00     0.060 A 
ATOM     10  C   UNL A   1      31.673  24.092  23.637  1.00  0.00    -0.030 A 
ATOM     11  C   UNL A   1      31.112  23.233  24.599  1.00  0.00     0.006 A 
ATOM     12  C   UNL A   1      32.632  23.547  22.758  1.00  0.00     0.006 A 
ATOM     13  C   UNL A   1      31.420  21.873  24.626  1.00  0.00     0.016 A 
ATOM     14  C   UNL A   1      32.935  22.172  22.772  1.00  0.00     0.016 A 
BRANCH  10  15
ATOM     15  C   UNL A   1      31.129  25.516  23.542  1.00  0.00     0.119 C 
ATOM     16  C   UNL A   1      33.957  27.903  21.670  1.00  0.00     0.075 C 
ATOM     17  C   UNL A   1      32.950  27.431  22.686  1.00  0.00     0.074 C 
ATOM     18  N   UNL A   1      33.118  27.809  23.912  1.00  0.00    -0.227 NA
ATOM     19  S   UNL A   1      31.664  26.420  22.050  1.00  0.00    -0.098 SA
ATOM     20  C   UNL A   1      32.283  27.319  24.857  1.00  0.00     0.161 A 
ATOM     21  C   UNL A   1      31.414  26.251  24.793  1.00  0.00     0.038 A 
ATOM     22  N   UNL A   1      32.225  27.799  26.157  1.00  0.00    -0.215 N 
ATOM     23  C   UNL A   1      30.858  26.165  26.098  1.00  0.00     0.067 A 
ATOM     24  N   UNL A   1      31.430  27.033  26.941  1.00  0.00    -0.171 NA
ATOM     25  C   UNL A   1      29.776  25.282  26.603  1.00  0.00     0.069 C 
BRANCH  22  26
ATOM     26  C   UNL A   1      32.852  28.960  26.670  1.00  0.00     0.067 A 
ATOM     27  C   UNL A   1      34.180  28.900  27.120  1.00  0.00     0.031 A 
ATOM     28  C   UNL A   1      32.128  30.155  26.746  1.00  0.00     0.031 A 
ATOM     29  C   UNL A   1      34.775  30.036  27.669  1.00  0.00     0.041 A 
ATOM     30  C   UNL A   1      32.712  31.271  27.350  1.00  0.00     0.041 A 
ATOM     31  C   UNL A   1      34.027  31.201  27.802  1.00  0.00     0.123 A 
ATOM     32  F   UNL A   1      34.587  32.273  28.379  1.00  0.00    -0.207 F 
ENDBRANCH  22  26
ENDBRANCH  10  15
ENDBRANCH   7   9
ENDBRANCH   6   7
ENDBRANCH   5   6
ENDBRANCH   4   5
ENDBRANCH   3   4
ENDBRANCH   2   3
ENDBRANCH   1   2
BRANCH   1  33
ATOM     33  O   UNL A   1      37.133  19.616  24.498  1.00  0.00    -0.376 OA
BRANCH  33  34
ATOM     34  C   UNL A   1      37.029  20.863  25.166  1.00  0.00     0.202 C 
BRANCH  34  35
ATOM     35  C   UNL A   1      38.197  21.816  25.414  1.00  0.00     0.261 C 
BRANCH  35  36
ATOM     36  O   UNL A   1      39.210  21.376  26.299  1.00  0.00    -0.460 OA
BRANCH  36  37
ATOM     37  C   UNL A   1      40.340  22.106  26.198  1.00  0.00     0.338 C 
ATOM     38  O   UNL A   1      41.294  21.876  25.465  1.00  0.00    -0.246 OA
BRANCH  37  39
ATOM     39  C   UNL A   1      40.350  23.152  27.219  1.00  0.00     0.060 A 
ATOM     40  C   UNL A   1      39.354  24.123  27.120  1.00  0.00     0.016 A 
ATOM     41  C   UNL A   1      41.468  23.316  28.052  1.00  0.00     0.016 A 
ATOM     42  C   UNL A   1      39.571  25.340  27.721  1.00  0.00     0.010 A 
ATOM     43  C   UNL A   1      41.684  24.540  28.652  1.00  0.00     0.010 A 
ATOM     44  C   UNL A   1      40.769  25.562  28.420  1.00  0.00    -0.014 A 
BRANCH  44  45
ATOM     45  C   UNL A   1      40.944  26.874  29.010  1.00  0.00     0.031 A 
ATOM     46  C   UNL A   1      42.033  27.639  28.368  1.00  0.00     0.074 A 
ATOM     47  C   UNL A   1      40.197  27.371  30.013  1.00  0.00     0.049 A 
ATOM     48  N   UNL A   1      43.192  27.903  28.868  1.00  0.00    -0.248 NA
ATOM     49  C   UNL A   1      41.892  27.981  26.944  1.00  0.00     0.031 C 
ATOM     50  C   UNL A   1      38.959  26.837  30.579  1.00  0.00     0.029 A 
ATOM     51  N   UNL A   1      40.367  28.539  30.694  1.00  0.00    -0.354 N 
ATOM     52  C   UNL A   1      43.841  28.663  27.907  1.00  0.00     0.074 A 
ATOM     53  C   UNL A   1      43.086  28.518  26.689  1.00  0.00     0.031 C 
ATOM     54  C   UNL A   1      38.379  27.789  31.347  1.00  0.00     0.029 A 
ATOM     55  C   UNL A   1      39.260  28.943  31.430  1.00  0.00     0.049 A 
ATOM     56  H   UNL A   1      41.206  29.054  30.666  1.00  0.00     0.167 HD
ATOM     57  C   UNL A   1      44.790  29.569  28.264  1.00  0.00     0.037 A 
ATOM     58  C   UNL A   1      39.072  30.162  32.001  1.00  0.00     0.037 A 
ATOM     59  C   UNL A   1      45.329  29.292  29.570  1.00  0.00     0.049 A 
ATOM     60  C   UNL A   1      40.420  30.767  32.189  1.00  0.00     0.074 A 
ATOM     61  C   UNL A   1      45.916  28.180  30.149  1.00  0.00     0.029 A 
ATOM     62  N   UNL A   1      44.946  30.096  30.618  1.00  0.00    -0.354 N 
ATOM     63  N   UNL A   1      41.309  30.314  33.031  1.00  0.00    -0.248 NA
ATOM     64  C   UNL A   1      40.946  31.595  31.113  1.00  0.00     0.031 C 
ATOM     65  C   UNL A   1      45.402  28.141  31.478  1.00  0.00     0.029 A 
ATOM     66  C   UNL A   1      44.597  29.268  31.655  1.00  0.00     0.049 A 
ATOM     67  H   UNL A   1      44.927  31.080  30.623  1.00  0.00     0.167 HD
ATOM     68  C   UNL A   1      42.516  30.414  32.354  1.00  0.00     0.074 A 
ATOM     69  C   UNL A   1      42.241  31.285  31.213  1.00  0.00     0.031 C 
ATOM     70  C   UNL A   1      43.555  29.566  32.613  1.00  0.00     0.037 A 
BRANCH  57  71
ATOM     71  C   UNL A   1      44.927  30.897  27.575  1.00  0.00     0.058 A 
ATOM     72  C   UNL A   1      44.013  31.961  27.758  1.00  0.00     0.135 A 
ATOM     73  C   UNL A   1      46.126  31.226  26.917  1.00  0.00     0.135 A 
ATOM     74  F   UNL A   1      42.900  31.830  28.491  1.00  0.00    -0.206 F 
ATOM     75  C   UNL A   1      44.244  33.242  27.283  1.00  0.00     0.059 A 
ATOM     76  C   UNL A   1      46.406  32.523  26.487  1.00  0.00     0.059 A 
ATOM     77  F   UNL A   1      47.082  30.300  26.742  1.00  0.00    -0.206 F 
ATOM     78  C   UNL A   1      45.453  33.520  26.666  1.00  0.00     0.060 A 
BRANCH  78  79
ATOM     79  S   UNL A   1      45.767  35.227  26.192  1.00  0.00     0.124 S 
ATOM     80  O   UNL A   1      46.634  35.672  27.280  1.00  0.00    -0.237 OA
ATOM     81  O   UNL A   1      46.408  35.067  24.892  1.00  0.00    -0.237 OA
ATOM     82  O   UNL A   1      44.434  35.818  26.167  1.00  0.00    -0.744 OA
ENDBRANCH  78  79
ENDBRANCH  57  71
BRANCH  58  83
ATOM     83  C   UNL A   1      37.823  30.984  32.022  1.00  0.00     0.058 A 
ATOM     84  C   UNL A   1      37.337  31.635  30.871  1.00  0.00     0.135 A 
ATOM     85  C   UNL A   1      37.247  31.388  33.245  1.00  0.00     0.135 A 
ATOM     86  F   UNL A   1      37.824  31.361  29.653  1.00  0.00    -0.206 F 
ATOM     87  C   UNL A   1      36.399  32.664  30.931  1.00  0.00     0.059 A 
ATOM     88  C   UNL A   1      36.310  32.427  33.330  1.00  0.00     0.059 A 
ATOM     89  F   UNL A   1      37.646  30.829  34.397  1.00  0.00    -0.206 F 
ATOM     90  C   UNL A   1      35.919  33.082  32.166  1.00  0.00     0.060 A 
BRANCH  90  91
ATOM     91  S   UNL A   1      34.862  34.547  32.208  1.00  0.00     0.124 S 
ATOM     92  O   UNL A   1      35.689  35.490  32.953  1.00  0.00    -0.237 OA
ATOM     93  O   UNL A   1      34.694  34.842  30.788  1.00  0.00    -0.237 OA
ATOM     94  O   UNL A   1      33.660  34.084  32.895  1.00  0.00    -0.744 OA
ENDBRANCH  90  91
ENDBRANCH  58  83
BRANCH  70  95
ATOM     95  C   UNL A   1      43.521  28.716  33.859  1.00  0.00     0.058 A 
ATOM     96  C   UNL A   1      42.872  27.473  33.777  1.00  0.00     0.135 A 
ATOM     97  C   UNL A   1      43.939  29.135  35.136  1.00  0.00     0.135 A 
ATOM     98  F   UNL A   1      42.405  27.033  32.597  1.00  0.00    -0.206 F 
ATOM     99  C   UNL A   1      42.638  26.684  34.899  1.00  0.00     0.059 A 
ATOM    100  C   UNL A   1      43.748  28.341  36.272  1.00  0.00     0.059 A 
ATOM    101  F   UNL A   1      44.479  30.349  35.325  1.00  0.00    -0.206 F 
ATOM    102  C   UNL A   1      43.082  27.123  36.143  1.00  0.00     0.060 A 
BRANCH 102 103
ATOM    103  S   UNL A   1      42.745  26.080  37.577  1.00  0.00     0.124 S 
ATOM    104  O   UNL A   1      41.311  26.283  37.768  1.00  0.00    -0.237 OA
ATOM    105  O   UNL A   1      43.132  24.756  37.097  1.00  0.00    -0.237 OA
ATOM    106  O   UNL A   1      43.597  26.635  38.624  1.00  0.00    -0.744 OA
ENDBRANCH 102 103
ENDBRANCH  70  95
ENDBRANCH  44  45
ENDBRANCH  37  39
ENDBRANCH  36  37
ENDBRANCH  35  36
ENDBRANCH  34  35
ENDBRANCH  33  34
ENDBRANCH   1  33
TORSDOF 22
ENDMDL
