MODEL 1
REMARK VINA RESULT:     -11.5      0.000      0.000
REMARK SMILES O=C(OCCOCCOCCOC(=O)c1ccc(-c2c3nc(c(-c4c(F)cc(S(=O)(=O)[O-])cc4F)c4ccc([nH]4)c(-c4c(F)cc(S(=O)(=O)[O-])cc4F)c4nc(c(-c5c(F)cc(S(=O)(=O)[O-])cc5F)c5ccc2[nH]5)C=C4)C=C3)cc1)C1=Cc2c(ccc(Cl)c2-c2ccccc2)O[C@H]1C(F)(F)F
REMARK SMILES IDX 8 1 7 2 6 3 5 4 4 5 3 6 2 7 1 8 81 9 82 10 97 11 83 12 96 13
REMARK SMILES IDX 84 14 89 15 85 16 87 17 86 18 88 19 98 20 99 21 100 22
REMARK SMILES IDX 101 23 90 24 91 25 95 26 92 27 94 28 93 29 9 30 10 31 11 32
REMARK SMILES IDX 12 33 13 34 14 35 15 36 16 37 80 38 17 39 79 40 18 41 19 42
REMARK SMILES IDX 20 43 73 44 21 45 78 46 72 47 74 48 22 49 77 50 71 51 70 52
REMARK SMILES IDX 23 54 57 55 36 56 56 57 37 58 40 59 55 60 75 61 38 62 39 63
REMARK SMILES IDX 54 65 76 66 41 67 24 68 25 69 34 70 26 71 27 72 33 73 35 74
REMARK SMILES IDX 28 75 29 76 30 77 31 78 32 79 58 80 59 81 68 82 60 83 61 84
REMARK SMILES IDX 67 85 69 86 62 87 63 88 64 89 65 90 66 91 42 92 43 93 52 94
REMARK SMILES IDX 44 95 45 96 51 97 53 98 46 99 47 100 48 101 49 102 50 103
REMARK H PARENT 74 53 40 64
REMARK Flexibility Score: inf
ROOT
ATOM      1  C   UNL A   1      31.465  29.445  24.770  1.00  0.00     0.188 C 
ENDROOT
BRANCH   1   2
ATOM      2  C   UNL A   1      31.984  27.855  24.549  1.00  0.00     0.188 C 
BRANCH   2   3
ATOM      3  O   UNL A   1      32.104  26.919  25.611  1.00  0.00    -0.376 OA
BRANCH   3   4
ATOM      4  C   UNL A   1      30.955  26.608  26.361  1.00  0.00     0.202 C 
BRANCH   4   5
ATOM      5  C   UNL A   1      30.231  25.271  26.116  1.00  0.00     0.261 C 
BRANCH   5   6
ATOM      6  O   UNL A   1      31.035  24.148  26.511  1.00  0.00    -0.460 OA
BRANCH   6   7
ATOM      7  C   UNL A   1      31.183  23.012  25.793  1.00  0.00     0.338 C 
ATOM      8  O   UNL A   1      30.468  22.045  26.027  1.00  0.00    -0.246 OA
BRANCH   7   9
ATOM      9  C   UNL A   1      32.181  22.923  24.708  1.00  0.00     0.087 C 
ATOM     10  C   UNL A   1      32.755  21.817  24.208  1.00  0.00     0.028 C 
ATOM     11  C   UNL A   1      32.533  24.195  24.004  1.00  0.00     0.316 C 
ATOM     12  C   UNL A   1      34.205  21.830  24.320  1.00  0.00     0.027 A 
ATOM     13  O   UNL A   1      33.972  24.210  23.678  1.00  0.00    -0.475 OA
ATOM     14  C   UNL A   1      34.745  23.128  24.088  1.00  0.00     0.128 A 
ATOM     15  C   UNL A   1      34.962  20.653  24.632  1.00  0.00     0.011 A 
ATOM     16  C   UNL A   1      36.100  23.321  24.237  1.00  0.00     0.049 A 
ATOM     17  C   UNL A   1      36.344  20.921  24.763  1.00  0.00     0.049 A 
ATOM     18  C   UNL A   1      36.890  22.225  24.590  1.00  0.00     0.025 A 
ATOM     19  Cl  UNL A   1      37.524  19.690  25.082  1.00  0.00    -0.084 Cl
BRANCH  11  20
ATOM     20  C   UNL A   1      31.579  24.316  22.786  1.00  0.00     0.430 C 
ATOM     21  F   UNL A   1      30.902  25.494  22.797  1.00  0.00    -0.167 F 
ATOM     22  F   UNL A   1      32.271  24.292  21.620  1.00  0.00    -0.167 F 
ATOM     23  F   UNL A   1      30.665  23.328  22.736  1.00  0.00    -0.167 F 
ENDBRANCH  11  20
BRANCH  15  24
ATOM     24  C   UNL A   1      34.361  19.230  24.788  1.00  0.00    -0.016 A 
ATOM     25  C   UNL A   1      34.861  17.899  23.666  1.00  0.00     0.009 A 
ATOM     26  C   UNL A   1      33.065  18.848  26.002  1.00  0.00     0.009 A 
ATOM     27  C   UNL A   1      34.061  16.282  23.666  1.00  0.00     0.001 A 
ATOM     28  C   UNL A   1      32.227  17.202  26.003  1.00  0.00     0.001 A 
ATOM     29  C   UNL A   1      32.747  15.922  24.841  1.00  0.00     0.000 A 
ENDBRANCH  15  24
ENDBRANCH   7   9
ENDBRANCH   6   7
ENDBRANCH   5   6
ENDBRANCH   4   5
ENDBRANCH   3   4
ENDBRANCH   2   3
ENDBRANCH   1   2
BRANCH   1  30
ATOM     30  O   UNL A   1      31.772  30.800  26.195  1.00  0.00    -0.376 OA
BRANCH  30  31
ATOM     31  C   UNL A   1      32.689  31.548  27.171  1.00  0.00     0.202 C 
BRANCH  31  32
ATOM     32  C   UNL A   1      34.019  31.040  27.882  1.00  0.00     0.261 C 
BRANCH  32  33
ATOM     33  O   UNL A   1      34.884  32.035  28.509  1.00  0.00    -0.460 OA
BRANCH  33  34
ATOM     34  C   UNL A   1      35.471  31.671  29.688  1.00  0.00     0.338 C 
ATOM     35  O   UNL A   1      35.065  31.939  30.802  1.00  0.00    -0.246 OA
BRANCH  34  36
ATOM     36  C   UNL A   1      36.619  30.735  29.490  1.00  0.00     0.060 A 
ATOM     37  C   UNL A   1      37.261  30.163  30.601  1.00  0.00     0.016 A 
ATOM     38  C   UNL A   1      37.219  30.621  28.238  1.00  0.00     0.016 A 
ATOM     39  C   UNL A   1      38.492  29.508  30.480  1.00  0.00     0.010 A 
ATOM     40  C   UNL A   1      38.462  29.971  28.115  1.00  0.00     0.010 A 
ATOM     41  C   UNL A   1      39.128  29.446  29.241  1.00  0.00    -0.014 A 
BRANCH  41  42
ATOM     42  C   UNL A   1      40.561  29.044  29.149  1.00  0.00     0.031 A 
ATOM     43  C   UNL A   1      41.615  30.099  29.378  1.00  0.00     0.074 A 
ATOM     44  C   UNL A   1      40.938  27.779  28.884  1.00  0.00     0.049 A 
ATOM     45  N   UNL A   1      42.905  30.048  29.171  1.00  0.00    -0.248 NA
ATOM     46  C   UNL A   1      41.142  31.386  29.912  1.00  0.00     0.031 C 
ATOM     47  C   UNL A   1      40.039  26.636  28.750  1.00  0.00     0.029 A 
ATOM     48  N   UNL A   1      42.188  27.251  28.655  1.00  0.00    -0.354 N 
ATOM     49  C   UNL A   1      43.394  31.305  29.514  1.00  0.00     0.074 A 
ATOM     50  C   UNL A   1      42.259  32.097  29.935  1.00  0.00     0.031 C 
ATOM     51  C   UNL A   1      40.761  25.548  28.427  1.00  0.00     0.029 A 
ATOM     52  C   UNL A   1      42.167  25.928  28.277  1.00  0.00     0.049 A 
ATOM     53  H   UNL A   1      43.019  27.770  28.752  1.00  0.00     0.167 HD
ATOM     54  C   UNL A   1      44.670  31.760  29.472  1.00  0.00     0.037 A 
ATOM     55  C   UNL A   1      43.154  25.130  27.818  1.00  0.00     0.037 A 
ATOM     56  C   UNL A   1      45.796  30.964  29.056  1.00  0.00     0.049 A 
ATOM     57  C   UNL A   1      44.554  25.684  27.681  1.00  0.00     0.074 A 
ATOM     58  C   UNL A   1      47.127  31.334  28.973  1.00  0.00     0.029 A 
ATOM     59  N   UNL A   1      45.726  29.640  28.648  1.00  0.00    -0.354 N 
ATOM     60  N   UNL A   1      45.002  26.883  27.973  1.00  0.00    -0.248 NA
ATOM     61  C   UNL A   1      45.583  24.777  27.147  1.00  0.00     0.031 C 
ATOM     62  C   UNL A   1      47.850  30.256  28.454  1.00  0.00     0.029 A 
ATOM     63  C   UNL A   1      46.984  29.188  28.285  1.00  0.00     0.049 A 
ATOM     64  H   UNL A   1      44.902  29.101  28.620  1.00  0.00     0.167 HD
ATOM     65  C   UNL A   1      46.367  26.862  27.693  1.00  0.00     0.074 A 
ATOM     66  C   UNL A   1      46.673  25.530  27.215  1.00  0.00     0.031 C 
ATOM     67  C   UNL A   1      47.284  27.854  27.825  1.00  0.00     0.037 A 
BRANCH  54  68
ATOM     68  C   UNL A   1      44.912  33.202  29.833  1.00  0.00     0.058 A 
ATOM     69  C   UNL A   1      45.252  33.602  31.136  1.00  0.00     0.135 A 
ATOM     70  C   UNL A   1      44.831  34.200  28.846  1.00  0.00     0.135 A 
ATOM     71  F   UNL A   1      45.326  32.696  32.124  1.00  0.00    -0.206 F 
ATOM     72  C   UNL A   1      45.476  34.939  31.452  1.00  0.00     0.059 A 
ATOM     73  C   UNL A   1      45.084  35.539  29.132  1.00  0.00     0.059 A 
ATOM     74  F   UNL A   1      44.508  33.878  27.584  1.00  0.00    -0.206 F 
ATOM     75  C   UNL A   1      45.390  35.900  30.442  1.00  0.00     0.060 A 
BRANCH  75  76
ATOM     76  S   UNL A   1      45.690  37.629  30.868  1.00  0.00     0.124 S 
ATOM     77  O   UNL A   1      45.563  38.277  29.566  1.00  0.00    -0.237 OA
ATOM     78  O   UNL A   1      44.619  37.905  31.819  1.00  0.00    -0.237 OA
ATOM     79  O   UNL A   1      47.037  37.614  31.431  1.00  0.00    -0.744 OA
ENDBRANCH  75  76
ENDBRANCH  54  68
BRANCH  55  80
ATOM     80  C   UNL A   1      42.857  23.726  27.409  1.00  0.00     0.058 A 
ATOM     81  C   UNL A   1      42.962  22.663  28.319  1.00  0.00     0.135 A 
ATOM     82  C   UNL A   1      42.479  23.417  26.092  1.00  0.00     0.135 A 
ATOM     83  F   UNL A   1      43.342  22.899  29.584  1.00  0.00    -0.206 F 
ATOM     84  C   UNL A   1      42.717  21.347  27.938  1.00  0.00     0.059 A 
ATOM     85  C   UNL A   1      42.197  22.111  25.695  1.00  0.00     0.059 A 
ATOM     86  F   UNL A   1      42.367  24.391  25.177  1.00  0.00    -0.206 F 
ATOM     87  C   UNL A   1      42.327  21.082  26.625  1.00  0.00     0.060 A 
BRANCH  87  88
ATOM     88  S   UNL A   1      41.963  19.375  26.156  1.00  0.00     0.124 S 
ATOM     89  O   UNL A   1      42.308  18.653  27.376  1.00  0.00    -0.237 OA
ATOM     90  O   UNL A   1      40.541  19.443  25.836  1.00  0.00    -0.237 OA
ATOM     91  O   UNL A   1      42.846  19.142  25.016  1.00  0.00    -0.744 OA
ENDBRANCH  87  88
ENDBRANCH  55  80
BRANCH  67  92
ATOM     92  C   UNL A   1      48.723  27.534  27.509  1.00  0.00     0.058 A 
ATOM     93  C   UNL A   1      49.602  27.009  28.468  1.00  0.00     0.135 A 
ATOM     94  C   UNL A   1      49.210  27.694  26.199  1.00  0.00     0.135 A 
ATOM     95  F   UNL A   1      49.195  26.837  29.736  1.00  0.00    -0.206 F 
ATOM     96  C   UNL A   1      50.916  26.676  28.149  1.00  0.00     0.059 A 
ATOM     97  C   UNL A   1      50.509  27.337  25.849  1.00  0.00     0.059 A 
ATOM     98  F   UNL A   1      48.412  28.180  25.236  1.00  0.00    -0.206 F 
ATOM     99  C   UNL A   1      51.359  26.838  26.834  1.00  0.00     0.060 A 
BRANCH  99 100
ATOM    100  S   UNL A   1      53.053  26.364  26.425  1.00  0.00     0.124 S 
ATOM    101  O   UNL A   1      52.986  24.911  26.531  1.00  0.00    -0.237 OA
ATOM    102  O   UNL A   1      53.209  26.895  25.075  1.00  0.00    -0.237 OA
ATOM    103  O   UNL A   1      53.851  27.031  27.450  1.00  0.00    -0.744 OA
ENDBRANCH  99 100
ENDBRANCH  67  92
ENDBRANCH  41  42
ENDBRANCH  34  36
ENDBRANCH  33  34
ENDBRANCH  32  33
ENDBRANCH  31  32
ENDBRANCH  30  31
ENDBRANCH   1  30
TORSDOF 22
ENDMDL
MODEL 2
REMARK VINA RESULT:     -10.6      5.560     12.921
REMARK SMILES O=C(OCCOCCOCCOC(=O)c1ccc(-c2c3nc(c(-c4c(F)cc(S(=O)(=O)[O-])cc4F)c4ccc([nH]4)c(-c4c(F)cc(S(=O)(=O)[O-])cc4F)c4nc(c(-c5c(F)cc(S(=O)(=O)[O-])cc5F)c5ccc2[nH]5)C=C4)C=C3)cc1)C1=Cc2c(ccc(Cl)c2-c2ccccc2)O[C@H]1C(F)(F)F
REMARK SMILES IDX 8 1 7 2 6 3 5 4 4 5 3 6 2 7 1 8 81 9 82 10 97 11 83 12 96 13
REMARK SMILES IDX 84 14 89 15 85 16 87 17 86 18 88 19 98 20 99 21 100 22
REMARK SMILES IDX 101 23 90 24 91 25 95 26 92 27 94 28 93 29 9 30 10 31 11 32
REMARK SMILES IDX 12 33 13 34 14 35 15 36 16 37 80 38 17 39 79 40 18 41 19 42
REMARK SMILES IDX 20 43 73 44 21 45 78 46 72 47 74 48 22 49 77 50 71 51 70 52
REMARK SMILES IDX 23 54 57 55 36 56 56 57 37 58 40 59 55 60 75 61 38 62 39 63
REMARK SMILES IDX 54 65 76 66 41 67 24 68 25 69 34 70 26 71 27 72 33 73 35 74
REMARK SMILES IDX 28 75 29 76 30 77 31 78 32 79 58 80 59 81 68 82 60 83 61 84
REMARK SMILES IDX 67 85 69 86 62 87 63 88 64 89 65 90 66 91 42 92 43 93 52 94
REMARK SMILES IDX 44 95 45 96 51 97 53 98 46 99 47 100 48 101 49 102 50 103
REMARK H PARENT 74 53 40 64
REMARK Flexibility Score: inf
ROOT
ATOM      1  C   UNL A   1      41.194  35.296  28.991  1.00  0.00     0.188 C 
ENDROOT
BRANCH   1   2
ATOM      2  C   UNL A   1      41.738  35.665  27.436  1.00  0.00     0.188 C 
BRANCH   2   3
ATOM      3  O   UNL A   1      42.481  36.836  27.128  1.00  0.00    -0.376 OA
BRANCH   3   4
ATOM      4  C   UNL A   1      42.125  38.040  27.765  1.00  0.00     0.202 C 
BRANCH   4   5
ATOM      5  C   UNL A   1      43.226  38.924  28.380  1.00  0.00     0.261 C 
BRANCH   5   6
ATOM      6  O   UNL A   1      44.299  39.161  27.454  1.00  0.00    -0.460 OA
BRANCH   6   7
ATOM      7  C   UNL A   1      44.907  40.353  27.265  1.00  0.00     0.338 C 
ATOM      8  O   UNL A   1      44.513  41.343  27.871  1.00  0.00    -0.246 OA
BRANCH   7   9
ATOM      9  C   UNL A   1      46.062  40.482  26.354  1.00  0.00     0.087 C 
ATOM     10  C   UNL A   1      46.890  41.530  26.219  1.00  0.00     0.028 C 
ATOM     11  C   UNL A   1      46.429  39.275  25.550  1.00  0.00     0.316 C 
ATOM     12  C   UNL A   1      46.911  42.066  24.867  1.00  0.00     0.027 A 
ATOM     13  O   UNL A   1      46.868  39.681  24.201  1.00  0.00    -0.475 OA
ATOM     14  C   UNL A   1      46.834  41.036  23.885  1.00  0.00     0.128 A 
ATOM     15  C   UNL A   1      46.995  43.472  24.598  1.00  0.00     0.011 A 
ATOM     16  C   UNL A   1      46.763  41.388  22.555  1.00  0.00     0.049 A 
ATOM     17  C   UNL A   1      46.922  43.762  23.216  1.00  0.00     0.049 A 
ATOM     18  C   UNL A   1      46.789  42.745  22.228  1.00  0.00     0.025 A 
ATOM     19  Cl  UNL A   1      47.053  45.368  22.575  1.00  0.00    -0.084 Cl
BRANCH  11  20
ATOM     20  C   UNL A   1      47.479  38.484  26.375  1.00  0.00     0.430 C 
ATOM     21  F   UNL A   1      47.871  39.173  27.478  1.00  0.00    -0.167 F 
ATOM     22  F   UNL A   1      46.962  37.314  26.828  1.00  0.00    -0.167 F 
ATOM     23  F   UNL A   1      48.587  38.191  25.668  1.00  0.00    -0.167 F 
ENDBRANCH  11  20
BRANCH  15  24
ATOM     24  C   UNL A   1      47.172  44.570  25.681  1.00  0.00    -0.016 A 
ATOM     25  C   UNL A   1      45.746  45.150  26.636  1.00  0.00     0.009 A 
ATOM     26  C   UNL A   1      48.759  45.405  25.973  1.00  0.00     0.009 A 
ATOM     27  C   UNL A   1      45.844  46.554  27.764  1.00  0.00     0.001 A 
ATOM     28  C   UNL A   1      48.870  46.851  27.115  1.00  0.00     0.001 A 
ATOM     29  C   UNL A   1      47.408  47.405  28.017  1.00  0.00     0.000 A 
ENDBRANCH  15  24
ENDBRANCH   7   9
ENDBRANCH   6   7
ENDBRANCH   5   6
ENDBRANCH   4   5
ENDBRANCH   3   4
ENDBRANCH   2   3
ENDBRANCH   1   2
BRANCH   1  30
ATOM     30  O   UNL A   1      39.555  34.411  29.694  1.00  0.00    -0.376 OA
BRANCH  30  31
ATOM     31  C   UNL A   1      38.088  34.446  30.137  1.00  0.00     0.202 C 
BRANCH  31  32
ATOM     32  C   UNL A   1      36.800  33.908  29.372  1.00  0.00     0.261 C 
BRANCH  32  33
ATOM     33  O   UNL A   1      36.010  32.861  30.014  1.00  0.00    -0.460 OA
BRANCH  33  34
ATOM     34  C   UNL A   1      35.715  31.769  29.247  1.00  0.00     0.338 C 
ATOM     35  O   UNL A   1      34.720  31.621  28.565  1.00  0.00    -0.246 OA
BRANCH  34  36
ATOM     36  C   UNL A   1      36.845  30.793  29.185  1.00  0.00     0.060 A 
ATOM     37  C   UNL A   1      37.489  30.385  30.366  1.00  0.00     0.016 A 
ATOM     38  C   UNL A   1      37.428  30.476  27.961  1.00  0.00     0.016 A 
ATOM     39  C   UNL A   1      38.707  29.696  30.336  1.00  0.00     0.010 A 
ATOM     40  C   UNL A   1      38.658  29.791  27.929  1.00  0.00     0.010 A 
ATOM     41  C   UNL A   1      39.327  29.433  29.117  1.00  0.00    -0.014 A 
BRANCH  41  42
ATOM     42  C   UNL A   1      40.752  28.994  29.076  1.00  0.00     0.031 A 
ATOM     43  C   UNL A   1      41.824  30.020  29.346  1.00  0.00     0.074 A 
ATOM     44  C   UNL A   1      41.106  27.720  28.820  1.00  0.00     0.049 A 
ATOM     45  N   UNL A   1      43.119  29.937  29.187  1.00  0.00    -0.248 NA
ATOM     46  C   UNL A   1      41.365  31.318  29.868  1.00  0.00     0.031 C 
ATOM     47  C   UNL A   1      40.183  26.602  28.649  1.00  0.00     0.029 A 
ATOM     48  N   UNL A   1      42.349  27.160  28.635  1.00  0.00    -0.354 N 
ATOM     49  C   UNL A   1      43.627  31.180  29.552  1.00  0.00     0.074 A 
ATOM     50  C   UNL A   1      42.498  32.000  29.934  1.00  0.00     0.031 C 
ATOM     51  C   UNL A   1      40.889  25.496  28.349  1.00  0.00     0.029 A 
ATOM     52  C   UNL A   1      42.308  25.840  28.251  1.00  0.00     0.049 A 
ATOM     53  H   UNL A   1      43.189  27.658  28.764  1.00  0.00     0.167 HD
ATOM     54  C   UNL A   1      44.915  31.602  29.558  1.00  0.00     0.037 A 
ATOM     55  C   UNL A   1      43.290  25.017  27.826  1.00  0.00     0.037 A 
ATOM     56  C   UNL A   1      46.035  30.778  29.181  1.00  0.00     0.049 A 
ATOM     57  C   UNL A   1      44.709  25.536  27.742  1.00  0.00     0.074 A 
ATOM     58  C   UNL A   1      47.378  31.114  29.148  1.00  0.00     0.029 A 
ATOM     59  N   UNL A   1      45.945  29.458  28.766  1.00  0.00    -0.354 N 
ATOM     60  N   UNL A   1      45.176  26.722  28.055  1.00  0.00    -0.248 NA
ATOM     61  C   UNL A   1      45.733  24.604  27.243  1.00  0.00     0.031 C 
ATOM     62  C   UNL A   1      48.091  30.019  28.652  1.00  0.00     0.029 A 
ATOM     63  C   UNL A   1      47.204  28.974  28.447  1.00  0.00     0.049 A 
ATOM     64  H   UNL A   1      45.110  28.940  28.706  1.00  0.00     0.167 HD
ATOM     65  C   UNL A   1      46.550  26.666  27.825  1.00  0.00     0.074 A 
ATOM     66  C   UNL A   1      46.838  25.328  27.353  1.00  0.00     0.031 C 
ATOM     67  C   UNL A   1      47.486  27.634  27.994  1.00  0.00     0.037 A 
BRANCH  54  68
ATOM     68  C   UNL A   1      45.181  33.036  29.933  1.00  0.00     0.058 A 
ATOM     69  C   UNL A   1      44.923  34.102  29.055  1.00  0.00     0.135 A 
ATOM     70  C   UNL A   1      45.674  33.351  31.212  1.00  0.00     0.135 A 
ATOM     71  F   UNL A   1      44.468  33.861  27.815  1.00  0.00    -0.206 F 
ATOM     72  C   UNL A   1      45.171  35.422  29.420  1.00  0.00     0.059 A 
ATOM     73  C   UNL A   1      45.897  34.666  31.609  1.00  0.00     0.059 A 
ATOM     74  F   UNL A   1      45.940  32.375  32.092  1.00  0.00    -0.206 F 
ATOM     75  C   UNL A   1      45.657  35.694  30.700  1.00  0.00     0.060 A 
BRANCH  75  76
ATOM     76  S   UNL A   1      45.967  37.413  31.159  1.00  0.00     0.124 S 
ATOM     77  O   UNL A   1      44.623  37.870  31.502  1.00  0.00    -0.237 OA
ATOM     78  O   UNL A   1      46.893  37.273  32.278  1.00  0.00    -0.237 OA
ATOM     79  O   UNL A   1      46.535  37.994  29.946  1.00  0.00    -0.744 OA
ENDBRANCH  75  76
ENDBRANCH  54  68
BRANCH  55  80
ATOM     80  C   UNL A   1      42.973  23.624  27.401  1.00  0.00     0.058 A 
ATOM     81  C   UNL A   1      42.817  22.592  28.340  1.00  0.00     0.135 A 
ATOM     82  C   UNL A   1      42.836  23.290  26.043  1.00  0.00     0.135 A 
ATOM     83  F   UNL A   1      42.960  22.850  29.649  1.00  0.00    -0.206 F 
ATOM     84  C   UNL A   1      42.551  21.282  27.951  1.00  0.00     0.059 A 
ATOM     85  C   UNL A   1      42.538  21.993  25.632  1.00  0.00     0.059 A 
ATOM     86  F   UNL A   1      42.979  24.233  25.101  1.00  0.00    -0.206 F 
ATOM     87  C   UNL A   1      42.405  20.994  26.594  1.00  0.00     0.060 A 
BRANCH  87  88
ATOM     88  S   UNL A   1      42.010  19.299  26.104  1.00  0.00     0.124 S 
ATOM     89  O   UNL A   1      40.571  19.384  25.882  1.00  0.00    -0.237 OA
ATOM     90  O   UNL A   1      42.831  19.127  24.910  1.00  0.00    -0.237 OA
ATOM     91  O   UNL A   1      42.423  18.509  27.261  1.00  0.00    -0.744 OA
ENDBRANCH  87  88
ENDBRANCH  55  80
BRANCH  67  92
ATOM     92  C   UNL A   1      48.927  27.277  27.729  1.00  0.00     0.058 A 
ATOM     93  C   UNL A   1      49.739  26.668  28.698  1.00  0.00     0.135 A 
ATOM     94  C   UNL A   1      49.484  27.490  26.455  1.00  0.00     0.135 A 
ATOM     95  F   UNL A   1      49.264  26.444  29.934  1.00  0.00    -0.206 F 
ATOM     96  C   UNL A   1      51.054  26.304  28.424  1.00  0.00     0.059 A 
ATOM     97  C   UNL A   1      50.785  27.104  26.148  1.00  0.00     0.059 A 
ATOM     98  F   UNL A   1      48.752  28.057  25.484  1.00  0.00    -0.206 F 
ATOM     99  C   UNL A   1      51.568  26.521  27.143  1.00  0.00     0.060 A 
BRANCH  99 100
ATOM    100  S   UNL A   1      53.262  26.006  26.790  1.00  0.00     0.124 S 
ATOM    101  O   UNL A   1      53.055  24.679  26.220  1.00  0.00    -0.237 OA
ATOM    102  O   UNL A   1      53.712  27.034  25.857  1.00  0.00    -0.237 OA
ATOM    103  O   UNL A   1      53.907  26.032  28.100  1.00  0.00    -0.744 OA
ENDBRANCH  99 100
ENDBRANCH  67  92
ENDBRANCH  41  42
ENDBRANCH  34  36
ENDBRANCH  33  34
ENDBRANCH  32  33
ENDBRANCH  31  32
ENDBRANCH  30  31
ENDBRANCH   1  30
TORSDOF 22
ENDMDL
MODEL 3
REMARK VINA RESULT:     -10.6      4.911      9.153
REMARK SMILES O=C(OCCOCCOCCOC(=O)c1ccc(-c2c3nc(c(-c4c(F)cc(S(=O)(=O)[O-])cc4F)c4ccc([nH]4)c(-c4c(F)cc(S(=O)(=O)[O-])cc4F)c4nc(c(-c5c(F)cc(S(=O)(=O)[O-])cc5F)c5ccc2[nH]5)C=C4)C=C3)cc1)C1=Cc2c(ccc(Cl)c2-c2ccccc2)O[C@H]1C(F)(F)F
REMARK SMILES IDX 8 1 7 2 6 3 5 4 4 5 3 6 2 7 1 8 81 9 82 10 97 11 83 12 96 13
REMARK SMILES IDX 84 14 89 15 85 16 87 17 86 18 88 19 98 20 99 21 100 22
REMARK SMILES IDX 101 23 90 24 91 25 95 26 92 27 94 28 93 29 9 30 10 31 11 32
REMARK SMILES IDX 12 33 13 34 14 35 15 36 16 37 80 38 17 39 79 40 18 41 19 42
REMARK SMILES IDX 20 43 73 44 21 45 78 46 72 47 74 48 22 49 77 50 71 51 70 52
REMARK SMILES IDX 23 54 57 55 36 56 56 57 37 58 40 59 55 60 75 61 38 62 39 63
REMARK SMILES IDX 54 65 76 66 41 67 24 68 25 69 34 70 26 71 27 72 33 73 35 74
REMARK SMILES IDX 28 75 29 76 30 77 31 78 32 79 58 80 59 81 68 82 60 83 61 84
REMARK SMILES IDX 67 85 69 86 62 87 63 88 64 89 65 90 66 91 42 92 43 93 52 94
REMARK SMILES IDX 44 95 45 96 51 97 53 98 46 99 47 100 48 101 49 102 50 103
REMARK H PARENT 74 53 40 64
REMARK Flexibility Score: inf
ROOT
ATOM      1  C   UNL A   1      39.294  34.145  32.075  1.00  0.00     0.188 C 
ENDROOT
BRANCH   1   2
ATOM      2  C   UNL A   1      39.529  34.225  33.744  1.00  0.00     0.188 C 
BRANCH   2   3
ATOM      3  O   UNL A   1      40.340  33.306  34.462  1.00  0.00    -0.376 OA
BRANCH   3   4
ATOM      4  C   UNL A   1      41.350  32.618  33.763  1.00  0.00     0.202 C 
BRANCH   4   5
ATOM      5  C   UNL A   1      41.289  31.082  33.665  1.00  0.00     0.261 C 
BRANCH   5   6
ATOM      6  O   UNL A   1      42.551  30.522  33.266  1.00  0.00    -0.460 OA
BRANCH   6   7
ATOM      7  C   UNL A   1      43.453  29.971  34.108  1.00  0.00     0.338 C 
ATOM      8  O   UNL A   1      44.127  30.690  34.836  1.00  0.00    -0.246 OA
BRANCH   7   9
ATOM      9  C   UNL A   1      43.625  28.506  34.184  1.00  0.00     0.087 C 
ATOM     10  C   UNL A   1      44.462  27.817  34.977  1.00  0.00     0.028 C 
ATOM     11  C   UNL A   1      42.698  27.670  33.361  1.00  0.00     0.316 C 
ATOM     12  C   UNL A   1      45.392  26.984  34.231  1.00  0.00     0.027 A 
ATOM     13  O   UNL A   1      43.420  26.506  32.813  1.00  0.00    -0.475 OA
ATOM     14  C   UNL A   1      44.779  26.392  33.090  1.00  0.00     0.128 A 
ATOM     15  C   UNL A   1      46.758  26.809  34.631  1.00  0.00     0.011 A 
ATOM     16  C   UNL A   1      45.551  25.636  32.236  1.00  0.00     0.049 A 
ATOM     17  C   UNL A   1      47.491  26.019  33.715  1.00  0.00     0.049 A 
ATOM     18  C   UNL A   1      46.903  25.468  32.541  1.00  0.00     0.025 A 
ATOM     19  Cl  UNL A   1      49.153  25.585  33.954  1.00  0.00    -0.084 Cl
BRANCH  11  20
ATOM     20  C   UNL A   1      41.479  27.329  34.259  1.00  0.00     0.430 C 
ATOM     21  F   UNL A   1      40.311  27.419  33.572  1.00  0.00    -0.167 F 
ATOM     22  F   UNL A   1      41.550  26.052  34.713  1.00  0.00    -0.167 F 
ATOM     23  F   UNL A   1      41.378  28.136  35.333  1.00  0.00    -0.167 F 
ENDBRANCH  11  20
BRANCH  15  24
ATOM     24  C   UNL A   1      47.380  27.388  35.930  1.00  0.00    -0.016 A 
ATOM     25  C   UNL A   1      48.684  28.643  35.838  1.00  0.00     0.009 A 
ATOM     26  C   UNL A   1      46.934  26.777  37.582  1.00  0.00     0.009 A 
ATOM     27  C   UNL A   1      49.583  29.211  37.295  1.00  0.00     0.001 A 
ATOM     28  C   UNL A   1      47.856  27.340  39.079  1.00  0.00     0.001 A 
ATOM     29  C   UNL A   1      49.167  28.571  38.924  1.00  0.00     0.000 A 
ENDBRANCH  15  24
ENDBRANCH   7   9
ENDBRANCH   6   7
ENDBRANCH   5   6
ENDBRANCH   4   5
ENDBRANCH   3   4
ENDBRANCH   2   3
ENDBRANCH   1   2
BRANCH   1  30
ATOM     30  O   UNL A   1      37.715  33.746  30.931  1.00  0.00    -0.376 OA
BRANCH  30  31
ATOM     31  C   UNL A   1      36.903  33.925  29.642  1.00  0.00     0.202 C 
BRANCH  31  32
ATOM     32  C   UNL A   1      35.356  33.650  29.390  1.00  0.00     0.261 C 
BRANCH  32  33
ATOM     33  O   UNL A   1      34.806  32.371  29.833  1.00  0.00    -0.460 OA
BRANCH  33  34
ATOM     34  C   UNL A   1      34.711  31.392  28.884  1.00  0.00     0.338 C 
ATOM     35  O   UNL A   1      33.843  31.295  28.040  1.00  0.00    -0.246 OA
BRANCH  34  36
ATOM     36  C   UNL A   1      35.907  30.496  28.868  1.00  0.00     0.060 A 
ATOM     37  C   UNL A   1      36.457  30.033  30.075  1.00  0.00     0.016 A 
ATOM     38  C   UNL A   1      36.631  30.318  27.691  1.00  0.00     0.016 A 
ATOM     39  C   UNL A   1      37.718  29.426  30.122  1.00  0.00     0.010 A 
ATOM     40  C   UNL A   1      37.903  29.715  27.737  1.00  0.00     0.010 A 
ATOM     41  C   UNL A   1      38.474  29.303  28.958  1.00  0.00    -0.014 A 
BRANCH  41  42
ATOM     42  C   UNL A   1      39.922  28.958  29.033  1.00  0.00     0.031 A 
ATOM     43  C   UNL A   1      40.899  30.050  29.394  1.00  0.00     0.074 A 
ATOM     44  C   UNL A   1      40.379  27.712  28.805  1.00  0.00     0.049 A 
ATOM     45  N   UNL A   1      42.206  30.053  29.342  1.00  0.00    -0.248 NA
ATOM     46  C   UNL A   1      40.315  31.311  29.878  1.00  0.00     0.031 C 
ATOM     47  C   UNL A   1      39.549  26.537  28.557  1.00  0.00     0.029 A 
ATOM     48  N   UNL A   1      41.668  27.236  28.722  1.00  0.00    -0.354 N 
ATOM     49  C   UNL A   1      42.599  31.324  29.749  1.00  0.00     0.074 A 
ATOM     50  C   UNL A   1      41.392  32.065  30.040  1.00  0.00     0.031 C 
ATOM     51  C   UNL A   1      40.348  25.482  28.313  1.00  0.00     0.029 A 
ATOM     52  C   UNL A   1      41.745  25.918  28.334  1.00  0.00     0.049 A 
ATOM     53  H   UNL A   1      42.460  27.786  28.921  1.00  0.00     0.167 HD
ATOM     54  C   UNL A   1      43.852  31.829  29.863  1.00  0.00     0.037 A 
ATOM     55  C   UNL A   1      42.810  25.165  27.989  1.00  0.00     0.037 A 
ATOM     56  C   UNL A   1      45.051  31.082  29.578  1.00  0.00     0.049 A 
ATOM     57  C   UNL A   1      44.194  25.775  28.024  1.00  0.00     0.074 A 
ATOM     58  C   UNL A   1      46.367  31.505  29.656  1.00  0.00     0.029 A 
ATOM     59  N   UNL A   1      45.082  29.762  29.154  1.00  0.00    -0.354 N 
ATOM     60  N   UNL A   1      44.555  26.987  28.376  1.00  0.00    -0.248 NA
ATOM     61  C   UNL A   1      45.314  24.917  27.609  1.00  0.00     0.031 C 
ATOM     62  C   UNL A   1      47.188  30.463  29.219  1.00  0.00     0.029 A 
ATOM     63  C   UNL A   1      46.392  29.363  28.939  1.00  0.00     0.049 A 
ATOM     64  H   UNL A   1      44.290  29.191  29.024  1.00  0.00     0.167 HD
ATOM     65  C   UNL A   1      45.944  27.023  28.260  1.00  0.00     0.074 A 
ATOM     66  C   UNL A   1      46.357  25.710  27.811  1.00  0.00     0.031 C 
ATOM     67  C   UNL A   1      46.798  28.048  28.508  1.00  0.00     0.037 A 
BRANCH  54  68
ATOM     68  C   UNL A   1      43.991  33.274  30.262  1.00  0.00     0.058 A 
ATOM     69  C   UNL A   1      43.807  34.326  29.349  1.00  0.00     0.135 A 
ATOM     70  C   UNL A   1      44.283  33.613  31.595  1.00  0.00     0.135 A 
ATOM     71  F   UNL A   1      43.545  34.063  28.058  1.00  0.00    -0.206 F 
ATOM     72  C   UNL A   1      43.937  35.657  29.735  1.00  0.00     0.059 A 
ATOM     73  C   UNL A   1      44.383  34.938  32.011  1.00  0.00     0.059 A 
ATOM     74  F   UNL A   1      44.471  32.651  32.511  1.00  0.00    -0.206 F 
ATOM     75  C   UNL A   1      44.224  35.952  31.069  1.00  0.00     0.060 A 
BRANCH  75  76
ATOM     76  S   UNL A   1      44.380  37.684  31.556  1.00  0.00     0.124 S 
ATOM     77  O   UNL A   1      43.739  38.362  30.432  1.00  0.00    -0.237 OA
ATOM     78  O   UNL A   1      43.649  37.720  32.817  1.00  0.00    -0.237 OA
ATOM     79  O   UNL A   1      45.823  37.880  31.663  1.00  0.00    -0.744 OA
ENDBRANCH  75  76
ENDBRANCH  54  68
BRANCH  55  80
ATOM     80  C   UNL A   1      42.621  23.757  27.537  1.00  0.00     0.058 A 
ATOM     81  C   UNL A   1      42.498  23.437  26.176  1.00  0.00     0.135 A 
ATOM     82  C   UNL A   1      42.539  22.700  28.460  1.00  0.00     0.135 A 
ATOM     83  F   UNL A   1      42.545  24.410  25.253  1.00  0.00    -0.206 F 
ATOM     84  C   UNL A   1      42.290  22.130  25.746  1.00  0.00     0.059 A 
ATOM     85  C   UNL A   1      42.363  21.380  28.052  1.00  0.00     0.059 A 
ATOM     86  F   UNL A   1      42.644  22.945  29.774  1.00  0.00    -0.206 F 
ATOM     87  C   UNL A   1      42.232  21.106  26.692  1.00  0.00     0.060 A 
BRANCH  87  88
ATOM     88  S   UNL A   1      42.012  19.406  26.119  1.00  0.00     0.124 S 
ATOM     89  O   UNL A   1      42.476  18.643  27.272  1.00  0.00    -0.237 OA
ATOM     90  O   UNL A   1      40.577  19.356  25.856  1.00  0.00    -0.237 OA
ATOM     91  O   UNL A   1      42.863  19.337  24.934  1.00  0.00    -0.744 OA
ENDBRANCH  87  88
ENDBRANCH  55  80
BRANCH  67  92
ATOM     92  C   UNL A   1      48.276  27.788  28.362  1.00  0.00     0.058 A 
ATOM     93  C   UNL A   1      49.078  27.395  29.444  1.00  0.00     0.135 A 
ATOM     94  C   UNL A   1      48.886  27.871  27.097  1.00  0.00     0.135 A 
ATOM     95  F   UNL A   1      48.553  27.304  30.677  1.00  0.00    -0.206 F 
ATOM     96  C   UNL A   1      50.432  27.116  29.285  1.00  0.00     0.059 A 
ATOM     97  C   UNL A   1      50.229  27.563  26.908  1.00  0.00     0.059 A 
ATOM     98  F   UNL A   1      48.166  28.230  26.023  1.00  0.00    -0.206 F 
ATOM     99  C   UNL A   1      50.999  27.196  28.010  1.00  0.00     0.060 A 
BRANCH  99 100
ATOM    100  S   UNL A   1      52.747  26.791  27.811  1.00  0.00     0.124 S 
ATOM    101  O   UNL A   1      52.677  25.532  27.078  1.00  0.00    -0.237 OA
ATOM    102  O   UNL A   1      53.249  27.936  27.059  1.00  0.00    -0.237 OA
ATOM    103  O   UNL A   1      53.232  26.690  29.184  1.00  0.00    -0.744 OA
ENDBRANCH  99 100
ENDBRANCH  67  92
ENDBRANCH  41  42
ENDBRANCH  34  36
ENDBRANCH  33  34
ENDBRANCH  32  33
ENDBRANCH  31  32
ENDBRANCH  30  31
ENDBRANCH   1  30
TORSDOF 22
ENDMDL
