MODEL 1
REMARK VINA RESULT:      -9.5      0.000      0.000
REMARK SMILES O=C(CCCOc1ccc([N+](=O)[O-])cc1F)OCCOCCOCCOC(=O)c1ccc(-c2c3nc(c(-c4c(F)cc(S(=O)(=O)[O-])cc4F)c4ccc([nH]4)c(-c4c(F)cc(S(=O)(=O)[O-])cc4F)c4nc(c(-c5c(F)cc(S(=O)(=O)[O-])cc5F)c5ccc2[nH]5)C=C4)C=C3)cc1
REMARK SMILES IDX 21 1 20 2 19 3 18 4 17 5 2 6 1 7 3 8 4 9 5 10 6 11 7 12 8 13
REMARK SMILES IDX 15 14 9 15 14 16 16 17 10 18 11 19 12 20 13 21 22 22 23 23
REMARK SMILES IDX 24 24 25 25 26 26 27 27 28 28 29 29 30 30 94 31 31 32 93 33
REMARK SMILES IDX 32 34 33 35 34 36 87 37 35 38 92 39 86 40 88 41 36 42 91 43
REMARK SMILES IDX 85 44 84 45 37 47 71 48 50 49 70 50 51 51 54 52 69 53 89 54
REMARK SMILES IDX 52 55 53 56 68 58 90 59 55 60 38 61 39 62 48 63 40 64 41 65
REMARK SMILES IDX 47 66 49 67 42 68 43 69 44 70 45 71 46 72 72 73 73 74 82 75
REMARK SMILES IDX 74 76 75 77 81 78 83 79 76 80 77 81 78 82 79 83 80 84 56 85
REMARK SMILES IDX 57 86 66 87 58 88 59 89 65 90 67 91 60 92 61 93 62 94 63 95
REMARK SMILES IDX 64 96
REMARK H PARENT 88 46 54 57
REMARK Flexibility Score: inf
ROOT
ATOM      1  C   UNL A   1      39.119  22.533  26.033  1.00  0.00     0.188 C 
ENDROOT
BRANCH   1   2
ATOM      2  O   UNL A   1      37.735  22.511  25.691  1.00  0.00    -0.376 OA
BRANCH   2   3
ATOM      3  C   UNL A   1      37.215  21.234  25.335  1.00  0.00     0.202 C 
BRANCH   3   4
ATOM      4  C   UNL A   1      35.843  21.347  24.658  1.00  0.00     0.261 C 
BRANCH   4   5
ATOM      5  O   UNL A   1      35.881  22.432  23.714  1.00  0.00    -0.463 OA
BRANCH   5   6
ATOM      6  C   UNL A   1      34.683  23.030  23.472  1.00  0.00     0.305 C 
ATOM      7  O   UNL A   1      34.209  23.209  22.370  1.00  0.00    -0.252 OA
BRANCH   6   8
ATOM      8  C   UNL A   1      34.055  23.584  24.735  1.00  0.00     0.126 C 
BRANCH   8   9
ATOM      9  C   UNL A   1      32.545  23.408  24.959  1.00  0.00     0.053 C 
BRANCH   9  10
ATOM     10  C   UNL A   1      32.090  22.244  25.859  1.00  0.00     0.230 C 
BRANCH  10  11
ATOM     11  O   UNL A   1      31.394  21.199  25.140  1.00  0.00    -0.490 OA
BRANCH  11  12
ATOM     12  C   UNL A   1      32.283  20.220  24.793  1.00  0.00     0.155 A 
ATOM     13  C   UNL A   1      32.929  19.502  25.781  1.00  0.00     0.056 A 
ATOM     14  C   UNL A   1      32.395  19.845  23.456  1.00  0.00     0.171 A 
ATOM     15  C   UNL A   1      33.469  18.270  25.437  1.00  0.00     0.089 A 
ATOM     16  C   UNL A   1      32.903  18.605  23.118  1.00  0.00     0.128 A 
ATOM     17  F   UNL A   1      31.809  20.574  22.500  1.00  0.00    -0.203 F 
ATOM     18  C   UNL A   1      33.354  17.771  24.132  1.00  0.00     0.272 A 
BRANCH  18  19
ATOM     19  N   UNL A   1      33.561  16.358  23.773  1.00  0.00     0.062 N 
ATOM     20  O   UNL A   1      34.135  16.131  22.699  1.00  0.00    -0.258 OA
ATOM     21  O   UNL A   1      33.207  15.456  24.538  1.00  0.00    -0.258 OA
ENDBRANCH  18  19
ENDBRANCH  11  12
ENDBRANCH  10  11
ENDBRANCH   9  10
ENDBRANCH   8   9
ENDBRANCH   6   8
ENDBRANCH   5   6
ENDBRANCH   4   5
ENDBRANCH   3   4
ENDBRANCH   2   3
ENDBRANCH   1   2
BRANCH   1  22
ATOM     22  C   UNL A   1      39.759  21.121  26.188  1.00  0.00     0.188 C 
BRANCH  22  23
ATOM     23  O   UNL A   1      40.934  21.106  27.022  1.00  0.00    -0.376 OA
BRANCH  23  24
ATOM     24  C   UNL A   1      42.183  21.398  26.366  1.00  0.00     0.202 C 
BRANCH  24  25
ATOM     25  C   UNL A   1      42.861  22.785  26.732  1.00  0.00     0.261 C 
BRANCH  25  26
ATOM     26  O   UNL A   1      42.109  24.017  26.450  1.00  0.00    -0.460 OA
BRANCH  26  27
ATOM     27  C   UNL A   1      42.732  25.230  26.371  1.00  0.00     0.338 C 
ATOM     28  O   UNL A   1      43.576  25.538  25.550  1.00  0.00    -0.246 OA
BRANCH  27  29
ATOM     29  C   UNL A   1      42.223  26.206  27.413  1.00  0.00     0.060 A 
ATOM     30  C   UNL A   1      42.976  27.345  27.735  1.00  0.00     0.016 A 
ATOM     31  C   UNL A   1      41.080  25.955  28.185  1.00  0.00     0.016 A 
ATOM     32  C   UNL A   1      42.567  28.258  28.736  1.00  0.00     0.010 A 
ATOM     33  C   UNL A   1      40.708  26.833  29.244  1.00  0.00     0.010 A 
ATOM     34  C   UNL A   1      41.449  27.995  29.540  1.00  0.00    -0.014 A 
BRANCH  34  35
ATOM     35  C   UNL A   1      41.261  28.748  30.836  1.00  0.00     0.031 A 
ATOM     36  C   UNL A   1      40.160  29.790  30.882  1.00  0.00     0.074 A 
ATOM     37  C   UNL A   1      41.961  28.522  31.972  1.00  0.00     0.049 A 
ATOM     38  N   UNL A   1      39.864  30.665  31.811  1.00  0.00    -0.248 NA
ATOM     39  C   UNL A   1      39.262  29.834  29.717  1.00  0.00     0.031 C 
ATOM     40  C   UNL A   1      42.959  27.475  32.164  1.00  0.00     0.029 A 
ATOM     41  N   UNL A   1      41.929  29.169  33.196  1.00  0.00    -0.354 N 
ATOM     42  C   UNL A   1      38.761  31.370  31.335  1.00  0.00     0.074 A 
ATOM     43  C   UNL A   1      38.435  30.817  30.040  1.00  0.00     0.031 C 
ATOM     44  C   UNL A   1      43.452  27.557  33.417  1.00  0.00     0.029 A 
ATOM     45  C   UNL A   1      42.848  28.697  34.111  1.00  0.00     0.049 A 
ATOM     46  H   UNL A   1      41.304  29.904  33.396  1.00  0.00     0.167 HD
ATOM     47  C   UNL A   1      38.085  32.395  31.906  1.00  0.00     0.037 A 
ATOM     48  C   UNL A   1      43.194  29.145  35.344  1.00  0.00     0.037 A 
ATOM     49  C   UNL A   1      38.402  32.967  33.187  1.00  0.00     0.049 A 
ATOM     50  C   UNL A   1      42.511  30.369  35.919  1.00  0.00     0.074 A 
ATOM     51  C   UNL A   1      37.806  34.045  33.819  1.00  0.00     0.029 A 
ATOM     52  N   UNL A   1      39.396  32.506  34.036  1.00  0.00    -0.354 N 
ATOM     53  N   UNL A   1      41.530  31.079  35.416  1.00  0.00    -0.248 NA
ATOM     54  C   UNL A   1      42.995  30.867  37.220  1.00  0.00     0.031 C 
ATOM     55  C   UNL A   1      38.470  34.264  35.031  1.00  0.00     0.029 A 
ATOM     56  C   UNL A   1      39.443  33.290  35.177  1.00  0.00     0.049 A 
ATOM     57  H   UNL A   1      39.982  31.737  33.854  1.00  0.00     0.167 HD
ATOM     58  C   UNL A   1      41.271  32.091  36.340  1.00  0.00     0.074 A 
ATOM     59  C   UNL A   1      42.189  31.899  37.441  1.00  0.00     0.031 C 
ATOM     60  C   UNL A   1      40.355  33.089  36.276  1.00  0.00     0.037 A 
BRANCH  47  61
ATOM     61  C   UNL A   1      36.961  33.013  31.116  1.00  0.00     0.058 A 
ATOM     62  C   UNL A   1      35.625  32.759  31.470  1.00  0.00     0.135 A 
ATOM     63  C   UNL A   1      37.197  33.828  29.998  1.00  0.00     0.135 A 
ATOM     64  F   UNL A   1      35.341  31.994  32.535  1.00  0.00    -0.206 F 
ATOM     65  C   UNL A   1      34.565  33.281  30.736  1.00  0.00     0.059 A 
ATOM     66  C   UNL A   1      36.150  34.382  29.265  1.00  0.00     0.059 A 
ATOM     67  F   UNL A   1      38.454  34.126  29.633  1.00  0.00    -0.206 F 
ATOM     68  C   UNL A   1      34.837  34.093  29.635  1.00  0.00     0.060 A 
BRANCH  68  69
ATOM     69  S   UNL A   1      33.447  34.797  28.722  1.00  0.00     0.124 S 
ATOM     70  O   UNL A   1      34.034  36.013  28.173  1.00  0.00    -0.237 OA
ATOM     71  O   UNL A   1      33.147  33.743  27.757  1.00  0.00    -0.237 OA
ATOM     72  O   UNL A   1      32.432  34.997  29.754  1.00  0.00    -0.744 OA
ENDBRANCH  68  69
ENDBRANCH  47  61
BRANCH  48  73
ATOM     73  C   UNL A   1      44.286  28.471  36.116  1.00  0.00     0.058 A 
ATOM     74  C   UNL A   1      45.625  28.878  35.987  1.00  0.00     0.135 A 
ATOM     75  C   UNL A   1      44.021  27.420  37.010  1.00  0.00     0.135 A 
ATOM     76  F   UNL A   1      45.941  29.898  35.173  1.00  0.00    -0.206 F 
ATOM     77  C   UNL A   1      46.658  28.237  36.665  1.00  0.00     0.059 A 
ATOM     78  C   UNL A   1      45.036  26.780  37.723  1.00  0.00     0.059 A 
ATOM     79  F   UNL A   1      42.756  27.020  37.216  1.00  0.00    -0.206 F 
ATOM     80  C   UNL A   1      46.358  27.180  37.523  1.00  0.00     0.060 A 
BRANCH  80  81
ATOM     81  S   UNL A   1      47.721  26.332  38.354  1.00  0.00     0.124 S 
ATOM     82  O   UNL A   1      47.207  26.217  39.715  1.00  0.00    -0.237 OA
ATOM     83  O   UNL A   1      47.812  25.085  37.603  1.00  0.00    -0.237 OA
ATOM     84  O   UNL A   1      48.845  27.247  38.183  1.00  0.00    -0.744 OA
ENDBRANCH  80  81
ENDBRANCH  48  73
BRANCH  60  85
ATOM     85  C   UNL A   1      40.262  34.053  37.430  1.00  0.00     0.058 A 
ATOM     86  C   UNL A   1      39.368  33.813  38.488  1.00  0.00     0.135 A 
ATOM     87  C   UNL A   1      40.971  35.265  37.437  1.00  0.00     0.135 A 
ATOM     88  F   UNL A   1      38.658  32.675  38.526  1.00  0.00    -0.206 F 
ATOM     89  C   UNL A   1      39.166  34.748  39.498  1.00  0.00     0.059 A 
ATOM     90  C   UNL A   1      40.800  36.206  38.451  1.00  0.00     0.059 A 
ATOM     91  F   UNL A   1      41.840  35.544  36.453  1.00  0.00    -0.206 F 
ATOM     92  C   UNL A   1      39.880  35.946  39.468  1.00  0.00     0.060 A 
BRANCH  92  93
ATOM     93  S   UNL A   1      39.602  37.149  40.785  1.00  0.00     0.124 S 
ATOM     94  O   UNL A   1      38.679  36.431  41.659  1.00  0.00    -0.237 OA
ATOM     95  O   UNL A   1      40.948  37.348  41.314  1.00  0.00    -0.237 OA
ATOM     96  O   UNL A   1      39.036  38.297  40.084  1.00  0.00    -0.744 OA
ENDBRANCH  92  93
ENDBRANCH  60  85
ENDBRANCH  34  35
ENDBRANCH  27  29
ENDBRANCH  26  27
ENDBRANCH  25  26
ENDBRANCH  24  25
ENDBRANCH  23  24
ENDBRANCH  22  23
ENDBRANCH   1  22
TORSDOF 25
ENDMDL
MODEL 2
REMARK VINA RESULT:      -9.2      1.882      8.389
REMARK SMILES O=C(CCCOc1ccc([N+](=O)[O-])cc1F)OCCOCCOCCOC(=O)c1ccc(-c2c3nc(c(-c4c(F)cc(S(=O)(=O)[O-])cc4F)c4ccc([nH]4)c(-c4c(F)cc(S(=O)(=O)[O-])cc4F)c4nc(c(-c5c(F)cc(S(=O)(=O)[O-])cc5F)c5ccc2[nH]5)C=C4)C=C3)cc1
REMARK SMILES IDX 21 1 20 2 19 3 18 4 17 5 2 6 1 7 3 8 4 9 5 10 6 11 7 12 8 13
REMARK SMILES IDX 15 14 9 15 14 16 16 17 10 18 11 19 12 20 13 21 22 22 23 23
REMARK SMILES IDX 24 24 25 25 26 26 27 27 28 28 29 29 30 30 94 31 31 32 93 33
REMARK SMILES IDX 32 34 33 35 34 36 87 37 35 38 92 39 86 40 88 41 36 42 91 43
REMARK SMILES IDX 85 44 84 45 37 47 71 48 50 49 70 50 51 51 54 52 69 53 89 54
REMARK SMILES IDX 52 55 53 56 68 58 90 59 55 60 38 61 39 62 48 63 40 64 41 65
REMARK SMILES IDX 47 66 49 67 42 68 43 69 44 70 45 71 46 72 72 73 73 74 82 75
REMARK SMILES IDX 74 76 75 77 81 78 83 79 76 80 77 81 78 82 79 83 80 84 56 85
REMARK SMILES IDX 57 86 66 87 58 88 59 89 65 90 67 91 60 92 61 93 62 94 63 95
REMARK SMILES IDX 64 96
REMARK H PARENT 88 46 54 57
REMARK Flexibility Score: inf
ROOT
ATOM      1  C   UNL A   1      38.575  22.482  26.080  1.00  0.00     0.188 C 
ENDROOT
BRANCH   1   2
ATOM      2  O   UNL A   1      37.153  22.398  26.132  1.00  0.00    -0.376 OA
BRANCH   2   3
ATOM      3  C   UNL A   1      36.461  23.624  25.923  1.00  0.00     0.202 C 
BRANCH   3   4
ATOM      4  C   UNL A   1      35.983  23.768  24.472  1.00  0.00     0.261 C 
BRANCH   4   5
ATOM      5  O   UNL A   1      34.951  24.769  24.422  1.00  0.00    -0.463 OA
BRANCH   5   6
ATOM      6  C   UNL A   1      33.978  24.551  23.496  1.00  0.00     0.305 C 
ATOM      7  O   UNL A   1      33.995  24.978  22.361  1.00  0.00    -0.252 OA
BRANCH   6   8
ATOM      8  C   UNL A   1      32.784  23.825  24.082  1.00  0.00     0.126 C 
BRANCH   8   9
ATOM      9  C   UNL A   1      32.177  22.643  23.310  1.00  0.00     0.053 C 
BRANCH   9  10
ATOM     10  C   UNL A   1      32.094  21.287  24.037  1.00  0.00     0.230 C 
BRANCH  10  11
ATOM     11  O   UNL A   1      31.897  20.166  23.143  1.00  0.00    -0.490 OA
BRANCH  11  12
ATOM     12  C   UNL A   1      32.740  19.151  23.500  1.00  0.00     0.155 A 
ATOM     13  C   UNL A   1      33.286  19.131  24.769  1.00  0.00     0.056 A 
ATOM     14  C   UNL A   1      32.899  18.064  22.644  1.00  0.00     0.171 A 
ATOM     15  C   UNL A   1      33.765  17.919  25.249  1.00  0.00     0.089 A 
ATOM     16  C   UNL A   1      33.345  16.850  23.130  1.00  0.00     0.128 A 
ATOM     17  F   UNL A   1      32.412  18.110  21.399  1.00  0.00    -0.203 F 
ATOM     18  C   UNL A   1      33.688  16.755  24.471  1.00  0.00     0.272 A 
BRANCH  18  19
ATOM     19  N   UNL A   1      33.824  15.394  25.017  1.00  0.00     0.062 N 
ATOM     20  O   UNL A   1      34.976  14.983  25.218  1.00  0.00    -0.258 OA
ATOM     21  O   UNL A   1      32.825  14.724  25.292  1.00  0.00    -0.258 OA
ENDBRANCH  18  19
ENDBRANCH  11  12
ENDBRANCH  10  11
ENDBRANCH   9  10
ENDBRANCH   8   9
ENDBRANCH   6   8
ENDBRANCH   5   6
ENDBRANCH   4   5
ENDBRANCH   3   4
ENDBRANCH   2   3
ENDBRANCH   1   2
BRANCH   1  22
ATOM     22  C   UNL A   1      39.293  21.101  26.028  1.00  0.00     0.188 C 
BRANCH  22  23
ATOM     23  O   UNL A   1      40.274  20.918  27.067  1.00  0.00    -0.376 OA
BRANCH  23  24
ATOM     24  C   UNL A   1      41.432  20.136  26.718  1.00  0.00     0.202 C 
BRANCH  24  25
ATOM     25  C   UNL A   1      42.589  20.898  25.945  1.00  0.00     0.261 C 
BRANCH  25  26
ATOM     26  O   UNL A   1      42.234  22.112  25.195  1.00  0.00    -0.460 OA
BRANCH  26  27
ATOM     27  C   UNL A   1      43.028  23.223  25.222  1.00  0.00     0.338 C 
ATOM     28  O   UNL A   1      44.046  23.380  24.573  1.00  0.00    -0.246 OA
BRANCH  27  29
ATOM     29  C   UNL A   1      42.478  24.300  26.136  1.00  0.00     0.060 A 
ATOM     30  C   UNL A   1      42.761  25.650  25.879  1.00  0.00     0.016 A 
ATOM     31  C   UNL A   1      41.800  24.004  27.327  1.00  0.00     0.016 A 
ATOM     32  C   UNL A   1      42.312  26.687  26.731  1.00  0.00     0.010 A 
ATOM     33  C   UNL A   1      41.414  25.041  28.225  1.00  0.00     0.010 A 
ATOM     34  C   UNL A   1      41.670  26.398  27.944  1.00  0.00    -0.014 A 
BRANCH  34  35
ATOM     35  C   UNL A   1      41.560  27.464  29.010  1.00  0.00     0.031 A 
ATOM     36  C   UNL A   1      42.609  27.463  30.105  1.00  0.00     0.074 A 
ATOM     37  C   UNL A   1      40.634  28.449  29.027  1.00  0.00     0.049 A 
ATOM     38  N   UNL A   1      42.683  28.172  31.204  1.00  0.00    -0.248 NA
ATOM     39  C   UNL A   1      43.739  26.537  29.918  1.00  0.00     0.031 C 
ATOM     40  C   UNL A   1      39.633  28.697  27.994  1.00  0.00     0.029 A 
ATOM     41  N   UNL A   1      40.388  29.442  29.961  1.00  0.00    -0.354 N 
ATOM     42  C   UNL A   1      43.852  27.766  31.843  1.00  0.00     0.074 A 
ATOM     43  C   UNL A   1      44.460  26.756  31.006  1.00  0.00     0.031 C 
ATOM     44  C   UNL A   1      38.878  29.756  28.353  1.00  0.00     0.029 A 
ATOM     45  C   UNL A   1      39.299  30.238  29.671  1.00  0.00     0.049 A 
ATOM     46  H   UNL A   1      40.944  29.568  30.765  1.00  0.00     0.167 HD
ATOM     47  C   UNL A   1      44.373  28.177  33.024  1.00  0.00     0.037 A 
ATOM     48  C   UNL A   1      38.687  31.213  30.388  1.00  0.00     0.037 A 
ATOM     49  C   UNL A   1      43.776  29.172  33.875  1.00  0.00     0.049 A 
ATOM     50  C   UNL A   1      39.210  31.578  31.762  1.00  0.00     0.074 A 
ATOM     51  C   UNL A   1      44.204  29.610  35.116  1.00  0.00     0.029 A 
ATOM     52  N   UNL A   1      42.628  29.887  33.573  1.00  0.00    -0.354 N 
ATOM     53  N   UNL A   1      40.266  31.120  32.391  1.00  0.00    -0.248 NA
ATOM     54  C   UNL A   1      38.447  32.575  32.536  1.00  0.00     0.031 C 
ATOM     55  C   UNL A   1      43.289  30.559  35.586  1.00  0.00     0.029 A 
ATOM     56  C   UNL A   1      42.322  30.749  34.613  1.00  0.00     0.049 A 
ATOM     57  H   UNL A   1      42.107  29.795  32.743  1.00  0.00     0.167 HD
ATOM     58  C   UNL A   1      40.303  31.781  33.618  1.00  0.00     0.074 A 
ATOM     59  C   UNL A   1      39.171  32.681  33.644  1.00  0.00     0.031 C 
ATOM     60  C   UNL A   1      41.196  31.651  34.631  1.00  0.00     0.037 A 
BRANCH  47  61
ATOM     61  C   UNL A   1      45.633  27.504  33.501  1.00  0.00     0.058 A 
ATOM     62  C   UNL A   1      46.888  28.052  33.192  1.00  0.00     0.135 A 
ATOM     63  C   UNL A   1      45.604  26.308  34.235  1.00  0.00     0.135 A 
ATOM     64  F   UNL A   1      46.974  29.199  32.501  1.00  0.00    -0.206 F 
ATOM     65  C   UNL A   1      48.071  27.432  33.583  1.00  0.00     0.059 A 
ATOM     66  C   UNL A   1      46.775  25.684  34.659  1.00  0.00     0.059 A 
ATOM     67  F   UNL A   1      44.430  25.756  34.582  1.00  0.00    -0.206 F 
ATOM     68  C   UNL A   1      48.004  26.248  34.317  1.00  0.00     0.060 A 
BRANCH  68  69
ATOM     69  S   UNL A   1      49.550  25.482  34.854  1.00  0.00     0.124 S 
ATOM     70  O   UNL A   1      50.390  25.642  33.672  1.00  0.00    -0.237 OA
ATOM     71  O   UNL A   1      49.913  26.299  36.008  1.00  0.00    -0.237 OA
ATOM     72  O   UNL A   1      49.157  24.111  35.166  1.00  0.00    -0.744 OA
ENDBRANCH  68  69
ENDBRANCH  47  61
BRANCH  48  73
ATOM     73  C   UNL A   1      37.463  31.891  29.854  1.00  0.00     0.058 A 
ATOM     74  C   UNL A   1      37.541  33.157  29.249  1.00  0.00     0.135 A 
ATOM     75  C   UNL A   1      36.195  31.291  29.921  1.00  0.00     0.135 A 
ATOM     76  F   UNL A   1      38.728  33.771  29.125  1.00  0.00    -0.206 F 
ATOM     77  C   UNL A   1      36.409  33.822  28.783  1.00  0.00     0.059 A 
ATOM     78  C   UNL A   1      35.049  31.925  29.436  1.00  0.00     0.059 A 
ATOM     79  F   UNL A   1      36.064  30.061  30.441  1.00  0.00    -0.206 F 
ATOM     80  C   UNL A   1      35.163  33.205  28.892  1.00  0.00     0.060 A 
BRANCH  80  81
ATOM     81  S   UNL A   1      33.703  34.108  28.327  1.00  0.00     0.124 S 
ATOM     82  O   UNL A   1      32.968  33.063  27.622  1.00  0.00    -0.237 OA
ATOM     83  O   UNL A   1      33.115  34.561  29.583  1.00  0.00    -0.237 OA
ATOM     84  O   UNL A   1      34.260  35.161  27.483  1.00  0.00    -0.744 OA
ENDBRANCH  80  81
ENDBRANCH  48  73
BRANCH  60  85
ATOM     85  C   UNL A   1      41.021  32.507  35.858  1.00  0.00     0.058 A 
ATOM     86  C   UNL A   1      39.998  32.226  36.780  1.00  0.00     0.135 A 
ATOM     87  C   UNL A   1      41.786  33.665  36.064  1.00  0.00     0.135 A 
ATOM     88  F   UNL A   1      39.229  31.137  36.626  1.00  0.00    -0.206 F 
ATOM     89  C   UNL A   1      39.728  33.074  37.850  1.00  0.00     0.059 A 
ATOM     90  C   UNL A   1      41.548  34.516  37.142  1.00  0.00     0.059 A 
ATOM     91  F   UNL A   1      42.778  33.978  35.216  1.00  0.00    -0.206 F 
ATOM     92  C   UNL A   1      40.504  34.222  38.020  1.00  0.00     0.060 A 
BRANCH  92  93
ATOM     93  S   UNL A   1      40.137  35.311  39.412  1.00  0.00     0.124 S 
ATOM     94  O   UNL A   1      39.084  36.159  38.861  1.00  0.00    -0.237 OA
ATOM     95  O   UNL A   1      39.716  34.367  40.442  1.00  0.00    -0.237 OA
ATOM     96  O   UNL A   1      41.411  35.979  39.666  1.00  0.00    -0.744 OA
ENDBRANCH  92  93
ENDBRANCH  60  85
ENDBRANCH  34  35
ENDBRANCH  27  29
ENDBRANCH  26  27
ENDBRANCH  25  26
ENDBRANCH  24  25
ENDBRANCH  23  24
ENDBRANCH  22  23
ENDBRANCH   1  22
TORSDOF 25
ENDMDL
MODEL 3
REMARK VINA RESULT:      -9.0      2.938      4.598
REMARK SMILES O=C(CCCOc1ccc([N+](=O)[O-])cc1F)OCCOCCOCCOC(=O)c1ccc(-c2c3nc(c(-c4c(F)cc(S(=O)(=O)[O-])cc4F)c4ccc([nH]4)c(-c4c(F)cc(S(=O)(=O)[O-])cc4F)c4nc(c(-c5c(F)cc(S(=O)(=O)[O-])cc5F)c5ccc2[nH]5)C=C4)C=C3)cc1
REMARK SMILES IDX 21 1 20 2 19 3 18 4 17 5 2 6 1 7 3 8 4 9 5 10 6 11 7 12 8 13
REMARK SMILES IDX 15 14 9 15 14 16 16 17 10 18 11 19 12 20 13 21 22 22 23 23
REMARK SMILES IDX 24 24 25 25 26 26 27 27 28 28 29 29 30 30 94 31 31 32 93 33
REMARK SMILES IDX 32 34 33 35 34 36 87 37 35 38 92 39 86 40 88 41 36 42 91 43
REMARK SMILES IDX 85 44 84 45 37 47 71 48 50 49 70 50 51 51 54 52 69 53 89 54
REMARK SMILES IDX 52 55 53 56 68 58 90 59 55 60 38 61 39 62 48 63 40 64 41 65
REMARK SMILES IDX 47 66 49 67 42 68 43 69 44 70 45 71 46 72 72 73 73 74 82 75
REMARK SMILES IDX 74 76 75 77 81 78 83 79 76 80 77 81 78 82 79 83 80 84 56 85
REMARK SMILES IDX 57 86 66 87 58 88 59 89 65 90 67 91 60 92 61 93 62 94 63 95
REMARK SMILES IDX 64 96
REMARK H PARENT 88 46 54 57
REMARK Flexibility Score: inf
ROOT
ATOM      1  C   UNL A   1      38.774  20.136  25.360  1.00  0.00     0.188 C 
ENDROOT
BRANCH   1   2
ATOM      2  O   UNL A   1      37.513  20.650  24.941  1.00  0.00    -0.376 OA
BRANCH   2   3
ATOM      3  C   UNL A   1      37.192  21.949  25.428  1.00  0.00     0.202 C 
BRANCH   3   4
ATOM      4  C   UNL A   1      35.963  22.535  24.720  1.00  0.00     0.261 C 
BRANCH   4   5
ATOM      5  O   UNL A   1      35.927  23.954  24.954  1.00  0.00    -0.463 OA
BRANCH   5   6
ATOM      6  C   UNL A   1      34.719  24.445  25.344  1.00  0.00     0.305 C 
ATOM      7  O   UNL A   1      34.159  24.161  26.381  1.00  0.00    -0.252 OA
BRANCH   6   8
ATOM      8  C   UNL A   1      34.070  25.288  24.265  1.00  0.00     0.126 C 
BRANCH   8   9
ATOM      9  C   UNL A   1      32.561  25.567  24.342  1.00  0.00     0.053 C 
BRANCH   9  10
ATOM     10  C   UNL A   1      32.066  26.941  23.852  1.00  0.00     0.230 C 
BRANCH  10  11
ATOM     11  O   UNL A   1      30.785  27.322  24.408  1.00  0.00    -0.490 OA
BRANCH  11  12
ATOM     12  C   UNL A   1      30.333  28.443  23.770  1.00  0.00     0.155 A 
ATOM     13  C   UNL A   1      29.449  28.319  22.715  1.00  0.00     0.056 A 
ATOM     14  C   UNL A   1      30.632  29.696  24.299  1.00  0.00     0.171 A 
ATOM     15  C   UNL A   1      28.685  29.429  22.377  1.00  0.00     0.089 A 
ATOM     16  C   UNL A   1      29.851  30.793  23.986  1.00  0.00     0.128 A 
ATOM     17  F   UNL A   1      31.527  29.815  25.286  1.00  0.00    -0.203 F 
ATOM     18  C   UNL A   1      28.805  30.631  23.088  1.00  0.00     0.272 A 
BRANCH  18  19
ATOM     19  N   UNL A   1      27.806  31.712  23.046  1.00  0.00     0.062 N 
ATOM     20  O   UNL A   1      26.868  31.639  23.852  1.00  0.00    -0.258 OA
ATOM     21  O   UNL A   1      27.935  32.658  22.264  1.00  0.00    -0.258 OA
ENDBRANCH  18  19
ENDBRANCH  11  12
ENDBRANCH  10  11
ENDBRANCH   9  10
ENDBRANCH   8   9
ENDBRANCH   6   8
ENDBRANCH   5   6
ENDBRANCH   4   5
ENDBRANCH   3   4
ENDBRANCH   2   3
ENDBRANCH   1   2
BRANCH   1  22
ATOM     22  C   UNL A   1      39.732  21.208  25.961  1.00  0.00     0.188 C 
BRANCH  22  23
ATOM     23  O   UNL A   1      40.769  20.657  26.795  1.00  0.00    -0.376 OA
BRANCH  23  24
ATOM     24  C   UNL A   1      42.118  21.050  26.475  1.00  0.00     0.202 C 
BRANCH  24  25
ATOM     25  C   UNL A   1      42.300  22.498  25.851  1.00  0.00     0.261 C 
BRANCH  25  26
ATOM     26  O   UNL A   1      41.965  23.658  26.691  1.00  0.00    -0.460 OA
BRANCH  26  27
ATOM     27  C   UNL A   1      42.405  24.913  26.381  1.00  0.00     0.338 C 
ATOM     28  O   UNL A   1      43.047  25.211  25.390  1.00  0.00    -0.246 OA
BRANCH  27  29
ATOM     29  C   UNL A   1      41.966  25.944  27.401  1.00  0.00     0.060 A 
ATOM     30  C   UNL A   1      42.788  27.045  27.684  1.00  0.00     0.016 A 
ATOM     31  C   UNL A   1      40.821  25.780  28.192  1.00  0.00     0.016 A 
ATOM     32  C   UNL A   1      42.445  28.007  28.664  1.00  0.00     0.010 A 
ATOM     33  C   UNL A   1      40.512  26.706  29.231  1.00  0.00     0.010 A 
ATOM     34  C   UNL A   1      41.323  27.831  29.487  1.00  0.00    -0.014 A 
BRANCH  34  35
ATOM     35  C   UNL A   1      41.195  28.627  30.764  1.00  0.00     0.031 A 
ATOM     36  C   UNL A   1      40.103  29.678  30.822  1.00  0.00     0.074 A 
ATOM     37  C   UNL A   1      41.941  28.434  31.876  1.00  0.00     0.049 A 
ATOM     38  N   UNL A   1      39.852  30.585  31.733  1.00  0.00    -0.248 NA
ATOM     39  C   UNL A   1      39.156  29.691  29.695  1.00  0.00     0.031 C 
ATOM     40  C   UNL A   1      42.941  27.387  32.061  1.00  0.00     0.029 A 
ATOM     41  N   UNL A   1      41.965  29.121  33.078  1.00  0.00    -0.354 N 
ATOM     42  C   UNL A   1      38.734  31.283  31.280  1.00  0.00     0.074 A 
ATOM     43  C   UNL A   1      38.350  30.689  30.019  1.00  0.00     0.031 C 
ATOM     44  C   UNL A   1      43.486  27.506  33.288  1.00  0.00     0.029 A 
ATOM     45  C   UNL A   1      42.920  28.673  33.969  1.00  0.00     0.049 A 
ATOM     46  H   UNL A   1      41.354  29.867  33.280  1.00  0.00     0.167 HD
ATOM     47  C   UNL A   1      38.088  32.331  31.845  1.00  0.00     0.037 A 
ATOM     48  C   UNL A   1      43.320  29.159  35.170  1.00  0.00     0.037 A 
ATOM     49  C   UNL A   1      38.463  32.942  33.092  1.00  0.00     0.049 A 
ATOM     50  C   UNL A   1      42.669  30.406  35.733  1.00  0.00     0.074 A 
ATOM     51  C   UNL A   1      37.901  34.045  33.712  1.00  0.00     0.029 A 
ATOM     52  N   UNL A   1      39.490  32.503  33.913  1.00  0.00    -0.354 N 
ATOM     53  N   UNL A   1      41.672  31.106  35.248  1.00  0.00    -0.248 NA
ATOM     54  C   UNL A   1      43.211  30.943  36.995  1.00  0.00     0.031 C 
ATOM     55  C   UNL A   1      38.617  34.299  34.887  1.00  0.00     0.029 A 
ATOM     56  C   UNL A   1      39.590  33.323  35.024  1.00  0.00     0.049 A 
ATOM     57  H   UNL A   1      40.063  31.724  33.732  1.00  0.00     0.167 HD
ATOM     58  C   UNL A   1      41.459  32.150  36.148  1.00  0.00     0.074 A 
ATOM     59  C   UNL A   1      42.421  31.988  37.215  1.00  0.00     0.031 C 
ATOM     60  C   UNL A   1      40.546  33.153  36.090  1.00  0.00     0.037 A 
BRANCH  47  61
ATOM     61  C   UNL A   1      36.936  32.931  31.083  1.00  0.00     0.058 A 
ATOM     62  C   UNL A   1      37.175  33.751  29.969  1.00  0.00     0.135 A 
ATOM     63  C   UNL A   1      35.602  32.722  31.467  1.00  0.00     0.135 A 
ATOM     64  F   UNL A   1      38.431  33.978  29.553  1.00  0.00    -0.206 F 
ATOM     65  C   UNL A   1      36.134  34.353  29.270  1.00  0.00     0.059 A 
ATOM     66  C   UNL A   1      34.543  33.293  30.765  1.00  0.00     0.059 A 
ATOM     67  F   UNL A   1      35.315  31.923  32.507  1.00  0.00    -0.206 F 
ATOM     68  C   UNL A   1      34.820  34.118  29.675  1.00  0.00     0.060 A 
BRANCH  68  69
ATOM     69  S   UNL A   1      33.480  34.873  28.727  1.00  0.00     0.124 S 
ATOM     70  O   UNL A   1      34.136  36.048  28.166  1.00  0.00    -0.237 OA
ATOM     71  O   UNL A   1      33.144  33.817  27.777  1.00  0.00    -0.237 OA
ATOM     72  O   UNL A   1      32.461  35.142  29.738  1.00  0.00    -0.744 OA
ENDBRANCH  68  69
ENDBRANCH  47  61
BRANCH  48  73
ATOM     73  C   UNL A   1      44.440  28.503  35.918  1.00  0.00     0.058 A 
ATOM     74  C   UNL A   1      45.774  28.898  35.722  1.00  0.00     0.135 A 
ATOM     75  C   UNL A   1      44.207  27.481  36.853  1.00  0.00     0.135 A 
ATOM     76  F   UNL A   1      46.060  29.891  34.865  1.00  0.00    -0.206 F 
ATOM     77  C   UNL A   1      46.832  28.273  36.377  1.00  0.00     0.059 A 
ATOM     78  C   UNL A   1      45.248  26.857  37.544  1.00  0.00     0.059 A 
ATOM     79  F   UNL A   1      42.950  27.095  37.122  1.00  0.00    -0.206 F 
ATOM     80  C   UNL A   1      46.562  27.244  37.278  1.00  0.00     0.060 A 
BRANCH  80  81
ATOM     81  S   UNL A   1      47.954  26.415  38.079  1.00  0.00     0.124 S 
ATOM     82  O   UNL A   1      47.737  25.028  37.681  1.00  0.00    -0.237 OA
ATOM     83  O   UNL A   1      49.101  27.078  37.468  1.00  0.00    -0.237 OA
ATOM     84  O   UNL A   1      47.750  26.699  39.496  1.00  0.00    -0.744 OA
ENDBRANCH  80  81
ENDBRANCH  48  73
BRANCH  60  85
ATOM     85  C   UNL A   1      40.509  34.155  37.214  1.00  0.00     0.058 A 
ATOM     86  C   UNL A   1      39.645  33.966  38.306  1.00  0.00     0.135 A 
ATOM     87  C   UNL A   1      41.239  35.352  37.158  1.00  0.00     0.135 A 
ATOM     88  F   UNL A   1      38.915  32.844  38.405  1.00  0.00    -0.206 F 
ATOM     89  C   UNL A   1      39.492  34.937  39.291  1.00  0.00     0.059 A 
ATOM     90  C   UNL A   1      41.118  36.328  38.146  1.00  0.00     0.059 A 
ATOM     91  F   UNL A   1      42.081  35.582  36.139  1.00  0.00    -0.206 F 
ATOM     92  C   UNL A   1      40.227  36.119  39.200  1.00  0.00     0.060 A 
BRANCH  92  93
ATOM     93  S   UNL A   1      40.013  37.369  40.485  1.00  0.00     0.124 S 
ATOM     94  O   UNL A   1      40.834  38.465  39.979  1.00  0.00    -0.237 OA
ATOM     95  O   UNL A   1      38.571  37.595  40.461  1.00  0.00    -0.237 OA
ATOM     96  O   UNL A   1      40.518  36.711  41.687  1.00  0.00    -0.744 OA
ENDBRANCH  92  93
ENDBRANCH  60  85
ENDBRANCH  34  35
ENDBRANCH  27  29
ENDBRANCH  26  27
ENDBRANCH  25  26
ENDBRANCH  24  25
ENDBRANCH  23  24
ENDBRANCH  22  23
ENDBRANCH   1  22
TORSDOF 25
ENDMDL
