MODEL 1
REMARK VINA RESULT:     -11.2      0.000      0.000
REMARK SMILES CCC[NH2+][C@@H]1COC[C@@H]1C(=O)N[C@@](C)(CC)C(=O)OCCOCCOCCOC(=O)c1ccc(-c2c3nc(c(-c4c(F)cc(S(=O)(=O)[O-])cc4F)c4ccc([nH]4)c(-c4c(F)cc(S(=O)(=O)[O-])cc4F)c4nc(c(-c5c(F)cc(S(=O)(=O)[O-])cc5F)c5ccc2[nH]5)C=C4)C=C3)cc1
REMARK SMILES IDX 23 1 22 2 21 3 20 4 19 5 17 6 18 7 13 8 14 9 12 10 10 11
REMARK SMILES IDX 11 12 9 14 5 15 6 16 7 17 8 18 4 19 3 22 2 23 1 24 15 25
REMARK SMILES IDX 16 26 24 27 25 28 26 29 27 30 28 31 29 32 30 33 31 34 32 35
REMARK SMILES IDX 96 36 33 37 95 38 34 39 35 40 36 41 89 42 37 43 94 44 88 45
REMARK SMILES IDX 90 46 38 47 93 48 87 49 86 50 39 52 73 53 52 54 72 55 53 56
REMARK SMILES IDX 56 57 71 58 91 59 54 60 55 61 70 63 92 64 57 65 40 66 41 67
REMARK SMILES IDX 50 68 42 69 43 70 49 71 51 72 44 73 45 74 46 75 47 76 48 77
REMARK SMILES IDX 74 78 75 79 84 80 76 81 77 82 83 83 85 84 78 85 79 86 80 87
REMARK SMILES IDX 81 88 82 89 58 90 59 91 68 92 60 93 61 94 67 95 69 96 62 97
REMARK SMILES IDX 63 98 64 99 65 100 66 101
REMARK H PARENT 12 13 4 20 4 21 90 51 56 62
REMARK Flexibility Score: inf
ROOT
ATOM      1  C   UNL A   1      40.409  20.016  26.532  1.00  0.00     0.188 C 
ENDROOT
BRANCH   1   2
ATOM      2  O   UNL A   1      38.888  20.587  25.286  1.00  0.00    -0.376 OA
BRANCH   2   3
ATOM      3  C   UNL A   1      37.862  22.026  25.699  1.00  0.00     0.202 C 
BRANCH   3   4
ATOM      4  C   UNL A   1      36.680  22.581  24.448  1.00  0.00     0.261 C 
BRANCH   4   5
ATOM      5  O   UNL A   1      35.741  23.810  24.705  1.00  0.00    -0.462 OA
BRANCH   5   6
ATOM      6  C   UNL A   1      34.567  23.706  25.446  1.00  0.00     0.331 C 
ATOM      7  O   UNL A   1      34.615  23.427  26.644  1.00  0.00    -0.249 OA
BRANCH   6   8
ATOM      8  C   UNL A   1      33.128  24.409  24.703  1.00  0.00     0.135 C 
ATOM      9  C   UNL A   1      32.605  23.121  23.949  1.00  0.00     0.047 C 
BRANCH   8  10
ATOM     10  N   UNL A   1      31.641  24.804  25.434  1.00  0.00    -0.340 N 
ATOM     11  C   UNL A   1      30.765  25.856  25.829  1.00  0.00     0.232 C 
ATOM     12  O   UNL A   1      29.681  25.475  26.288  1.00  0.00    -0.274 OA
ATOM     13  H   UNL A   1      31.209  23.957  25.688  1.00  0.00     0.164 HD
BRANCH  11  14
ATOM     14  C   UNL A   1      31.050  27.483  25.739  1.00  0.00     0.164 C 
ATOM     15  C   UNL A   1      31.630  28.506  24.162  1.00  0.00     0.223 C 
ATOM     16  C   UNL A   1      33.596  28.743  24.260  1.00  0.00     0.225 C 
ATOM     17  O   UNL A   1      34.096  27.851  25.922  1.00  0.00    -0.374 OA
ATOM     18  C   UNL A   1      32.423  27.496  26.929  1.00  0.00     0.180 C 
BRANCH  15  19
ATOM     19  N   UNL A   1      31.087  28.151  22.831  1.00  0.00    -0.341 N 
ATOM     20  H   UNL A   1      31.860  28.051  22.175  1.00  0.00     0.346 HD
ATOM     21  H   UNL A   1      30.570  27.276  22.921  1.00  0.00     0.346 HD
BRANCH  19  22
ATOM     22  C   UNL A   1      30.164  29.184  22.332  1.00  0.00     0.260 C 
BRANCH  22  23
ATOM     23  C   UNL A   1      29.255  29.852  23.382  1.00  0.00     0.058 C 
ATOM     24  C   UNL A   1      28.855  31.288  23.112  1.00  0.00     0.010 C 
ENDBRANCH  22  23
ENDBRANCH  19  22
ENDBRANCH  15  19
ENDBRANCH  11  14
ENDBRANCH   8  10
BRANCH   8  25
ATOM     25  C   UNL A   1      33.526  25.324  23.472  1.00  0.00     0.037 C 
ATOM     26  C   UNL A   1      32.961  25.146  22.075  1.00  0.00     0.007 C 
ENDBRANCH   8  25
ENDBRANCH   6   8
ENDBRANCH   5   6
ENDBRANCH   4   5
ENDBRANCH   3   4
ENDBRANCH   2   3
ENDBRANCH   1   2
BRANCH   1  27
ATOM     27  C   UNL A   1      41.997  20.316  26.466  1.00  0.00     0.188 C 
BRANCH  27  28
ATOM     28  O   UNL A   1      42.797  20.619  25.341  1.00  0.00    -0.376 OA
BRANCH  28  29
ATOM     29  C   UNL A   1      43.746  21.653  25.554  1.00  0.00     0.202 C 
BRANCH  29  30
ATOM     30  C   UNL A   1      43.375  23.127  25.189  1.00  0.00     0.261 C 
BRANCH  30  31
ATOM     31  O   UNL A   1      43.026  24.075  26.244  1.00  0.00    -0.460 OA
BRANCH  31  32
ATOM     32  C   UNL A   1      41.695  24.267  26.535  1.00  0.00     0.338 C 
ATOM     33  O   UNL A   1      40.802  23.481  26.267  1.00  0.00    -0.246 OA
BRANCH  32  34
ATOM     34  C   UNL A   1      41.533  25.420  27.514  1.00  0.00     0.060 A 
ATOM     35  C   UNL A   1      40.337  25.571  28.255  1.00  0.00     0.016 A 
ATOM     36  C   UNL A   1      42.567  26.296  27.790  1.00  0.00     0.016 A 
ATOM     37  C   UNL A   1      40.198  26.509  29.313  1.00  0.00     0.010 A 
ATOM     38  C   UNL A   1      42.385  27.293  28.775  1.00  0.00     0.010 A 
ATOM     39  C   UNL A   1      41.221  27.411  29.590  1.00  0.00    -0.014 A 
BRANCH  39  40
ATOM     40  C   UNL A   1      41.093  28.591  30.550  1.00  0.00     0.031 A 
ATOM     41  C   UNL A   1      41.847  28.478  31.858  1.00  0.00     0.074 A 
ATOM     42  C   UNL A   1      40.313  29.695  30.403  1.00  0.00     0.049 A 
ATOM     43  N   UNL A   1      41.715  29.148  32.975  1.00  0.00    -0.248 NA
ATOM     44  C   UNL A   1      42.873  27.424  31.910  1.00  0.00     0.031 C 
ATOM     45  C   UNL A   1      39.563  30.079  29.212  1.00  0.00     0.029 A 
ATOM     46  N   UNL A   1      39.950  30.674  31.324  1.00  0.00    -0.354 N 
ATOM     47  C   UNL A   1      42.628  28.581  33.856  1.00  0.00     0.074 A 
ATOM     48  C   UNL A   1      43.193  27.428  33.191  1.00  0.00     0.031 C 
ATOM     49  C   UNL A   1      38.739  31.107  29.504  1.00  0.00     0.029 A 
ATOM     50  C   UNL A   1      38.901  31.480  30.909  1.00  0.00     0.049 A 
ATOM     51  H   UNL A   1      40.399  30.784  32.193  1.00  0.00     0.167 HD
ATOM     52  C   UNL A   1      43.033  29.009  35.076  1.00  0.00     0.037 A 
ATOM     53  C   UNL A   1      38.135  32.381  31.574  1.00  0.00     0.037 A 
ATOM     54  C   UNL A   1      42.528  30.178  35.739  1.00  0.00     0.049 A 
ATOM     55  C   UNL A   1      38.480  32.766  32.999  1.00  0.00     0.074 A 
ATOM     56  C   UNL A   1      42.953  30.735  36.933  1.00  0.00     0.029 A 
ATOM     57  N   UNL A   1      41.486  30.964  35.279  1.00  0.00    -0.354 N 
ATOM     58  N   UNL A   1      39.412  32.278  33.781  1.00  0.00    -0.248 NA
ATOM     59  C   UNL A   1      37.709  33.863  33.614  1.00  0.00     0.031 C 
ATOM     60  C   UNL A   1      42.119  31.816  37.232  1.00  0.00     0.029 A 
ATOM     61  C   UNL A   1      41.225  31.978  36.186  1.00  0.00     0.049 A 
ATOM     62  H   UNL A   1      41.003  30.824  34.433  1.00  0.00     0.167 HD
ATOM     63  C   UNL A   1      39.387  33.054  34.940  1.00  0.00     0.074 A 
ATOM     64  C   UNL A   1      38.333  34.028  34.774  1.00  0.00     0.031 C 
ATOM     65  C   UNL A   1      40.193  32.973  36.028  1.00  0.00     0.037 A 
BRANCH  52  66
ATOM     66  C   UNL A   1      44.114  28.208  35.750  1.00  0.00     0.058 A 
ATOM     67  C   UNL A   1      45.476  28.450  35.495  1.00  0.00     0.135 A 
ATOM     68  C   UNL A   1      43.789  27.182  36.650  1.00  0.00     0.135 A 
ATOM     69  F   UNL A   1      45.844  29.413  34.633  1.00  0.00    -0.206 F 
ATOM     70  C   UNL A   1      46.471  27.661  36.053  1.00  0.00     0.059 A 
ATOM     71  C   UNL A   1      44.773  26.411  37.260  1.00  0.00     0.059 A 
ATOM     72  F   UNL A   1      42.506  26.913  36.938  1.00  0.00    -0.206 F 
ATOM     73  C   UNL A   1      46.109  26.642  36.934  1.00  0.00     0.060 A 
BRANCH  73  74
ATOM     74  S   UNL A   1      47.418  25.620  37.639  1.00  0.00     0.124 S 
ATOM     75  O   UNL A   1      46.882  25.337  38.967  1.00  0.00    -0.237 OA
ATOM     76  O   UNL A   1      47.456  24.490  36.717  1.00  0.00    -0.237 OA
ATOM     77  O   UNL A   1      48.586  26.494  37.607  1.00  0.00    -0.744 OA
ENDBRANCH  73  74
ENDBRANCH  52  66
BRANCH  53  78
ATOM     78  C   UNL A   1      36.946  33.020  30.920  1.00  0.00     0.058 A 
ATOM     79  C   UNL A   1      35.638  32.578  31.179  1.00  0.00     0.135 A 
ATOM     80  C   UNL A   1      37.098  34.039  29.963  1.00  0.00     0.135 A 
ATOM     81  F   UNL A   1      35.433  31.573  32.042  1.00  0.00    -0.206 F 
ATOM     82  C   UNL A   1      34.531  33.117  30.523  1.00  0.00     0.059 A 
ATOM     83  C   UNL A   1      36.003  34.610  29.307  1.00  0.00     0.059 A 
ATOM     84  F   UNL A   1      38.323  34.487  29.648  1.00  0.00    -0.206 F 
ATOM     85  C   UNL A   1      34.721  34.143  29.596  1.00  0.00     0.060 A 
BRANCH  85  86
ATOM     86  S   UNL A   1      33.266  34.883  28.813  1.00  0.00     0.124 S 
ATOM     87  O   UNL A   1      33.831  36.070  28.185  1.00  0.00    -0.237 OA
ATOM     88  O   UNL A   1      32.842  33.821  27.904  1.00  0.00    -0.237 OA
ATOM     89  O   UNL A   1      32.366  35.131  29.936  1.00  0.00    -0.744 OA
ENDBRANCH  85  86
ENDBRANCH  53  78
BRANCH  65  90
ATOM     90  C   UNL A   1      40.045  34.000  37.123  1.00  0.00     0.058 A 
ATOM     91  C   UNL A   1      39.282  33.762  38.276  1.00  0.00     0.135 A 
ATOM     92  C   UNL A   1      40.774  35.202  37.063  1.00  0.00     0.135 A 
ATOM     93  F   UNL A   1      38.559  32.636  38.387  1.00  0.00    -0.206 F 
ATOM     94  C   UNL A   1      39.247  34.674  39.327  1.00  0.00     0.059 A 
ATOM     95  C   UNL A   1      40.780  36.113  38.115  1.00  0.00     0.059 A 
ATOM     96  F   UNL A   1      41.528  35.483  35.987  1.00  0.00    -0.206 F 
ATOM     97  C   UNL A   1      40.011  35.841  39.244  1.00  0.00     0.060 A 
BRANCH  97  98
ATOM     98  S   UNL A   1      40.015  36.976  40.650  1.00  0.00     0.124 S 
ATOM     99  O   UNL A   1      38.642  36.863  41.127  1.00  0.00    -0.237 OA
ATOM    100  O   UNL A   1      41.038  36.393  41.513  1.00  0.00    -0.237 OA
ATOM    101  O   UNL A   1      40.366  38.261  40.052  1.00  0.00    -0.744 OA
ENDBRANCH  97  98
ENDBRANCH  65  90
ENDBRANCH  39  40
ENDBRANCH  32  34
ENDBRANCH  31  32
ENDBRANCH  30  31
ENDBRANCH  29  30
ENDBRANCH  28  29
ENDBRANCH  27  28
ENDBRANCH   1  27
TORSDOF 26
ENDMDL
MODEL 2
REMARK VINA RESULT:     -10.7      1.421      8.211
REMARK SMILES CCC[NH2+][C@@H]1COC[C@@H]1C(=O)N[C@@](C)(CC)C(=O)OCCOCCOCCOC(=O)c1ccc(-c2c3nc(c(-c4c(F)cc(S(=O)(=O)[O-])cc4F)c4ccc([nH]4)c(-c4c(F)cc(S(=O)(=O)[O-])cc4F)c4nc(c(-c5c(F)cc(S(=O)(=O)[O-])cc5F)c5ccc2[nH]5)C=C4)C=C3)cc1
REMARK SMILES IDX 23 1 22 2 21 3 20 4 19 5 17 6 18 7 13 8 14 9 12 10 10 11
REMARK SMILES IDX 11 12 9 14 5 15 6 16 7 17 8 18 4 19 3 22 2 23 1 24 15 25
REMARK SMILES IDX 16 26 24 27 25 28 26 29 27 30 28 31 29 32 30 33 31 34 32 35
REMARK SMILES IDX 96 36 33 37 95 38 34 39 35 40 36 41 89 42 37 43 94 44 88 45
REMARK SMILES IDX 90 46 38 47 93 48 87 49 86 50 39 52 73 53 52 54 72 55 53 56
REMARK SMILES IDX 56 57 71 58 91 59 54 60 55 61 70 63 92 64 57 65 40 66 41 67
REMARK SMILES IDX 50 68 42 69 43 70 49 71 51 72 44 73 45 74 46 75 47 76 48 77
REMARK SMILES IDX 74 78 75 79 84 80 76 81 77 82 83 83 85 84 78 85 79 86 80 87
REMARK SMILES IDX 81 88 82 89 58 90 59 91 68 92 60 93 61 94 67 95 69 96 62 97
REMARK SMILES IDX 63 98 64 99 65 100 66 101
REMARK H PARENT 12 13 4 20 4 21 90 51 56 62
REMARK Flexibility Score: inf
ROOT
ATOM      1  C   UNL A   1      39.075  20.214  25.801  1.00  0.00     0.188 C 
ENDROOT
BRANCH   1   2
ATOM      2  O   UNL A   1      37.432  20.069  24.588  1.00  0.00    -0.376 OA
BRANCH   2   3
ATOM      3  C   UNL A   1      36.115  18.881  24.975  1.00  0.00     0.202 C 
BRANCH   3   4
ATOM      4  C   UNL A   1      34.414  19.405  24.657  1.00  0.00     0.261 C 
BRANCH   4   5
ATOM      5  O   UNL A   1      33.917  20.837  25.055  1.00  0.00    -0.462 OA
BRANCH   5   6
ATOM      6  C   UNL A   1      33.499  21.769  24.109  1.00  0.00     0.331 C 
ATOM      7  O   UNL A   1      32.367  21.699  23.631  1.00  0.00    -0.249 OA
BRANCH   6   8
ATOM      8  C   UNL A   1      34.477  23.234  23.992  1.00  0.00     0.135 C 
ATOM      9  C   UNL A   1      35.669  22.648  23.135  1.00  0.00     0.047 C 
BRANCH   8  10
ATOM     10  N   UNL A   1      34.217  24.609  23.021  1.00  0.00    -0.340 N 
ATOM     11  C   UNL A   1      33.558  25.867  22.911  1.00  0.00     0.232 C 
ATOM     12  O   UNL A   1      33.854  26.514  21.899  1.00  0.00    -0.274 OA
ATOM     13  H   UNL A   1      34.739  24.483  22.196  1.00  0.00     0.164 HD
BRANCH  11  14
ATOM     14  C   UNL A   1      32.468  26.521  23.969  1.00  0.00     0.164 C 
ATOM     15  C   UNL A   1      31.449  28.190  23.752  1.00  0.00     0.223 C 
ATOM     16  C   UNL A   1      32.400  29.633  24.726  1.00  0.00     0.225 C 
ATOM     17  O   UNL A   1      33.951  28.737  25.498  1.00  0.00    -0.374 OA
ATOM     18  C   UNL A   1      33.655  26.782  25.320  1.00  0.00     0.180 C 
BRANCH  15  19
ATOM     19  N   UNL A   1      30.927  28.549  22.414  1.00  0.00    -0.341 N 
ATOM     20  H   UNL A   1      31.486  29.311  22.034  1.00  0.00     0.346 HD
ATOM     21  H   UNL A   1      30.984  27.723  21.817  1.00  0.00     0.346 HD
BRANCH  19  22
ATOM     22  C   UNL A   1      29.519  28.974  22.480  1.00  0.00     0.260 C 
BRANCH  22  23
ATOM     23  C   UNL A   1      29.254  30.483  22.322  1.00  0.00     0.058 C 
ATOM     24  C   UNL A   1      28.765  31.216  23.555  1.00  0.00     0.010 C 
ENDBRANCH  22  23
ENDBRANCH  19  22
ENDBRANCH  15  19
ENDBRANCH  11  14
ENDBRANCH   8  10
BRANCH   8  25
ATOM     25  C   UNL A   1      35.219  23.521  25.363  1.00  0.00     0.037 C 
ATOM     26  C   UNL A   1      36.717  23.733  25.480  1.00  0.00     0.007 C 
ENDBRANCH   8  25
ENDBRANCH   6   8
ENDBRANCH   5   6
ENDBRANCH   4   5
ENDBRANCH   3   4
ENDBRANCH   2   3
ENDBRANCH   1   2
BRANCH   1  27
ATOM     27  C   UNL A   1      40.076  21.453  26.080  1.00  0.00     0.188 C 
BRANCH  27  28
ATOM     28  O   UNL A   1      41.487  21.453  26.166  1.00  0.00    -0.376 OA
BRANCH  28  29
ATOM     29  C   UNL A   1      42.044  22.640  26.709  1.00  0.00     0.202 C 
BRANCH  29  30
ATOM     30  C   UNL A   1      43.062  23.472  25.862  1.00  0.00     0.261 C 
BRANCH  30  31
ATOM     31  O   UNL A   1      43.364  24.852  26.232  1.00  0.00    -0.460 OA
BRANCH  31  32
ATOM     32  C   UNL A   1      42.372  25.797  26.093  1.00  0.00     0.338 C 
ATOM     33  O   UNL A   1      41.626  25.888  25.133  1.00  0.00    -0.246 OA
BRANCH  32  34
ATOM     34  C   UNL A   1      42.120  26.492  27.423  1.00  0.00     0.060 A 
ATOM     35  C   UNL A   1      42.958  27.549  27.851  1.00  0.00     0.016 A 
ATOM     36  C   UNL A   1      41.023  26.192  28.209  1.00  0.00     0.016 A 
ATOM     37  C   UNL A   1      42.665  28.356  28.982  1.00  0.00     0.010 A 
ATOM     38  C   UNL A   1      40.794  26.934  29.390  1.00  0.00     0.010 A 
ATOM     39  C   UNL A   1      41.576  28.055  29.796  1.00  0.00    -0.014 A 
BRANCH  39  40
ATOM     40  C   UNL A   1      41.299  28.716  31.144  1.00  0.00     0.031 A 
ATOM     41  C   UNL A   1      40.233  29.792  31.159  1.00  0.00     0.074 A 
ATOM     42  C   UNL A   1      41.955  28.507  32.316  1.00  0.00     0.049 A 
ATOM     43  N   UNL A   1      39.977  30.719  32.046  1.00  0.00    -0.248 NA
ATOM     44  C   UNL A   1      39.363  29.839  29.973  1.00  0.00     0.031 C 
ATOM     45  C   UNL A   1      42.952  27.477  32.585  1.00  0.00     0.029 A 
ATOM     46  N   UNL A   1      41.936  29.235  33.503  1.00  0.00    -0.354 N 
ATOM     47  C   UNL A   1      38.930  31.462  31.512  1.00  0.00     0.074 A 
ATOM     48  C   UNL A   1      38.706  30.967  30.171  1.00  0.00     0.031 C 
ATOM     49  C   UNL A   1      43.540  27.712  33.777  1.00  0.00     0.029 A 
ATOM     50  C   UNL A   1      42.957  28.909  34.382  1.00  0.00     0.049 A 
ATOM     51  H   UNL A   1      41.257  29.920  33.701  1.00  0.00     0.167 HD
ATOM     52  C   UNL A   1      38.160  32.413  32.092  1.00  0.00     0.037 A 
ATOM     53  C   UNL A   1      43.402  29.510  35.515  1.00  0.00     0.037 A 
ATOM     54  C   UNL A   1      38.325  32.887  33.437  1.00  0.00     0.049 A 
ATOM     55  C   UNL A   1      42.639  30.680  36.104  1.00  0.00     0.074 A 
ATOM     56  C   UNL A   1      37.528  33.780  34.133  1.00  0.00     0.029 A 
ATOM     57  N   UNL A   1      39.354  32.522  34.287  1.00  0.00    -0.354 N 
ATOM     58  N   UNL A   1      41.591  31.305  35.624  1.00  0.00    -0.248 NA
ATOM     59  C   UNL A   1      43.079  31.190  37.416  1.00  0.00     0.031 C 
ATOM     60  C   UNL A   1      38.117  34.010  35.379  1.00  0.00     0.029 A 
ATOM     61  C   UNL A   1      39.238  33.204  35.488  1.00  0.00     0.049 A 
ATOM     62  H   UNL A   1      40.063  31.874  34.071  1.00  0.00     0.167 HD
ATOM     63  C   UNL A   1      41.208  32.222  36.602  1.00  0.00     0.074 A 
ATOM     64  C   UNL A   1      42.147  32.093  37.693  1.00  0.00     0.031 C 
ATOM     65  C   UNL A   1      40.150  33.071  36.596  1.00  0.00     0.037 A 
BRANCH  52  66
ATOM     66  C   UNL A   1      37.037  32.974  31.262  1.00  0.00     0.058 A 
ATOM     67  C   UNL A   1      35.702  32.585  31.474  1.00  0.00     0.135 A 
ATOM     68  C   UNL A   1      37.295  33.900  30.240  1.00  0.00     0.135 A 
ATOM     69  F   UNL A   1      35.398  31.694  32.432  1.00  0.00    -0.206 F 
ATOM     70  C   UNL A   1      34.675  33.039  30.659  1.00  0.00     0.059 A 
ATOM     71  C   UNL A   1      36.273  34.406  29.443  1.00  0.00     0.059 A 
ATOM     72  F   UNL A   1      38.549  34.313  30.000  1.00  0.00    -0.206 F 
ATOM     73  C   UNL A   1      34.971  33.949  29.644  1.00  0.00     0.060 A 
BRANCH  73  74
ATOM     74  S   UNL A   1      33.624  34.517  28.589  1.00  0.00     0.124 S 
ATOM     75  O   UNL A   1      33.372  33.332  27.775  1.00  0.00    -0.237 OA
ATOM     76  O   UNL A   1      32.588  34.848  29.563  1.00  0.00    -0.237 OA
ATOM     77  O   UNL A   1      34.202  35.654  27.880  1.00  0.00    -0.744 OA
ENDBRANCH  73  74
ENDBRANCH  52  66
BRANCH  53  78
ATOM     78  C   UNL A   1      44.642  29.032  36.210  1.00  0.00     0.058 A 
ATOM     79  C   UNL A   1      45.897  29.608  35.955  1.00  0.00     0.135 A 
ATOM     80  C   UNL A   1      44.610  27.937  37.091  1.00  0.00     0.135 A 
ATOM     81  F   UNL A   1      46.000  30.622  35.084  1.00  0.00    -0.206 F 
ATOM     82  C   UNL A   1      47.067  29.125  36.543  1.00  0.00     0.059 A 
ATOM     83  C   UNL A   1      45.765  27.447  37.708  1.00  0.00     0.059 A 
ATOM     84  F   UNL A   1      43.447  27.321  37.356  1.00  0.00    -0.206 F 
ATOM     85  C   UNL A   1      46.991  28.050  37.430  1.00  0.00     0.060 A 
BRANCH  85  86
ATOM     86  S   UNL A   1      48.508  27.488  38.241  1.00  0.00     0.124 S 
ATOM     87  O   UNL A   1      49.063  28.738  38.744  1.00  0.00    -0.237 OA
ATOM     88  O   UNL A   1      47.987  26.570  39.250  1.00  0.00    -0.237 OA
ATOM     89  O   UNL A   1      49.257  26.856  37.159  1.00  0.00    -0.744 OA
ENDBRANCH  85  86
ENDBRANCH  53  78
BRANCH  65  90
ATOM     90  C   UNL A   1      39.874  33.899  37.826  1.00  0.00     0.058 A 
ATOM     91  C   UNL A   1      39.000  33.471  38.837  1.00  0.00     0.135 A 
ATOM     92  C   UNL A   1      40.586  35.093  38.046  1.00  0.00     0.135 A 
ATOM     93  F   UNL A   1      38.288  32.343  38.682  1.00  0.00    -0.206 F 
ATOM     94  C   UNL A   1      38.843  34.193  40.018  1.00  0.00     0.059 A 
ATOM     95  C   UNL A   1      40.469  35.813  39.231  1.00  0.00     0.059 A 
ATOM     96  F   UNL A   1      41.442  35.550  37.117  1.00  0.00    -0.206 F 
ATOM     97  C   UNL A   1      39.592  35.356  40.212  1.00  0.00     0.060 A 
BRANCH  97  98
ATOM     98  S   UNL A   1      39.434  36.237  41.781  1.00  0.00     0.124 S 
ATOM     99  O   UNL A   1      39.142  37.594  41.331  1.00  0.00    -0.237 OA
ATOM    100  O   UNL A   1      38.329  35.530  42.422  1.00  0.00    -0.237 OA
ATOM    101  O   UNL A   1      40.738  36.053  42.411  1.00  0.00    -0.744 OA
ENDBRANCH  97  98
ENDBRANCH  65  90
ENDBRANCH  39  40
ENDBRANCH  32  34
ENDBRANCH  31  32
ENDBRANCH  30  31
ENDBRANCH  29  30
ENDBRANCH  28  29
ENDBRANCH  27  28
ENDBRANCH   1  27
TORSDOF 26
ENDMDL
MODEL 3
REMARK VINA RESULT:      -8.7      6.347     11.624
REMARK SMILES CCC[NH2+][C@@H]1COC[C@@H]1C(=O)N[C@@](C)(CC)C(=O)OCCOCCOCCOC(=O)c1ccc(-c2c3nc(c(-c4c(F)cc(S(=O)(=O)[O-])cc4F)c4ccc([nH]4)c(-c4c(F)cc(S(=O)(=O)[O-])cc4F)c4nc(c(-c5c(F)cc(S(=O)(=O)[O-])cc5F)c5ccc2[nH]5)C=C4)C=C3)cc1
REMARK SMILES IDX 23 1 22 2 21 3 20 4 19 5 17 6 18 7 13 8 14 9 12 10 10 11
REMARK SMILES IDX 11 12 9 14 5 15 6 16 7 17 8 18 4 19 3 22 2 23 1 24 15 25
REMARK SMILES IDX 16 26 24 27 25 28 26 29 27 30 28 31 29 32 30 33 31 34 32 35
REMARK SMILES IDX 96 36 33 37 95 38 34 39 35 40 36 41 89 42 37 43 94 44 88 45
REMARK SMILES IDX 90 46 38 47 93 48 87 49 86 50 39 52 73 53 52 54 72 55 53 56
REMARK SMILES IDX 56 57 71 58 91 59 54 60 55 61 70 63 92 64 57 65 40 66 41 67
REMARK SMILES IDX 50 68 42 69 43 70 49 71 51 72 44 73 45 74 46 75 47 76 48 77
REMARK SMILES IDX 74 78 75 79 84 80 76 81 77 82 83 83 85 84 78 85 79 86 80 87
REMARK SMILES IDX 81 88 82 89 58 90 59 91 68 92 60 93 61 94 67 95 69 96 62 97
REMARK SMILES IDX 63 98 64 99 65 100 66 101
REMARK H PARENT 12 13 4 20 4 21 90 51 56 62
REMARK Flexibility Score: inf
ROOT
ATOM      1  C   UNL A   1      39.078  27.234  28.059  1.00  0.00     0.188 C 
ENDROOT
BRANCH   1   2
ATOM      2  O   UNL A   1      39.698  25.660  26.906  1.00  0.00    -0.376 OA
BRANCH   2   3
ATOM      3  C   UNL A   1      39.271  23.960  27.379  1.00  0.00     0.202 C 
BRANCH   3   4
ATOM      4  C   UNL A   1      38.552  22.905  26.098  1.00  0.00     0.261 C 
BRANCH   4   5
ATOM      5  O   UNL A   1      37.095  22.341  26.233  1.00  0.00    -0.462 OA
BRANCH   5   6
ATOM      6  C   UNL A   1      35.969  23.134  26.029  1.00  0.00     0.331 C 
ATOM      7  O   UNL A   1      36.094  24.334  25.789  1.00  0.00    -0.249 OA
BRANCH   6   8
ATOM      8  C   UNL A   1      34.468  22.263  25.704  1.00  0.00     0.135 C 
ATOM      9  C   UNL A   1      33.996  22.053  27.198  1.00  0.00     0.047 C 
BRANCH   8  10
ATOM     10  N   UNL A   1      32.987  22.878  25.132  1.00  0.00    -0.340 N 
ATOM     11  C   UNL A   1      32.301  24.021  24.629  1.00  0.00     0.232 C 
ATOM     12  O   UNL A   1      31.136  23.804  24.274  1.00  0.00    -0.274 OA
ATOM     13  H   UNL A   1      32.337  22.140  25.158  1.00  0.00     0.164 HD
BRANCH  11  14
ATOM     14  C   UNL A   1      32.892  25.559  24.483  1.00  0.00     0.164 C 
ATOM     15  C   UNL A   1      31.904  27.169  23.930  1.00  0.00     0.223 C 
ATOM     16  C   UNL A   1      32.231  27.469  21.997  1.00  0.00     0.225 C 
ATOM     17  O   UNL A   1      33.427  26.012  21.490  1.00  0.00    -0.374 OA
ATOM     18  C   UNL A   1      34.083  25.175  23.166  1.00  0.00     0.180 C 
BRANCH  15  19
ATOM     19  N   UNL A   1      30.507  27.350  24.385  1.00  0.00    -0.341 N 
ATOM     20  H   UNL A   1      30.246  26.561  24.975  1.00  0.00     0.346 HD
ATOM     21  H   UNL A   1      30.452  28.227  24.904  1.00  0.00     0.346 HD
BRANCH  19  22
ATOM     22  C   UNL A   1      29.575  27.428  23.248  1.00  0.00     0.260 C 
BRANCH  22  23
ATOM     23  C   UNL A   1      28.816  28.757  23.077  1.00  0.00     0.058 C 
ATOM     24  C   UNL A   1      27.303  28.675  23.064  1.00  0.00     0.010 C 
ENDBRANCH  22  23
ENDBRANCH  19  22
ENDBRANCH  15  19
ENDBRANCH  11  14
ENDBRANCH   8  10
BRANCH   8  25
ATOM     25  C   UNL A   1      34.772  20.765  25.282  1.00  0.00     0.037 C 
ATOM     26  C   UNL A   1      33.734  19.833  24.687  1.00  0.00     0.007 C 
ENDBRANCH   8  25
ENDBRANCH   6   8
ENDBRANCH   5   6
ENDBRANCH   4   5
ENDBRANCH   3   4
ENDBRANCH   2   3
ENDBRANCH   1   2
BRANCH   1  27
ATOM     27  C   UNL A   1      38.908  27.367  29.662  1.00  0.00     0.188 C 
BRANCH  27  28
ATOM     28  O   UNL A   1      38.739  28.533  30.443  1.00  0.00    -0.376 OA
BRANCH  28  29
ATOM     29  C   UNL A   1      37.444  28.682  31.005  1.00  0.00     0.202 C 
BRANCH  29  30
ATOM     30  C   UNL A   1      36.943  30.105  31.419  1.00  0.00     0.261 C 
BRANCH  30  31
ATOM     31  O   UNL A   1      37.494  30.757  32.603  1.00  0.00    -0.460 OA
BRANCH  31  32
ATOM     32  C   UNL A   1      38.267  31.883  32.428  1.00  0.00     0.338 C 
ATOM     33  O   UNL A   1      38.031  32.974  32.918  1.00  0.00    -0.246 OA
BRANCH  32  34
ATOM     34  C   UNL A   1      39.611  31.507  31.821  1.00  0.00     0.060 A 
ATOM     35  C   UNL A   1      40.548  30.749  32.563  1.00  0.00     0.016 A 
ATOM     36  C   UNL A   1      39.928  31.798  30.507  1.00  0.00     0.016 A 
ATOM     37  C   UNL A   1      41.731  30.210  31.991  1.00  0.00     0.010 A 
ATOM     38  C   UNL A   1      41.155  31.345  29.974  1.00  0.00     0.010 A 
ATOM     39  C   UNL A   1      42.075  30.512  30.676  1.00  0.00    -0.014 A 
BRANCH  39  40
ATOM     40  C   UNL A   1      43.417  30.169  30.036  1.00  0.00     0.031 A 
ATOM     41  C   UNL A   1      43.573  28.755  29.516  1.00  0.00     0.074 A 
ATOM     42  C   UNL A   1      44.519  30.961  29.954  1.00  0.00     0.049 A 
ATOM     43  N   UNL A   1      44.649  28.082  29.198  1.00  0.00    -0.248 NA
ATOM     44  C   UNL A   1      42.323  27.990  29.375  1.00  0.00     0.031 C 
ATOM     45  C   UNL A   1      44.603  32.376  30.300  1.00  0.00     0.029 A 
ATOM     46  N   UNL A   1      45.834  30.647  29.623  1.00  0.00    -0.354 N 
ATOM     47  C   UNL A   1      44.200  26.817  28.839  1.00  0.00     0.074 A 
ATOM     48  C   UNL A   1      42.782  26.779  29.120  1.00  0.00     0.031 C 
ATOM     49  C   UNL A   1      45.894  32.770  30.300  1.00  0.00     0.029 A 
ATOM     50  C   UNL A   1      46.749  31.640  29.938  1.00  0.00     0.049 A 
ATOM     51  H   UNL A   1      46.092  29.795  29.203  1.00  0.00     0.167 HD
ATOM     52  C   UNL A   1      44.870  25.796  28.253  1.00  0.00     0.037 A 
ATOM     53  C   UNL A   1      48.106  31.643  29.970  1.00  0.00     0.037 A 
ATOM     54  C   UNL A   1      46.265  25.822  27.913  1.00  0.00     0.049 A 
ATOM     55  C   UNL A   1      48.881  30.445  29.458  1.00  0.00     0.074 A 
ATOM     56  C   UNL A   1      46.998  24.867  27.231  1.00  0.00     0.029 A 
ATOM     57  N   UNL A   1      47.140  26.845  28.235  1.00  0.00    -0.354 N 
ATOM     58  N   UNL A   1      48.426  29.290  29.034  1.00  0.00    -0.248 NA
ATOM     59  C   UNL A   1      50.348  30.568  29.372  1.00  0.00     0.031 C 
ATOM     60  C   UNL A   1      48.333  25.278  27.205  1.00  0.00     0.029 A 
ATOM     61  C   UNL A   1      48.417  26.525  27.803  1.00  0.00     0.049 A 
ATOM     62  H   UNL A   1      46.892  27.676  28.701  1.00  0.00     0.167 HD
ATOM     63  C   UNL A   1      49.536  28.588  28.566  1.00  0.00     0.074 A 
ATOM     64  C   UNL A   1      50.690  29.430  28.780  1.00  0.00     0.031 C 
ATOM     65  C   UNL A   1      49.577  27.362  27.986  1.00  0.00     0.037 A 
BRANCH  52  66
ATOM     66  C   UNL A   1      44.068  24.569  27.909  1.00  0.00     0.058 A 
ATOM     67  C   UNL A   1      43.790  23.580  28.870  1.00  0.00     0.135 A 
ATOM     68  C   UNL A   1      43.582  24.372  26.608  1.00  0.00     0.135 A 
ATOM     69  F   UNL A   1      44.240  23.711  30.129  1.00  0.00    -0.206 F 
ATOM     70  C   UNL A   1      43.121  22.411  28.536  1.00  0.00     0.059 A 
ATOM     71  C   UNL A   1      42.867  23.230  26.264  1.00  0.00     0.059 A 
ATOM     72  F   UNL A   1      43.810  25.288  25.653  1.00  0.00    -0.206 F 
ATOM     73  C   UNL A   1      42.664  22.245  27.228  1.00  0.00     0.060 A 
BRANCH  73  74
ATOM     74  S   UNL A   1      41.808  20.713  26.814  1.00  0.00     0.124 S 
ATOM     75  O   UNL A   1      42.917  19.765  26.760  1.00  0.00    -0.237 OA
ATOM     76  O   UNL A   1      40.894  20.556  27.941  1.00  0.00    -0.237 OA
ATOM     77  O   UNL A   1      41.175  21.012  25.533  1.00  0.00    -0.744 OA
ENDBRANCH  73  74
ENDBRANCH  52  66
BRANCH  53  78
ATOM     78  C   UNL A   1      48.866  32.823  30.499  1.00  0.00     0.058 A 
ATOM     79  C   UNL A   1      49.304  33.855  29.654  1.00  0.00     0.135 A 
ATOM     80  C   UNL A   1      49.236  32.906  31.853  1.00  0.00     0.135 A 
ATOM     81  F   UNL A   1      49.027  33.805  28.342  1.00  0.00    -0.206 F 
ATOM     82  C   UNL A   1      50.072  34.922  30.124  1.00  0.00     0.059 A 
ATOM     83  C   UNL A   1      49.988  33.975  32.352  1.00  0.00     0.059 A 
ATOM     84  F   UNL A   1      48.876  31.938  32.709  1.00  0.00    -0.206 F 
ATOM     85  C   UNL A   1      50.400  34.981  31.479  1.00  0.00     0.060 A 
BRANCH  85  86
ATOM     86  S   UNL A   1      51.330  36.411  32.083  1.00  0.00     0.124 S 
ATOM     87  O   UNL A   1      50.285  37.417  32.217  1.00  0.00    -0.237 OA
ATOM     88  O   UNL A   1      51.888  35.900  33.332  1.00  0.00    -0.237 OA
ATOM     89  O   UNL A   1      52.305  36.653  31.023  1.00  0.00    -0.744 OA
ENDBRANCH  85  86
ENDBRANCH  53  78
BRANCH  65  90
ATOM     90  C   UNL A   1      50.893  26.850  27.457  1.00  0.00     0.058 A 
ATOM     91  C   UNL A   1      51.855  26.256  28.288  1.00  0.00     0.135 A 
ATOM     92  C   UNL A   1      51.145  26.855  26.073  1.00  0.00     0.135 A 
ATOM     93  F   UNL A   1      51.674  26.228  29.618  1.00  0.00    -0.206 F 
ATOM     94  C   UNL A   1      53.015  25.687  27.769  1.00  0.00     0.059 A 
ATOM     95  C   UNL A   1      52.281  26.263  25.528  1.00  0.00     0.059 A 
ATOM     96  F   UNL A   1      50.257  27.403  25.226  1.00  0.00    -0.206 F 
ATOM     97  C   UNL A   1      53.213  25.682  26.386  1.00  0.00     0.060 A 
BRANCH  97  98
ATOM     98  S   UNL A   1      54.684  24.870  25.723  1.00  0.00     0.124 S 
ATOM     99  O   UNL A   1      54.100  23.911  24.792  1.00  0.00    -0.237 OA
ATOM    100  O   UNL A   1      55.405  25.985  25.117  1.00  0.00    -0.237 OA
ATOM    101  O   UNL A   1      55.317  24.290  26.905  1.00  0.00    -0.744 OA
ENDBRANCH  97  98
ENDBRANCH  65  90
ENDBRANCH  39  40
ENDBRANCH  32  34
ENDBRANCH  31  32
ENDBRANCH  30  31
ENDBRANCH  29  30
ENDBRANCH  28  29
ENDBRANCH  27  28
ENDBRANCH   1  27
TORSDOF 26
ENDMDL
