MODEL 1
REMARK VINA RESULT:     -10.7      0.000      0.000
REMARK SMILES O=C(CCc1nc(-c2ccccc2)c(-c2ccccc2)o1)OCCOCCOCCOC(=O)c1ccc(-c2c3nc(c(-c4c(F)cc(S(=O)(=O)[O-])cc4F)c4ccc([nH]4)c(-c4c(F)cc(S(=O)(=O)[O-])cc4F)c4nc(c(-c5c(F)cc(S(=O)(=O)[O-])cc5F)c5ccc2[nH]5)C=C4)C=C3)cc1
REMARK SMILES IDX 26 1 25 2 24 3 23 4 22 5 2 6 1 7 3 8 4 9 5 10 6 11 21 12
REMARK SMILES IDX 7 13 14 14 8 15 9 16 13 17 10 18 12 19 11 20 15 21 16 22
REMARK SMILES IDX 20 23 17 24 19 25 18 26 27 27 28 28 29 29 30 30 31 31 32 32
REMARK SMILES IDX 33 33 34 34 35 35 99 36 36 37 98 38 37 39 38 40 39 41 92 42
REMARK SMILES IDX 40 43 97 44 91 45 93 46 41 47 96 48 90 49 89 50 42 52 76 53
REMARK SMILES IDX 55 54 75 55 56 56 59 57 74 58 94 59 57 60 58 61 73 63 95 64
REMARK SMILES IDX 60 65 43 66 44 67 53 68 45 69 46 70 52 71 54 72 47 73 48 74
REMARK SMILES IDX 49 75 50 76 51 77 77 78 78 79 87 80 79 81 80 82 86 83 88 84
REMARK SMILES IDX 81 85 82 86 83 87 84 88 85 89 61 90 62 91 71 92 63 93 64 94
REMARK SMILES IDX 70 95 72 96 65 97 66 98 67 99 68 100 69 101
REMARK H PARENT 93 51 59 62
REMARK Flexibility Score: inf
ROOT
ATOM      1  C   UNL A   1      39.557  21.494  26.126  1.00  0.00     0.188 C 
ENDROOT
BRANCH   1   2
ATOM      2  O   UNL A   1      38.348  21.024  25.558  1.00  0.00    -0.376 OA
BRANCH   2   3
ATOM      3  C   UNL A   1      37.447  21.989  25.023  1.00  0.00     0.202 C 
BRANCH   3   4
ATOM      4  C   UNL A   1      36.157  22.281  25.799  1.00  0.00     0.261 C 
BRANCH   4   5
ATOM      5  O   UNL A   1      34.959  21.524  25.520  1.00  0.00    -0.463 OA
BRANCH   5   6
ATOM      6  C   UNL A   1      34.090  21.580  24.500  1.00  0.00     0.306 C 
ATOM      7  O   UNL A   1      33.290  20.655  24.353  1.00  0.00    -0.252 OA
BRANCH   6   8
ATOM      8  C   UNL A   1      34.089  22.729  23.539  1.00  0.00     0.132 C 
BRANCH   8   9
ATOM      9  C   UNL A   1      32.730  22.950  22.896  1.00  0.00     0.109 C 
BRANCH   9  10
ATOM     10  C   UNL A   1      32.011  24.123  23.460  1.00  0.00     0.196 A 
ATOM     11  N   UNL A   1      30.823  24.600  23.141  1.00  0.00    -0.213 NA
ATOM     12  O   UNL A   1      32.687  24.876  24.380  1.00  0.00    -0.440 OA
ATOM     13  C   UNL A   1      30.769  25.817  23.774  1.00  0.00     0.117 A 
ATOM     14  C   UNL A   1      31.858  25.940  24.609  1.00  0.00     0.162 A 
BRANCH  13  15
ATOM     15  C   UNL A   1      29.815  26.868  23.453  1.00  0.00     0.004 A 
ATOM     16  C   UNL A   1      28.475  26.740  23.860  1.00  0.00     0.010 A 
ATOM     17  C   UNL A   1      30.209  28.037  22.797  1.00  0.00     0.010 A 
ATOM     18  C   UNL A   1      27.535  27.730  23.570  1.00  0.00     0.001 A 
ATOM     19  C   UNL A   1      29.265  29.028  22.500  1.00  0.00     0.001 A 
ATOM     20  C   UNL A   1      27.930  28.870  22.877  1.00  0.00     0.000 A 
ENDBRANCH  13  15
BRANCH  14  21
ATOM     21  C   UNL A   1      32.272  26.903  25.602  1.00  0.00     0.020 A 
ATOM     22  C   UNL A   1      33.547  27.474  25.582  1.00  0.00     0.012 A 
ATOM     23  C   UNL A   1      31.356  27.290  26.590  1.00  0.00     0.012 A 
ATOM     24  C   UNL A   1      33.899  28.422  26.543  1.00  0.00     0.001 A 
ATOM     25  C   UNL A   1      31.710  28.231  27.551  1.00  0.00     0.001 A 
ATOM     26  C   UNL A   1      32.982  28.795  27.528  1.00  0.00     0.000 A 
ENDBRANCH  14  21
ENDBRANCH   9  10
ENDBRANCH   8   9
ENDBRANCH   6   8
ENDBRANCH   5   6
ENDBRANCH   4   5
ENDBRANCH   3   4
ENDBRANCH   2   3
ENDBRANCH   1   2
BRANCH   1  27
ATOM     27  C   UNL A   1      40.563  20.433  26.573  1.00  0.00     0.188 C 
BRANCH  27  28
ATOM     28  O   UNL A   1      41.731  20.399  25.761  1.00  0.00    -0.376 OA
BRANCH  28  29
ATOM     29  C   UNL A   1      42.826  21.152  26.278  1.00  0.00     0.202 C 
BRANCH  29  30
ATOM     30  C   UNL A   1      43.070  22.557  25.688  1.00  0.00     0.261 C 
BRANCH  30  31
ATOM     31  O   UNL A   1      42.457  23.674  26.353  1.00  0.00    -0.460 OA
BRANCH  31  32
ATOM     32  C   UNL A   1      42.825  24.913  25.978  1.00  0.00     0.338 C 
ATOM     33  O   UNL A   1      43.420  25.215  24.947  1.00  0.00    -0.246 OA
BRANCH  32  34
ATOM     34  C   UNL A   1      42.293  25.889  26.952  1.00  0.00     0.060 A 
ATOM     35  C   UNL A   1      42.810  27.190  26.973  1.00  0.00     0.016 A 
ATOM     36  C   UNL A   1      41.316  25.511  27.878  1.00  0.00     0.016 A 
ATOM     37  C   UNL A   1      42.345  28.119  27.910  1.00  0.00     0.010 A 
ATOM     38  C   UNL A   1      40.881  26.430  28.843  1.00  0.00     0.010 A 
ATOM     39  C   UNL A   1      41.408  27.734  28.878  1.00  0.00    -0.014 A 
BRANCH  39  40
ATOM     40  C   UNL A   1      41.141  28.621  30.041  1.00  0.00     0.031 A 
ATOM     41  C   UNL A   1      42.006  28.466  31.265  1.00  0.00     0.074 A 
ATOM     42  C   UNL A   1      40.174  29.557  30.019  1.00  0.00     0.049 A 
ATOM     43  N   UNL A   1      41.947  29.091  32.412  1.00  0.00    -0.248 NA
ATOM     44  C   UNL A   1      43.086  27.469  31.178  1.00  0.00     0.031 C 
ATOM     45  C   UNL A   1      39.302  29.846  28.883  1.00  0.00     0.029 A 
ATOM     46  N   UNL A   1      39.761  30.437  30.991  1.00  0.00    -0.354 N 
ATOM     47  C   UNL A   1      42.982  28.569  33.180  1.00  0.00     0.074 A 
ATOM     48  C   UNL A   1      43.632  27.554  32.381  1.00  0.00     0.031 C 
ATOM     49  C   UNL A   1      38.446  30.827  29.228  1.00  0.00     0.029 A 
ATOM     50  C   UNL A   1      38.690  31.213  30.618  1.00  0.00     0.049 A 
ATOM     51  H   UNL A   1      40.193  30.505  31.873  1.00  0.00     0.167 HD
ATOM     52  C   UNL A   1      43.361  28.909  34.436  1.00  0.00     0.037 A 
ATOM     53  C   UNL A   1      37.976  32.117  31.324  1.00  0.00     0.037 A 
ATOM     54  C   UNL A   1      42.700  29.903  35.238  1.00  0.00     0.049 A 
ATOM     55  C   UNL A   1      38.358  32.411  32.755  1.00  0.00     0.074 A 
ATOM     56  C   UNL A   1      43.008  30.313  36.524  1.00  0.00     0.029 A 
ATOM     57  N   UNL A   1      41.592  30.636  34.840  1.00  0.00    -0.354 N 
ATOM     58  N   UNL A   1      39.347  31.921  33.466  1.00  0.00    -0.248 NA
ATOM     59  C   UNL A   1      37.526  33.383  33.482  1.00  0.00     0.031 C 
ATOM     60  C   UNL A   1      42.054  31.256  36.923  1.00  0.00     0.029 A 
ATOM     61  C   UNL A   1      41.188  31.478  35.864  1.00  0.00     0.049 A 
ATOM     62  H   UNL A   1      41.156  30.569  33.960  1.00  0.00     0.167 HD
ATOM     63  C   UNL A   1      39.276  32.548  34.706  1.00  0.00     0.074 A 
ATOM     64  C   UNL A   1      38.151  33.459  34.649  1.00  0.00     0.031 C 
ATOM     65  C   UNL A   1      40.073  32.390  35.793  1.00  0.00     0.037 A 
BRANCH  52  66
ATOM     66  C   UNL A   1      44.530  28.171  35.028  1.00  0.00     0.058 A 
ATOM     67  C   UNL A   1      45.843  28.655  34.914  1.00  0.00     0.135 A 
ATOM     68  C   UNL A   1      44.332  26.979  35.744  1.00  0.00     0.135 A 
ATOM     69  F   UNL A   1      46.092  29.780  34.222  1.00  0.00    -0.206 F 
ATOM     70  C   UNL A   1      46.921  27.970  35.464  1.00  0.00     0.059 A 
ATOM     71  C   UNL A   1      45.392  26.292  36.328  1.00  0.00     0.059 A 
ATOM     72  F   UNL A   1      43.098  26.469  35.880  1.00  0.00    -0.206 F 
ATOM     73  C   UNL A   1      46.686  26.789  36.171  1.00  0.00     0.060 A 
BRANCH  73  74
ATOM     74  S   UNL A   1      48.095  25.916  36.884  1.00  0.00     0.124 S 
ATOM     75  O   UNL A   1      49.053  27.003  37.060  1.00  0.00    -0.237 OA
ATOM     76  O   UNL A   1      47.530  25.363  38.110  1.00  0.00    -0.237 OA
ATOM     77  O   UNL A   1      48.443  24.935  35.859  1.00  0.00    -0.744 OA
ENDBRANCH  73  74
ENDBRANCH  52  66
BRANCH  53  78
ATOM     78  C   UNL A   1      36.814  32.808  30.698  1.00  0.00     0.058 A 
ATOM     79  C   UNL A   1      36.998  33.829  29.752  1.00  0.00     0.135 A 
ATOM     80  C   UNL A   1      35.495  32.476  31.048  1.00  0.00     0.135 A 
ATOM     81  F   UNL A   1      38.237  34.199  29.399  1.00  0.00    -0.206 F 
ATOM     82  C   UNL A   1      35.919  34.501  29.184  1.00  0.00     0.059 A 
ATOM     83  C   UNL A   1      34.401  33.115  30.473  1.00  0.00     0.059 A 
ATOM     84  F   UNL A   1      35.262  31.506  31.947  1.00  0.00    -0.206 F 
ATOM     85  C   UNL A   1      34.623  34.133  29.548  1.00  0.00     0.060 A 
BRANCH  85  86
ATOM     86  S   UNL A   1      33.231  34.978  28.767  1.00  0.00     0.124 S 
ATOM     87  O   UNL A   1      33.902  36.061  28.058  1.00  0.00    -0.237 OA
ATOM     88  O   UNL A   1      32.662  33.924  27.933  1.00  0.00    -0.237 OA
ATOM     89  O   UNL A   1      32.405  35.382  29.901  1.00  0.00    -0.744 OA
ENDBRANCH  85  86
ENDBRANCH  53  78
BRANCH  65  90
ATOM     90  C   UNL A   1      39.795  33.246  37.002  1.00  0.00     0.058 A 
ATOM     91  C   UNL A   1      38.874  32.861  37.989  1.00  0.00     0.135 A 
ATOM     92  C   UNL A   1      40.510  34.438  37.205  1.00  0.00     0.135 A 
ATOM     93  F   UNL A   1      38.160  31.733  37.845  1.00  0.00    -0.206 F 
ATOM     94  C   UNL A   1      38.657  33.638  39.124  1.00  0.00     0.059 A 
ATOM     95  C   UNL A   1      40.331  35.214  38.346  1.00  0.00     0.059 A 
ATOM     96  F   UNL A   1      41.413  34.848  36.299  1.00  0.00    -0.206 F 
ATOM     97  C   UNL A   1      39.394  34.812  39.295  1.00  0.00     0.060 A 
BRANCH  97  98
ATOM     98  S   UNL A   1      39.129  35.790  40.790  1.00  0.00     0.124 S 
ATOM     99  O   UNL A   1      40.413  35.645  41.468  1.00  0.00    -0.237 OA
ATOM    100  O   UNL A   1      38.842  37.116  40.250  1.00  0.00    -0.237 OA
ATOM    101  O   UNL A   1      38.000  35.125  41.436  1.00  0.00    -0.744 OA
ENDBRANCH  97  98
ENDBRANCH  65  90
ENDBRANCH  39  40
ENDBRANCH  32  34
ENDBRANCH  31  32
ENDBRANCH  30  31
ENDBRANCH  29  30
ENDBRANCH  28  29
ENDBRANCH  27  28
ENDBRANCH   1  27
TORSDOF 24
ENDMDL
MODEL 2
REMARK VINA RESULT:     -10.6      1.852      8.500
REMARK SMILES O=C(CCc1nc(-c2ccccc2)c(-c2ccccc2)o1)OCCOCCOCCOC(=O)c1ccc(-c2c3nc(c(-c4c(F)cc(S(=O)(=O)[O-])cc4F)c4ccc([nH]4)c(-c4c(F)cc(S(=O)(=O)[O-])cc4F)c4nc(c(-c5c(F)cc(S(=O)(=O)[O-])cc5F)c5ccc2[nH]5)C=C4)C=C3)cc1
REMARK SMILES IDX 26 1 25 2 24 3 23 4 22 5 2 6 1 7 3 8 4 9 5 10 6 11 21 12
REMARK SMILES IDX 7 13 14 14 8 15 9 16 13 17 10 18 12 19 11 20 15 21 16 22
REMARK SMILES IDX 20 23 17 24 19 25 18 26 27 27 28 28 29 29 30 30 31 31 32 32
REMARK SMILES IDX 33 33 34 34 35 35 99 36 36 37 98 38 37 39 38 40 39 41 92 42
REMARK SMILES IDX 40 43 97 44 91 45 93 46 41 47 96 48 90 49 89 50 42 52 76 53
REMARK SMILES IDX 55 54 75 55 56 56 59 57 74 58 94 59 57 60 58 61 73 63 95 64
REMARK SMILES IDX 60 65 43 66 44 67 53 68 45 69 46 70 52 71 54 72 47 73 48 74
REMARK SMILES IDX 49 75 50 76 51 77 77 78 78 79 87 80 79 81 80 82 86 83 88 84
REMARK SMILES IDX 81 85 82 86 83 87 84 88 85 89 61 90 62 91 71 92 63 93 64 94
REMARK SMILES IDX 70 95 72 96 65 97 66 98 67 99 68 100 69 101
REMARK H PARENT 93 51 59 62
REMARK Flexibility Score: inf
ROOT
ATOM      1  C   UNL A   1      44.303  19.530  25.192  1.00  0.00     0.188 C 
ENDROOT
BRANCH   1   2
ATOM      2  O   UNL A   1      42.911  19.337  25.012  1.00  0.00    -0.376 OA
BRANCH   2   3
ATOM      3  C   UNL A   1      42.153  18.888  26.130  1.00  0.00     0.202 C 
BRANCH   3   4
ATOM      4  C   UNL A   1      41.899  19.878  27.274  1.00  0.00     0.261 C 
BRANCH   4   5
ATOM      5  O   UNL A   1      40.605  20.503  27.414  1.00  0.00    -0.463 OA
BRANCH   5   6
ATOM      6  C   UNL A   1      40.172  21.732  27.096  1.00  0.00     0.306 C 
ATOM      7  O   UNL A   1      40.618  22.696  27.719  1.00  0.00    -0.252 OA
BRANCH   6   8
ATOM      8  C   UNL A   1      39.156  21.944  26.015  1.00  0.00     0.132 C 
BRANCH   8   9
ATOM      9  C   UNL A   1      38.403  23.255  26.174  1.00  0.00     0.109 C 
BRANCH   9  10
ATOM     10  C   UNL A   1      36.944  23.115  25.925  1.00  0.00     0.196 A 
ATOM     11  N   UNL A   1      36.267  22.051  25.538  1.00  0.00    -0.213 NA
ATOM     12  O   UNL A   1      36.190  24.251  26.025  1.00  0.00    -0.440 OA
ATOM     13  C   UNL A   1      35.025  22.540  25.221  1.00  0.00     0.117 A 
ATOM     14  C   UNL A   1      34.945  23.859  25.614  1.00  0.00     0.162 A 
BRANCH  13  15
ATOM     15  C   UNL A   1      34.038  21.826  24.425  1.00  0.00     0.004 A 
ATOM     16  C   UNL A   1      33.430  22.466  23.330  1.00  0.00     0.010 A 
ATOM     17  C   UNL A   1      33.718  20.491  24.685  1.00  0.00     0.010 A 
ATOM     18  C   UNL A   1      32.481  21.809  22.546  1.00  0.00     0.001 A 
ATOM     19  C   UNL A   1      32.761  19.833  23.901  1.00  0.00     0.001 A 
ATOM     20  C   UNL A   1      32.138  20.494  22.841  1.00  0.00     0.000 A 
ENDBRANCH  13  15
BRANCH  14  21
ATOM     21  C   UNL A   1      33.888  24.841  25.667  1.00  0.00     0.020 A 
ATOM     22  C   UNL A   1      32.679  24.582  26.318  1.00  0.00     0.012 A 
ATOM     23  C   UNL A   1      34.100  26.093  25.073  1.00  0.00     0.012 A 
ATOM     24  C   UNL A   1      31.694  25.568  26.371  1.00  0.00     0.001 A 
ATOM     25  C   UNL A   1      33.114  27.073  25.122  1.00  0.00     0.001 A 
ATOM     26  C   UNL A   1      31.911  26.809  25.770  1.00  0.00     0.000 A 
ENDBRANCH  14  21
ENDBRANCH   9  10
ENDBRANCH   8   9
ENDBRANCH   6   8
ENDBRANCH   5   6
ENDBRANCH   4   5
ENDBRANCH   3   4
ENDBRANCH   2   3
ENDBRANCH   1   2
BRANCH   1  27
ATOM     27  C   UNL A   1      44.917  20.760  24.522  1.00  0.00     0.188 C 
BRANCH  27  28
ATOM     28  O   UNL A   1      44.731  21.954  25.274  1.00  0.00    -0.376 OA
BRANCH  28  29
ATOM     29  C   UNL A   1      44.163  23.030  24.533  1.00  0.00     0.202 C 
BRANCH  29  30
ATOM     30  C   UNL A   1      42.852  23.650  25.062  1.00  0.00     0.261 C 
BRANCH  30  31
ATOM     31  O   UNL A   1      42.954  24.639  26.099  1.00  0.00    -0.460 OA
BRANCH  31  32
ATOM     32  C   UNL A   1      42.170  25.730  26.013  1.00  0.00     0.338 C 
ATOM     33  O   UNL A   1      41.505  26.073  25.040  1.00  0.00    -0.246 OA
BRANCH  32  34
ATOM     34  C   UNL A   1      42.132  26.401  27.330  1.00  0.00     0.060 A 
ATOM     35  C   UNL A   1      41.201  25.982  28.289  1.00  0.00     0.016 A 
ATOM     36  C   UNL A   1      42.983  27.475  27.607  1.00  0.00     0.016 A 
ATOM     37  C   UNL A   1      41.125  26.626  29.527  1.00  0.00     0.010 A 
ATOM     38  C   UNL A   1      42.878  28.146  28.833  1.00  0.00     0.010 A 
ATOM     39  C   UNL A   1      41.934  27.740  29.793  1.00  0.00    -0.014 A 
BRANCH  39  40
ATOM     40  C   UNL A   1      41.648  28.595  30.975  1.00  0.00     0.031 A 
ATOM     41  C   UNL A   1      40.501  29.568  30.886  1.00  0.00     0.074 A 
ATOM     42  C   UNL A   1      42.365  28.507  32.111  1.00  0.00     0.049 A 
ATOM     43  N   UNL A   1      40.079  30.442  31.763  1.00  0.00    -0.248 NA
ATOM     44  C   UNL A   1      39.725  29.547  29.635  1.00  0.00     0.031 C 
ATOM     45  C   UNL A   1      43.465  27.574  32.348  1.00  0.00     0.029 A 
ATOM     46  N   UNL A   1      42.274  29.223  33.281  1.00  0.00    -0.354 N 
ATOM     47  C   UNL A   1      38.988  31.071  31.174  1.00  0.00     0.074 A 
ATOM     48  C   UNL A   1      38.833  30.501  29.853  1.00  0.00     0.031 C 
ATOM     49  C   UNL A   1      43.956  27.785  33.583  1.00  0.00     0.029 A 
ATOM     50  C   UNL A   1      43.227  28.887  34.213  1.00  0.00     0.049 A 
ATOM     51  H   UNL A   1      41.589  29.913  33.437  1.00  0.00     0.167 HD
ATOM     52  C   UNL A   1      38.184  32.031  31.688  1.00  0.00     0.037 A 
ATOM     53  C   UNL A   1      43.493  29.421  35.425  1.00  0.00     0.037 A 
ATOM     54  C   UNL A   1      38.352  32.614  32.993  1.00  0.00     0.049 A 
ATOM     55  C   UNL A   1      42.642  30.557  35.939  1.00  0.00     0.074 A 
ATOM     56  C   UNL A   1      37.590  33.597  33.600  1.00  0.00     0.029 A 
ATOM     57  N   UNL A   1      39.356  32.276  33.888  1.00  0.00    -0.354 N 
ATOM     58  N   UNL A   1      41.604  31.133  35.378  1.00  0.00    -0.248 NA
ATOM     59  C   UNL A   1      42.998  31.116  37.252  1.00  0.00     0.031 C 
ATOM     60  C   UNL A   1      38.165  33.892  34.841  1.00  0.00     0.029 A 
ATOM     61  C   UNL A   1      39.249  33.050  35.033  1.00  0.00     0.049 A 
ATOM     62  H   UNL A   1      40.044  31.589  33.734  1.00  0.00     0.167 HD
ATOM     63  C   UNL A   1      41.164  32.096  36.283  1.00  0.00     0.074 A 
ATOM     64  C   UNL A   1      42.044  32.021  37.431  1.00  0.00     0.031 C 
ATOM     65  C   UNL A   1      40.123  32.960  36.176  1.00  0.00     0.037 A 
BRANCH  52  66
ATOM     66  C   UNL A   1      37.065  32.535  30.818  1.00  0.00     0.058 A 
ATOM     67  C   UNL A   1      37.201  33.696  30.039  1.00  0.00     0.135 A 
ATOM     68  C   UNL A   1      35.851  31.834  30.742  1.00  0.00     0.135 A 
ATOM     69  F   UNL A   1      38.333  34.416  30.090  1.00  0.00    -0.206 F 
ATOM     70  C   UNL A   1      36.163  34.158  29.236  1.00  0.00     0.059 A 
ATOM     71  C   UNL A   1      34.810  32.262  29.922  1.00  0.00     0.059 A 
ATOM     72  F   UNL A   1      35.665  30.721  31.469  1.00  0.00    -0.206 F 
ATOM     73  C   UNL A   1      34.972  33.433  29.183  1.00  0.00     0.060 A 
BRANCH  73  74
ATOM     74  S   UNL A   1      33.638  34.043  28.131  1.00  0.00     0.124 S 
ATOM     75  O   UNL A   1      34.369  34.895  27.199  1.00  0.00    -0.237 OA
ATOM     76  O   UNL A   1      33.095  32.810  27.570  1.00  0.00    -0.237 OA
ATOM     77  O   UNL A   1      32.760  34.743  29.064  1.00  0.00    -0.744 OA
ENDBRANCH  73  74
ENDBRANCH  52  66
BRANCH  53  78
ATOM     78  C   UNL A   1      44.625  28.900  36.241  1.00  0.00     0.058 A 
ATOM     79  C   UNL A   1      45.901  29.479  36.168  1.00  0.00     0.135 A 
ATOM     80  C   UNL A   1      44.458  27.799  37.098  1.00  0.00     0.135 A 
ATOM     81  F   UNL A   1      46.119  30.519  35.351  1.00  0.00    -0.206 F 
ATOM     82  C   UNL A   1      46.973  28.981  36.905  1.00  0.00     0.059 A 
ATOM     83  C   UNL A   1      45.507  27.300  37.864  1.00  0.00     0.059 A 
ATOM     84  F   UNL A   1      43.258  27.208  37.207  1.00  0.00    -0.206 F 
ATOM     85  C   UNL A   1      46.764  27.893  37.754  1.00  0.00     0.060 A 
BRANCH  85  86
ATOM     86  S   UNL A   1      48.150  27.287  38.742  1.00  0.00     0.124 S 
ATOM     87  O   UNL A   1      48.853  28.525  39.056  1.00  0.00    -0.237 OA
ATOM     88  O   UNL A   1      47.468  26.638  39.858  1.00  0.00    -0.237 OA
ATOM     89  O   UNL A   1      48.841  26.381  37.829  1.00  0.00    -0.744 OA
ENDBRANCH  85  86
ENDBRANCH  53  78
BRANCH  65  90
ATOM     90  C   UNL A   1      39.840  33.869  37.344  1.00  0.00     0.058 A 
ATOM     91  C   UNL A   1      38.945  33.512  38.364  1.00  0.00     0.135 A 
ATOM     92  C   UNL A   1      40.527  35.088  37.474  1.00  0.00     0.135 A 
ATOM     93  F   UNL A   1      38.259  32.361  38.290  1.00  0.00    -0.206 F 
ATOM     94  C   UNL A   1      38.725  34.341  39.461  1.00  0.00     0.059 A 
ATOM     95  C   UNL A   1      40.345  35.917  38.577  1.00  0.00     0.059 A 
ATOM     96  F   UNL A   1      41.405  35.474  36.534  1.00  0.00    -0.206 F 
ATOM     97  C   UNL A   1      39.432  35.541  39.560  1.00  0.00     0.060 A 
BRANCH  97  98
ATOM     98  S   UNL A   1      39.165  36.587  41.007  1.00  0.00     0.124 S 
ATOM     99  O   UNL A   1      40.534  36.909  41.396  1.00  0.00    -0.237 OA
ATOM    100  O   UNL A   1      38.386  37.692  40.455  1.00  0.00    -0.237 OA
ATOM    101  O   UNL A   1      38.440  35.716  41.928  1.00  0.00    -0.744 OA
ENDBRANCH  97  98
ENDBRANCH  65  90
ENDBRANCH  39  40
ENDBRANCH  32  34
ENDBRANCH  31  32
ENDBRANCH  30  31
ENDBRANCH  29  30
ENDBRANCH  28  29
ENDBRANCH  27  28
ENDBRANCH   1  27
TORSDOF 24
ENDMDL
MODEL 3
REMARK VINA RESULT:     -10.5      1.854      8.649
REMARK SMILES O=C(CCc1nc(-c2ccccc2)c(-c2ccccc2)o1)OCCOCCOCCOC(=O)c1ccc(-c2c3nc(c(-c4c(F)cc(S(=O)(=O)[O-])cc4F)c4ccc([nH]4)c(-c4c(F)cc(S(=O)(=O)[O-])cc4F)c4nc(c(-c5c(F)cc(S(=O)(=O)[O-])cc5F)c5ccc2[nH]5)C=C4)C=C3)cc1
REMARK SMILES IDX 26 1 25 2 24 3 23 4 22 5 2 6 1 7 3 8 4 9 5 10 6 11 21 12
REMARK SMILES IDX 7 13 14 14 8 15 9 16 13 17 10 18 12 19 11 20 15 21 16 22
REMARK SMILES IDX 20 23 17 24 19 25 18 26 27 27 28 28 29 29 30 30 31 31 32 32
REMARK SMILES IDX 33 33 34 34 35 35 99 36 36 37 98 38 37 39 38 40 39 41 92 42
REMARK SMILES IDX 40 43 97 44 91 45 93 46 41 47 96 48 90 49 89 50 42 52 76 53
REMARK SMILES IDX 55 54 75 55 56 56 59 57 74 58 94 59 57 60 58 61 73 63 95 64
REMARK SMILES IDX 60 65 43 66 44 67 53 68 45 69 46 70 52 71 54 72 47 73 48 74
REMARK SMILES IDX 49 75 50 76 51 77 77 78 78 79 87 80 79 81 80 82 86 83 88 84
REMARK SMILES IDX 81 85 82 86 83 87 84 88 85 89 61 90 62 91 71 92 63 93 64 94
REMARK SMILES IDX 70 95 72 96 65 97 66 98 67 99 68 100 69 101
REMARK H PARENT 93 51 59 62
REMARK Flexibility Score: inf
ROOT
ATOM      1  C   UNL A   1      44.453  19.427  25.025  1.00  0.00     0.188 C 
ENDROOT
BRANCH   1   2
ATOM      2  O   UNL A   1      43.057  19.216  24.905  1.00  0.00    -0.376 OA
BRANCH   2   3
ATOM      3  C   UNL A   1      42.332  18.884  26.084  1.00  0.00     0.202 C 
BRANCH   3   4
ATOM      4  C   UNL A   1      41.980  20.016  27.057  1.00  0.00     0.261 C 
BRANCH   4   5
ATOM      5  O   UNL A   1      40.637  20.546  27.094  1.00  0.00    -0.463 OA
BRANCH   5   6
ATOM      6  C   UNL A   1      40.166  21.787  26.905  1.00  0.00     0.306 C 
ATOM      7  O   UNL A   1      40.631  22.706  27.581  1.00  0.00    -0.252 OA
BRANCH   6   8
ATOM      8  C   UNL A   1      39.085  22.067  25.906  1.00  0.00     0.132 C 
BRANCH   8   9
ATOM      9  C   UNL A   1      38.324  23.346  26.214  1.00  0.00     0.109 C 
BRANCH   9  10
ATOM     10  C   UNL A   1      36.927  23.321  25.705  1.00  0.00     0.196 A 
ATOM     11  N   UNL A   1      36.061  24.312  25.609  1.00  0.00    -0.213 NA
ATOM     12  O   UNL A   1      36.419  22.099  25.360  1.00  0.00    -0.440 OA
ATOM     13  C   UNL A   1      34.871  23.691  25.325  1.00  0.00     0.117 A 
ATOM     14  C   UNL A   1      35.106  22.357  25.073  1.00  0.00     0.162 A 
BRANCH  13  15
ATOM     15  C   UNL A   1      33.564  24.315  25.466  1.00  0.00     0.004 A 
ATOM     16  C   UNL A   1      32.768  24.020  26.588  1.00  0.00     0.010 A 
ATOM     17  C   UNL A   1      33.099  25.253  24.541  1.00  0.00     0.010 A 
ATOM     18  C   UNL A   1      31.511  24.603  26.754  1.00  0.00     0.001 A 
ATOM     19  C   UNL A   1      31.834  25.833  24.704  1.00  0.00     0.001 A 
ATOM     20  C   UNL A   1      31.039  25.501  25.803  1.00  0.00     0.000 A 
ENDBRANCH  13  15
BRANCH  14  21
ATOM     21  C   UNL A   1      34.300  21.253  24.606  1.00  0.00     0.020 A 
ATOM     22  C   UNL A   1      34.631  19.928  24.900  1.00  0.00     0.012 A 
ATOM     23  C   UNL A   1      33.142  21.530  23.865  1.00  0.00     0.012 A 
ATOM     24  C   UNL A   1      33.810  18.892  24.454  1.00  0.00     0.001 A 
ATOM     25  C   UNL A   1      32.328  20.496  23.416  1.00  0.00     0.001 A 
ATOM     26  C   UNL A   1      32.663  19.177  23.710  1.00  0.00     0.000 A 
ENDBRANCH  14  21
ENDBRANCH   9  10
ENDBRANCH   8   9
ENDBRANCH   6   8
ENDBRANCH   5   6
ENDBRANCH   4   5
ENDBRANCH   3   4
ENDBRANCH   2   3
ENDBRANCH   1   2
BRANCH   1  27
ATOM     27  C   UNL A   1      45.005  20.719  24.422  1.00  0.00     0.188 C 
BRANCH  27  28
ATOM     28  O   UNL A   1      44.795  21.854  25.254  1.00  0.00    -0.376 OA
BRANCH  28  29
ATOM     29  C   UNL A   1      44.257  22.986  24.576  1.00  0.00     0.202 C 
BRANCH  29  30
ATOM     30  C   UNL A   1      42.974  23.622  25.153  1.00  0.00     0.261 C 
BRANCH  30  31
ATOM     31  O   UNL A   1      43.129  24.648  26.147  1.00  0.00    -0.460 OA
BRANCH  31  32
ATOM     32  C   UNL A   1      42.349  25.741  26.054  1.00  0.00     0.338 C 
ATOM     33  O   UNL A   1      41.715  26.101  25.066  1.00  0.00    -0.246 OA
BRANCH  32  34
ATOM     34  C   UNL A   1      42.273  26.392  27.380  1.00  0.00     0.060 A 
ATOM     35  C   UNL A   1      41.263  26.016  28.273  1.00  0.00     0.016 A 
ATOM     36  C   UNL A   1      43.170  27.408  27.728  1.00  0.00     0.016 A 
ATOM     37  C   UNL A   1      41.152  26.643  29.518  1.00  0.00     0.010 A 
ATOM     38  C   UNL A   1      43.031  28.064  28.958  1.00  0.00     0.010 A 
ATOM     39  C   UNL A   1      42.009  27.700  29.853  1.00  0.00    -0.014 A 
BRANCH  39  40
ATOM     40  C   UNL A   1      41.704  28.552  31.032  1.00  0.00     0.031 A 
ATOM     41  C   UNL A   1      40.554  29.519  30.932  1.00  0.00     0.074 A 
ATOM     42  C   UNL A   1      42.409  28.467  32.176  1.00  0.00     0.049 A 
ATOM     43  N   UNL A   1      40.117  30.389  31.805  1.00  0.00    -0.248 NA
ATOM     44  C   UNL A   1      39.792  29.496  29.672  1.00  0.00     0.031 C 
ATOM     45  C   UNL A   1      43.511  27.539  32.425  1.00  0.00     0.029 A 
ATOM     46  N   UNL A   1      42.301  29.180  33.346  1.00  0.00    -0.354 N 
ATOM     47  C   UNL A   1      39.029  31.013  31.204  1.00  0.00     0.074 A 
ATOM     48  C   UNL A   1      38.892  30.445  29.881  1.00  0.00     0.031 C 
ATOM     49  C   UNL A   1      43.987  27.751  33.666  1.00  0.00     0.029 A 
ATOM     50  C   UNL A   1      43.245  28.848  34.289  1.00  0.00     0.049 A 
ATOM     51  H   UNL A   1      41.610  29.866  33.496  1.00  0.00     0.167 HD
ATOM     52  C   UNL A   1      38.214  31.969  31.710  1.00  0.00     0.037 A 
ATOM     53  C   UNL A   1      43.494  29.381  35.504  1.00  0.00     0.037 A 
ATOM     54  C   UNL A   1      38.364  32.550  33.018  1.00  0.00     0.049 A 
ATOM     55  C   UNL A   1      42.631  30.512  36.010  1.00  0.00     0.074 A 
ATOM     56  C   UNL A   1      37.590  33.528  33.618  1.00  0.00     0.029 A 
ATOM     57  N   UNL A   1      39.359  32.217  33.924  1.00  0.00    -0.354 N 
ATOM     58  N   UNL A   1      41.596  31.084  35.439  1.00  0.00    -0.248 NA
ATOM     59  C   UNL A   1      42.968  31.071  37.329  1.00  0.00     0.031 C 
ATOM     60  C   UNL A   1      38.149  33.824  34.866  1.00  0.00     0.029 A 
ATOM     61  C   UNL A   1      39.235  32.988  35.069  1.00  0.00     0.049 A 
ATOM     62  H   UNL A   1      40.052  31.533  33.777  1.00  0.00     0.167 HD
ATOM     63  C   UNL A   1      41.141  32.042  36.340  1.00  0.00     0.074 A 
ATOM     64  C   UNL A   1      42.007  31.970  37.498  1.00  0.00     0.031 C 
ATOM     65  C   UNL A   1      40.096  32.901  36.222  1.00  0.00     0.037 A 
BRANCH  52  66
ATOM     66  C   UNL A   1      37.102  32.468  30.828  1.00  0.00     0.058 A 
ATOM     67  C   UNL A   1      35.860  31.816  30.768  1.00  0.00     0.135 A 
ATOM     68  C   UNL A   1      37.272  33.627  30.055  1.00  0.00     0.135 A 
ATOM     69  F   UNL A   1      35.650  30.691  31.471  1.00  0.00    -0.206 F 
ATOM     70  C   UNL A   1      34.834  32.281  29.951  1.00  0.00     0.059 A 
ATOM     71  C   UNL A   1      36.249  34.127  29.253  1.00  0.00     0.059 A 
ATOM     72  F   UNL A   1      38.441  34.287  30.072  1.00  0.00    -0.206 F 
ATOM     73  C   UNL A   1      35.038  33.439  29.198  1.00  0.00     0.060 A 
BRANCH  73  74
ATOM     74  S   UNL A   1      33.695  34.032  28.149  1.00  0.00     0.124 S 
ATOM     75  O   UNL A   1      33.116  32.777  27.679  1.00  0.00    -0.237 OA
ATOM     76  O   UNL A   1      32.878  34.793  29.089  1.00  0.00    -0.237 OA
ATOM     77  O   UNL A   1      34.380  34.826  27.133  1.00  0.00    -0.744 OA
ENDBRANCH  73  74
ENDBRANCH  52  66
BRANCH  53  78
ATOM     78  C   UNL A   1      44.619  28.865  36.333  1.00  0.00     0.058 A 
ATOM     79  C   UNL A   1      44.445  27.773  37.197  1.00  0.00     0.135 A 
ATOM     80  C   UNL A   1      45.888  29.466  36.292  1.00  0.00     0.135 A 
ATOM     81  F   UNL A   1      43.248  27.176  37.289  1.00  0.00    -0.206 F 
ATOM     82  C   UNL A   1      45.482  27.302  37.998  1.00  0.00     0.059 A 
ATOM     83  C   UNL A   1      46.947  28.996  37.063  1.00  0.00     0.059 A 
ATOM     84  F   UNL A   1      46.110  30.512  35.482  1.00  0.00    -0.206 F 
ATOM     85  C   UNL A   1      46.732  27.918  37.920  1.00  0.00     0.060 A 
BRANCH  85  86
ATOM     86  S   UNL A   1      48.083  27.266  38.926  1.00  0.00     0.124 S 
ATOM     87  O   UNL A   1      48.757  28.490  39.344  1.00  0.00    -0.237 OA
ATOM     88  O   UNL A   1      47.365  26.542  39.970  1.00  0.00    -0.237 OA
ATOM     89  O   UNL A   1      48.824  26.426  37.989  1.00  0.00    -0.744 OA
ENDBRANCH  85  86
ENDBRANCH  53  78
BRANCH  65  90
ATOM     90  C   UNL A   1      39.795  33.807  37.388  1.00  0.00     0.058 A 
ATOM     91  C   UNL A   1      38.907  33.435  38.409  1.00  0.00     0.135 A 
ATOM     92  C   UNL A   1      40.458  35.040  37.516  1.00  0.00     0.135 A 
ATOM     93  F   UNL A   1      38.243  32.270  38.336  1.00  0.00    -0.206 F 
ATOM     94  C   UNL A   1      38.670  34.262  39.504  1.00  0.00     0.059 A 
ATOM     95  C   UNL A   1      40.259  35.867  38.617  1.00  0.00     0.059 A 
ATOM     96  F   UNL A   1      41.329  35.441  36.575  1.00  0.00    -0.206 F 
ATOM     97  C   UNL A   1      39.353  35.475  39.601  1.00  0.00     0.060 A 
BRANCH  97  98
ATOM     98  S   UNL A   1      39.065  36.519  41.045  1.00  0.00     0.124 S 
ATOM     99  O   UNL A   1      40.395  36.572  41.642  1.00  0.00    -0.237 OA
ATOM    100  O   UNL A   1      38.589  37.761  40.444  1.00  0.00    -0.237 OA
ATOM    101  O   UNL A   1      38.065  35.776  41.808  1.00  0.00    -0.744 OA
ENDBRANCH  97  98
ENDBRANCH  65  90
ENDBRANCH  39  40
ENDBRANCH  32  34
ENDBRANCH  31  32
ENDBRANCH  30  31
ENDBRANCH  29  30
ENDBRANCH  28  29
ENDBRANCH  27  28
ENDBRANCH   1  27
TORSDOF 24
ENDMDL
