MODEL 1
REMARK VINA RESULT:     -12.7      0.000      0.000
REMARK SMILES Cc1cccc(C(=O)OCCOCCOCCOC(=O)c2ccc(-c3c4nc(c(-c5c(F)cc(S(=O)(=O)[O-])cc5F)c5ccc([nH]5)c(-c5c(F)cc(S(=O)(=O)[O-])cc5F)c5nc(c(-c6c(F)cc(S(=O)(=O)[O-])cc6F)c6ccc3[nH]6)C=C5)C=C4)cc2)c1OC[C@@H]1C[C@H]2CC[C@@H]1C2
REMARK SMILES IDX 13 1 12 2 11 3 10 4 9 5 7 6 8 7 6 8 1 9 2 10 3 11 87 12 4 13
REMARK SMILES IDX 5 14 88 15 89 16 90 17 91 18 95 19 92 20 94 21 96 22 93 23
REMARK SMILES IDX 14 24 15 25 16 26 17 27 18 28 19 29 20 30 21 31 22 32 86 33
REMARK SMILES IDX 23 34 85 35 24 36 25 37 26 38 79 39 27 40 84 41 78 42 80 43
REMARK SMILES IDX 28 44 83 45 77 46 76 47 29 49 63 50 42 51 62 52 43 53 46 54
REMARK SMILES IDX 61 55 81 56 44 57 45 58 60 60 82 61 47 62 30 63 31 64 40 65
REMARK SMILES IDX 32 66 33 67 39 68 41 69 34 70 35 71 36 72 37 73 38 74 64 75
REMARK SMILES IDX 65 76 74 77 66 78 67 79 73 80 75 81 68 82 69 83 70 84 71 85
REMARK SMILES IDX 72 86 48 87 49 88 58 89 50 90 51 91 57 92 59 93 52 94 53 95
REMARK SMILES IDX 54 96 55 97 56 98
REMARK H PARENT 80 48 46 59
REMARK Flexibility Score: inf
ROOT
ATOM      1  C   UNL A   1      34.305  33.993  27.989  1.00  0.00     0.188 C 
ENDROOT
BRANCH   1   2
ATOM      2  O   UNL A   1      34.119  32.666  27.475  1.00  0.00    -0.376 OA
BRANCH   2   3
ATOM      3  C   UNL A   1      34.654  31.453  27.995  1.00  0.00     0.202 C 
BRANCH   3   4
ATOM      4  C   UNL A   1      34.289  29.873  27.418  1.00  0.00     0.261 C 
BRANCH   4   5
ATOM      5  O   UNL A   1      33.958  29.345  25.829  1.00  0.00    -0.460 OA
BRANCH   5   6
ATOM      6  C   UNL A   1      33.656  28.254  24.990  1.00  0.00     0.342 C 
ATOM      7  O   UNL A   1      34.137  28.034  23.886  1.00  0.00    -0.246 OA
BRANCH   6   8
ATOM      8  C   UNL A   1      32.639  27.182  25.337  1.00  0.00     0.102 A 
ATOM      9  C   UNL A   1      29.096  26.104  24.345  1.00  0.00     0.048 C 
ATOM     10  C   UNL A   1      30.469  26.106  24.955  1.00  0.00    -0.008 A 
ATOM     11  C   UNL A   1      30.844  24.998  25.726  1.00  0.00     0.007 A 
ATOM     12  C   UNL A   1      31.397  27.152  24.705  1.00  0.00     0.136 A 
ATOM     13  C   UNL A   1      32.140  24.909  26.204  1.00  0.00     0.001 A 
ATOM     14  C   UNL A   1      33.031  25.968  25.969  1.00  0.00     0.019 A 
BRANCH  12  15
ATOM     15  O   UNL A   1      31.049  28.032  23.715  1.00  0.00    -0.492 OA
BRANCH  15  16
ATOM     16  C   UNL A   1      30.243  29.147  24.139  1.00  0.00     0.233 C 
BRANCH  16  17
ATOM     17  C   UNL A   1      29.741  30.156  23.070  1.00  0.00     0.030 C 
ATOM     18  C   UNL A   1      29.211  31.431  23.761  1.00  0.00     0.011 C 
ATOM     19  C   UNL A   1      28.524  29.705  22.239  1.00  0.00    -0.004 C 
ATOM     20  C   UNL A   1      27.752  31.508  23.288  1.00  0.00    -0.010 C 
ATOM     21  C   UNL A   1      28.305  30.722  21.093  1.00  0.00     0.004 C 
ATOM     22  C   UNL A   1      27.364  30.036  23.169  1.00  0.00     0.007 C 
ATOM     23  C   UNL A   1      27.749  31.957  21.820  1.00  0.00     0.004 C 
ENDBRANCH  16  17
ENDBRANCH  15  16
ENDBRANCH  12  15
ENDBRANCH   6   8
ENDBRANCH   5   6
ENDBRANCH   4   5
ENDBRANCH   3   4
ENDBRANCH   2   3
ENDBRANCH   1   2
BRANCH   1  24
ATOM     24  C   UNL A   1      33.152  34.733  28.657  1.00  0.00     0.188 C 
BRANCH  24  25
ATOM     25  O   UNL A   1      33.193  34.509  30.054  1.00  0.00    -0.376 OA
BRANCH  25  26
ATOM     26  C   UNL A   1      34.481  34.498  30.636  1.00  0.00     0.202 C 
BRANCH  26  27
ATOM     27  C   UNL A   1      34.705  33.317  31.599  1.00  0.00     0.261 C 
BRANCH  27  28
ATOM     28  O   UNL A   1      35.284  32.187  30.905  1.00  0.00    -0.460 OA
BRANCH  28  29
ATOM     29  C   UNL A   1      36.127  31.353  31.641  1.00  0.00     0.338 C 
ATOM     30  O   UNL A   1      36.136  31.321  32.817  1.00  0.00    -0.246 OA
BRANCH  29  31
ATOM     31  C   UNL A   1      37.008  30.573  30.667  1.00  0.00     0.060 A 
ATOM     32  C   UNL A   1      36.921  29.221  30.304  1.00  0.00     0.016 A 
ATOM     33  C   UNL A   1      38.173  31.156  30.335  1.00  0.00     0.016 A 
ATOM     34  C   UNL A   1      38.080  28.453  29.781  1.00  0.00     0.010 A 
ATOM     35  C   UNL A   1      39.245  30.274  30.171  1.00  0.00     0.010 A 
ATOM     36  C   UNL A   1      39.385  28.960  29.728  1.00  0.00    -0.014 A 
BRANCH  36  37
ATOM     37  C   UNL A   1      40.835  28.177  29.493  1.00  0.00     0.031 A 
ATOM     38  C   UNL A   1      41.360  26.762  28.780  1.00  0.00     0.074 A 
ATOM     39  C   UNL A   1      41.926  28.793  29.998  1.00  0.00     0.049 A 
ATOM     40  N   UNL A   1      42.104  25.824  29.367  1.00  0.00    -0.248 NA
ATOM     41  C   UNL A   1      41.210  26.351  27.358  1.00  0.00     0.031 C 
ATOM     42  C   UNL A   1      43.330  28.465  29.744  1.00  0.00     0.029 A 
ATOM     43  N   UNL A   1      41.980  29.827  30.925  1.00  0.00    -0.354 N 
ATOM     44  C   UNL A   1      42.393  24.797  28.428  1.00  0.00     0.074 A 
ATOM     45  C   UNL A   1      41.702  25.125  27.250  1.00  0.00     0.031 C 
ATOM     46  C   UNL A   1      44.089  29.089  30.655  1.00  0.00     0.029 A 
ATOM     47  C   UNL A   1      43.199  29.734  31.600  1.00  0.00     0.049 A 
ATOM     48  H   UNL A   1      41.281  30.503  31.080  1.00  0.00     0.167 HD
ATOM     49  C   UNL A   1      43.336  23.806  28.452  1.00  0.00     0.037 A 
ATOM     50  C   UNL A   1      43.231  29.584  32.952  1.00  0.00     0.037 A 
ATOM     51  C   UNL A   1      44.370  24.192  29.359  1.00  0.00     0.049 A 
ATOM     52  C   UNL A   1      43.892  28.303  33.398  1.00  0.00     0.074 A 
ATOM     53  C   UNL A   1      45.473  24.998  29.144  1.00  0.00     0.029 A 
ATOM     54  N   UNL A   1      44.140  24.145  30.714  1.00  0.00    -0.354 N 
ATOM     55  N   UNL A   1      44.181  27.305  32.606  1.00  0.00    -0.248 NA
ATOM     56  C   UNL A   1      44.284  28.042  34.780  1.00  0.00     0.031 C 
ATOM     57  C   UNL A   1      45.837  25.551  30.391  1.00  0.00     0.029 A 
ATOM     58  C   UNL A   1      45.020  24.991  31.358  1.00  0.00     0.049 A 
ATOM     59  H   UNL A   1      43.455  23.594  31.157  1.00  0.00     0.167 HD
ATOM     60  C   UNL A   1      44.707  26.274  33.342  1.00  0.00     0.074 A 
ATOM     61  C   UNL A   1      44.793  26.802  34.688  1.00  0.00     0.031 C 
ATOM     62  C   UNL A   1      45.010  25.059  32.800  1.00  0.00     0.037 A 
BRANCH  49  63
ATOM     63  C   UNL A   1      43.479  22.796  27.291  1.00  0.00     0.058 A 
ATOM     64  C   UNL A   1      42.738  21.605  27.194  1.00  0.00     0.135 A 
ATOM     65  C   UNL A   1      44.446  22.959  26.268  1.00  0.00     0.135 A 
ATOM     66  F   UNL A   1      41.711  21.363  28.020  1.00  0.00    -0.206 F 
ATOM     67  C   UNL A   1      43.047  20.589  26.267  1.00  0.00     0.059 A 
ATOM     68  C   UNL A   1      44.811  21.946  25.368  1.00  0.00     0.059 A 
ATOM     69  F   UNL A   1      45.127  24.108  26.169  1.00  0.00    -0.206 F 
ATOM     70  C   UNL A   1      44.120  20.745  25.391  1.00  0.00     0.060 A 
BRANCH  70  71
ATOM     71  S   UNL A   1      44.652  19.350  24.363  1.00  0.00     0.124 S 
ATOM     72  O   UNL A   1      43.743  18.285  24.777  1.00  0.00    -0.237 OA
ATOM     73  O   UNL A   1      44.451  19.866  23.014  1.00  0.00    -0.237 OA
ATOM     74  O   UNL A   1      46.045  19.148  24.756  1.00  0.00    -0.744 OA
ENDBRANCH  70  71
ENDBRANCH  49  63
BRANCH  50  75
ATOM     75  C   UNL A   1      42.158  30.348  33.652  1.00  0.00     0.058 A 
ATOM     76  C   UNL A   1      42.467  31.673  34.025  1.00  0.00     0.135 A 
ATOM     77  C   UNL A   1      40.800  30.003  33.586  1.00  0.00     0.135 A 
ATOM     78  F   UNL A   1      43.750  32.064  34.107  1.00  0.00    -0.206 F 
ATOM     79  C   UNL A   1      41.488  32.648  34.175  1.00  0.00     0.059 A 
ATOM     80  C   UNL A   1      39.793  30.967  33.755  1.00  0.00     0.059 A 
ATOM     81  F   UNL A   1      40.434  28.771  33.203  1.00  0.00    -0.206 F 
ATOM     82  C   UNL A   1      40.155  32.297  33.988  1.00  0.00     0.060 A 
BRANCH  82  83
ATOM     83  S   UNL A   1      38.961  33.654  33.852  1.00  0.00     0.124 S 
ATOM     84  O   UNL A   1      37.911  33.231  34.771  1.00  0.00    -0.237 OA
ATOM     85  O   UNL A   1      39.770  34.787  34.298  1.00  0.00    -0.237 OA
ATOM     86  O   UNL A   1      38.606  33.647  32.438  1.00  0.00    -0.744 OA
ENDBRANCH  82  83
ENDBRANCH  50  75
BRANCH  62  87
ATOM     87  C   UNL A   1      45.377  23.807  33.555  1.00  0.00     0.058 A 
ATOM     88  C   UNL A   1      46.661  23.555  34.059  1.00  0.00     0.135 A 
ATOM     89  C   UNL A   1      44.369  22.888  33.945  1.00  0.00     0.135 A 
ATOM     90  F   UNL A   1      47.670  24.414  33.854  1.00  0.00    -0.206 F 
ATOM     91  C   UNL A   1      46.946  22.431  34.832  1.00  0.00     0.059 A 
ATOM     92  C   UNL A   1      44.618  21.798  34.770  1.00  0.00     0.059 A 
ATOM     93  F   UNL A   1      43.095  23.030  33.547  1.00  0.00    -0.206 F 
ATOM     94  C   UNL A   1      45.919  21.557  35.181  1.00  0.00     0.060 A 
BRANCH  94  95
ATOM     95  S   UNL A   1      46.263  20.112  36.199  1.00  0.00     0.124 S 
ATOM     96  O   UNL A   1      45.687  20.518  37.477  1.00  0.00    -0.237 OA
ATOM     97  O   UNL A   1      45.555  19.042  35.503  1.00  0.00    -0.237 OA
ATOM     98  O   UNL A   1      47.719  20.021  36.158  1.00  0.00    -0.744 OA
ENDBRANCH  94  95
ENDBRANCH  62  87
ENDBRANCH  36  37
ENDBRANCH  29  31
ENDBRANCH  28  29
ENDBRANCH  27  28
ENDBRANCH  26  27
ENDBRANCH  25  26
ENDBRANCH  24  25
ENDBRANCH   1  24
TORSDOF 23
ENDMDL
MODEL 2
REMARK VINA RESULT:     -11.9      2.169      3.887
REMARK SMILES Cc1cccc(C(=O)OCCOCCOCCOC(=O)c2ccc(-c3c4nc(c(-c5c(F)cc(S(=O)(=O)[O-])cc5F)c5ccc([nH]5)c(-c5c(F)cc(S(=O)(=O)[O-])cc5F)c5nc(c(-c6c(F)cc(S(=O)(=O)[O-])cc6F)c6ccc3[nH]6)C=C5)C=C4)cc2)c1OC[C@@H]1C[C@H]2CC[C@@H]1C2
REMARK SMILES IDX 13 1 12 2 11 3 10 4 9 5 7 6 8 7 6 8 1 9 2 10 3 11 87 12 4 13
REMARK SMILES IDX 5 14 88 15 89 16 90 17 91 18 95 19 92 20 94 21 96 22 93 23
REMARK SMILES IDX 14 24 15 25 16 26 17 27 18 28 19 29 20 30 21 31 22 32 86 33
REMARK SMILES IDX 23 34 85 35 24 36 25 37 26 38 79 39 27 40 84 41 78 42 80 43
REMARK SMILES IDX 28 44 83 45 77 46 76 47 29 49 63 50 42 51 62 52 43 53 46 54
REMARK SMILES IDX 61 55 81 56 44 57 45 58 60 60 82 61 47 62 30 63 31 64 40 65
REMARK SMILES IDX 32 66 33 67 39 68 41 69 34 70 35 71 36 72 37 73 38 74 64 75
REMARK SMILES IDX 65 76 74 77 66 78 67 79 73 80 75 81 68 82 69 83 70 84 71 85
REMARK SMILES IDX 72 86 48 87 49 88 58 89 50 90 51 91 57 92 59 93 52 94 53 95
REMARK SMILES IDX 54 96 55 97 56 98
REMARK H PARENT 80 48 46 59
REMARK Flexibility Score: inf
ROOT
ATOM      1  C   UNL A   1      33.946  30.307  26.984  1.00  0.00     0.188 C 
ENDROOT
BRANCH   1   2
ATOM      2  O   UNL A   1      33.442  29.111  27.600  1.00  0.00    -0.376 OA
BRANCH   2   3
ATOM      3  C   UNL A   1      32.514  28.180  27.053  1.00  0.00     0.202 C 
BRANCH   3   4
ATOM      4  C   UNL A   1      32.894  26.589  26.519  1.00  0.00     0.261 C 
BRANCH   4   5
ATOM      5  O   UNL A   1      31.928  25.182  26.519  1.00  0.00    -0.460 OA
BRANCH   5   6
ATOM      6  C   UNL A   1      31.896  23.776  26.605  1.00  0.00     0.342 C 
ATOM      7  O   UNL A   1      31.864  23.114  27.634  1.00  0.00    -0.246 OA
BRANCH   6   8
ATOM      8  C   UNL A   1      31.929  22.858  25.397  1.00  0.00     0.102 A 
ATOM      9  C   UNL A   1      33.002  22.930  21.717  1.00  0.00     0.048 C 
ATOM     10  C   UNL A   1      32.545  22.439  23.061  1.00  0.00    -0.008 A 
ATOM     11  C   UNL A   1      32.306  21.065  23.208  1.00  0.00     0.007 A 
ATOM     12  C   UNL A   1      32.427  23.310  24.177  1.00  0.00     0.136 A 
ATOM     13  C   UNL A   1      32.000  20.559  24.459  1.00  0.00     0.001 A 
ATOM     14  C   UNL A   1      31.860  21.443  25.542  1.00  0.00     0.019 A 
BRANCH  12  15
ATOM     15  O   UNL A   1      32.958  24.561  24.012  1.00  0.00    -0.492 OA
BRANCH  15  16
ATOM     16  C   UNL A   1      34.389  24.646  24.157  1.00  0.00     0.233 C 
BRANCH  16  17
ATOM     17  C   UNL A   1      35.126  23.534  24.952  1.00  0.00     0.030 C 
ATOM     18  C   UNL A   1      36.405  24.112  25.596  1.00  0.00     0.011 C 
ATOM     19  C   UNL A   1      35.682  22.365  24.115  1.00  0.00    -0.004 C 
ATOM     20  C   UNL A   1      37.523  23.245  25.000  1.00  0.00    -0.010 C 
ATOM     21  C   UNL A   1      36.181  21.262  25.079  1.00  0.00     0.004 C 
ATOM     22  C   UNL A   1      36.995  22.940  23.600  1.00  0.00     0.007 C 
ATOM     23  C   UNL A   1      37.466  21.864  25.669  1.00  0.00     0.004 C 
ENDBRANCH  16  17
ENDBRANCH  15  16
ENDBRANCH  12  15
ENDBRANCH   6   8
ENDBRANCH   5   6
ENDBRANCH   4   5
ENDBRANCH   3   4
ENDBRANCH   2   3
ENDBRANCH   1   2
BRANCH   1  24
ATOM     24  C   UNL A   1      33.673  31.671  27.607  1.00  0.00     0.188 C 
BRANCH  24  25
ATOM     25  O   UNL A   1      34.809  32.499  27.444  1.00  0.00    -0.376 OA
BRANCH  25  26
ATOM     26  C   UNL A   1      35.069  33.401  28.501  1.00  0.00     0.202 C 
BRANCH  26  27
ATOM     27  C   UNL A   1      34.377  33.010  29.821  1.00  0.00     0.261 C 
BRANCH  27  28
ATOM     28  O   UNL A   1      35.157  32.026  30.540  1.00  0.00    -0.460 OA
BRANCH  28  29
ATOM     29  C   UNL A   1      36.540  32.218  30.584  1.00  0.00     0.338 C 
ATOM     30  O   UNL A   1      37.039  33.232  30.911  1.00  0.00    -0.246 OA
BRANCH  29  31
ATOM     31  C   UNL A   1      37.222  30.937  30.109  1.00  0.00     0.060 A 
ATOM     32  C   UNL A   1      37.343  29.713  30.782  1.00  0.00     0.016 A 
ATOM     33  C   UNL A   1      38.051  31.069  29.059  1.00  0.00     0.016 A 
ATOM     34  C   UNL A   1      38.421  28.736  30.486  1.00  0.00     0.010 A 
ATOM     35  C   UNL A   1      39.190  30.261  29.105  1.00  0.00     0.010 A 
ATOM     36  C   UNL A   1      39.485  28.997  29.613  1.00  0.00    -0.014 A 
BRANCH  36  37
ATOM     37  C   UNL A   1      40.926  28.190  29.401  1.00  0.00     0.031 A 
ATOM     38  C   UNL A   1      41.438  26.765  28.700  1.00  0.00     0.074 A 
ATOM     39  C   UNL A   1      42.019  28.792  29.919  1.00  0.00     0.049 A 
ATOM     40  N   UNL A   1      42.160  25.818  29.301  1.00  0.00    -0.248 NA
ATOM     41  C   UNL A   1      41.301  26.351  27.278  1.00  0.00     0.031 C 
ATOM     42  C   UNL A   1      43.422  28.441  29.686  1.00  0.00     0.029 A 
ATOM     43  N   UNL A   1      42.076  29.828  30.843  1.00  0.00    -0.354 N 
ATOM     44  C   UNL A   1      42.446  24.783  28.369  1.00  0.00     0.074 A 
ATOM     45  C   UNL A   1      41.776  25.117  27.181  1.00  0.00     0.031 C 
ATOM     46  C   UNL A   1      44.177  29.057  30.604  1.00  0.00     0.029 A 
ATOM     47  C   UNL A   1      43.284  29.719  31.534  1.00  0.00     0.049 A 
ATOM     48  H   UNL A   1      41.386  30.516  30.985  1.00  0.00     0.167 HD
ATOM     49  C   UNL A   1      43.373  23.778  28.410  1.00  0.00     0.037 A 
ATOM     50  C   UNL A   1      43.295  29.573  32.887  1.00  0.00     0.037 A 
ATOM     51  C   UNL A   1      44.400  24.151  29.330  1.00  0.00     0.049 A 
ATOM     52  C   UNL A   1      43.931  28.284  33.347  1.00  0.00     0.074 A 
ATOM     53  C   UNL A   1      45.518  24.940  29.127  1.00  0.00     0.029 A 
ATOM     54  N   UNL A   1      44.151  24.113  30.682  1.00  0.00    -0.354 N 
ATOM     55  N   UNL A   1      44.215  27.278  32.562  1.00  0.00    -0.248 NA
ATOM     56  C   UNL A   1      44.299  28.023  34.735  1.00  0.00     0.031 C 
ATOM     57  C   UNL A   1      45.874  25.491  30.377  1.00  0.00     0.029 A 
ATOM     58  C   UNL A   1      45.035  24.948  31.334  1.00  0.00     0.049 A 
ATOM     59  H   UNL A   1      43.452  23.575  31.117  1.00  0.00     0.167 HD
ATOM     60  C   UNL A   1      44.715  26.243  33.309  1.00  0.00     0.074 A 
ATOM     61  C   UNL A   1      44.790  26.774  34.655  1.00  0.00     0.031 C 
ATOM     62  C   UNL A   1      45.006  25.021  32.776  1.00  0.00     0.037 A 
BRANCH  49  63
ATOM     63  C   UNL A   1      43.516  22.761  27.255  1.00  0.00     0.058 A 
ATOM     64  C   UNL A   1      42.690  21.634  27.097  1.00  0.00     0.135 A 
ATOM     65  C   UNL A   1      44.564  22.846  26.305  1.00  0.00     0.135 A 
ATOM     66  F   UNL A   1      41.590  21.476  27.845  1.00  0.00    -0.206 F 
ATOM     67  C   UNL A   1      42.981  20.599  26.186  1.00  0.00     0.059 A 
ATOM     68  C   UNL A   1      44.909  21.808  25.426  1.00  0.00     0.059 A 
ATOM     69  F   UNL A   1      45.342  23.936  26.263  1.00  0.00    -0.206 F 
ATOM     70  C   UNL A   1      44.123  20.668  25.390  1.00  0.00     0.060 A 
BRANCH  70  71
ATOM     71  S   UNL A   1      44.613  19.235  24.393  1.00  0.00     0.124 S 
ATOM     72  O   UNL A   1      46.017  19.062  24.754  1.00  0.00    -0.237 OA
ATOM     73  O   UNL A   1      43.703  18.200  24.872  1.00  0.00    -0.237 OA
ATOM     74  O   UNL A   1      44.387  19.681  23.020  1.00  0.00    -0.744 OA
ENDBRANCH  70  71
ENDBRANCH  49  63
BRANCH  50  75
ATOM     75  C   UNL A   1      42.225  30.357  33.570  1.00  0.00     0.058 A 
ATOM     76  C   UNL A   1      42.567  31.658  33.994  1.00  0.00     0.135 A 
ATOM     77  C   UNL A   1      40.859  30.065  33.443  1.00  0.00     0.135 A 
ATOM     78  F   UNL A   1      43.859  31.998  34.135  1.00  0.00    -0.206 F 
ATOM     79  C   UNL A   1      41.619  32.664  34.137  1.00  0.00     0.059 A 
ATOM     80  C   UNL A   1      39.882  31.061  33.604  1.00  0.00     0.059 A 
ATOM     81  F   UNL A   1      40.464  28.859  33.009  1.00  0.00    -0.206 F 
ATOM     82  C   UNL A   1      40.282  32.369  33.890  1.00  0.00     0.060 A 
BRANCH  82  83
ATOM     83  S   UNL A   1      39.145  33.773  33.751  1.00  0.00     0.124 S 
ATOM     84  O   UNL A   1      39.276  34.136  32.345  1.00  0.00    -0.237 OA
ATOM     85  O   UNL A   1      37.877  33.147  34.125  1.00  0.00    -0.237 OA
ATOM     86  O   UNL A   1      39.682  34.735  34.707  1.00  0.00    -0.744 OA
ENDBRANCH  82  83
ENDBRANCH  50  75
BRANCH  62  87
ATOM     87  C   UNL A   1      45.344  23.767  33.541  1.00  0.00     0.058 A 
ATOM     88  C   UNL A   1      46.627  23.476  34.024  1.00  0.00     0.135 A 
ATOM     89  C   UNL A   1      44.312  22.889  33.962  1.00  0.00     0.135 A 
ATOM     90  F   UNL A   1      47.662  24.296  33.788  1.00  0.00    -0.206 F 
ATOM     91  C   UNL A   1      46.887  22.352  34.806  1.00  0.00     0.059 A 
ATOM     92  C   UNL A   1      44.538  21.802  34.796  1.00  0.00     0.059 A 
ATOM     93  F   UNL A   1      43.036  23.071  33.586  1.00  0.00    -0.206 F 
ATOM     94  C   UNL A   1      45.838  21.519  35.186  1.00  0.00     0.060 A 
BRANCH  94  95
ATOM     95  S   UNL A   1      46.150  20.077  36.216  1.00  0.00     0.124 S 
ATOM     96  O   UNL A   1      47.594  19.925  36.068  1.00  0.00    -0.237 OA
ATOM     97  O   UNL A   1      45.696  20.508  37.535  1.00  0.00    -0.237 OA
ATOM     98  O   UNL A   1      45.335  19.042  35.588  1.00  0.00    -0.744 OA
ENDBRANCH  94  95
ENDBRANCH  62  87
ENDBRANCH  36  37
ENDBRANCH  29  31
ENDBRANCH  28  29
ENDBRANCH  27  28
ENDBRANCH  26  27
ENDBRANCH  25  26
ENDBRANCH  24  25
ENDBRANCH   1  24
TORSDOF 23
ENDMDL
MODEL 3
REMARK VINA RESULT:     -11.9      1.600      3.471
REMARK SMILES Cc1cccc(C(=O)OCCOCCOCCOC(=O)c2ccc(-c3c4nc(c(-c5c(F)cc(S(=O)(=O)[O-])cc5F)c5ccc([nH]5)c(-c5c(F)cc(S(=O)(=O)[O-])cc5F)c5nc(c(-c6c(F)cc(S(=O)(=O)[O-])cc6F)c6ccc3[nH]6)C=C5)C=C4)cc2)c1OC[C@@H]1C[C@H]2CC[C@@H]1C2
REMARK SMILES IDX 13 1 12 2 11 3 10 4 9 5 7 6 8 7 6 8 1 9 2 10 3 11 87 12 4 13
REMARK SMILES IDX 5 14 88 15 89 16 90 17 91 18 95 19 92 20 94 21 96 22 93 23
REMARK SMILES IDX 14 24 15 25 16 26 17 27 18 28 19 29 20 30 21 31 22 32 86 33
REMARK SMILES IDX 23 34 85 35 24 36 25 37 26 38 79 39 27 40 84 41 78 42 80 43
REMARK SMILES IDX 28 44 83 45 77 46 76 47 29 49 63 50 42 51 62 52 43 53 46 54
REMARK SMILES IDX 61 55 81 56 44 57 45 58 60 60 82 61 47 62 30 63 31 64 40 65
REMARK SMILES IDX 32 66 33 67 39 68 41 69 34 70 35 71 36 72 37 73 38 74 64 75
REMARK SMILES IDX 65 76 74 77 66 78 67 79 73 80 75 81 68 82 69 83 70 84 71 85
REMARK SMILES IDX 72 86 48 87 49 88 58 89 50 90 51 91 57 92 59 93 52 94 53 95
REMARK SMILES IDX 54 96 55 97 56 98
REMARK H PARENT 80 48 46 59
REMARK Flexibility Score: inf
ROOT
ATOM      1  C   UNL A   1      34.778  33.820  28.016  1.00  0.00     0.188 C 
ENDROOT
BRANCH   1   2
ATOM      2  O   UNL A   1      34.782  32.512  27.425  1.00  0.00    -0.376 OA
BRANCH   2   3
ATOM      3  C   UNL A   1      34.335  31.295  28.014  1.00  0.00     0.202 C 
BRANCH   3   4
ATOM      4  C   UNL A   1      33.918  29.864  27.154  1.00  0.00     0.261 C 
BRANCH   4   5
ATOM      5  O   UNL A   1      32.434  29.023  27.095  1.00  0.00    -0.460 OA
BRANCH   5   6
ATOM      6  C   UNL A   1      31.682  28.003  26.478  1.00  0.00     0.342 C 
ATOM      7  O   UNL A   1      31.131  27.067  27.043  1.00  0.00    -0.246 OA
BRANCH   6   8
ATOM      8  C   UNL A   1      31.469  27.904  24.979  1.00  0.00     0.102 A 
ATOM      9  C   UNL A   1      31.896  25.361  22.142  1.00  0.00     0.048 C 
ATOM     10  C   UNL A   1      31.499  26.590  22.909  1.00  0.00    -0.008 A 
ATOM     11  C   UNL A   1      30.775  27.579  22.230  1.00  0.00     0.007 A 
ATOM     12  C   UNL A   1      31.774  26.728  24.296  1.00  0.00     0.136 A 
ATOM     13  C   UNL A   1      30.289  28.668  22.931  1.00  0.00     0.001 A 
ATOM     14  C   UNL A   1      30.597  28.798  24.295  1.00  0.00     0.019 A 
BRANCH  12  15
ATOM     15  O   UNL A   1      32.218  25.599  24.930  1.00  0.00    -0.492 OA
BRANCH  15  16
ATOM     16  C   UNL A   1      33.642  25.528  25.135  1.00  0.00     0.233 C 
BRANCH  16  17
ATOM     17  C   UNL A   1      34.434  24.365  24.480  1.00  0.00     0.030 C 
ATOM     18  C   UNL A   1      33.680  23.034  24.689  1.00  0.00     0.011 C 
ATOM     19  C   UNL A   1      35.814  24.059  25.096  1.00  0.00    -0.004 C 
ATOM     20  C   UNL A   1      34.696  22.168  25.448  1.00  0.00    -0.010 C 
ATOM     21  C   UNL A   1      36.543  23.036  24.192  1.00  0.00     0.004 C 
ATOM     22  C   UNL A   1      35.440  23.197  26.296  1.00  0.00     0.007 C 
ATOM     23  C   UNL A   1      35.783  21.727  24.457  1.00  0.00     0.004 C 
ENDBRANCH  16  17
ENDBRANCH  15  16
ENDBRANCH  12  15
ENDBRANCH   6   8
ENDBRANCH   5   6
ENDBRANCH   4   5
ENDBRANCH   3   4
ENDBRANCH   2   3
ENDBRANCH   1   2
BRANCH   1  24
ATOM     24  C   UNL A   1      33.480  34.435  28.526  1.00  0.00     0.188 C 
BRANCH  24  25
ATOM     25  O   UNL A   1      33.381  34.236  29.924  1.00  0.00    -0.376 OA
BRANCH  25  26
ATOM     26  C   UNL A   1      34.602  34.256  30.635  1.00  0.00     0.202 C 
BRANCH  26  27
ATOM     27  C   UNL A   1      34.828  33.000  31.496  1.00  0.00     0.261 C 
BRANCH  27  28
ATOM     28  O   UNL A   1      35.381  31.923  30.703  1.00  0.00    -0.460 OA
BRANCH  28  29
ATOM     29  C   UNL A   1      36.202  31.005  31.361  1.00  0.00     0.338 C 
ATOM     30  O   UNL A   1      35.956  30.569  32.426  1.00  0.00    -0.246 OA
BRANCH  29  31
ATOM     31  C   UNL A   1      37.427  30.739  30.488  1.00  0.00     0.060 A 
ATOM     32  C   UNL A   1      37.500  30.019  29.287  1.00  0.00     0.016 A 
ATOM     33  C   UNL A   1      38.620  30.962  31.067  1.00  0.00     0.016 A 
ATOM     34  C   UNL A   1      38.756  29.392  28.801  1.00  0.00     0.010 A 
ATOM     35  C   UNL A   1      39.627  30.065  30.703  1.00  0.00     0.010 A 
ATOM     36  C   UNL A   1      39.938  29.344  29.551  1.00  0.00    -0.014 A 
BRANCH  36  37
ATOM     37  C   UNL A   1      41.314  28.431  29.334  1.00  0.00     0.031 A 
ATOM     38  C   UNL A   1      41.704  26.936  28.703  1.00  0.00     0.074 A 
ATOM     39  C   UNL A   1      42.465  28.987  29.774  1.00  0.00     0.049 A 
ATOM     40  N   UNL A   1      42.386  25.980  29.332  1.00  0.00    -0.248 NA
ATOM     41  C   UNL A   1      41.482  26.451  27.314  1.00  0.00     0.031 C 
ATOM     42  C   UNL A   1      43.830  28.530  29.510  1.00  0.00     0.029 A 
ATOM     43  N   UNL A   1      42.626  30.069  30.631  1.00  0.00    -0.354 N 
ATOM     44  C   UNL A   1      42.566  24.876  28.455  1.00  0.00     0.074 A 
ATOM     45  C   UNL A   1      41.871  25.184  27.275  1.00  0.00     0.031 C 
ATOM     46  C   UNL A   1      44.661  29.146  30.361  1.00  0.00     0.029 A 
ATOM     47  C   UNL A   1      43.852  29.919  31.282  1.00  0.00     0.049 A 
ATOM     48  H   UNL A   1      41.989  30.809  30.757  1.00  0.00     0.167 HD
ATOM     49  C   UNL A   1      43.427  23.815  28.522  1.00  0.00     0.037 A 
ATOM     50  C   UNL A   1      43.909  29.852  32.640  1.00  0.00     0.037 A 
ATOM     51  C   UNL A   1      44.513  24.170  29.379  1.00  0.00     0.049 A 
ATOM     52  C   UNL A   1      44.479  28.552  33.153  1.00  0.00     0.074 A 
ATOM     53  C   UNL A   1      45.671  24.869  29.087  1.00  0.00     0.029 A 
ATOM     54  N   UNL A   1      44.318  24.228  30.739  1.00  0.00    -0.354 N 
ATOM     55  N   UNL A   1      44.665  27.485  32.421  1.00  0.00    -0.248 NA
ATOM     56  C   UNL A   1      44.886  28.347  34.539  1.00  0.00     0.031 C 
ATOM     57  C   UNL A   1      46.113  25.467  30.288  1.00  0.00     0.029 A 
ATOM     58  C   UNL A   1      45.281  25.038  31.306  1.00  0.00     0.049 A 
ATOM     59  H   UNL A   1      43.604  23.764  31.232  1.00  0.00     0.167 HD
ATOM     60  C   UNL A   1      45.126  26.464  33.210  1.00  0.00     0.074 A 
ATOM     61  C   UNL A   1      45.291  27.066  34.517  1.00  0.00     0.031 C 
ATOM     62  C   UNL A   1      45.316  25.197  32.742  1.00  0.00     0.037 A 
BRANCH  49  63
ATOM     63  C   UNL A   1      43.456  22.725  27.426  1.00  0.00     0.058 A 
ATOM     64  C   UNL A   1      42.591  21.617  27.401  1.00  0.00     0.135 A 
ATOM     65  C   UNL A   1      44.432  22.720  26.399  1.00  0.00     0.135 A 
ATOM     66  F   UNL A   1      41.546  21.539  28.236  1.00  0.00    -0.206 F 
ATOM     67  C   UNL A   1      42.785  20.519  26.539  1.00  0.00     0.059 A 
ATOM     68  C   UNL A   1      44.682  21.620  25.564  1.00  0.00     0.059 A 
ATOM     69  F   UNL A   1      45.233  23.780  26.232  1.00  0.00    -0.206 F 
ATOM     70  C   UNL A   1      43.866  20.504  25.659  1.00  0.00     0.060 A 
BRANCH  70  71
ATOM     71  S   UNL A   1      44.241  18.999  24.720  1.00  0.00     0.124 S 
ATOM     72  O   UNL A   1      45.523  18.584  25.284  1.00  0.00    -0.237 OA
ATOM     73  O   UNL A   1      43.103  18.144  25.039  1.00  0.00    -0.237 OA
ATOM     74  O   UNL A   1      44.306  19.465  23.337  1.00  0.00    -0.744 OA
ENDBRANCH  70  71
ENDBRANCH  49  63
BRANCH  50  75
ATOM     75  C   UNL A   1      42.921  30.744  33.313  1.00  0.00     0.058 A 
ATOM     76  C   UNL A   1      41.759  30.129  33.823  1.00  0.00     0.135 A 
ATOM     77  C   UNL A   1      43.250  32.009  33.822  1.00  0.00     0.135 A 
ATOM     78  F   UNL A   1      41.391  28.916  33.375  1.00  0.00    -0.206 F 
ATOM     79  C   UNL A   1      41.044  30.663  34.888  1.00  0.00     0.059 A 
ATOM     80  C   UNL A   1      42.529  32.579  34.884  1.00  0.00     0.059 A 
ATOM     81  F   UNL A   1      44.362  32.635  33.408  1.00  0.00    -0.206 F 
ATOM     82  C   UNL A   1      41.466  31.865  35.446  1.00  0.00     0.060 A 
BRANCH  82  83
ATOM     83  S   UNL A   1      40.724  32.340  37.030  1.00  0.00     0.124 S 
ATOM     84  O   UNL A   1      39.464  31.607  37.010  1.00  0.00    -0.237 OA
ATOM     85  O   UNL A   1      41.727  31.844  37.971  1.00  0.00    -0.237 OA
ATOM     86  O   UNL A   1      40.616  33.790  36.927  1.00  0.00    -0.744 OA
ENDBRANCH  82  83
ENDBRANCH  50  75
BRANCH  62  87
ATOM     87  C   UNL A   1      45.603  23.969  33.567  1.00  0.00     0.058 A 
ATOM     88  C   UNL A   1      46.876  23.644  34.056  1.00  0.00     0.135 A 
ATOM     89  C   UNL A   1      44.535  23.163  34.041  1.00  0.00     0.135 A 
ATOM     90  F   UNL A   1      47.944  24.401  33.770  1.00  0.00    -0.206 F 
ATOM     91  C   UNL A   1      47.091  22.550  34.893  1.00  0.00     0.059 A 
ATOM     92  C   UNL A   1      44.719  22.110  34.928  1.00  0.00     0.059 A 
ATOM     93  F   UNL A   1      43.265  23.384  33.665  1.00  0.00    -0.206 F 
ATOM     94  C   UNL A   1      46.008  21.788  35.323  1.00  0.00     0.060 A 
BRANCH  94  95
ATOM     95  S   UNL A   1      46.263  20.387  36.424  1.00  0.00     0.124 S 
ATOM     96  O   UNL A   1      45.767  20.921  37.688  1.00  0.00    -0.237 OA
ATOM     97  O   UNL A   1      45.445  19.340  35.821  1.00  0.00    -0.237 OA
ATOM     98  O   UNL A   1      47.704  20.169  36.349  1.00  0.00    -0.744 OA
ENDBRANCH  94  95
ENDBRANCH  62  87
ENDBRANCH  36  37
ENDBRANCH  29  31
ENDBRANCH  28  29
ENDBRANCH  27  28
ENDBRANCH  26  27
ENDBRANCH  25  26
ENDBRANCH  24  25
ENDBRANCH   1  24
TORSDOF 23
ENDMDL
