MODEL 1
REMARK VINA RESULT:     -11.4      0.000      0.000
REMARK SMILES Cc1ccc(NC(=O)[C@H]2CC(Cl)=CC[C@@H]2C(=O)OCCOCCOCCOC(=O)c2ccc(-c3c4nc(c(-c5c(F)cc(S(=O)(=O)[O-])cc5F)c5ccc([nH]5)c(-c5c(F)cc(S(=O)(=O)[O-])cc5F)c5nc(c(-c6c(F)cc(S(=O)(=O)[O-])cc6F)c6ccc3[nH]6)C=C5)C=C4)cc2)cc1[N+](=O)[O-]
REMARK SMILES IDX 22 1 21 2 20 3 19 4 18 5 16 6 17 7 15 8 9 9 10 10 11 11
REMARK SMILES IDX 14 12 12 13 13 14 7 15 6 16 8 18 5 19 1 20 2 21 3 22 97 23
REMARK SMILES IDX 4 24 96 25 98 26 99 27 100 28 23 29 24 30 25 31 26 32 27 33
REMARK SMILES IDX 28 34 29 35 30 36 31 37 95 38 32 39 94 40 33 41 34 42 35 43
REMARK SMILES IDX 88 44 36 45 93 46 87 47 89 48 37 49 92 50 86 51 85 52 38 54
REMARK SMILES IDX 72 55 51 56 71 57 52 58 55 59 70 60 90 61 53 62 54 63 69 65
REMARK SMILES IDX 91 66 56 67 39 68 40 69 49 70 41 71 42 72 48 73 50 74 43 75
REMARK SMILES IDX 44 76 45 77 46 78 47 79 73 80 74 81 83 82 75 83 76 84 82 85
REMARK SMILES IDX 84 86 77 87 78 88 79 89 80 90 81 91 57 92 58 93 67 94 59 95
REMARK SMILES IDX 60 96 66 97 68 98 61 99 62 100 63 101 64 102 65 103
REMARK H PARENT 6 17 89 53 55 64
REMARK Flexibility Score: inf
ROOT
ATOM      1  C   UNL A   1      37.302  21.735  25.302  1.00  0.00     0.188 C 
ENDROOT
BRANCH   1   2
ATOM      2  O   UNL A   1      36.416  22.703  24.651  1.00  0.00    -0.376 OA
BRANCH   2   3
ATOM      3  C   UNL A   1      34.922  22.383  24.015  1.00  0.00     0.202 C 
BRANCH   3   4
ATOM      4  C   UNL A   1      32.944  22.247  24.971  1.00  0.00     0.261 C 
BRANCH   4   5
ATOM      5  O   UNL A   1      32.051  23.621  25.848  1.00  0.00    -0.463 OA
BRANCH   5   6
ATOM      6  C   UNL A   1      31.301  24.856  25.895  1.00  0.00     0.310 C 
ATOM      7  O   UNL A   1      30.682  25.386  26.820  1.00  0.00    -0.252 OA
BRANCH   6   8
ATOM      8  C   UNL A   1      31.283  25.851  24.769  1.00  0.00     0.116 C 
ATOM      9  C   UNL A   1      32.050  27.144  24.912  1.00  0.00     0.098 C 
ATOM     10  C   UNL A   1      31.897  27.862  23.534  1.00  0.00     0.062 C 
ATOM     11  C   UNL A   1      30.410  28.145  23.259  1.00  0.00     0.015 C 
ATOM     12  C   UNL A   1      29.772  25.983  24.237  1.00  0.00     0.044 C 
ATOM     13  Cl  UNL A   1      29.984  29.681  22.599  1.00  0.00    -0.089 Cl
ATOM     14  C   UNL A   1      29.437  27.289  23.596  1.00  0.00    -0.010 C 
BRANCH   9  15
ATOM     15  C   UNL A   1      33.399  26.983  25.711  1.00  0.00     0.228 C 
ATOM     16  N   UNL A   1      34.243  27.910  26.362  1.00  0.00    -0.326 N 
ATOM     17  H   UNL A   1      35.024  27.404  26.681  1.00  0.00     0.169 HD
ATOM     18  O   UNL A   1      33.745  25.800  25.893  1.00  0.00    -0.274 OA
BRANCH  16  19
ATOM     19  C   UNL A   1      34.457  29.339  26.775  1.00  0.00     0.048 A 
ATOM     20  C   UNL A   1      34.868  33.555  29.759  1.00  0.00     0.052 C 
ATOM     21  C   UNL A   1      34.742  32.182  29.127  1.00  0.00     0.027 A 
ATOM     22  C   UNL A   1      33.340  32.059  28.043  1.00  0.00     0.012 A 
ATOM     23  C   UNL A   1      35.989  30.934  29.057  1.00  0.00     0.274 A 
ATOM     24  C   UNL A   1      33.244  30.705  26.831  1.00  0.00     0.027 A 
ATOM     25  C   UNL A   1      35.872  29.541  27.884  1.00  0.00     0.112 A 
BRANCH  23  26
ATOM     26  N   UNL A   1      37.254  31.134  29.748  1.00  0.00     0.063 N 
ATOM     27  O   UNL A   1      38.130  31.739  29.121  1.00  0.00    -0.258 OA
ATOM     28  O   UNL A   1      37.362  30.734  30.911  1.00  0.00    -0.258 OA
ENDBRANCH  23  26
ENDBRANCH  16  19
ENDBRANCH   9  15
ENDBRANCH   6   8
ENDBRANCH   5   6
ENDBRANCH   4   5
ENDBRANCH   3   4
ENDBRANCH   2   3
ENDBRANCH   1   2
BRANCH   1  29
ATOM     29  C   UNL A   1      38.669  22.200  25.771  1.00  0.00     0.188 C 
BRANCH  29  30
ATOM     30  O   UNL A   1      39.236  21.145  26.510  1.00  0.00    -0.376 OA
BRANCH  30  31
ATOM     31  C   UNL A   1      40.095  20.291  25.801  1.00  0.00     0.202 C 
BRANCH  31  32
ATOM     32  C   UNL A   1      41.461  20.225  26.490  1.00  0.00     0.261 C 
BRANCH  32  33
ATOM     33  O   UNL A   1      41.948  21.585  26.668  1.00  0.00    -0.460 OA
BRANCH  33  34
ATOM     34  C   UNL A   1      42.748  22.174  25.698  1.00  0.00     0.338 C 
ATOM     35  O   UNL A   1      43.277  21.533  24.811  1.00  0.00    -0.246 OA
BRANCH  34  36
ATOM     36  C   UNL A   1      42.822  23.688  25.957  1.00  0.00     0.060 A 
ATOM     37  C   UNL A   1      43.583  24.762  25.519  1.00  0.00     0.016 A 
ATOM     38  C   UNL A   1      41.998  24.151  26.894  1.00  0.00     0.016 A 
ATOM     39  C   UNL A   1      43.690  26.133  26.254  1.00  0.00     0.010 A 
ATOM     40  C   UNL A   1      42.128  25.486  27.500  1.00  0.00     0.010 A 
ATOM     41  C   UNL A   1      43.033  26.521  27.439  1.00  0.00    -0.014 A 
BRANCH  41  42
ATOM     42  C   UNL A   1      43.399  27.690  28.701  1.00  0.00     0.031 A 
ATOM     43  C   UNL A   1      42.611  28.697  29.969  1.00  0.00     0.074 A 
ATOM     44  C   UNL A   1      44.720  27.725  28.991  1.00  0.00     0.049 A 
ATOM     45  N   UNL A   1      42.753  30.012  30.165  1.00  0.00    -0.248 NA
ATOM     46  C   UNL A   1      41.669  28.282  31.119  1.00  0.00     0.031 C 
ATOM     47  C   UNL A   1      45.368  28.376  30.133  1.00  0.00     0.029 A 
ATOM     48  N   UNL A   1      45.792  27.162  28.321  1.00  0.00    -0.354 N 
ATOM     49  C   UNL A   1      41.875  30.417  31.240  1.00  0.00     0.074 A 
ATOM     50  C   UNL A   1      41.005  29.363  31.465  1.00  0.00     0.031 C 
ATOM     51  C   UNL A   1      46.689  28.427  29.898  1.00  0.00     0.029 A 
ATOM     52  C   UNL A   1      46.909  27.962  28.544  1.00  0.00     0.049 A 
ATOM     53  H   UNL A   1      45.768  26.340  27.780  1.00  0.00     0.167 HD
ATOM     54  C   UNL A   1      42.029  31.314  32.270  1.00  0.00     0.037 A 
ATOM     55  C   UNL A   1      47.389  28.707  27.505  1.00  0.00     0.037 A 
ATOM     56  C   UNL A   1      43.390  31.768  32.238  1.00  0.00     0.049 A 
ATOM     57  C   UNL A   1      46.948  30.175  27.654  1.00  0.00     0.074 A 
ATOM     58  C   UNL A   1      44.582  31.285  32.740  1.00  0.00     0.029 A 
ATOM     59  N   UNL A   1      43.706  32.553  31.168  1.00  0.00    -0.354 N 
ATOM     60  N   UNL A   1      46.537  30.734  28.772  1.00  0.00    -0.248 NA
ATOM     61  C   UNL A   1      46.884  31.112  26.533  1.00  0.00     0.031 C 
ATOM     62  C   UNL A   1      45.585  31.596  31.756  1.00  0.00     0.029 A 
ATOM     63  C   UNL A   1      44.988  32.301  30.719  1.00  0.00     0.049 A 
ATOM     64  H   UNL A   1      43.097  33.216  30.767  1.00  0.00     0.167 HD
ATOM     65  C   UNL A   1      46.011  31.973  28.504  1.00  0.00     0.074 A 
ATOM     66  C   UNL A   1      46.308  32.186  27.098  1.00  0.00     0.031 C 
ATOM     67  C   UNL A   1      45.306  32.762  29.374  1.00  0.00     0.037 A 
BRANCH  54  68
ATOM     68  C   UNL A   1      41.008  31.515  33.445  1.00  0.00     0.058 A 
ATOM     69  C   UNL A   1      41.304  31.076  34.750  1.00  0.00     0.135 A 
ATOM     70  C   UNL A   1      39.739  32.168  33.358  1.00  0.00     0.135 A 
ATOM     71  F   UNL A   1      42.495  30.528  35.027  1.00  0.00    -0.206 F 
ATOM     72  C   UNL A   1      40.409  31.201  35.837  1.00  0.00     0.059 A 
ATOM     73  C   UNL A   1      38.789  32.210  34.398  1.00  0.00     0.059 A 
ATOM     74  F   UNL A   1      39.379  32.863  32.267  1.00  0.00    -0.206 F 
ATOM     75  C   UNL A   1      39.141  31.741  35.649  1.00  0.00     0.060 A 
BRANCH  75  76
ATOM     76  S   UNL A   1      38.003  31.896  37.054  1.00  0.00     0.124 S 
ATOM     77  O   UNL A   1      37.087  32.938  36.604  1.00  0.00    -0.237 OA
ATOM     78  O   UNL A   1      37.442  30.552  37.138  1.00  0.00    -0.237 OA
ATOM     79  O   UNL A   1      38.874  32.278  38.164  1.00  0.00    -0.744 OA
ENDBRANCH  75  76
ENDBRANCH  54  68
BRANCH  55  80
ATOM     80  C   UNL A   1      47.547  27.839  26.275  1.00  0.00     0.058 A 
ATOM     81  C   UNL A   1      46.558  28.023  25.273  1.00  0.00     0.135 A 
ATOM     82  C   UNL A   1      48.747  27.248  25.848  1.00  0.00     0.135 A 
ATOM     83  F   UNL A   1      45.372  28.562  25.599  1.00  0.00    -0.206 F 
ATOM     84  C   UNL A   1      46.815  27.842  23.915  1.00  0.00     0.059 A 
ATOM     85  C   UNL A   1      49.005  26.999  24.480  1.00  0.00     0.059 A 
ATOM     86  F   UNL A   1      49.768  27.103  26.704  1.00  0.00    -0.206 F 
ATOM     87  C   UNL A   1      48.061  27.374  23.520  1.00  0.00     0.060 A 
BRANCH  87  88
ATOM     88  S   UNL A   1      48.450  27.466  21.746  1.00  0.00     0.124 S 
ATOM     89  O   UNL A   1      47.260  28.100  21.198  1.00  0.00    -0.237 OA
ATOM     90  O   UNL A   1      49.659  28.291  21.766  1.00  0.00    -0.237 OA
ATOM     91  O   UNL A   1      48.645  26.068  21.380  1.00  0.00    -0.744 OA
ENDBRANCH  87  88
ENDBRANCH  55  80
BRANCH  67  92
ATOM     92  C   UNL A   1      44.834  34.128  28.943  1.00  0.00     0.058 A 
ATOM     93  C   UNL A   1      45.314  35.258  29.612  1.00  0.00     0.135 A 
ATOM     94  C   UNL A   1      43.806  34.344  27.998  1.00  0.00     0.135 A 
ATOM     95  F   UNL A   1      46.283  35.136  30.533  1.00  0.00    -0.206 F 
ATOM     96  C   UNL A   1      44.815  36.530  29.354  1.00  0.00     0.059 A 
ATOM     97  C   UNL A   1      43.234  35.591  27.781  1.00  0.00     0.059 A 
ATOM     98  F   UNL A   1      43.307  33.330  27.272  1.00  0.00    -0.206 F 
ATOM     99  C   UNL A   1      43.770  36.686  28.445  1.00  0.00     0.060 A 
BRANCH  99 100
ATOM    100  S   UNL A   1      43.111  38.330  28.124  1.00  0.00     0.124 S 
ATOM    101  O   UNL A   1      43.885  39.170  29.032  1.00  0.00    -0.237 OA
ATOM    102  O   UNL A   1      43.417  38.485  26.706  1.00  0.00    -0.237 OA
ATOM    103  O   UNL A   1      41.696  38.195  28.456  1.00  0.00    -0.744 OA
ENDBRANCH  99 100
ENDBRANCH  67  92
ENDBRANCH  41  42
ENDBRANCH  34  36
ENDBRANCH  33  34
ENDBRANCH  32  33
ENDBRANCH  31  32
ENDBRANCH  30  31
ENDBRANCH  29  30
ENDBRANCH   1  29
TORSDOF 23
ENDMDL
MODEL 2
REMARK VINA RESULT:     -11.3      5.992     10.013
REMARK SMILES Cc1ccc(NC(=O)[C@H]2CC(Cl)=CC[C@@H]2C(=O)OCCOCCOCCOC(=O)c2ccc(-c3c4nc(c(-c5c(F)cc(S(=O)(=O)[O-])cc5F)c5ccc([nH]5)c(-c5c(F)cc(S(=O)(=O)[O-])cc5F)c5nc(c(-c6c(F)cc(S(=O)(=O)[O-])cc6F)c6ccc3[nH]6)C=C5)C=C4)cc2)cc1[N+](=O)[O-]
REMARK SMILES IDX 22 1 21 2 20 3 19 4 18 5 16 6 17 7 15 8 9 9 10 10 11 11
REMARK SMILES IDX 14 12 12 13 13 14 7 15 6 16 8 18 5 19 1 20 2 21 3 22 97 23
REMARK SMILES IDX 4 24 96 25 98 26 99 27 100 28 23 29 24 30 25 31 26 32 27 33
REMARK SMILES IDX 28 34 29 35 30 36 31 37 95 38 32 39 94 40 33 41 34 42 35 43
REMARK SMILES IDX 88 44 36 45 93 46 87 47 89 48 37 49 92 50 86 51 85 52 38 54
REMARK SMILES IDX 72 55 51 56 71 57 52 58 55 59 70 60 90 61 53 62 54 63 69 65
REMARK SMILES IDX 91 66 56 67 39 68 40 69 49 70 41 71 42 72 48 73 50 74 43 75
REMARK SMILES IDX 44 76 45 77 46 78 47 79 73 80 74 81 83 82 75 83 76 84 82 85
REMARK SMILES IDX 84 86 77 87 78 88 79 89 80 90 81 91 57 92 58 93 67 94 59 95
REMARK SMILES IDX 60 96 66 97 68 98 61 99 62 100 63 101 64 102 65 103
REMARK H PARENT 6 17 89 53 55 64
REMARK Flexibility Score: inf
ROOT
ATOM      1  C   UNL A   1      46.456  30.248  27.099  1.00  0.00     0.188 C 
ENDROOT
BRANCH   1   2
ATOM      2  O   UNL A   1      45.688  29.970  28.316  1.00  0.00    -0.376 OA
BRANCH   2   3
ATOM      3  C   UNL A   1      44.292  30.726  28.781  1.00  0.00     0.202 C 
BRANCH   3   4
ATOM      4  C   UNL A   1      42.216  29.999  28.868  1.00  0.00     0.261 C 
BRANCH   4   5
ATOM      5  O   UNL A   1      40.961  30.410  30.175  1.00  0.00    -0.463 OA
BRANCH   5   6
ATOM      6  C   UNL A   1      40.227  31.322  31.026  1.00  0.00     0.310 C 
ATOM      7  O   UNL A   1      40.564  31.903  32.059  1.00  0.00    -0.252 OA
BRANCH   6   8
ATOM      8  C   UNL A   1      38.874  31.870  30.671  1.00  0.00     0.116 C 
ATOM      9  C   UNL A   1      37.913  31.015  29.881  1.00  0.00     0.098 C 
ATOM     10  C   UNL A   1      36.597  31.852  29.799  1.00  0.00     0.062 C 
ATOM     11  C   UNL A   1      36.870  33.176  29.064  1.00  0.00     0.015 C 
ATOM     12  C   UNL A   1      39.062  33.380  30.156  1.00  0.00     0.044 C 
ATOM     13  Cl  UNL A   1      35.707  33.718  27.911  1.00  0.00    -0.089 Cl
ATOM     14  C   UNL A   1      38.006  33.866  29.218  1.00  0.00    -0.010 C 
BRANCH   9  15
ATOM     15  C   UNL A   1      37.998  29.483  30.244  1.00  0.00     0.228 C 
ATOM     16  N   UNL A   1      38.508  28.362  29.553  1.00  0.00    -0.326 N 
ATOM     17  H   UNL A   1      38.302  27.574  30.104  1.00  0.00     0.169 HD
ATOM     18  O   UNL A   1      37.634  29.215  31.404  1.00  0.00    -0.274 OA
BRANCH  16  19
ATOM     19  C   UNL A   1      39.233  27.860  28.335  1.00  0.00     0.048 A 
ATOM     20  C   UNL A   1      43.092  26.428  25.188  1.00  0.00     0.052 C 
ATOM     21  C   UNL A   1      42.159  26.855  26.306  1.00  0.00     0.027 A 
ATOM     22  C   UNL A   1      41.282  28.352  25.926  1.00  0.00     0.012 A 
ATOM     23  C   UNL A   1      41.608  25.861  27.657  1.00  0.00     0.274 A 
ATOM     24  C   UNL A   1      39.795  28.801  26.873  1.00  0.00     0.027 A 
ATOM     25  C   UNL A   1      40.152  26.334  28.650  1.00  0.00     0.112 A 
BRANCH  23  26
ATOM     26  N   UNL A   1      42.147  24.521  27.839  1.00  0.00     0.063 N 
ATOM     27  O   UNL A   1      41.373  23.586  27.608  1.00  0.00    -0.258 OA
ATOM     28  O   UNL A   1      43.332  24.399  28.164  1.00  0.00    -0.258 OA
ENDBRANCH  23  26
ENDBRANCH  16  19
ENDBRANCH   9  15
ENDBRANCH   6   8
ENDBRANCH   5   6
ENDBRANCH   4   5
ENDBRANCH   3   4
ENDBRANCH   2   3
ENDBRANCH   1   2
BRANCH   1  29
ATOM     29  C   UNL A   1      46.429  29.231  25.973  1.00  0.00     0.188 C 
BRANCH  29  30
ATOM     30  O   UNL A   1      47.016  28.050  26.464  1.00  0.00    -0.376 OA
BRANCH  30  31
ATOM     31  C   UNL A   1      48.105  27.555  25.731  1.00  0.00     0.202 C 
BRANCH  31  32
ATOM     32  C   UNL A   1      49.421  28.015  26.365  1.00  0.00     0.261 C 
BRANCH  32  33
ATOM     33  O   UNL A   1      49.257  28.009  27.812  1.00  0.00    -0.460 OA
BRANCH  33  34
ATOM     34  C   UNL A   1      49.821  26.995  28.574  1.00  0.00     0.338 C 
ATOM     35  O   UNL A   1      51.018  26.785  28.599  1.00  0.00    -0.246 OA
BRANCH  34  36
ATOM     36  C   UNL A   1      48.705  26.247  29.323  1.00  0.00     0.060 A 
ATOM     37  C   UNL A   1      47.489  25.654  29.016  1.00  0.00     0.016 A 
ATOM     38  C   UNL A   1      48.855  26.165  30.644  1.00  0.00     0.016 A 
ATOM     39  C   UNL A   1      46.380  25.311  30.056  1.00  0.00     0.010 A 
ATOM     40  C   UNL A   1      47.772  25.772  31.559  1.00  0.00     0.010 A 
ATOM     41  C   UNL A   1      46.426  25.508  31.451  1.00  0.00    -0.014 A 
BRANCH  41  42
ATOM     42  C   UNL A   1      45.193  25.742  32.683  1.00  0.00     0.031 A 
ATOM     43  C   UNL A   1      44.031  26.969  33.308  1.00  0.00     0.074 A 
ATOM     44  C   UNL A   1      44.807  24.573  33.243  1.00  0.00     0.049 A 
ATOM     45  N   UNL A   1      43.883  27.374  34.573  1.00  0.00    -0.248 NA
ATOM     46  C   UNL A   1      42.937  27.764  32.565  1.00  0.00     0.031 C 
ATOM     47  C   UNL A   1      43.650  24.333  34.109  1.00  0.00     0.029 A 
ATOM     48  N   UNL A   1      45.372  23.312  33.144  1.00  0.00    -0.354 N 
ATOM     49  C   UNL A   1      42.894  28.429  34.608  1.00  0.00     0.074 A 
ATOM     50  C   UNL A   1      42.689  28.828  33.297  1.00  0.00     0.031 C 
ATOM     51  C   UNL A   1      43.789  23.125  34.679  1.00  0.00     0.029 A 
ATOM     52  C   UNL A   1      45.102  22.625  34.325  1.00  0.00     0.049 A 
ATOM     53  H   UNL A   1      45.877  22.964  32.375  1.00  0.00     0.167 HD
ATOM     54  C   UNL A   1      41.896  28.729  35.503  1.00  0.00     0.037 A 
ATOM     55  C   UNL A   1      46.134  22.391  35.188  1.00  0.00     0.037 A 
ATOM     56  C   UNL A   1      41.847  27.662  36.459  1.00  0.00     0.049 A 
ATOM     57  C   UNL A   1      46.082  23.387  36.361  1.00  0.00     0.074 A 
ATOM     58  C   UNL A   1      41.238  26.423  36.495  1.00  0.00     0.029 A 
ATOM     59  N   UNL A   1      42.924  27.591  37.294  1.00  0.00    -0.354 N 
ATOM     60  N   UNL A   1      45.022  24.079  36.723  1.00  0.00    -0.248 NA
ATOM     61  C   UNL A   1      47.244  23.720  37.184  1.00  0.00     0.031 C 
ATOM     62  C   UNL A   1      42.158  25.544  37.168  1.00  0.00     0.029 A 
ATOM     63  C   UNL A   1      43.265  26.281  37.567  1.00  0.00     0.049 A 
ATOM     64  H   UNL A   1      43.398  28.376  37.656  1.00  0.00     0.167 HD
ATOM     65  C   UNL A   1      45.382  25.027  37.649  1.00  0.00     0.074 A 
ATOM     66  C   UNL A   1      46.771  24.719  37.947  1.00  0.00     0.031 C 
ATOM     67  C   UNL A   1      44.602  26.057  38.102  1.00  0.00     0.037 A 
BRANCH  54  68
ATOM     68  C   UNL A   1      40.810  29.844  35.294  1.00  0.00     0.058 A 
ATOM     69  C   UNL A   1      40.931  31.102  35.914  1.00  0.00     0.135 A 
ATOM     70  C   UNL A   1      39.649  29.747  34.465  1.00  0.00     0.135 A 
ATOM     71  F   UNL A   1      42.012  31.396  36.650  1.00  0.00    -0.206 F 
ATOM     72  C   UNL A   1      39.968  32.130  35.789  1.00  0.00     0.059 A 
ATOM     73  C   UNL A   1      38.625  30.713  34.409  1.00  0.00     0.059 A 
ATOM     74  F   UNL A   1      39.480  28.726  33.610  1.00  0.00    -0.206 F 
ATOM     75  C   UNL A   1      38.802  31.919  35.060  1.00  0.00     0.060 A 
BRANCH  75  76
ATOM     76  S   UNL A   1      37.574  33.246  34.907  1.00  0.00     0.124 S 
ATOM     77  O   UNL A   1      38.263  34.216  34.061  1.00  0.00    -0.237 OA
ATOM     78  O   UNL A   1      36.452  32.551  34.288  1.00  0.00    -0.237 OA
ATOM     79  O   UNL A   1      37.357  33.677  36.286  1.00  0.00    -0.744 OA
ENDBRANCH  75  76
ENDBRANCH  54  68
BRANCH  55  80
ATOM     80  C   UNL A   1      47.309  21.799  34.440  1.00  0.00     0.058 A 
ATOM     81  C   UNL A   1      48.414  22.673  34.261  1.00  0.00     0.135 A 
ATOM     82  C   UNL A   1      47.589  20.429  34.324  1.00  0.00     0.135 A 
ATOM     83  F   UNL A   1      48.232  24.001  34.335  1.00  0.00    -0.206 F 
ATOM     84  C   UNL A   1      49.731  22.221  34.191  1.00  0.00     0.059 A 
ATOM     85  C   UNL A   1      48.914  19.950  34.191  1.00  0.00     0.059 A 
ATOM     86  F   UNL A   1      46.628  19.523  34.553  1.00  0.00    -0.206 F 
ATOM     87  C   UNL A   1      49.978  20.856  34.206  1.00  0.00     0.060 A 
BRANCH  87  88
ATOM     88  S   UNL A   1      51.705  20.334  34.439  1.00  0.00     0.124 S 
ATOM     89  O   UNL A   1      52.210  21.335  35.369  1.00  0.00    -0.237 OA
ATOM     90  O   UNL A   1      51.520  18.991  34.990  1.00  0.00    -0.237 OA
ATOM     91  O   UNL A   1      52.252  20.394  33.089  1.00  0.00    -0.744 OA
ENDBRANCH  87  88
ENDBRANCH  55  80
BRANCH  67  92
ATOM     92  C   UNL A   1      45.126  26.991  39.164  1.00  0.00     0.058 A 
ATOM     93  C   UNL A   1      44.863  26.712  40.509  1.00  0.00     0.135 A 
ATOM     94  C   UNL A   1      45.742  28.232  38.886  1.00  0.00     0.135 A 
ATOM     95  F   UNL A   1      44.270  25.558  40.855  1.00  0.00    -0.206 F 
ATOM     96  C   UNL A   1      45.199  27.603  41.522  1.00  0.00     0.059 A 
ATOM     97  C   UNL A   1      46.012  29.174  39.871  1.00  0.00     0.059 A 
ATOM     98  F   UNL A   1      46.075  28.576  37.631  1.00  0.00    -0.206 F 
ATOM     99  C   UNL A   1      45.764  28.835  41.193  1.00  0.00     0.060 A 
BRANCH  99 100
ATOM    100  S   UNL A   1      46.183  29.996  42.503  1.00  0.00     0.124 S 
ATOM    101  O   UNL A   1      46.787  31.104  41.771  1.00  0.00    -0.237 OA
ATOM    102  O   UNL A   1      44.868  30.260  43.078  1.00  0.00    -0.237 OA
ATOM    103  O   UNL A   1      47.100  29.233  43.345  1.00  0.00    -0.744 OA
ENDBRANCH  99 100
ENDBRANCH  67  92
ENDBRANCH  41  42
ENDBRANCH  34  36
ENDBRANCH  33  34
ENDBRANCH  32  33
ENDBRANCH  31  32
ENDBRANCH  30  31
ENDBRANCH  29  30
ENDBRANCH   1  29
TORSDOF 23
ENDMDL
MODEL 3
REMARK VINA RESULT:     -11.2      1.562      2.111
REMARK SMILES Cc1ccc(NC(=O)[C@H]2CC(Cl)=CC[C@@H]2C(=O)OCCOCCOCCOC(=O)c2ccc(-c3c4nc(c(-c5c(F)cc(S(=O)(=O)[O-])cc5F)c5ccc([nH]5)c(-c5c(F)cc(S(=O)(=O)[O-])cc5F)c5nc(c(-c6c(F)cc(S(=O)(=O)[O-])cc6F)c6ccc3[nH]6)C=C5)C=C4)cc2)cc1[N+](=O)[O-]
REMARK SMILES IDX 22 1 21 2 20 3 19 4 18 5 16 6 17 7 15 8 9 9 10 10 11 11
REMARK SMILES IDX 14 12 12 13 13 14 7 15 6 16 8 18 5 19 1 20 2 21 3 22 97 23
REMARK SMILES IDX 4 24 96 25 98 26 99 27 100 28 23 29 24 30 25 31 26 32 27 33
REMARK SMILES IDX 28 34 29 35 30 36 31 37 95 38 32 39 94 40 33 41 34 42 35 43
REMARK SMILES IDX 88 44 36 45 93 46 87 47 89 48 37 49 92 50 86 51 85 52 38 54
REMARK SMILES IDX 72 55 51 56 71 57 52 58 55 59 70 60 90 61 53 62 54 63 69 65
REMARK SMILES IDX 91 66 56 67 39 68 40 69 49 70 41 71 42 72 48 73 50 74 43 75
REMARK SMILES IDX 44 76 45 77 46 78 47 79 73 80 74 81 83 82 75 83 76 84 82 85
REMARK SMILES IDX 84 86 77 87 78 88 79 89 80 90 81 91 57 92 58 93 67 94 59 95
REMARK SMILES IDX 60 96 66 97 68 98 61 99 62 100 63 101 64 102 65 103
REMARK H PARENT 6 17 89 53 55 64
REMARK Flexibility Score: inf
ROOT
ATOM      1  C   UNL A   1      37.862  22.332  25.470  1.00  0.00     0.188 C 
ENDROOT
BRANCH   1   2
ATOM      2  O   UNL A   1      37.202  23.312  24.603  1.00  0.00    -0.376 OA
BRANCH   2   3
ATOM      3  C   UNL A   1      35.634  23.249  24.078  1.00  0.00     0.202 C 
BRANCH   3   4
ATOM      4  C   UNL A   1      33.785  22.662  25.119  1.00  0.00     0.261 C 
BRANCH   4   5
ATOM      5  O   UNL A   1      32.591  23.806  25.967  1.00  0.00    -0.463 OA
BRANCH   5   6
ATOM      6  C   UNL A   1      31.467  24.716  25.997  1.00  0.00     0.310 C 
ATOM      7  O   UNL A   1      30.652  24.956  26.890  1.00  0.00    -0.252 OA
BRANCH   6   8
ATOM      8  C   UNL A   1      31.183  25.709  24.907  1.00  0.00     0.116 C 
ATOM      9  C   UNL A   1      31.493  27.169  25.137  1.00  0.00     0.098 C 
ATOM     10  C   UNL A   1      31.180  27.870  23.778  1.00  0.00     0.062 C 
ATOM     11  C   UNL A   1      29.693  27.684  23.428  1.00  0.00     0.015 C 
ATOM     12  C   UNL A   1      29.734  25.384  24.295  1.00  0.00     0.044 C 
ATOM     13  Cl  UNL A   1      28.831  29.037  22.797  1.00  0.00    -0.089 Cl
ATOM     14  C   UNL A   1      29.029  26.549  23.680  1.00  0.00    -0.010 C 
BRANCH   9  15
ATOM     15  C   UNL A   1      32.787  27.402  26.006  1.00  0.00     0.228 C 
ATOM     16  N   UNL A   1      33.441  28.570  26.456  1.00  0.00    -0.326 N 
ATOM     17  H   UNL A   1      34.260  28.275  26.916  1.00  0.00     0.169 HD
ATOM     18  O   UNL A   1      33.282  26.358  26.472  1.00  0.00    -0.274 OA
BRANCH  16  19
ATOM     19  C   UNL A   1      33.420  30.071  26.534  1.00  0.00     0.048 A 
ATOM     20  C   UNL A   1      33.083  34.861  28.482  1.00  0.00     0.052 C 
ATOM     21  C   UNL A   1      33.190  33.378  28.178  1.00  0.00     0.027 A 
ATOM     22  C   UNL A   1      31.858  32.796  27.156  1.00  0.00     0.012 A 
ATOM     23  C   UNL A   1      34.615  32.358  28.388  1.00  0.00     0.274 A 
ATOM     24  C   UNL A   1      32.010  31.207  26.283  1.00  0.00     0.027 A 
ATOM     25  C   UNL A   1      34.751  30.736  27.562  1.00  0.00     0.112 A 
BRANCH  23  26
ATOM     26  N   UNL A   1      35.813  32.904  29.011  1.00  0.00     0.063 N 
ATOM     27  O   UNL A   1      36.878  32.698  28.419  1.00  0.00    -0.258 OA
ATOM     28  O   UNL A   1      35.692  33.564  30.048  1.00  0.00    -0.258 OA
ENDBRANCH  23  26
ENDBRANCH  16  19
ENDBRANCH   9  15
ENDBRANCH   6   8
ENDBRANCH   5   6
ENDBRANCH   4   5
ENDBRANCH   3   4
ENDBRANCH   2   3
ENDBRANCH   1   2
BRANCH   1  29
ATOM     29  C   UNL A   1      38.924  22.817  26.440  1.00  0.00     0.188 C 
BRANCH  29  30
ATOM     30  O   UNL A   1      39.668  21.692  26.840  1.00  0.00    -0.376 OA
BRANCH  30  31
ATOM     31  C   UNL A   1      40.343  21.008  25.817  1.00  0.00     0.202 C 
BRANCH  31  32
ATOM     32  C   UNL A   1      41.838  20.920  26.139  1.00  0.00     0.261 C 
BRANCH  32  33
ATOM     33  O   UNL A   1      42.341  22.272  26.341  1.00  0.00    -0.460 OA
BRANCH  33  34
ATOM     34  C   UNL A   1      42.852  22.994  25.271  1.00  0.00     0.338 C 
ATOM     35  O   UNL A   1      43.309  22.458  24.280  1.00  0.00    -0.246 OA
BRANCH  34  36
ATOM     36  C   UNL A   1      42.733  24.497  25.575  1.00  0.00     0.060 A 
ATOM     37  C   UNL A   1      43.401  25.664  25.231  1.00  0.00     0.016 A 
ATOM     38  C   UNL A   1      41.789  24.833  26.451  1.00  0.00     0.016 A 
ATOM     39  C   UNL A   1      43.293  27.011  26.007  1.00  0.00     0.010 A 
ATOM     40  C   UNL A   1      41.718  26.152  27.100  1.00  0.00     0.010 A 
ATOM     41  C   UNL A   1      42.502  27.282  27.143  1.00  0.00    -0.014 A 
BRANCH  41  42
ATOM     42  C   UNL A   1      42.630  28.439  28.461  1.00  0.00     0.031 A 
ATOM     43  C   UNL A   1      41.661  29.640  29.389  1.00  0.00     0.074 A 
ATOM     44  C   UNL A   1      43.758  28.258  29.186  1.00  0.00     0.049 A 
ATOM     45  N   UNL A   1      41.970  30.919  29.630  1.00  0.00    -0.248 NA
ATOM     46  C   UNL A   1      40.327  29.464  30.144  1.00  0.00     0.031 C 
ATOM     47  C   UNL A   1      44.091  28.849  30.485  1.00  0.00     0.029 A 
ATOM     48  N   UNL A   1      44.869  27.477  28.920  1.00  0.00    -0.354 N 
ATOM     49  C   UNL A   1      40.871  31.534  30.342  1.00  0.00     0.074 A 
ATOM     50  C   UNL A   1      39.797  30.664  30.248  1.00  0.00     0.031 C 
ATOM     51  C   UNL A   1      45.399  28.653  30.717  1.00  0.00     0.029 A 
ATOM     52  C   UNL A   1      45.973  28.080  29.517  1.00  0.00     0.049 A 
ATOM     53  H   UNL A   1      44.877  26.642  28.398  1.00  0.00     0.167 HD
ATOM     54  C   UNL A   1      40.832  32.447  31.367  1.00  0.00     0.037 A 
ATOM     55  C   UNL A   1      46.905  28.667  28.710  1.00  0.00     0.037 A 
ATOM     56  C   UNL A   1      42.182  32.652  31.806  1.00  0.00     0.049 A 
ATOM     57  C   UNL A   1      46.719  30.196  28.708  1.00  0.00     0.074 A 
ATOM     58  C   UNL A   1      43.024  31.996  32.683  1.00  0.00     0.029 A 
ATOM     59  N   UNL A   1      42.981  33.306  30.914  1.00  0.00    -0.354 N 
ATOM     60  N   UNL A   1      46.066  30.882  29.621  1.00  0.00    -0.248 NA
ATOM     61  C   UNL A   1      47.211  31.063  27.638  1.00  0.00     0.031 C 
ATOM     62  C   UNL A   1      44.340  32.068  32.104  1.00  0.00     0.029 A 
ATOM     63  C   UNL A   1      44.269  32.807  30.929  1.00  0.00     0.049 A 
ATOM     64  H   UNL A   1      42.677  34.041  30.332  1.00  0.00     0.167 HD
ATOM     65  C   UNL A   1      45.900  32.177  29.197  1.00  0.00     0.074 A 
ATOM     66  C   UNL A   1      46.689  32.253  27.979  1.00  0.00     0.031 C 
ATOM     67  C   UNL A   1      45.102  33.126  29.778  1.00  0.00     0.037 A 
BRANCH  54  68
ATOM     68  C   UNL A   1      39.530  32.892  32.123  1.00  0.00     0.058 A 
ATOM     69  C   UNL A   1      38.930  32.063  33.090  1.00  0.00     0.135 A 
ATOM     70  C   UNL A   1      38.848  34.139  31.968  1.00  0.00     0.135 A 
ATOM     71  F   UNL A   1      39.497  30.896  33.430  1.00  0.00    -0.206 F 
ATOM     72  C   UNL A   1      37.740  32.397  33.776  1.00  0.00     0.059 A 
ATOM     73  C   UNL A   1      37.607  34.450  32.559  1.00  0.00     0.059 A 
ATOM     74  F   UNL A   1      39.390  35.155  31.277  1.00  0.00    -0.206 F 
ATOM     75  C   UNL A   1      37.066  33.579  33.484  1.00  0.00     0.060 A 
BRANCH  75  76
ATOM     76  S   UNL A   1      35.541  33.996  34.373  1.00  0.00     0.124 S 
ATOM     77  O   UNL A   1      35.297  35.372  33.951  1.00  0.00    -0.237 OA
ATOM     78  O   UNL A   1      34.608  33.001  33.857  1.00  0.00    -0.237 OA
ATOM     79  O   UNL A   1      35.905  33.839  35.779  1.00  0.00    -0.744 OA
ENDBRANCH  75  76
ENDBRANCH  54  68
BRANCH  55  80
ATOM     80  C   UNL A   1      47.305  27.715  27.603  1.00  0.00     0.058 A 
ATOM     81  C   UNL A   1      46.771  28.017  26.322  1.00  0.00     0.135 A 
ATOM     82  C   UNL A   1      48.443  26.894  27.612  1.00  0.00     0.135 A 
ATOM     83  F   UNL A   1      45.670  28.779  26.223  1.00  0.00    -0.206 F 
ATOM     84  C   UNL A   1      47.436  27.714  25.136  1.00  0.00     0.059 A 
ATOM     85  C   UNL A   1      49.101  26.524  26.415  1.00  0.00     0.059 A 
ATOM     86  F   UNL A   1      49.065  26.617  28.767  1.00  0.00    -0.206 F 
ATOM     87  C   UNL A   1      48.630  27.008  25.192  1.00  0.00     0.060 A 
BRANCH  87  88
ATOM     88  S   UNL A   1      49.610  26.925  23.662  1.00  0.00     0.124 S 
ATOM     89  O   UNL A   1      50.845  26.302  24.116  1.00  0.00    -0.237 OA
ATOM     90  O   UNL A   1      48.749  26.091  22.822  1.00  0.00    -0.237 OA
ATOM     91  O   UNL A   1      49.718  28.324  23.264  1.00  0.00    -0.744 OA
ENDBRANCH  87  88
ENDBRANCH  55  80
BRANCH  67  92
ATOM     92  C   UNL A   1      45.065  34.527  29.219  1.00  0.00     0.058 A 
ATOM     93  C   UNL A   1      44.276  34.792  28.095  1.00  0.00     0.135 A 
ATOM     94  C   UNL A   1      45.902  35.574  29.664  1.00  0.00     0.135 A 
ATOM     95  F   UNL A   1      43.461  33.845  27.604  1.00  0.00    -0.206 F 
ATOM     96  C   UNL A   1      44.306  36.025  27.453  1.00  0.00     0.059 A 
ATOM     97  C   UNL A   1      46.011  36.785  28.992  1.00  0.00     0.059 A 
ATOM     98  F   UNL A   1      46.666  35.435  30.759  1.00  0.00    -0.206 F 
ATOM     99  C   UNL A   1      45.183  37.012  27.902  1.00  0.00     0.060 A 
BRANCH  99 100
ATOM    100  S   UNL A   1      45.234  38.602  27.061  1.00  0.00     0.124 S 
ATOM    101  O   UNL A   1      46.218  38.378  26.006  1.00  0.00    -0.237 OA
ATOM    102  O   UNL A   1      43.850  38.731  26.616  1.00  0.00    -0.237 OA
ATOM    103  O   UNL A   1      45.650  39.524  28.113  1.00  0.00    -0.744 OA
ENDBRANCH  99 100
ENDBRANCH  67  92
ENDBRANCH  41  42
ENDBRANCH  34  36
ENDBRANCH  33  34
ENDBRANCH  32  33
ENDBRANCH  31  32
ENDBRANCH  30  31
ENDBRANCH  29  30
ENDBRANCH   1  29
TORSDOF 23
ENDMDL
