MODEL 1
REMARK VINA RESULT:     -10.7      0.000      0.000
REMARK SMILES O=C(OCCOCCOCCOC(=O)[C@H]1C[C@@H]2CCCC[C@H]2N1C(=O)CN1CSCC1=O)c1ccc(-c2c3nc(c(-c4c(F)cc(S(=O)(=O)[O-])cc4F)c4ccc([nH]4)c(-c4c(F)cc(S(=O)(=O)[O-])cc4F)c4nc(c(-c5c(F)cc(S(=O)(=O)[O-])cc5F)c5ccc2[nH]5)C=C4)C=C3)cc1
REMARK SMILES IDX 7 1 6 2 5 3 4 4 3 5 2 6 1 7 33 8 34 9 98 10 35 11 97 12
REMARK SMILES IDX 36 13 37 14 38 15 91 16 39 17 96 18 90 19 92 20 40 21 95 22
REMARK SMILES IDX 89 23 88 24 41 26 75 27 54 28 74 29 55 30 58 31 73 32 93 33
REMARK SMILES IDX 56 34 57 35 72 37 94 38 59 39 42 40 43 41 52 42 44 43 45 44
REMARK SMILES IDX 51 45 53 46 46 47 47 48 48 49 49 50 50 51 76 52 77 53 86 54
REMARK SMILES IDX 78 55 79 56 85 57 87 58 80 59 81 60 82 61 83 62 84 63 60 64
REMARK SMILES IDX 61 65 70 66 62 67 63 68 69 69 71 70 64 71 65 72 66 73 67 74
REMARK SMILES IDX 68 75 8 76 9 77 10 78 11 79 12 80 13 81 14 82 15 83 16 84
REMARK SMILES IDX 23 85 17 86 22 87 18 88 21 89 19 90 20 91 24 92 25 93 26 94
REMARK SMILES IDX 27 95 28 96 31 97 29 98 30 99 32 100
REMARK H PARENT 92 25 58 36
REMARK Flexibility Score: inf
ROOT
ATOM      1  C   UNL A   1      36.821  22.141  24.393  1.00  0.00     0.188 C 
ENDROOT
BRANCH   1   2
ATOM      2  O   UNL A   1      37.625  21.678  25.481  1.00  0.00    -0.376 OA
BRANCH   2   3
ATOM      3  C   UNL A   1      38.398  22.719  26.091  1.00  0.00     0.202 C 
BRANCH   3   4
ATOM      4  C   UNL A   1      39.693  22.238  26.765  1.00  0.00     0.261 C 
BRANCH   4   5
ATOM      5  O   UNL A   1      40.235  23.200  27.684  1.00  0.00    -0.460 OA
BRANCH   5   6
ATOM      6  C   UNL A   1      41.034  24.261  27.399  1.00  0.00     0.338 C 
ATOM      7  O   UNL A   1      41.682  24.240  26.353  1.00  0.00    -0.246 OA
BRANCH   6   8
ATOM      8  C   UNL A   1      41.132  25.478  28.264  1.00  0.00     0.060 A 
ATOM      9  C   UNL A   1      42.290  26.220  28.500  1.00  0.00     0.016 A 
ATOM     10  C   UNL A   1      39.948  25.932  28.853  1.00  0.00     0.016 A 
ATOM     11  C   UNL A   1      42.328  27.273  29.409  1.00  0.00     0.010 A 
ATOM     12  C   UNL A   1      39.953  27.070  29.661  1.00  0.00     0.010 A 
ATOM     13  C   UNL A   1      41.157  27.729  29.989  1.00  0.00    -0.014 A 
BRANCH  13  14
ATOM     14  C   UNL A   1      41.148  28.852  30.963  1.00  0.00     0.031 A 
ATOM     15  C   UNL A   1      41.753  28.579  32.310  1.00  0.00     0.074 A 
ATOM     16  C   UNL A   1      40.526  30.024  30.709  1.00  0.00     0.049 A 
ATOM     17  N   UNL A   1      41.538  29.165  33.453  1.00  0.00    -0.248 NA
ATOM     18  C   UNL A   1      42.704  27.451  32.375  1.00  0.00     0.031 C 
ATOM     19  C   UNL A   1      39.975  30.473  29.424  1.00  0.00     0.029 A 
ATOM     20  N   UNL A   1      40.107  31.000  31.586  1.00  0.00    -0.354 N 
ATOM     21  C   UNL A   1      42.383  28.520  34.347  1.00  0.00     0.074 A 
ATOM     22  C   UNL A   1      42.927  27.364  33.675  1.00  0.00     0.031 C 
ATOM     23  C   UNL A   1      39.123  31.490  29.635  1.00  0.00     0.029 A 
ATOM     24  C   UNL A   1      39.085  31.766  31.057  1.00  0.00     0.049 A 
ATOM     25  H   UNL A   1      40.490  31.135  32.483  1.00  0.00     0.167 HD
ATOM     26  C   UNL A   1      42.795  28.948  35.562  1.00  0.00     0.037 A 
ATOM     27  C   UNL A   1      38.161  32.522  31.678  1.00  0.00     0.037 A 
ATOM     28  C   UNL A   1      42.300  30.150  36.167  1.00  0.00     0.049 A 
ATOM     29  C   UNL A   1      38.394  32.833  33.121  1.00  0.00     0.074 A 
ATOM     30  C   UNL A   1      42.719  30.787  37.318  1.00  0.00     0.029 A 
ATOM     31  N   UNL A   1      41.267  30.911  35.636  1.00  0.00    -0.354 N 
ATOM     32  N   UNL A   1      39.242  32.276  33.950  1.00  0.00    -0.248 NA
ATOM     33  C   UNL A   1      37.638  33.959  33.677  1.00  0.00     0.031 C 
ATOM     34  C   UNL A   1      41.931  31.932  37.486  1.00  0.00     0.029 A 
ATOM     35  C   UNL A   1      41.036  32.016  36.429  1.00  0.00     0.049 A 
ATOM     36  H   UNL A   1      40.772  30.693  34.813  1.00  0.00     0.167 HD
ATOM     37  C   UNL A   1      39.228  33.074  35.084  1.00  0.00     0.074 A 
ATOM     38  C   UNL A   1      38.214  34.091  34.863  1.00  0.00     0.031 C 
ATOM     39  C   UNL A   1      40.038  33.022  36.168  1.00  0.00     0.037 A 
BRANCH  26  40
ATOM     40  C   UNL A   1      43.925  28.187  36.197  1.00  0.00     0.058 A 
ATOM     41  C   UNL A   1      45.261  28.555  35.944  1.00  0.00     0.135 A 
ATOM     42  C   UNL A   1      43.700  27.076  37.021  1.00  0.00     0.135 A 
ATOM     43  F   UNL A   1      45.536  29.600  35.146  1.00  0.00    -0.206 F 
ATOM     44  C   UNL A   1      46.329  27.817  36.436  1.00  0.00     0.059 A 
ATOM     45  C   UNL A   1      44.758  26.340  37.553  1.00  0.00     0.059 A 
ATOM     46  F   UNL A   1      42.448  26.680  37.294  1.00  0.00    -0.206 F 
ATOM     47  C   UNL A   1      46.068  26.707  37.236  1.00  0.00     0.060 A 
BRANCH  47  48
ATOM     48  S   UNL A   1      47.470  25.756  37.855  1.00  0.00     0.124 S 
ATOM     49  O   UNL A   1      47.161  24.421  37.351  1.00  0.00    -0.237 OA
ATOM     50  O   UNL A   1      48.603  26.423  37.220  1.00  0.00    -0.237 OA
ATOM     51  O   UNL A   1      47.379  25.919  39.301  1.00  0.00    -0.744 OA
ENDBRANCH  47  48
ENDBRANCH  26  40
BRANCH  27  52
ATOM     52  C   UNL A   1      36.963  33.037  30.967  1.00  0.00     0.058 A 
ATOM     53  C   UNL A   1      35.697  32.462  31.134  1.00  0.00     0.135 A 
ATOM     54  C   UNL A   1      37.085  34.093  30.048  1.00  0.00     0.135 A 
ATOM     55  F   UNL A   1      35.533  31.447  31.993  1.00  0.00    -0.206 F 
ATOM     56  C   UNL A   1      34.601  32.887  30.386  1.00  0.00     0.059 A 
ATOM     57  C   UNL A   1      36.001  34.548  29.299  1.00  0.00     0.059 A 
ATOM     58  F   UNL A   1      38.281  34.670  29.853  1.00  0.00    -0.206 F 
ATOM     59  C   UNL A   1      34.766  33.923  29.461  1.00  0.00     0.060 A 
BRANCH  59  60
ATOM     60  S   UNL A   1      33.341  34.416  28.462  1.00  0.00     0.124 S 
ATOM     61  O   UNL A   1      32.398  34.845  29.489  1.00  0.00    -0.237 OA
ATOM     62  O   UNL A   1      33.903  35.478  27.632  1.00  0.00    -0.237 OA
ATOM     63  O   UNL A   1      32.981  33.193  27.752  1.00  0.00    -0.744 OA
ENDBRANCH  59  60
ENDBRANCH  27  52
BRANCH  39  64
ATOM     64  C   UNL A   1      39.952  34.173  37.118  1.00  0.00     0.058 A 
ATOM     65  C   UNL A   1      40.696  35.344  36.940  1.00  0.00     0.135 A 
ATOM     66  C   UNL A   1      39.092  34.088  38.225  1.00  0.00     0.135 A 
ATOM     67  F   UNL A   1      41.546  35.454  35.908  1.00  0.00    -0.206 F 
ATOM     68  C   UNL A   1      40.605  36.395  37.843  1.00  0.00     0.059 A 
ATOM     69  C   UNL A   1      38.963  35.136  39.124  1.00  0.00     0.059 A 
ATOM     70  F   UNL A   1      38.360  32.981  38.434  1.00  0.00    -0.206 F 
ATOM     71  C   UNL A   1      39.735  36.281  38.931  1.00  0.00     0.060 A 
BRANCH  71  72
ATOM     72  S   UNL A   1      39.597  37.664  40.079  1.00  0.00     0.124 S 
ATOM     73  O   UNL A   1      39.355  36.972  41.340  1.00  0.00    -0.237 OA
ATOM     74  O   UNL A   1      40.898  38.312  39.948  1.00  0.00    -0.237 OA
ATOM     75  O   UNL A   1      38.468  38.427  39.553  1.00  0.00    -0.744 OA
ENDBRANCH  71  72
ENDBRANCH  39  64
ENDBRANCH  13  14
ENDBRANCH   6   8
ENDBRANCH   5   6
ENDBRANCH   4   5
ENDBRANCH   3   4
ENDBRANCH   2   3
ENDBRANCH   1   2
BRANCH   1  76
ATOM     76  C   UNL A   1      35.887  23.298  24.754  1.00  0.00     0.188 C 
BRANCH  76  77
ATOM     77  O   UNL A   1      34.845  23.035  25.687  1.00  0.00    -0.376 OA
BRANCH  77  78
ATOM     78  C   UNL A   1      33.601  22.578  25.165  1.00  0.00     0.202 C 
BRANCH  78  79
ATOM     79  C   UNL A   1      32.746  23.533  24.312  1.00  0.00     0.261 C 
BRANCH  79  80
ATOM     80  O   UNL A   1      31.549  24.041  24.927  1.00  0.00    -0.462 OA
BRANCH  80  81
ATOM     81  C   UNL A   1      30.810  24.858  24.126  1.00  0.00     0.328 C 
ATOM     82  O   UNL A   1      30.387  24.525  23.017  1.00  0.00    -0.250 OA
BRANCH  81  83
ATOM     83  C   UNL A   1      30.470  26.240  24.720  1.00  0.00     0.195 C 
ATOM     84  C   UNL A   1      30.963  26.317  26.182  1.00  0.00     0.043 C 
ATOM     85  N   UNL A   1      30.861  27.532  24.119  1.00  0.00    -0.324 N 
ATOM     86  C   UNL A   1      31.934  27.489  26.183  1.00  0.00     0.014 C 
ATOM     87  C   UNL A   1      31.322  28.440  25.155  1.00  0.00     0.089 C 
ATOM     88  C   UNL A   1      32.127  28.202  27.514  1.00  0.00     0.006 C 
ATOM     89  C   UNL A   1      32.347  29.536  24.871  1.00  0.00     0.025 C 
ATOM     90  C   UNL A   1      33.020  29.435  27.332  1.00  0.00     0.000 C 
ATOM     91  C   UNL A   1      32.581  30.330  26.167  1.00  0.00     0.002 C 
BRANCH  85  92
ATOM     92  C   UNL A   1      30.200  27.866  22.957  1.00  0.00     0.243 C 
ATOM     93  O   UNL A   1      30.691  27.554  21.862  1.00  0.00    -0.273 OA
BRANCH  92  94
ATOM     94  C   UNL A   1      28.979  28.787  22.965  1.00  0.00     0.220 C 
BRANCH  94  95
ATOM     95  N   UNL A   1      28.878  30.105  22.376  1.00  0.00    -0.323 N 
ATOM     96  C   UNL A   1      28.020  30.241  21.219  1.00  0.00     0.190 C 
ATOM     97  C   UNL A   1      28.967  31.244  23.169  1.00  0.00     0.233 C 
ATOM     98  S   UNL A   1      28.098  31.965  20.747  1.00  0.00    -0.130 SA
ATOM     99  C   UNL A   1      28.468  32.480  22.438  1.00  0.00     0.171 C 
ATOM    100  O   UNL A   1      29.422  31.267  24.292  1.00  0.00    -0.274 OA
ENDBRANCH  94  95
ENDBRANCH  92  94
ENDBRANCH  85  92
ENDBRANCH  81  83
ENDBRANCH  80  81
ENDBRANCH  79  80
ENDBRANCH  78  79
ENDBRANCH  77  78
ENDBRANCH  76  77
ENDBRANCH   1  76
TORSDOF 23
ENDMDL
MODEL 2
REMARK VINA RESULT:     -10.3      2.047      3.603
REMARK SMILES O=C(OCCOCCOCCOC(=O)[C@H]1C[C@@H]2CCCC[C@H]2N1C(=O)CN1CSCC1=O)c1ccc(-c2c3nc(c(-c4c(F)cc(S(=O)(=O)[O-])cc4F)c4ccc([nH]4)c(-c4c(F)cc(S(=O)(=O)[O-])cc4F)c4nc(c(-c5c(F)cc(S(=O)(=O)[O-])cc5F)c5ccc2[nH]5)C=C4)C=C3)cc1
REMARK SMILES IDX 7 1 6 2 5 3 4 4 3 5 2 6 1 7 33 8 34 9 98 10 35 11 97 12
REMARK SMILES IDX 36 13 37 14 38 15 91 16 39 17 96 18 90 19 92 20 40 21 95 22
REMARK SMILES IDX 89 23 88 24 41 26 75 27 54 28 74 29 55 30 58 31 73 32 93 33
REMARK SMILES IDX 56 34 57 35 72 37 94 38 59 39 42 40 43 41 52 42 44 43 45 44
REMARK SMILES IDX 51 45 53 46 46 47 47 48 48 49 49 50 50 51 76 52 77 53 86 54
REMARK SMILES IDX 78 55 79 56 85 57 87 58 80 59 81 60 82 61 83 62 84 63 60 64
REMARK SMILES IDX 61 65 70 66 62 67 63 68 69 69 71 70 64 71 65 72 66 73 67 74
REMARK SMILES IDX 68 75 8 76 9 77 10 78 11 79 12 80 13 81 14 82 15 83 16 84
REMARK SMILES IDX 23 85 17 86 22 87 18 88 21 89 19 90 20 91 24 92 25 93 26 94
REMARK SMILES IDX 27 95 28 96 31 97 29 98 30 99 32 100
REMARK H PARENT 92 25 58 36
REMARK Flexibility Score: inf
ROOT
ATOM      1  C   UNL A   1      38.781  21.785  25.956  1.00  0.00     0.188 C 
ENDROOT
BRANCH   1   2
ATOM      2  O   UNL A   1      39.881  20.895  26.155  1.00  0.00    -0.376 OA
BRANCH   2   3
ATOM      3  C   UNL A   1      40.719  21.275  27.254  1.00  0.00     0.202 C 
BRANCH   3   4
ATOM      4  C   UNL A   1      41.817  22.290  26.894  1.00  0.00     0.261 C 
BRANCH   4   5
ATOM      5  O   UNL A   1      41.290  23.580  26.541  1.00  0.00    -0.460 OA
BRANCH   5   6
ATOM      6  C   UNL A   1      41.928  24.778  26.593  1.00  0.00     0.338 C 
ATOM      7  O   UNL A   1      42.648  25.098  25.647  1.00  0.00    -0.246 OA
BRANCH   6   8
ATOM      8  C   UNL A   1      41.765  25.754  27.716  1.00  0.00     0.060 A 
ATOM      9  C   UNL A   1      40.642  25.874  28.535  1.00  0.00     0.016 A 
ATOM     10  C   UNL A   1      42.851  26.590  27.990  1.00  0.00     0.016 A 
ATOM     11  C   UNL A   1      40.517  26.884  29.485  1.00  0.00     0.010 A 
ATOM     12  C   UNL A   1      42.783  27.517  29.031  1.00  0.00     0.010 A 
ATOM     13  C   UNL A   1      41.592  27.709  29.763  1.00  0.00    -0.014 A 
BRANCH  13  14
ATOM     14  C   UNL A   1      41.507  28.798  30.770  1.00  0.00     0.031 A 
ATOM     15  C   UNL A   1      42.073  28.504  32.130  1.00  0.00     0.074 A 
ATOM     16  C   UNL A   1      40.852  29.956  30.530  1.00  0.00     0.049 A 
ATOM     17  N   UNL A   1      41.795  29.044  33.281  1.00  0.00    -0.248 NA
ATOM     18  C   UNL A   1      43.062  27.409  32.194  1.00  0.00     0.031 C 
ATOM     19  C   UNL A   1      40.331  30.426  29.240  1.00  0.00     0.029 A 
ATOM     20  N   UNL A   1      40.366  30.887  31.421  1.00  0.00    -0.354 N 
ATOM     21  C   UNL A   1      42.631  28.401  34.186  1.00  0.00     0.074 A 
ATOM     22  C   UNL A   1      43.241  27.288  33.499  1.00  0.00     0.031 C 
ATOM     23  C   UNL A   1      39.435  31.405  29.450  1.00  0.00     0.029 A 
ATOM     24  C   UNL A   1      39.336  31.633  30.879  1.00  0.00     0.049 A 
ATOM     25  H   UNL A   1      40.711  31.006  32.335  1.00  0.00     0.167 HD
ATOM     26  C   UNL A   1      42.983  28.804  35.428  1.00  0.00     0.037 A 
ATOM     27  C   UNL A   1      38.363  32.335  31.488  1.00  0.00     0.037 A 
ATOM     28  C   UNL A   1      42.422  29.967  36.051  1.00  0.00     0.049 A 
ATOM     29  C   UNL A   1      38.532  32.607  32.947  1.00  0.00     0.074 A 
ATOM     30  C   UNL A   1      42.776  30.581  37.236  1.00  0.00     0.029 A 
ATOM     31  N   UNL A   1      41.382  30.708  35.506  1.00  0.00    -0.354 N 
ATOM     32  N   UNL A   1      39.370  32.054  33.790  1.00  0.00    -0.248 NA
ATOM     33  C   UNL A   1      37.716  33.687  33.510  1.00  0.00     0.031 C 
ATOM     34  C   UNL A   1      41.940  31.692  37.411  1.00  0.00     0.029 A 
ATOM     35  C   UNL A   1      41.082  31.778  36.325  1.00  0.00     0.049 A 
ATOM     36  H   UNL A   1      40.925  30.500  34.660  1.00  0.00     0.167 HD
ATOM     37  C   UNL A   1      39.286  32.814  34.946  1.00  0.00     0.074 A 
ATOM     38  C   UNL A   1      38.244  33.800  34.720  1.00  0.00     0.031 C 
ATOM     39  C   UNL A   1      40.058  32.755  36.058  1.00  0.00     0.037 A 
BRANCH  26  40
ATOM     40  C   UNL A   1      44.116  28.063  36.081  1.00  0.00     0.058 A 
ATOM     41  C   UNL A   1      45.451  28.392  35.773  1.00  0.00     0.135 A 
ATOM     42  C   UNL A   1      43.894  27.009  36.976  1.00  0.00     0.135 A 
ATOM     43  F   UNL A   1      45.722  29.382  34.906  1.00  0.00    -0.206 F 
ATOM     44  C   UNL A   1      46.519  27.667  36.283  1.00  0.00     0.059 A 
ATOM     45  C   UNL A   1      44.954  26.288  37.526  1.00  0.00     0.059 A 
ATOM     46  F   UNL A   1      42.643  26.651  37.303  1.00  0.00    -0.206 F 
ATOM     47  C   UNL A   1      46.261  26.612  37.156  1.00  0.00     0.060 A 
BRANCH  47  48
ATOM     48  S   UNL A   1      47.663  25.676  37.796  1.00  0.00     0.124 S 
ATOM     49  O   UNL A   1      47.850  26.292  39.107  1.00  0.00    -0.237 OA
ATOM     50  O   UNL A   1      47.147  24.311  37.809  1.00  0.00    -0.237 OA
ATOM     51  O   UNL A   1      48.718  25.937  36.822  1.00  0.00    -0.744 OA
ENDBRANCH  47  48
ENDBRANCH  26  40
BRANCH  27  52
ATOM     52  C   UNL A   1      37.173  32.830  30.750  1.00  0.00     0.058 A 
ATOM     53  C   UNL A   1      37.225  33.969  29.937  1.00  0.00     0.135 A 
ATOM     54  C   UNL A   1      35.930  32.192  30.903  1.00  0.00     0.135 A 
ATOM     55  F   UNL A   1      38.387  34.616  29.767  1.00  0.00    -0.206 F 
ATOM     56  C   UNL A   1      36.080  34.483  29.332  1.00  0.00     0.059 A 
ATOM     57  C   UNL A   1      34.773  32.678  30.296  1.00  0.00     0.059 A 
ATOM     58  F   UNL A   1      35.833  31.101  31.678  1.00  0.00    -0.206 F 
ATOM     59  C   UNL A   1      34.856  33.838  29.527  1.00  0.00     0.060 A 
BRANCH  59  60
ATOM     60  S   UNL A   1      33.375  34.558  28.778  1.00  0.00     0.124 S 
ATOM     61  O   UNL A   1      33.928  35.732  28.109  1.00  0.00    -0.237 OA
ATOM     62  O   UNL A   1      32.922  33.483  27.901  1.00  0.00    -0.237 OA
ATOM     63  O   UNL A   1      32.514  34.836  29.923  1.00  0.00    -0.744 OA
ENDBRANCH  59  60
ENDBRANCH  27  52
BRANCH  39  64
ATOM     64  C   UNL A   1      39.896  33.871  37.039  1.00  0.00     0.058 A 
ATOM     65  C   UNL A   1      40.515  35.113  36.865  1.00  0.00     0.135 A 
ATOM     66  C   UNL A   1      39.089  33.678  38.173  1.00  0.00     0.135 A 
ATOM     67  F   UNL A   1      41.312  35.329  35.808  1.00  0.00    -0.206 F 
ATOM     68  C   UNL A   1      40.356  36.130  37.798  1.00  0.00     0.059 A 
ATOM     69  C   UNL A   1      38.892  34.689  39.102  1.00  0.00     0.059 A 
ATOM     70  F   UNL A   1      38.476  32.500  38.378  1.00  0.00    -0.206 F 
ATOM     71  C   UNL A   1      39.542  35.907  38.912  1.00  0.00     0.060 A 
BRANCH  71  72
ATOM     72  S   UNL A   1      39.312  37.244  40.100  1.00  0.00     0.124 S 
ATOM     73  O   UNL A   1      38.621  36.555  41.183  1.00  0.00    -0.237 OA
ATOM     74  O   UNL A   1      40.685  37.654  40.379  1.00  0.00    -0.237 OA
ATOM     75  O   UNL A   1      38.513  38.217  39.360  1.00  0.00    -0.744 OA
ENDBRANCH  71  72
ENDBRANCH  39  64
ENDBRANCH  13  14
ENDBRANCH   6   8
ENDBRANCH   5   6
ENDBRANCH   4   5
ENDBRANCH   3   4
ENDBRANCH   2   3
ENDBRANCH   1   2
BRANCH   1  76
ATOM     76  C   UNL A   1      37.719  21.260  24.987  1.00  0.00     0.188 C 
BRANCH  76  77
ATOM     77  O   UNL A   1      36.424  20.991  25.514  1.00  0.00    -0.376 OA
BRANCH  77  78
ATOM     78  C   UNL A   1      35.480  22.058  25.501  1.00  0.00     0.202 C 
BRANCH  78  79
ATOM     79  C   UNL A   1      34.632  22.328  26.757  1.00  0.00     0.261 C 
BRANCH  79  80
ATOM     80  O   UNL A   1      34.052  23.639  26.867  1.00  0.00    -0.462 OA
BRANCH  80  81
ATOM     81  C   UNL A   1      32.690  23.657  26.817  1.00  0.00     0.328 C 
ATOM     82  O   UNL A   1      31.972  23.031  27.599  1.00  0.00    -0.250 OA
BRANCH  81  83
ATOM     83  C   UNL A   1      32.077  24.572  25.738  1.00  0.00     0.195 C 
ATOM     84  C   UNL A   1      31.716  25.941  26.355  1.00  0.00     0.043 C 
ATOM     85  N   UNL A   1      32.719  24.896  24.447  1.00  0.00    -0.324 N 
ATOM     86  C   UNL A   1      32.529  26.938  25.543  1.00  0.00     0.014 C 
ATOM     87  C   UNL A   1      32.552  26.308  24.151  1.00  0.00     0.089 C 
ATOM     88  C   UNL A   1      31.979  28.356  25.473  1.00  0.00     0.006 C 
ATOM     89  C   UNL A   1      33.563  27.082  23.310  1.00  0.00     0.025 C 
ATOM     90  C   UNL A   1      32.824  29.207  24.517  1.00  0.00     0.000 C 
ATOM     91  C   UNL A   1      33.066  28.530  23.163  1.00  0.00     0.002 C 
BRANCH  85  92
ATOM     92  C   UNL A   1      32.776  23.859  23.540  1.00  0.00     0.243 C 
ATOM     93  O   UNL A   1      33.453  23.985  22.509  1.00  0.00    -0.273 OA
BRANCH  92  94
ATOM     94  C   UNL A   1      31.869  22.634  23.665  1.00  0.00     0.220 C 
BRANCH  94  95
ATOM     95  N   UNL A   1      32.279  21.245  23.680  1.00  0.00    -0.323 N 
ATOM     96  C   UNL A   1      32.169  20.544  24.940  1.00  0.00     0.190 C 
ATOM     97  C   UNL A   1      32.111  20.446  22.555  1.00  0.00     0.233 C 
ATOM     98  S   UNL A   1      32.728  18.874  24.625  1.00  0.00    -0.130 SA
ATOM     99  C   UNL A   1      32.245  18.969  22.888  1.00  0.00     0.171 C 
ATOM    100  O   UNL A   1      31.920  20.866  21.434  1.00  0.00    -0.274 OA
ENDBRANCH  94  95
ENDBRANCH  92  94
ENDBRANCH  85  92
ENDBRANCH  81  83
ENDBRANCH  80  81
ENDBRANCH  79  80
ENDBRANCH  78  79
ENDBRANCH  77  78
ENDBRANCH  76  77
ENDBRANCH   1  76
TORSDOF 23
ENDMDL
MODEL 3
REMARK VINA RESULT:     -10.3      6.163      9.906
REMARK SMILES O=C(OCCOCCOCCOC(=O)[C@H]1C[C@@H]2CCCC[C@H]2N1C(=O)CN1CSCC1=O)c1ccc(-c2c3nc(c(-c4c(F)cc(S(=O)(=O)[O-])cc4F)c4ccc([nH]4)c(-c4c(F)cc(S(=O)(=O)[O-])cc4F)c4nc(c(-c5c(F)cc(S(=O)(=O)[O-])cc5F)c5ccc2[nH]5)C=C4)C=C3)cc1
REMARK SMILES IDX 7 1 6 2 5 3 4 4 3 5 2 6 1 7 33 8 34 9 98 10 35 11 97 12
REMARK SMILES IDX 36 13 37 14 38 15 91 16 39 17 96 18 90 19 92 20 40 21 95 22
REMARK SMILES IDX 89 23 88 24 41 26 75 27 54 28 74 29 55 30 58 31 73 32 93 33
REMARK SMILES IDX 56 34 57 35 72 37 94 38 59 39 42 40 43 41 52 42 44 43 45 44
REMARK SMILES IDX 51 45 53 46 46 47 47 48 48 49 49 50 50 51 76 52 77 53 86 54
REMARK SMILES IDX 78 55 79 56 85 57 87 58 80 59 81 60 82 61 83 62 84 63 60 64
REMARK SMILES IDX 61 65 70 66 62 67 63 68 69 69 71 70 64 71 65 72 66 73 67 74
REMARK SMILES IDX 68 75 8 76 9 77 10 78 11 79 12 80 13 81 14 82 15 83 16 84
REMARK SMILES IDX 23 85 17 86 22 87 18 88 21 89 19 90 20 91 24 92 25 93 26 94
REMARK SMILES IDX 27 95 28 96 31 97 29 98 30 99 32 100
REMARK H PARENT 92 25 58 36
REMARK Flexibility Score: inf
ROOT
ATOM      1  C   UNL A   1      37.465  21.623  24.738  1.00  0.00     0.188 C 
ENDROOT
BRANCH   1   2
ATOM      2  O   UNL A   1      38.420  22.371  25.494  1.00  0.00    -0.376 OA
BRANCH   2   3
ATOM      3  C   UNL A   1      39.207  21.553  26.370  1.00  0.00     0.202 C 
BRANCH   3   4
ATOM      4  C   UNL A   1      39.673  20.225  25.752  1.00  0.00     0.261 C 
BRANCH   4   5
ATOM      5  O   UNL A   1      40.956  19.801  26.242  1.00  0.00    -0.460 OA
BRANCH   5   6
ATOM      6  C   UNL A   1      42.178  20.260  25.871  1.00  0.00     0.338 C 
ATOM      7  O   UNL A   1      42.860  19.565  25.118  1.00  0.00    -0.246 OA
BRANCH   6   8
ATOM      8  C   UNL A   1      42.723  21.590  26.287  1.00  0.00     0.060 A 
ATOM      9  C   UNL A   1      42.956  22.677  25.443  1.00  0.00     0.016 A 
ATOM     10  C   UNL A   1      42.982  21.770  27.649  1.00  0.00     0.016 A 
ATOM     11  C   UNL A   1      43.574  23.844  25.883  1.00  0.00     0.010 A 
ATOM     12  C   UNL A   1      43.477  22.987  28.119  1.00  0.00     0.010 A 
ATOM     13  C   UNL A   1      43.826  24.027  27.231  1.00  0.00    -0.014 A 
BRANCH  13  14
ATOM     14  C   UNL A   1      44.480  25.257  27.748  1.00  0.00     0.031 A 
ATOM     15  C   UNL A   1      43.572  26.340  28.254  1.00  0.00     0.074 A 
ATOM     16  C   UNL A   1      45.815  25.456  27.665  1.00  0.00     0.049 A 
ATOM     17  N   UNL A   1      43.786  27.620  28.368  1.00  0.00    -0.248 NA
ATOM     18  C   UNL A   1      42.213  25.914  28.645  1.00  0.00     0.031 C 
ATOM     19  C   UNL A   1      46.833  24.470  27.285  1.00  0.00     0.029 A 
ATOM     20  N   UNL A   1      46.530  26.630  27.744  1.00  0.00    -0.354 N 
ATOM     21  C   UNL A   1      42.613  28.129  28.910  1.00  0.00     0.074 A 
ATOM     22  C   UNL A   1      41.627  27.076  28.880  1.00  0.00     0.031 C 
ATOM     23  C   UNL A   1      47.969  25.107  26.953  1.00  0.00     0.029 A 
ATOM     24  C   UNL A   1      47.756  26.532  27.112  1.00  0.00     0.049 A 
ATOM     25  H   UNL A   1      46.206  27.443  28.196  1.00  0.00     0.167 HD
ATOM     26  C   UNL A   1      42.427  29.317  29.530  1.00  0.00     0.037 A 
ATOM     27  C   UNL A   1      48.559  27.496  26.627  1.00  0.00     0.037 A 
ATOM     28  C   UNL A   1      43.457  30.311  29.620  1.00  0.00     0.049 A 
ATOM     29  C   UNL A   1      48.266  28.900  27.047  1.00  0.00     0.074 A 
ATOM     30  C   UNL A   1      43.470  31.495  30.330  1.00  0.00     0.029 A 
ATOM     31  N   UNL A   1      44.683  30.211  28.976  1.00  0.00    -0.354 N 
ATOM     32  N   UNL A   1      47.188  29.372  27.626  1.00  0.00    -0.248 NA
ATOM     33  C   UNL A   1      49.345  29.875  26.867  1.00  0.00     0.031 C 
ATOM     34  C   UNL A   1      44.706  32.116  30.107  1.00  0.00     0.029 A 
ATOM     35  C   UNL A   1      45.466  31.307  29.275  1.00  0.00     0.049 A 
ATOM     36  H   UNL A   1      44.954  29.467  28.392  1.00  0.00     0.167 HD
ATOM     37  C   UNL A   1      47.512  30.664  28.010  1.00  0.00     0.074 A 
ATOM     38  C   UNL A   1      48.850  30.924  27.508  1.00  0.00     0.031 C 
ATOM     39  C   UNL A   1      46.802  31.523  28.780  1.00  0.00     0.037 A 
BRANCH  26  40
ATOM     40  C   UNL A   1      41.130  29.498  30.267  1.00  0.00     0.058 A 
ATOM     41  C   UNL A   1      41.066  29.278  31.657  1.00  0.00     0.135 A 
ATOM     42  C   UNL A   1      39.945  29.847  29.606  1.00  0.00     0.135 A 
ATOM     43  F   UNL A   1      42.168  28.922  32.338  1.00  0.00    -0.206 F 
ATOM     44  C   UNL A   1      39.866  29.342  32.353  1.00  0.00     0.059 A 
ATOM     45  C   UNL A   1      38.735  29.949  30.292  1.00  0.00     0.059 A 
ATOM     46  F   UNL A   1      39.947  30.065  28.283  1.00  0.00    -0.206 F 
ATOM     47  C   UNL A   1      38.704  29.674  31.661  1.00  0.00     0.060 A 
BRANCH  47  48
ATOM     48  S   UNL A   1      37.154  29.739  32.583  1.00  0.00     0.124 S 
ATOM     49  O   UNL A   1      37.313  30.983  33.330  1.00  0.00    -0.237 OA
ATOM     50  O   UNL A   1      36.158  29.765  31.516  1.00  0.00    -0.237 OA
ATOM     51  O   UNL A   1      37.184  28.518  33.381  1.00  0.00    -0.744 OA
ENDBRANCH  47  48
ENDBRANCH  26  40
BRANCH  27  52
ATOM     52  C   UNL A   1      49.695  27.190  25.720  1.00  0.00     0.058 A 
ATOM     53  C   UNL A   1      50.986  26.948  26.204  1.00  0.00     0.135 A 
ATOM     54  C   UNL A   1      49.509  27.197  24.327  1.00  0.00     0.135 A 
ATOM     55  F   UNL A   1      51.213  26.939  27.525  1.00  0.00    -0.206 F 
ATOM     56  C   UNL A   1      52.063  26.763  25.341  1.00  0.00     0.059 A 
ATOM     57  C   UNL A   1      50.568  27.000  23.442  1.00  0.00     0.059 A 
ATOM     58  F   UNL A   1      48.289  27.431  23.820  1.00  0.00    -0.206 F 
ATOM     59  C   UNL A   1      51.847  26.804  23.960  1.00  0.00     0.060 A 
BRANCH  59  60
ATOM     60  S   UNL A   1      53.272  26.619  22.861  1.00  0.00     0.124 S 
ATOM     61  O   UNL A   1      54.152  25.776  23.664  1.00  0.00    -0.237 OA
ATOM     62  O   UNL A   1      52.675  25.981  21.691  1.00  0.00    -0.237 OA
ATOM     63  O   UNL A   1      53.728  27.990  22.660  1.00  0.00    -0.744 OA
ENDBRANCH  59  60
ENDBRANCH  27  52
BRANCH  39  64
ATOM     64  C   UNL A   1      47.518  32.752  29.239  1.00  0.00     0.058 A 
ATOM     65  C   UNL A   1      47.448  33.961  28.537  1.00  0.00     0.135 A 
ATOM     66  C   UNL A   1      48.281  32.705  30.417  1.00  0.00     0.135 A 
ATOM     67  F   UNL A   1      46.749  34.040  27.395  1.00  0.00    -0.206 F 
ATOM     68  C   UNL A   1      48.132  35.086  28.980  1.00  0.00     0.059 A 
ATOM     69  C   UNL A   1      48.948  33.824  30.893  1.00  0.00     0.059 A 
ATOM     70  F   UNL A   1      48.375  31.564  31.120  1.00  0.00    -0.206 F 
ATOM     71  C   UNL A   1      48.878  35.007  30.159  1.00  0.00     0.060 A 
BRANCH  71  72
ATOM     72  S   UNL A   1      49.733  36.482  30.745  1.00  0.00     0.124 S 
ATOM     73  O   UNL A   1      49.344  37.463  29.738  1.00  0.00    -0.237 OA
ATOM     74  O   UNL A   1      49.158  36.671  32.073  1.00  0.00    -0.237 OA
ATOM     75  O   UNL A   1      51.138  36.085  30.728  1.00  0.00    -0.744 OA
ENDBRANCH  71  72
ENDBRANCH  39  64
ENDBRANCH  13  14
ENDBRANCH   6   8
ENDBRANCH   5   6
ENDBRANCH   4   5
ENDBRANCH   3   4
ENDBRANCH   2   3
ENDBRANCH   1   2
BRANCH   1  76
ATOM     76  C   UNL A   1      36.497  22.485  23.925  1.00  0.00     0.188 C 
BRANCH  76  77
ATOM     77  O   UNL A   1      35.113  22.401  24.246  1.00  0.00    -0.376 OA
BRANCH  77  78
ATOM     78  C   UNL A   1      34.197  23.025  23.352  1.00  0.00     0.202 C 
BRANCH  78  79
ATOM     79  C   UNL A   1      32.757  23.300  23.820  1.00  0.00     0.261 C 
BRANCH  79  80
ATOM     80  O   UNL A   1      32.396  24.681  24.002  1.00  0.00    -0.462 OA
BRANCH  80  81
ATOM     81  C   UNL A   1      31.064  24.935  23.869  1.00  0.00     0.328 C 
ATOM     82  O   UNL A   1      30.281  24.183  23.285  1.00  0.00    -0.250 OA
BRANCH  81  83
ATOM     83  C   UNL A   1      30.562  26.221  24.557  1.00  0.00     0.195 C 
ATOM     84  C   UNL A   1      31.002  26.229  26.037  1.00  0.00     0.043 C 
ATOM     85  N   UNL A   1      30.829  27.591  24.074  1.00  0.00    -0.324 N 
ATOM     86  C   UNL A   1      31.842  27.492  26.166  1.00  0.00     0.014 C 
ATOM     87  C   UNL A   1      31.161  28.455  25.194  1.00  0.00     0.089 C 
ATOM     88  C   UNL A   1      31.921  28.111  27.555  1.00  0.00     0.006 C 
ATOM     89  C   UNL A   1      32.070  29.671  25.034  1.00  0.00     0.025 C 
ATOM     90  C   UNL A   1      32.682  29.441  27.502  1.00  0.00     0.000 C 
ATOM     91  C   UNL A   1      32.181  30.377  26.396  1.00  0.00     0.002 C 
BRANCH  85  92
ATOM     92  C   UNL A   1      30.168  27.948  22.918  1.00  0.00     0.243 C 
ATOM     93  O   UNL A   1      30.656  27.650  21.818  1.00  0.00    -0.273 OA
BRANCH  92  94
ATOM     94  C   UNL A   1      28.954  28.878  22.943  1.00  0.00     0.220 C 
BRANCH  94  95
ATOM     95  N   UNL A   1      28.841  30.180  22.320  1.00  0.00    -0.323 N 
ATOM     96  C   UNL A   1      28.022  30.267  21.131  1.00  0.00     0.190 C 
ATOM     97  C   UNL A   1      28.872  31.338  23.090  1.00  0.00     0.233 C 
ATOM     98  S   UNL A   1      28.073  31.983  20.623  1.00  0.00    -0.130 SA
ATOM     99  C   UNL A   1      28.369  32.543  22.314  1.00  0.00     0.171 C 
ATOM    100  O   UNL A   1      29.285  31.398  24.227  1.00  0.00    -0.274 OA
ENDBRANCH  94  95
ENDBRANCH  92  94
ENDBRANCH  85  92
ENDBRANCH  81  83
ENDBRANCH  80  81
ENDBRANCH  79  80
ENDBRANCH  78  79
ENDBRANCH  77  78
ENDBRANCH  76  77
ENDBRANCH   1  76
TORSDOF 23
ENDMDL
