MODEL 1
REMARK VINA RESULT:      -9.9      0.000      0.000
REMARK SMILES O=C(C[C@H](Cc1ccc(Cl)cc1)C(=O)Nc1cc(Cl)ccc1Cl)OCCOCCOCCOC(=O)c1ccc(-c2c3nc(c(-c4c(F)cc(S(=O)(=O)[O-])cc4F)c4ccc([nH]4)c(-c4c(F)cc(S(=O)(=O)[O-])cc4F)c4nc(c(-c5c(F)cc(S(=O)(=O)[O-])cc5F)c5ccc2[nH]5)C=C4)C=C3)cc1
REMARK SMILES IDX 28 1 27 2 26 3 25 4 24 5 2 6 1 7 3 8 4 9 13 10 14 11 15 12
REMARK SMILES IDX 16 14 17 15 22 16 18 17 21 18 23 19 19 20 20 21 5 22 6 23
REMARK SMILES IDX 7 24 12 25 8 26 11 27 9 28 10 29 29 30 30 31 31 32 32 33
REMARK SMILES IDX 33 34 34 35 35 36 36 37 37 38 101 39 38 40 100 41 39 42
REMARK SMILES IDX 40 43 41 44 94 45 42 46 99 47 93 48 95 49 43 50 98 51 92 52
REMARK SMILES IDX 91 53 44 55 78 56 57 57 77 58 58 59 61 60 76 61 96 62 59 63
REMARK SMILES IDX 60 64 75 66 97 67 62 68 45 69 46 70 55 71 47 72 48 73 54 74
REMARK SMILES IDX 56 75 49 76 50 77 51 78 52 79 53 80 79 81 80 82 89 83 81 84
REMARK SMILES IDX 82 85 88 86 90 87 83 88 84 89 85 90 86 91 87 92 63 93 64 94
REMARK SMILES IDX 73 95 65 96 66 97 72 98 74 99 67 100 68 101 69 102 70 103
REMARK SMILES IDX 71 104
REMARK H PARENT 15 13 95 54 61 65
REMARK Flexibility Score: inf
ROOT
ATOM      1  C   UNL A   1      40.129  20.879  26.531  1.00  0.00     0.188 C 
ENDROOT
BRANCH   1   2
ATOM      2  O   UNL A   1      39.317  21.707  25.701  1.00  0.00    -0.376 OA
BRANCH   2   3
ATOM      3  C   UNL A   1      38.243  22.386  26.322  1.00  0.00     0.202 C 
BRANCH   3   4
ATOM      4  C   UNL A   1      37.169  22.845  25.363  1.00  0.00     0.261 C 
BRANCH   4   5
ATOM      5  O   UNL A   1      35.935  23.201  25.990  1.00  0.00    -0.463 OA
BRANCH   5   6
ATOM      6  C   UNL A   1      34.828  22.428  26.040  1.00  0.00     0.306 C 
ATOM      7  O   UNL A   1      34.907  21.267  25.639  1.00  0.00    -0.252 OA
BRANCH   6   8
ATOM      8  C   UNL A   1      33.488  23.004  26.419  1.00  0.00     0.136 C 
BRANCH   8   9
ATOM      9  C   UNL A   1      32.205  22.868  25.588  1.00  0.00     0.094 C 
BRANCH   9  10
ATOM     10  C   UNL A   1      30.917  23.432  26.211  1.00  0.00     0.228 C 
ATOM     11  O   UNL A   1      30.012  22.639  26.496  1.00  0.00    -0.274 OA
ATOM     12  N   UNL A   1      30.724  24.731  26.566  1.00  0.00    -0.324 N 
ATOM     13  H   UNL A   1      30.091  24.836  27.313  1.00  0.00     0.169 HD
BRANCH  12  14
ATOM     14  C   UNL A   1      31.231  25.954  26.099  1.00  0.00     0.061 A 
ATOM     15  C   UNL A   1      32.465  26.449  26.520  1.00  0.00     0.048 A 
ATOM     16  C   UNL A   1      30.498  26.683  25.141  1.00  0.00     0.064 A 
ATOM     17  C   UNL A   1      32.899  27.705  26.079  1.00  0.00     0.043 A 
ATOM     18  C   UNL A   1      30.897  27.972  24.774  1.00  0.00     0.024 A 
ATOM     19  Cl  UNL A   1      29.037  26.057  24.461  1.00  0.00    -0.082 Cl
ATOM     20  Cl  UNL A   1      34.435  28.302  26.588  1.00  0.00    -0.084 Cl
ATOM     21  C   UNL A   1      32.095  28.494  25.259  1.00  0.00     0.022 A 
ENDBRANCH  12  14
ENDBRANCH   9  10
BRANCH   9  22
ATOM     22  C   UNL A   1      32.235  23.005  24.048  1.00  0.00     0.049 C 
BRANCH  22  23
ATOM     23  C   UNL A   1      32.732  24.295  23.407  1.00  0.00    -0.047 A 
ATOM     24  C   UNL A   1      31.883  24.969  22.509  1.00  0.00     0.005 A 
ATOM     25  C   UNL A   1      33.997  24.851  23.652  1.00  0.00     0.005 A 
ATOM     26  C   UNL A   1      32.243  26.202  21.955  1.00  0.00     0.021 A 
ATOM     27  C   UNL A   1      34.351  26.099  23.117  1.00  0.00     0.021 A 
ATOM     28  C   UNL A   1      33.467  26.775  22.284  1.00  0.00     0.041 A 
ATOM     29  Cl  UNL A   1      33.875  28.330  21.668  1.00  0.00    -0.084 Cl
ENDBRANCH  22  23
ENDBRANCH   9  22
ENDBRANCH   8   9
ENDBRANCH   6   8
ENDBRANCH   5   6
ENDBRANCH   4   5
ENDBRANCH   3   4
ENDBRANCH   2   3
ENDBRANCH   1   2
BRANCH   1  30
ATOM     30  C   UNL A   1      41.654  20.992  26.402  1.00  0.00     0.188 C 
BRANCH  30  31
ATOM     31  O   UNL A   1      42.225  21.780  25.360  1.00  0.00    -0.376 OA
BRANCH  31  32
ATOM     32  C   UNL A   1      42.175  23.197  25.430  1.00  0.00     0.202 C 
BRANCH  32  33
ATOM     33  C   UNL A   1      43.454  23.946  25.045  1.00  0.00     0.261 C 
BRANCH  33  34
ATOM     34  O   UNL A   1      43.792  25.024  25.930  1.00  0.00    -0.460 OA
BRANCH  34  35
ATOM     35  C   UNL A   1      42.887  26.029  25.984  1.00  0.00     0.338 C 
ATOM     36  O   UNL A   1      42.209  26.451  25.054  1.00  0.00    -0.246 OA
BRANCH  35  37
ATOM     37  C   UNL A   1      42.694  26.480  27.378  1.00  0.00     0.060 A 
ATOM     38  C   UNL A   1      41.407  26.396  27.926  1.00  0.00     0.016 A 
ATOM     39  C   UNL A   1      43.735  27.056  28.111  1.00  0.00     0.016 A 
ATOM     40  C   UNL A   1      41.134  26.975  29.163  1.00  0.00     0.010 A 
ATOM     41  C   UNL A   1      43.457  27.648  29.350  1.00  0.00     0.010 A 
ATOM     42  C   UNL A   1      42.142  27.666  29.848  1.00  0.00    -0.014 A 
BRANCH  42  43
ATOM     43  C   UNL A   1      41.759  28.589  30.947  1.00  0.00     0.031 A 
ATOM     44  C   UNL A   1      42.557  28.553  32.225  1.00  0.00     0.074 A 
ATOM     45  C   UNL A   1      40.773  29.490  30.788  1.00  0.00     0.049 A 
ATOM     46  N   UNL A   1      42.424  29.272  33.311  1.00  0.00    -0.248 NA
ATOM     47  C   UNL A   1      43.654  27.572  32.290  1.00  0.00     0.031 C 
ATOM     48  C   UNL A   1      39.953  29.643  29.588  1.00  0.00     0.029 A 
ATOM     49  N   UNL A   1      40.295  30.447  31.649  1.00  0.00    -0.354 N 
ATOM     50  C   UNL A   1      43.422  28.839  34.178  1.00  0.00     0.074 A 
ATOM     51  C   UNL A   1      44.120  27.759  33.515  1.00  0.00     0.031 C 
ATOM     52  C   UNL A   1      39.062  30.630  29.793  1.00  0.00     0.029 A 
ATOM     53  C   UNL A   1      39.235  31.162  31.144  1.00  0.00     0.049 A 
ATOM     54  H   UNL A   1      40.676  30.607  32.541  1.00  0.00     0.167 HD
ATOM     55  C   UNL A   1      43.744  29.311  35.405  1.00  0.00     0.037 A 
ATOM     56  C   UNL A   1      38.483  32.124  31.715  1.00  0.00     0.037 A 
ATOM     57  C   UNL A   1      43.043  30.382  36.065  1.00  0.00     0.049 A 
ATOM     58  C   UNL A   1      38.822  32.593  33.107  1.00  0.00     0.074 A 
ATOM     59  C   UNL A   1      43.285  30.934  37.311  1.00  0.00     0.029 A 
ATOM     60  N   UNL A   1      41.960  31.066  35.531  1.00  0.00    -0.354 N 
ATOM     61  N   UNL A   1      39.778  32.185  33.909  1.00  0.00    -0.248 NA
ATOM     62  C   UNL A   1      37.989  33.667  33.667  1.00  0.00     0.031 C 
ATOM     63  C   UNL A   1      42.318  31.915  37.551  1.00  0.00     0.029 A 
ATOM     64  C   UNL A   1      41.510  32.020  36.431  1.00  0.00     0.049 A 
ATOM     65  H   UNL A   1      41.568  30.899  34.644  1.00  0.00     0.167 HD
ATOM     66  C   UNL A   1      39.675  32.967  35.057  1.00  0.00     0.074 A 
ATOM     67  C   UNL A   1      38.580  33.889  34.831  1.00  0.00     0.031 C 
ATOM     68  C   UNL A   1      40.413  32.927  36.195  1.00  0.00     0.037 A 
BRANCH  55  69
ATOM     69  C   UNL A   1      44.901  28.664  36.122  1.00  0.00     0.058 A 
ATOM     70  C   UNL A   1      46.212  29.153  35.996  1.00  0.00     0.135 A 
ATOM     71  C   UNL A   1      44.692  27.569  36.975  1.00  0.00     0.135 A 
ATOM     72  F   UNL A   1      46.474  30.184  35.177  1.00  0.00    -0.206 F 
ATOM     73  C   UNL A   1      47.276  28.566  36.674  1.00  0.00     0.059 A 
ATOM     74  C   UNL A   1      45.737  26.985  37.686  1.00  0.00     0.059 A 
ATOM     75  F   UNL A   1      43.461  27.057  37.130  1.00  0.00    -0.206 F 
ATOM     76  C   UNL A   1      47.028  27.485  37.522  1.00  0.00     0.060 A 
BRANCH  76  77
ATOM     77  S   UNL A   1      48.417  26.750  38.410  1.00  0.00     0.124 S 
ATOM     78  O   UNL A   1      47.732  25.832  39.315  1.00  0.00    -0.237 OA
ATOM     79  O   UNL A   1      49.180  26.128  37.333  1.00  0.00    -0.237 OA
ATOM     80  O   UNL A   1      49.058  27.896  39.048  1.00  0.00    -0.744 OA
ENDBRANCH  76  77
ENDBRANCH  55  69
BRANCH  56  81
ATOM     81  C   UNL A   1      37.322  32.696  30.978  1.00  0.00     0.058 A 
ATOM     82  C   UNL A   1      37.493  33.648  29.963  1.00  0.00     0.135 A 
ATOM     83  C   UNL A   1      36.009  32.309  31.292  1.00  0.00     0.135 A 
ATOM     84  F   UNL A   1      38.725  34.063  29.632  1.00  0.00    -0.206 F 
ATOM     85  C   UNL A   1      36.406  34.215  29.303  1.00  0.00     0.059 A 
ATOM     86  C   UNL A   1      34.909  32.836  30.626  1.00  0.00     0.059 A 
ATOM     87  F   UNL A   1      35.789  31.392  32.249  1.00  0.00    -0.206 F 
ATOM     88  C   UNL A   1      35.117  33.801  29.641  1.00  0.00     0.060 A 
BRANCH  88  89
ATOM     89  S   UNL A   1      33.714  34.518  28.758  1.00  0.00     0.124 S 
ATOM     90  O   UNL A   1      32.800  34.817  29.854  1.00  0.00    -0.237 OA
ATOM     91  O   UNL A   1      34.323  35.671  28.102  1.00  0.00    -0.237 OA
ATOM     92  O   UNL A   1      33.297  33.444  27.863  1.00  0.00    -0.744 OA
ENDBRANCH  88  89
ENDBRANCH  56  81
BRANCH  68  93
ATOM     93  C   UNL A   1      40.077  33.926  37.270  1.00  0.00     0.058 A 
ATOM     94  C   UNL A   1      39.094  33.670  38.239  1.00  0.00     0.135 A 
ATOM     95  C   UNL A   1      40.754  35.156  37.338  1.00  0.00     0.135 A 
ATOM     96  F   UNL A   1      38.416  32.511  38.223  1.00  0.00    -0.206 F 
ATOM     97  C   UNL A   1      38.758  34.614  39.203  1.00  0.00     0.059 A 
ATOM     98  C   UNL A   1      40.459  36.101  38.316  1.00  0.00     0.059 A 
ATOM     99  F   UNL A   1      41.717  35.448  36.450  1.00  0.00    -0.206 F 
ATOM    100  C   UNL A   1      39.442  35.831  39.229  1.00  0.00     0.060 A 
BRANCH 100 101
ATOM    101  S   UNL A   1      38.986  37.055  40.476  1.00  0.00     0.124 S 
ATOM    102  O   UNL A   1      40.294  37.479  40.964  1.00  0.00    -0.237 OA
ATOM    103  O   UNL A   1      38.252  38.043  39.690  1.00  0.00    -0.237 OA
ATOM    104  O   UNL A   1      38.179  36.291  41.423  1.00  0.00    -0.744 OA
ENDBRANCH 100 101
ENDBRANCH  68  93
ENDBRANCH  42  43
ENDBRANCH  35  37
ENDBRANCH  34  35
ENDBRANCH  33  34
ENDBRANCH  32  33
ENDBRANCH  31  32
ENDBRANCH  30  31
ENDBRANCH   1  30
TORSDOF 25
ENDMDL
MODEL 2
REMARK VINA RESULT:      -9.9      5.171     10.524
REMARK SMILES O=C(C[C@H](Cc1ccc(Cl)cc1)C(=O)Nc1cc(Cl)ccc1Cl)OCCOCCOCCOC(=O)c1ccc(-c2c3nc(c(-c4c(F)cc(S(=O)(=O)[O-])cc4F)c4ccc([nH]4)c(-c4c(F)cc(S(=O)(=O)[O-])cc4F)c4nc(c(-c5c(F)cc(S(=O)(=O)[O-])cc5F)c5ccc2[nH]5)C=C4)C=C3)cc1
REMARK SMILES IDX 28 1 27 2 26 3 25 4 24 5 2 6 1 7 3 8 4 9 13 10 14 11 15 12
REMARK SMILES IDX 16 14 17 15 22 16 18 17 21 18 23 19 19 20 20 21 5 22 6 23
REMARK SMILES IDX 7 24 12 25 8 26 11 27 9 28 10 29 29 30 30 31 31 32 32 33
REMARK SMILES IDX 33 34 34 35 35 36 36 37 37 38 101 39 38 40 100 41 39 42
REMARK SMILES IDX 40 43 41 44 94 45 42 46 99 47 93 48 95 49 43 50 98 51 92 52
REMARK SMILES IDX 91 53 44 55 78 56 57 57 77 58 58 59 61 60 76 61 96 62 59 63
REMARK SMILES IDX 60 64 75 66 97 67 62 68 45 69 46 70 55 71 47 72 48 73 54 74
REMARK SMILES IDX 56 75 49 76 50 77 51 78 52 79 53 80 79 81 80 82 89 83 81 84
REMARK SMILES IDX 82 85 88 86 90 87 83 88 84 89 85 90 86 91 87 92 63 93 64 94
REMARK SMILES IDX 73 95 65 96 66 97 72 98 74 99 67 100 68 101 69 102 70 103
REMARK SMILES IDX 71 104
REMARK H PARENT 15 13 95 54 61 65
REMARK Flexibility Score: inf
ROOT
ATOM      1  C   UNL A   1      33.679  32.551  28.095  1.00  0.00     0.188 C 
ENDROOT
BRANCH   1   2
ATOM      2  O   UNL A   1      33.391  31.677  27.006  1.00  0.00    -0.376 OA
BRANCH   2   3
ATOM      3  C   UNL A   1      32.930  30.379  27.326  1.00  0.00     0.202 C 
BRANCH   3   4
ATOM      4  C   UNL A   1      32.467  29.578  26.131  1.00  0.00     0.261 C 
BRANCH   4   5
ATOM      5  O   UNL A   1      32.059  28.244  26.441  1.00  0.00    -0.463 OA
BRANCH   5   6
ATOM      6  C   UNL A   1      32.874  27.167  26.497  1.00  0.00     0.306 C 
ATOM      7  O   UNL A   1      34.075  27.332  26.289  1.00  0.00    -0.252 OA
BRANCH   6   8
ATOM      8  C   UNL A   1      32.320  25.773  26.648  1.00  0.00     0.136 C 
BRANCH   8   9
ATOM      9  C   UNL A   1      32.431  24.664  25.593  1.00  0.00     0.094 C 
BRANCH   9  10
ATOM     10  C   UNL A   1      31.143  24.307  24.831  1.00  0.00     0.228 C 
ATOM     11  O   UNL A   1      30.770  23.129  24.838  1.00  0.00    -0.274 OA
ATOM     12  N   UNL A   1      30.322  25.204  24.222  1.00  0.00    -0.324 N 
ATOM     13  H   UNL A   1      29.384  24.905  24.187  1.00  0.00     0.169 HD
BRANCH  12  14
ATOM     14  C   UNL A   1      30.521  26.463  23.631  1.00  0.00     0.061 A 
ATOM     15  C   UNL A   1      31.779  26.881  23.196  1.00  0.00     0.048 A 
ATOM     16  C   UNL A   1      29.414  27.311  23.426  1.00  0.00     0.064 A 
ATOM     17  C   UNL A   1      31.941  28.171  22.675  1.00  0.00     0.043 A 
ATOM     18  C   UNL A   1      29.600  28.625  22.986  1.00  0.00     0.024 A 
ATOM     19  Cl  UNL A   1      27.807  26.795  23.799  1.00  0.00    -0.082 Cl
ATOM     20  Cl  UNL A   1      33.494  28.675  22.121  1.00  0.00    -0.084 Cl
ATOM     21  C   UNL A   1      30.873  29.064  22.626  1.00  0.00     0.022 A 
ENDBRANCH  12  14
ENDBRANCH   9  10
BRANCH   9  22
ATOM     22  C   UNL A   1      33.702  24.513  24.726  1.00  0.00     0.049 C 
BRANCH  22  23
ATOM     23  C   UNL A   1      34.470  23.197  24.723  1.00  0.00    -0.047 A 
ATOM     24  C   UNL A   1      35.733  23.159  24.102  1.00  0.00     0.005 A 
ATOM     25  C   UNL A   1      33.989  22.011  25.299  1.00  0.00     0.005 A 
ATOM     26  C   UNL A   1      36.527  22.008  24.141  1.00  0.00     0.021 A 
ATOM     27  C   UNL A   1      34.793  20.863  25.361  1.00  0.00     0.021 A 
ATOM     28  C   UNL A   1      36.063  20.871  24.795  1.00  0.00     0.041 A 
ATOM     29  Cl  UNL A   1      37.073  19.483  24.916  1.00  0.00    -0.084 Cl
ENDBRANCH  22  23
ENDBRANCH   9  22
ENDBRANCH   8   9
ENDBRANCH   6   8
ENDBRANCH   5   6
ENDBRANCH   4   5
ENDBRANCH   3   4
ENDBRANCH   2   3
ENDBRANCH   1   2
BRANCH   1  30
ATOM     30  C   UNL A   1      33.218  34.012  27.998  1.00  0.00     0.188 C 
BRANCH  30  31
ATOM     31  O   UNL A   1      33.791  34.999  28.853  1.00  0.00    -0.376 OA
BRANCH  31  32
ATOM     32  C   UNL A   1      33.215  35.260  30.124  1.00  0.00     0.202 C 
BRANCH  32  33
ATOM     33  C   UNL A   1      33.979  34.732  31.341  1.00  0.00     0.261 C 
BRANCH  33  34
ATOM     34  O   UNL A   1      34.011  33.299  31.438  1.00  0.00    -0.460 OA
BRANCH  34  35
ATOM     35  C   UNL A   1      34.825  32.806  32.400  1.00  0.00     0.338 C 
ATOM     36  O   UNL A   1      34.643  32.864  33.611  1.00  0.00    -0.246 OA
BRANCH  35  37
ATOM     37  C   UNL A   1      35.929  32.029  31.798  1.00  0.00     0.060 A 
ATOM     38  C   UNL A   1      36.803  31.351  32.658  1.00  0.00     0.016 A 
ATOM     39  C   UNL A   1      36.160  32.032  30.420  1.00  0.00     0.016 A 
ATOM     40  C   UNL A   1      37.961  30.761  32.157  1.00  0.00     0.010 A 
ATOM     41  C   UNL A   1      37.329  31.448  29.918  1.00  0.00     0.010 A 
ATOM     42  C   UNL A   1      38.265  30.868  30.794  1.00  0.00    -0.014 A 
BRANCH  42  43
ATOM     43  C   UNL A   1      39.652  30.585  30.344  1.00  0.00     0.031 A 
ATOM     44  C   UNL A   1      40.684  31.677  30.470  1.00  0.00     0.074 A 
ATOM     45  C   UNL A   1      40.006  29.364  29.904  1.00  0.00     0.049 A 
ATOM     46  N   UNL A   1      41.956  31.659  30.163  1.00  0.00    -0.248 NA
ATOM     47  C   UNL A   1      40.219  32.964  31.013  1.00  0.00     0.031 C 
ATOM     48  C   UNL A   1      39.106  28.220  29.770  1.00  0.00     0.029 A 
ATOM     49  N   UNL A   1      41.224  28.888  29.486  1.00  0.00    -0.354 N 
ATOM     50  C   UNL A   1      42.442  32.923  30.485  1.00  0.00     0.074 A 
ATOM     51  C   UNL A   1      41.319  33.700  30.961  1.00  0.00     0.031 C 
ATOM     52  C   UNL A   1      39.802  27.174  29.288  1.00  0.00     0.029 A 
ATOM     53  C   UNL A   1      41.187  27.581  29.062  1.00  0.00     0.049 A 
ATOM     54  H   UNL A   1      42.044  29.430  29.492  1.00  0.00     0.167 HD
ATOM     55  C   UNL A   1      43.711  33.388  30.413  1.00  0.00     0.037 A 
ATOM     56  C   UNL A   1      42.159  26.809  28.536  1.00  0.00     0.037 A 
ATOM     57  C   UNL A   1      44.826  32.613  29.932  1.00  0.00     0.049 A 
ATOM     58  C   UNL A   1      43.554  27.368  28.408  1.00  0.00     0.074 A 
ATOM     59  C   UNL A   1      46.152  32.991  29.813  1.00  0.00     0.029 A 
ATOM     60  N   UNL A   1      44.746  31.301  29.489  1.00  0.00    -0.354 N 
ATOM     61  N   UNL A   1      44.002  28.559  28.732  1.00  0.00    -0.248 NA
ATOM     62  C   UNL A   1      44.581  26.471  27.859  1.00  0.00     0.031 C 
ATOM     63  C   UNL A   1      46.863  31.926  29.252  1.00  0.00     0.029 A 
ATOM     64  C   UNL A   1      45.994  30.861  29.077  1.00  0.00     0.049 A 
ATOM     65  H   UNL A   1      43.923  30.760  29.470  1.00  0.00     0.167 HD
ATOM     66  C   UNL A   1      45.365  28.546  28.446  1.00  0.00     0.074 A 
ATOM     67  C   UNL A   1      45.670  27.220  27.950  1.00  0.00     0.031 C 
ATOM     68  C   UNL A   1      46.282  29.538  28.578  1.00  0.00     0.037 A 
BRANCH  55  69
ATOM     69  C   UNL A   1      43.962  34.806  30.855  1.00  0.00     0.058 A 
ATOM     70  C   UNL A   1      44.323  35.113  32.177  1.00  0.00     0.135 A 
ATOM     71  C   UNL A   1      43.880  35.867  29.939  1.00  0.00     0.135 A 
ATOM     72  F   UNL A   1      44.397  34.142  33.102  1.00  0.00    -0.206 F 
ATOM     73  C   UNL A   1      44.574  36.422  32.580  1.00  0.00     0.059 A 
ATOM     74  C   UNL A   1      44.155  37.180  30.311  1.00  0.00     0.059 A 
ATOM     75  F   UNL A   1      43.534  35.633  28.663  1.00  0.00    -0.206 F 
ATOM     76  C   UNL A   1      44.492  37.449  31.637  1.00  0.00     0.060 A 
BRANCH  76  77
ATOM     77  S   UNL A   1      44.842  39.137  32.171  1.00  0.00     0.124 S 
ATOM     78  O   UNL A   1      43.571  39.521  32.777  1.00  0.00    -0.237 OA
ATOM     79  O   UNL A   1      45.954  38.945  33.098  1.00  0.00    -0.237 OA
ATOM     80  O   UNL A   1      45.177  39.825  30.929  1.00  0.00    -0.744 OA
ENDBRANCH  76  77
ENDBRANCH  55  69
BRANCH  56  81
ATOM     81  C   UNL A   1      41.845  25.429  28.072  1.00  0.00     0.058 A 
ATOM     82  C   UNL A   1      41.111  25.197  26.900  1.00  0.00     0.135 A 
ATOM     83  C   UNL A   1      42.263  24.310  28.810  1.00  0.00     0.135 A 
ATOM     84  F   UNL A   1      40.677  26.232  26.164  1.00  0.00    -0.206 F 
ATOM     85  C   UNL A   1      40.781  23.909  26.488  1.00  0.00     0.059 A 
ATOM     86  C   UNL A   1      41.972  23.012  28.403  1.00  0.00     0.059 A 
ATOM     87  F   UNL A   1      42.978  24.474  29.935  1.00  0.00    -0.206 F 
ATOM     88  C   UNL A   1      41.217  22.822  27.247  1.00  0.00     0.060 A 
BRANCH  88  89
ATOM     89  S   UNL A   1      40.810  21.154  26.689  1.00  0.00     0.124 S 
ATOM     90  O   UNL A   1      39.524  21.368  26.036  1.00  0.00    -0.237 OA
ATOM     91  O   UNL A   1      41.931  20.844  25.807  1.00  0.00    -0.237 OA
ATOM     92  O   UNL A   1      40.768  20.386  27.930  1.00  0.00    -0.744 OA
ENDBRANCH  88  89
ENDBRANCH  56  81
BRANCH  68  93
ATOM     93  C   UNL A   1      47.705  29.216  28.204  1.00  0.00     0.058 A 
ATOM     94  C   UNL A   1      48.154  29.276  26.875  1.00  0.00     0.135 A 
ATOM     95  C   UNL A   1      48.636  28.850  29.192  1.00  0.00     0.135 A 
ATOM     96  F   UNL A   1      47.308  29.621  25.892  1.00  0.00    -0.206 F 
ATOM     97  C   UNL A   1      49.458  28.936  26.532  1.00  0.00     0.059 A 
ATOM     98  C   UNL A   1      49.954  28.540  28.875  1.00  0.00     0.059 A 
ATOM     99  F   UNL A   1      48.268  28.794  30.481  1.00  0.00    -0.206 F 
ATOM    100  C   UNL A   1      50.350  28.562  27.539  1.00  0.00     0.060 A 
BRANCH 100 101
ATOM    101  S   UNL A   1      52.035  28.107  27.078  1.00  0.00     0.124 S 
ATOM    102  O   UNL A   1      52.078  28.519  25.678  1.00  0.00    -0.237 OA
ATOM    103  O   UNL A   1      52.838  28.907  27.998  1.00  0.00    -0.237 OA
ATOM    104  O   UNL A   1      52.074  26.666  27.310  1.00  0.00    -0.744 OA
ENDBRANCH 100 101
ENDBRANCH  68  93
ENDBRANCH  42  43
ENDBRANCH  35  37
ENDBRANCH  34  35
ENDBRANCH  33  34
ENDBRANCH  32  33
ENDBRANCH  31  32
ENDBRANCH  30  31
ENDBRANCH   1  30
TORSDOF 25
ENDMDL
MODEL 3
REMARK VINA RESULT:      -9.5      2.987      8.507
REMARK SMILES O=C(C[C@H](Cc1ccc(Cl)cc1)C(=O)Nc1cc(Cl)ccc1Cl)OCCOCCOCCOC(=O)c1ccc(-c2c3nc(c(-c4c(F)cc(S(=O)(=O)[O-])cc4F)c4ccc([nH]4)c(-c4c(F)cc(S(=O)(=O)[O-])cc4F)c4nc(c(-c5c(F)cc(S(=O)(=O)[O-])cc5F)c5ccc2[nH]5)C=C4)C=C3)cc1
REMARK SMILES IDX 28 1 27 2 26 3 25 4 24 5 2 6 1 7 3 8 4 9 13 10 14 11 15 12
REMARK SMILES IDX 16 14 17 15 22 16 18 17 21 18 23 19 19 20 20 21 5 22 6 23
REMARK SMILES IDX 7 24 12 25 8 26 11 27 9 28 10 29 29 30 30 31 31 32 32 33
REMARK SMILES IDX 33 34 34 35 35 36 36 37 37 38 101 39 38 40 100 41 39 42
REMARK SMILES IDX 40 43 41 44 94 45 42 46 99 47 93 48 95 49 43 50 98 51 92 52
REMARK SMILES IDX 91 53 44 55 78 56 57 57 77 58 58 59 61 60 76 61 96 62 59 63
REMARK SMILES IDX 60 64 75 66 97 67 62 68 45 69 46 70 55 71 47 72 48 73 54 74
REMARK SMILES IDX 56 75 49 76 50 77 51 78 52 79 53 80 79 81 80 82 89 83 81 84
REMARK SMILES IDX 82 85 88 86 90 87 83 88 84 89 85 90 86 91 87 92 63 93 64 94
REMARK SMILES IDX 73 95 65 96 66 97 72 98 74 99 67 100 68 101 69 102 70 103
REMARK SMILES IDX 71 104
REMARK H PARENT 15 13 95 54 61 65
REMARK Flexibility Score: inf
ROOT
ATOM      1  C   UNL A   1      38.093  28.511  28.530  1.00  0.00     0.188 C 
ENDROOT
BRANCH   1   2
ATOM      2  O   UNL A   1      39.290  27.858  28.113  1.00  0.00    -0.376 OA
BRANCH   2   3
ATOM      3  C   UNL A   1      39.650  26.674  28.799  1.00  0.00     0.202 C 
BRANCH   3   4
ATOM      4  C   UNL A   1      39.830  25.473  27.900  1.00  0.00     0.261 C 
BRANCH   4   5
ATOM      5  O   UNL A   1      38.674  25.140  27.126  1.00  0.00    -0.463 OA
BRANCH   5   6
ATOM      6  C   UNL A   1      38.435  23.942  26.549  1.00  0.00     0.306 C 
ATOM      7  O   UNL A   1      39.300  23.071  26.630  1.00  0.00    -0.252 OA
BRANCH   6   8
ATOM      8  C   UNL A   1      37.219  23.718  25.687  1.00  0.00     0.136 C 
BRANCH   8   9
ATOM      9  C   UNL A   1      37.081  22.613  24.631  1.00  0.00     0.094 C 
BRANCH   9  10
ATOM     10  C   UNL A   1      36.843  21.187  25.154  1.00  0.00     0.228 C 
ATOM     11  O   UNL A   1      37.776  20.379  25.092  1.00  0.00    -0.274 OA
ATOM     12  N   UNL A   1      35.708  20.761  25.773  1.00  0.00    -0.324 N 
ATOM     13  H   UNL A   1      35.869  20.028  26.411  1.00  0.00     0.169 HD
BRANCH  12  14
ATOM     14  C   UNL A   1      34.357  21.139  25.698  1.00  0.00     0.061 A 
ATOM     15  C   UNL A   1      33.893  22.327  26.263  1.00  0.00     0.048 A 
ATOM     16  C   UNL A   1      33.450  20.322  24.993  1.00  0.00     0.064 A 
ATOM     17  C   UNL A   1      32.526  22.630  26.223  1.00  0.00     0.043 A 
ATOM     18  C   UNL A   1      32.078  20.588  25.033  1.00  0.00     0.024 A 
ATOM     19  Cl  UNL A   1      33.985  18.917  24.139  1.00  0.00    -0.082 Cl
ATOM     20  Cl  UNL A   1      31.962  24.109  26.905  1.00  0.00    -0.084 Cl
ATOM     21  C   UNL A   1      31.611  21.738  25.667  1.00  0.00     0.022 A 
ENDBRANCH  12  14
ENDBRANCH   9  10
BRANCH   9  22
ATOM     22  C   UNL A   1      36.376  22.882  23.282  1.00  0.00     0.049 C 
BRANCH  22  23
ATOM     23  C   UNL A   1      34.993  23.522  23.260  1.00  0.00    -0.047 A 
ATOM     24  C   UNL A   1      34.809  24.746  23.929  1.00  0.00     0.005 A 
ATOM     25  C   UNL A   1      33.882  22.956  22.615  1.00  0.00     0.005 A 
ATOM     26  C   UNL A   1      33.588  25.428  23.874  1.00  0.00     0.021 A 
ATOM     27  C   UNL A   1      32.665  23.650  22.536  1.00  0.00     0.021 A 
ATOM     28  C   UNL A   1      32.528  24.889  23.152  1.00  0.00     0.041 A 
ATOM     29  Cl  UNL A   1      31.054  25.766  23.014  1.00  0.00    -0.084 Cl
ENDBRANCH  22  23
ENDBRANCH   9  22
ENDBRANCH   8   9
ENDBRANCH   6   8
ENDBRANCH   5   6
ENDBRANCH   4   5
ENDBRANCH   3   4
ENDBRANCH   2   3
ENDBRANCH   1   2
BRANCH   1  30
ATOM     30  C   UNL A   1      37.672  29.794  27.800  1.00  0.00     0.188 C 
BRANCH  30  31
ATOM     31  O   UNL A   1      36.385  29.879  27.191  1.00  0.00    -0.376 OA
BRANCH  31  32
ATOM     32  C   UNL A   1      35.219  29.944  27.998  1.00  0.00     0.202 C 
BRANCH  32  33
ATOM     33  C   UNL A   1      34.253  31.096  27.709  1.00  0.00     0.261 C 
BRANCH  33  34
ATOM     34  O   UNL A   1      34.880  32.387  27.650  1.00  0.00    -0.460 OA
BRANCH  34  35
ATOM     35  C   UNL A   1      34.507  33.251  28.623  1.00  0.00     0.338 C 
ATOM     36  O   UNL A   1      33.420  33.808  28.728  1.00  0.00    -0.246 OA
BRANCH  35  37
ATOM     37  C   UNL A   1      35.550  33.340  29.667  1.00  0.00     0.060 A 
ATOM     38  C   UNL A   1      36.634  34.199  29.445  1.00  0.00     0.016 A 
ATOM     39  C   UNL A   1      35.514  32.532  30.807  1.00  0.00     0.016 A 
ATOM     40  C   UNL A   1      37.729  34.181  30.305  1.00  0.00     0.010 A 
ATOM     41  C   UNL A   1      36.620  32.507  31.665  1.00  0.00     0.010 A 
ATOM     42  C   UNL A   1      37.758  33.283  31.380  1.00  0.00    -0.014 A 
BRANCH  42  43
ATOM     43  C   UNL A   1      39.055  33.002  32.045  1.00  0.00     0.031 A 
ATOM     44  C   UNL A   1      40.058  32.137  31.323  1.00  0.00     0.074 A 
ATOM     45  C   UNL A   1      39.369  33.559  33.227  1.00  0.00     0.049 A 
ATOM     46  N   UNL A   1      41.259  31.770  31.691  1.00  0.00    -0.248 NA
ATOM     47  C   UNL A   1      39.651  31.614  30.008  1.00  0.00     0.031 C 
ATOM     48  C   UNL A   1      38.496  34.438  34.005  1.00  0.00     0.029 A 
ATOM     49  N   UNL A   1      40.512  33.464  33.981  1.00  0.00    -0.354 N 
ATOM     50  C   UNL A   1      41.752  30.985  30.653  1.00  0.00     0.074 A 
ATOM     51  C   UNL A   1      40.702  30.885  29.663  1.00  0.00     0.031 C 
ATOM     52  C   UNL A   1      39.133  34.792  35.136  1.00  0.00     0.029 A 
ATOM     53  C   UNL A   1      40.446  34.150  35.171  1.00  0.00     0.049 A 
ATOM     54  H   UNL A   1      41.303  32.954  33.697  1.00  0.00     0.167 HD
ATOM     55  C   UNL A   1      42.975  30.418  30.524  1.00  0.00     0.037 A 
ATOM     56  C   UNL A   1      41.338  34.235  36.178  1.00  0.00     0.037 A 
ATOM     57  C   UNL A   1      44.015  30.515  31.515  1.00  0.00     0.049 A 
ATOM     58  C   UNL A   1      42.672  33.545  36.038  1.00  0.00     0.074 A 
ATOM     59  C   UNL A   1      45.288  29.974  31.484  1.00  0.00     0.029 A 
ATOM     60  N   UNL A   1      43.903  31.200  32.717  1.00  0.00    -0.354 N 
ATOM     61  N   UNL A   1      43.130  32.820  35.044  1.00  0.00    -0.248 NA
ATOM     62  C   UNL A   1      43.618  33.699  37.153  1.00  0.00     0.031 C 
ATOM     63  C   UNL A   1      45.927  30.288  32.688  1.00  0.00     0.029 A 
ATOM     64  C   UNL A   1      45.076  31.077  33.444  1.00  0.00     0.049 A 
ATOM     65  H   UNL A   1      43.107  31.699  33.010  1.00  0.00     0.167 HD
ATOM     66  C   UNL A   1      44.423  32.451  35.404  1.00  0.00     0.074 A 
ATOM     67  C   UNL A   1      44.682  33.057  36.694  1.00  0.00     0.031 C 
ATOM     68  C   UNL A   1      45.316  31.680  34.733  1.00  0.00     0.037 A 
BRANCH  55  69
ATOM     69  C   UNL A   1      43.251  29.632  29.269  1.00  0.00     0.058 A 
ATOM     70  C   UNL A   1      43.004  28.251  29.195  1.00  0.00     0.135 A 
ATOM     71  C   UNL A   1      43.731  30.271  28.114  1.00  0.00     0.135 A 
ATOM     72  F   UNL A   1      42.565  27.584  30.274  1.00  0.00    -0.206 F 
ATOM     73  C   UNL A   1      43.241  27.530  28.029  1.00  0.00     0.059 A 
ATOM     74  C   UNL A   1      43.948  29.575  26.928  1.00  0.00     0.059 A 
ATOM     75  F   UNL A   1      43.990  31.588  28.129  1.00  0.00    -0.206 F 
ATOM     76  C   UNL A   1      43.709  28.202  26.898  1.00  0.00     0.060 A 
BRANCH  76  77
ATOM     77  S   UNL A   1      43.990  27.254  25.388  1.00  0.00     0.124 S 
ATOM     78  O   UNL A   1      44.024  25.888  25.902  1.00  0.00    -0.237 OA
ATOM     79  O   UNL A   1      42.823  27.599  24.583  1.00  0.00    -0.237 OA
ATOM     80  O   UNL A   1      45.263  27.769  24.894  1.00  0.00    -0.744 OA
ENDBRANCH  76  77
ENDBRANCH  55  69
BRANCH  56  81
ATOM     81  C   UNL A   1      40.994  34.988  37.416  1.00  0.00     0.058 A 
ATOM     82  C   UNL A   1      41.416  36.311  37.613  1.00  0.00     0.135 A 
ATOM     83  C   UNL A   1      40.244  34.385  38.439  1.00  0.00     0.135 A 
ATOM     84  F   UNL A   1      42.145  36.930  36.672  1.00  0.00    -0.206 F 
ATOM     85  C   UNL A   1      41.130  37.001  38.788  1.00  0.00     0.059 A 
ATOM     86  C   UNL A   1      39.919  35.063  39.608  1.00  0.00     0.059 A 
ATOM     87  F   UNL A   1      39.805  33.124  38.298  1.00  0.00    -0.206 F 
ATOM     88  C   UNL A   1      40.380  36.368  39.780  1.00  0.00     0.060 A 
BRANCH  88  89
ATOM     89  S   UNL A   1      39.988  37.281  41.288  1.00  0.00     0.124 S 
ATOM     90  O   UNL A   1      38.822  38.051  40.870  1.00  0.00    -0.237 OA
ATOM     91  O   UNL A   1      39.735  36.204  42.241  1.00  0.00    -0.237 OA
ATOM     92  O   UNL A   1      41.200  38.056  41.535  1.00  0.00    -0.744 OA
ENDBRANCH  88  89
ENDBRANCH  56  81
BRANCH  68  93
ATOM     93  C   UNL A   1      46.664  31.472  35.372  1.00  0.00     0.058 A 
ATOM     94  C   UNL A   1      46.941  30.351  36.170  1.00  0.00     0.135 A 
ATOM     95  C   UNL A   1      47.698  32.404  35.175  1.00  0.00     0.135 A 
ATOM     96  F   UNL A   1      45.991  29.428  36.391  1.00  0.00    -0.206 F 
ATOM     97  C   UNL A   1      48.174  30.186  36.792  1.00  0.00     0.059 A 
ATOM     98  C   UNL A   1      48.950  32.241  35.759  1.00  0.00     0.059 A 
ATOM     99  F   UNL A   1      47.498  33.486  34.406  1.00  0.00    -0.206 F 
ATOM    100  C   UNL A   1      49.171  31.142  36.586  1.00  0.00     0.060 A 
BRANCH 100 101
ATOM    101  S   UNL A   1      50.762  30.925  37.412  1.00  0.00     0.124 S 
ATOM    102  O   UNL A   1      50.530  29.706  38.181  1.00  0.00    -0.237 OA
ATOM    103  O   UNL A   1      51.684  30.799  36.287  1.00  0.00    -0.237 OA
ATOM    104  O   UNL A   1      50.906  32.147  38.199  1.00  0.00    -0.744 OA
ENDBRANCH 100 101
ENDBRANCH  68  93
ENDBRANCH  42  43
ENDBRANCH  35  37
ENDBRANCH  34  35
ENDBRANCH  33  34
ENDBRANCH  32  33
ENDBRANCH  31  32
ENDBRANCH  30  31
ENDBRANCH   1  30
TORSDOF 25
ENDMDL
