MODEL 1
REMARK VINA RESULT:     -10.0      0.000      0.000
REMARK SMILES C[C@H](C[C@H]1CSc2ccccc21)C(=O)OCCOCCOCCOC(=O)c1ccc(-c2c3nc(c(-c4c(F)cc(S(=O)(=O)[O-])cc4F)c4ccc([nH]4)c(-c4c(F)cc(S(=O)(=O)[O-])cc4F)c4nc(c(-c5c(F)cc(S(=O)(=O)[O-])cc5F)c5ccc2[nH]5)C=C4)C=C3)cc1
REMARK SMILES IDX 20 1 19 2 18 3 17 4 16 5 15 6 13 7 14 8 2 9 1 10 3 11 4 12
REMARK SMILES IDX 5 13 12 14 6 15 7 16 11 17 8 18 10 19 9 20 21 21 22 22 23 23
REMARK SMILES IDX 24 24 25 25 26 26 27 27 28 28 92 29 29 30 91 31 30 32 31 33
REMARK SMILES IDX 32 34 85 35 33 36 90 37 84 38 86 39 34 40 89 41 83 42 82 43
REMARK SMILES IDX 35 45 69 46 48 47 68 48 49 49 52 50 67 51 87 52 50 53 51 54
REMARK SMILES IDX 66 56 88 57 53 58 36 59 37 60 46 61 38 62 39 63 45 64 47 65
REMARK SMILES IDX 40 66 41 67 42 68 43 69 44 70 70 71 71 72 80 73 72 74 73 75
REMARK SMILES IDX 79 76 81 77 74 78 75 79 76 80 77 81 78 82 54 83 55 84 64 85
REMARK SMILES IDX 56 86 57 87 63 88 65 89 58 90 59 91 60 92 61 93 62 94
REMARK H PARENT 86 44 52 55
REMARK Flexibility Score: inf
ROOT
ATOM      1  C   UNL A   1      42.057  19.813  26.519  1.00  0.00     0.188 C 
ENDROOT
BRANCH   1   2
ATOM      2  C   UNL A   1      40.533  19.983  26.515  1.00  0.00     0.188 C 
BRANCH   2   3
ATOM      3  O   UNL A   1      40.012  21.278  26.791  1.00  0.00    -0.376 OA
BRANCH   3   4
ATOM      4  C   UNL A   1      39.251  21.927  25.769  1.00  0.00     0.202 C 
BRANCH   4   5
ATOM      5  C   UNL A   1      37.845  22.410  26.143  1.00  0.00     0.261 C 
BRANCH   5   6
ATOM      6  O   UNL A   1      36.973  22.503  24.996  1.00  0.00    -0.463 OA
BRANCH   6   7
ATOM      7  C   UNL A   1      35.688  22.126  25.215  1.00  0.00     0.308 C 
ATOM      8  O   UNL A   1      35.377  21.164  25.907  1.00  0.00    -0.252 OA
BRANCH   7   9
ATOM      9  C   UNL A   1      34.656  23.086  24.604  1.00  0.00     0.097 C 
ATOM     10  C   UNL A   1      34.927  23.318  23.115  1.00  0.00     0.020 C 
BRANCH   9  11
ATOM     11  C   UNL A   1      34.310  24.396  25.350  1.00  0.00     0.024 C 
BRANCH  11  12
ATOM     12  C   UNL A   1      33.208  25.363  24.856  1.00  0.00     0.031 C 
ATOM     13  C   UNL A   1      31.865  24.568  24.860  1.00  0.00     0.083 C 
ATOM     14  C   UNL A   1      33.006  26.576  25.732  1.00  0.00    -0.030 A 
ATOM     15  S   UNL A   1      30.568  25.543  25.662  1.00  0.00    -0.125 SA
ATOM     16  C   UNL A   1      31.723  26.730  26.260  1.00  0.00     0.011 A 
ATOM     17  C   UNL A   1      33.968  27.544  26.008  1.00  0.00     0.005 A 
ATOM     18  C   UNL A   1      31.418  27.764  27.136  1.00  0.00     0.015 A 
ATOM     19  C   UNL A   1      33.681  28.574  26.906  1.00  0.00     0.000 A 
ATOM     20  C   UNL A   1      32.413  28.676  27.480  1.00  0.00     0.001 A 
ENDBRANCH  11  12
ENDBRANCH   9  11
ENDBRANCH   7   9
ENDBRANCH   6   7
ENDBRANCH   5   6
ENDBRANCH   4   5
ENDBRANCH   3   4
ENDBRANCH   2   3
ENDBRANCH   1   2
BRANCH   1  21
ATOM     21  O   UNL A   1      42.740  20.540  25.514  1.00  0.00    -0.376 OA
BRANCH  21  22
ATOM     22  C   UNL A   1      43.338  21.768  25.913  1.00  0.00     0.202 C 
BRANCH  22  23
ATOM     23  C   UNL A   1      42.680  23.042  25.360  1.00  0.00     0.261 C 
BRANCH  23  24
ATOM     24  O   UNL A   1      42.404  24.061  26.338  1.00  0.00    -0.460 OA
BRANCH  24  25
ATOM     25  C   UNL A   1      42.384  25.349  25.921  1.00  0.00     0.338 C 
ATOM     26  O   UNL A   1      42.371  25.746  24.769  1.00  0.00    -0.246 OA
BRANCH  25  27
ATOM     27  C   UNL A   1      42.078  26.174  27.117  1.00  0.00     0.060 A 
ATOM     28  C   UNL A   1      41.122  25.754  28.044  1.00  0.00     0.016 A 
ATOM     29  C   UNL A   1      42.671  27.440  27.238  1.00  0.00     0.016 A 
ATOM     30  C   UNL A   1      40.765  26.596  29.099  1.00  0.00     0.010 A 
ATOM     31  C   UNL A   1      42.299  28.288  28.284  1.00  0.00     0.010 A 
ATOM     32  C   UNL A   1      41.354  27.865  29.230  1.00  0.00    -0.014 A 
BRANCH  32  33
ATOM     33  C   UNL A   1      41.121  28.656  30.461  1.00  0.00     0.031 A 
ATOM     34  C   UNL A   1      41.972  28.512  31.685  1.00  0.00     0.074 A 
ATOM     35  C   UNL A   1      40.104  29.537  30.444  1.00  0.00     0.049 A 
ATOM     36  N   UNL A   1      41.933  29.205  32.795  1.00  0.00    -0.248 NA
ATOM     37  C   UNL A   1      42.991  27.453  31.670  1.00  0.00     0.031 C 
ATOM     38  C   UNL A   1      39.200  29.745  29.310  1.00  0.00     0.029 A 
ATOM     39  N   UNL A   1      39.663  30.420  31.393  1.00  0.00    -0.354 N 
ATOM     40  C   UNL A   1      42.939  28.694  33.604  1.00  0.00     0.074 A 
ATOM     41  C   UNL A   1      43.538  27.593  32.872  1.00  0.00     0.031 C 
ATOM     42  C   UNL A   1      38.325  30.712  29.622  1.00  0.00     0.029 A 
ATOM     43  C   UNL A   1      38.596  31.178  30.979  1.00  0.00     0.049 A 
ATOM     44  H   UNL A   1      40.072  30.504  32.284  1.00  0.00     0.167 HD
ATOM     45  C   UNL A   1      43.332  29.116  34.831  1.00  0.00     0.037 A 
ATOM     46  C   UNL A   1      37.914  32.149  31.614  1.00  0.00     0.037 A 
ATOM     47  C   UNL A   1      42.708  30.194  35.562  1.00  0.00     0.049 A 
ATOM     48  C   UNL A   1      38.337  32.562  32.992  1.00  0.00     0.074 A 
ATOM     49  C   UNL A   1      43.058  30.717  36.796  1.00  0.00     0.029 A 
ATOM     50  N   UNL A   1      41.591  30.903  35.139  1.00  0.00    -0.354 N 
ATOM     51  N   UNL A   1      39.331  32.112  33.718  1.00  0.00    -0.248 NA
ATOM     52  C   UNL A   1      37.548  33.621  33.633  1.00  0.00     0.031 C 
ATOM     53  C   UNL A   1      42.128  31.706  37.138  1.00  0.00     0.029 A 
ATOM     54  C   UNL A   1      41.221  31.835  36.098  1.00  0.00     0.049 A 
ATOM     55  H   UNL A   1      41.129  30.765  34.280  1.00  0.00     0.167 HD
ATOM     56  C   UNL A   1      39.294  32.838  34.902  1.00  0.00     0.074 A 
ATOM     57  C   UNL A   1      38.192  33.773  34.783  1.00  0.00     0.031 C 
ATOM     58  C   UNL A   1      40.102  32.738  35.987  1.00  0.00     0.037 A 
BRANCH  45  59
ATOM     59  C   UNL A   1      44.503  28.414  35.467  1.00  0.00     0.058 A 
ATOM     60  C   UNL A   1      45.821  28.839  35.236  1.00  0.00     0.135 A 
ATOM     61  C   UNL A   1      44.309  27.343  36.354  1.00  0.00     0.135 A 
ATOM     62  F   UNL A   1      46.067  29.856  34.394  1.00  0.00    -0.206 F 
ATOM     63  C   UNL A   1      46.907  28.210  35.841  1.00  0.00     0.059 A 
ATOM     64  C   UNL A   1      45.377  26.713  36.987  1.00  0.00     0.059 A 
ATOM     65  F   UNL A   1      43.069  26.898  36.616  1.00  0.00    -0.206 F 
ATOM     66  C   UNL A   1      46.675  27.146  36.713  1.00  0.00     0.060 A 
BRANCH  66  67
ATOM     67  S   UNL A   1      48.095  26.339  37.484  1.00  0.00     0.124 S 
ATOM     68  O   UNL A   1      47.464  25.188  38.122  1.00  0.00    -0.237 OA
ATOM     69  O   UNL A   1      48.944  26.039  36.335  1.00  0.00    -0.237 OA
ATOM     70  O   UNL A   1      48.612  27.355  38.394  1.00  0.00    -0.744 OA
ENDBRANCH  66  67
ENDBRANCH  45  59
BRANCH  46  71
ATOM     71  C   UNL A   1      36.793  32.818  30.912  1.00  0.00     0.058 A 
ATOM     72  C   UNL A   1      35.464  32.522  31.247  1.00  0.00     0.135 A 
ATOM     73  C   UNL A   1      37.027  33.814  29.952  1.00  0.00     0.135 A 
ATOM     74  F   UNL A   1      35.196  31.576  32.158  1.00  0.00    -0.206 F 
ATOM     75  C   UNL A   1      34.402  33.198  30.658  1.00  0.00     0.059 A 
ATOM     76  C   UNL A   1      35.982  34.518  29.365  1.00  0.00     0.059 A 
ATOM     77  F   UNL A   1      38.285  34.142  29.616  1.00  0.00    -0.206 F 
ATOM     78  C   UNL A   1      34.673  34.202  29.725  1.00  0.00     0.060 A 
BRANCH  78  79
ATOM     79  S   UNL A   1      33.286  35.131  29.035  1.00  0.00     0.124 S 
ATOM     80  O   UNL A   1      32.767  34.193  28.048  1.00  0.00    -0.237 OA
ATOM     81  O   UNL A   1      32.451  35.350  30.212  1.00  0.00    -0.237 OA
ATOM     82  O   UNL A   1      33.920  36.329  28.495  1.00  0.00    -0.744 OA
ENDBRANCH  78  79
ENDBRANCH  46  71
BRANCH  58  83
ATOM     83  C   UNL A   1      39.806  33.656  37.142  1.00  0.00     0.058 A 
ATOM     84  C   UNL A   1      38.873  33.307  38.132  1.00  0.00     0.135 A 
ATOM     85  C   UNL A   1      40.465  34.889  37.270  1.00  0.00     0.135 A 
ATOM     86  F   UNL A   1      38.206  32.144  38.053  1.00  0.00    -0.206 F 
ATOM     87  C   UNL A   1      38.582  34.161  39.191  1.00  0.00     0.059 A 
ATOM     88  C   UNL A   1      40.208  35.748  38.336  1.00  0.00     0.059 A 
ATOM     89  F   UNL A   1      41.370  35.270  36.355  1.00  0.00    -0.206 F 
ATOM     90  C   UNL A   1      39.253  35.382  39.283  1.00  0.00     0.060 A 
BRANCH  90  91
ATOM     91  S   UNL A   1      38.870  36.476  40.667  1.00  0.00     0.124 S 
ATOM     92  O   UNL A   1      37.865  35.701  41.386  1.00  0.00    -0.237 OA
ATOM     93  O   UNL A   1      40.164  36.605  41.331  1.00  0.00    -0.237 OA
ATOM     94  O   UNL A   1      38.383  37.689  40.017  1.00  0.00    -0.744 OA
ENDBRANCH  90  91
ENDBRANCH  58  83
ENDBRANCH  32  33
ENDBRANCH  25  27
ENDBRANCH  24  25
ENDBRANCH  23  24
ENDBRANCH  22  23
ENDBRANCH  21  22
ENDBRANCH   1  21
TORSDOF 22
ENDMDL
MODEL 2
REMARK VINA RESULT:      -9.9      6.068     12.414
REMARK SMILES C[C@H](C[C@H]1CSc2ccccc21)C(=O)OCCOCCOCCOC(=O)c1ccc(-c2c3nc(c(-c4c(F)cc(S(=O)(=O)[O-])cc4F)c4ccc([nH]4)c(-c4c(F)cc(S(=O)(=O)[O-])cc4F)c4nc(c(-c5c(F)cc(S(=O)(=O)[O-])cc5F)c5ccc2[nH]5)C=C4)C=C3)cc1
REMARK SMILES IDX 20 1 19 2 18 3 17 4 16 5 15 6 13 7 14 8 2 9 1 10 3 11 4 12
REMARK SMILES IDX 5 13 12 14 6 15 7 16 11 17 8 18 10 19 9 20 21 21 22 22 23 23
REMARK SMILES IDX 24 24 25 25 26 26 27 27 28 28 92 29 29 30 91 31 30 32 31 33
REMARK SMILES IDX 32 34 85 35 33 36 90 37 84 38 86 39 34 40 89 41 83 42 82 43
REMARK SMILES IDX 35 45 69 46 48 47 68 48 49 49 52 50 67 51 87 52 50 53 51 54
REMARK SMILES IDX 66 56 88 57 53 58 36 59 37 60 46 61 38 62 39 63 45 64 47 65
REMARK SMILES IDX 40 66 41 67 42 68 43 69 44 70 70 71 71 72 80 73 72 74 73 75
REMARK SMILES IDX 79 76 81 77 74 78 75 79 76 80 77 81 78 82 54 83 55 84 64 85
REMARK SMILES IDX 56 86 57 87 63 88 65 89 58 90 59 91 60 92 61 93 62 94
REMARK H PARENT 86 44 52 55
REMARK Flexibility Score: inf
ROOT
ATOM      1  C   UNL A   1      33.393  35.345  30.714  1.00  0.00     0.188 C 
ENDROOT
BRANCH   1   2
ATOM      2  C   UNL A   1      33.468  35.106  29.201  1.00  0.00     0.188 C 
BRANCH   2   3
ATOM      3  O   UNL A   1      32.866  33.924  28.688  1.00  0.00    -0.376 OA
BRANCH   3   4
ATOM      4  C   UNL A   1      33.536  33.232  27.630  1.00  0.00     0.202 C 
BRANCH   4   5
ATOM      5  C   UNL A   1      33.641  31.708  27.747  1.00  0.00     0.261 C 
BRANCH   5   6
ATOM      6  O   UNL A   1      32.502  31.033  27.171  1.00  0.00    -0.463 OA
BRANCH   6   7
ATOM      7  C   UNL A   1      32.794  29.934  26.431  1.00  0.00     0.308 C 
ATOM      8  O   UNL A   1      33.885  29.747  25.906  1.00  0.00    -0.252 OA
BRANCH   7   9
ATOM      9  C   UNL A   1      31.664  28.895  26.406  1.00  0.00     0.097 C 
ATOM     10  C   UNL A   1      31.547  28.170  27.750  1.00  0.00     0.020 C 
BRANCH   9  11
ATOM     11  C   UNL A   1      31.555  27.926  25.204  1.00  0.00     0.024 C 
BRANCH  11  12
ATOM     12  C   UNL A   1      31.311  26.409  25.384  1.00  0.00     0.031 C 
ATOM     13  C   UNL A   1      30.195  26.000  24.373  1.00  0.00     0.083 C 
ATOM     14  C   UNL A   1      32.514  25.547  25.088  1.00  0.00    -0.030 A 
ATOM     15  S   UNL A   1      30.690  24.511  23.470  1.00  0.00    -0.125 SA
ATOM     16  C   UNL A   1      32.340  24.597  24.080  1.00  0.00     0.011 A 
ATOM     17  C   UNL A   1      33.734  25.602  25.757  1.00  0.00     0.005 A 
ATOM     18  C   UNL A   1      33.385  23.783  23.660  1.00  0.00     0.015 A 
ATOM     19  C   UNL A   1      34.799  24.807  25.328  1.00  0.00     0.000 A 
ATOM     20  C   UNL A   1      34.630  23.911  24.273  1.00  0.00     0.001 A 
ENDBRANCH  11  12
ENDBRANCH   9  11
ENDBRANCH   7   9
ENDBRANCH   6   7
ENDBRANCH   5   6
ENDBRANCH   4   5
ENDBRANCH   3   4
ENDBRANCH   2   3
ENDBRANCH   1   2
BRANCH   1  21
ATOM     21  O   UNL A   1      33.804  34.249  31.511  1.00  0.00    -0.376 OA
BRANCH  21  22
ATOM     22  C   UNL A   1      35.089  33.706  31.230  1.00  0.00     0.202 C 
BRANCH  22  23
ATOM     23  C   UNL A   1      35.131  32.192  30.968  1.00  0.00     0.261 C 
BRANCH  23  24
ATOM     24  O   UNL A   1      36.439  31.654  30.703  1.00  0.00    -0.460 OA
BRANCH  24  25
ATOM     25  C   UNL A   1      36.619  30.322  30.865  1.00  0.00     0.338 C 
ATOM     26  O   UNL A   1      35.764  29.492  31.118  1.00  0.00    -0.246 OA
BRANCH  25  27
ATOM     27  C   UNL A   1      37.990  30.020  30.381  1.00  0.00     0.060 A 
ATOM     28  C   UNL A   1      39.045  29.873  31.284  1.00  0.00     0.016 A 
ATOM     29  C   UNL A   1      38.236  30.007  29.000  1.00  0.00     0.016 A 
ATOM     30  C   UNL A   1      40.346  29.704  30.806  1.00  0.00     0.010 A 
ATOM     31  C   UNL A   1      39.540  29.857  28.524  1.00  0.00     0.010 A 
ATOM     32  C   UNL A   1      40.602  29.689  29.424  1.00  0.00    -0.014 A 
BRANCH  32  33
ATOM     33  C   UNL A   1      41.946  29.305  28.933  1.00  0.00     0.031 A 
ATOM     34  C   UNL A   1      43.099  30.261  28.906  1.00  0.00     0.074 A 
ATOM     35  C   UNL A   1      42.108  28.038  28.508  1.00  0.00     0.049 A 
ATOM     36  N   UNL A   1      44.347  30.029  28.586  1.00  0.00    -0.248 NA
ATOM     37  C   UNL A   1      42.819  31.655  29.277  1.00  0.00     0.031 C 
ATOM     38  C   UNL A   1      41.048  27.028  28.474  1.00  0.00     0.029 A 
ATOM     39  N   UNL A   1      43.213  27.382  28.037  1.00  0.00    -0.354 N 
ATOM     40  C   UNL A   1      45.015  31.236  28.745  1.00  0.00     0.074 A 
ATOM     41  C   UNL A   1      44.017  32.212  29.141  1.00  0.00     0.031 C 
ATOM     42  C   UNL A   1      41.560  25.873  28.026  1.00  0.00     0.029 A 
ATOM     43  C   UNL A   1      42.976  26.066  27.729  1.00  0.00     0.049 A 
ATOM     44  H   UNL A   1      44.092  27.812  27.931  1.00  0.00     0.167 HD
ATOM     45  C   UNL A   1      46.338  31.495  28.590  1.00  0.00     0.037 A 
ATOM     46  C   UNL A   1      43.806  25.113  27.266  1.00  0.00     0.037 A 
ATOM     47  C   UNL A   1      47.316  30.522  28.164  1.00  0.00     0.049 A 
ATOM     48  C   UNL A   1      45.254  25.439  27.053  1.00  0.00     0.074 A 
ATOM     49  C   UNL A   1      48.683  30.681  28.012  1.00  0.00     0.029 A 
ATOM     50  N   UNL A   1      47.032  29.211  27.803  1.00  0.00    -0.354 N 
ATOM     51  N   UNL A   1      45.883  26.569  27.269  1.00  0.00    -0.248 NA
ATOM     52  C   UNL A   1      46.104  24.359  26.541  1.00  0.00     0.031 C 
ATOM     53  C   UNL A   1      49.217  29.486  27.516  1.00  0.00     0.029 A 
ATOM     54  C   UNL A   1      48.190  28.562  27.400  1.00  0.00     0.049 A 
ATOM     55  H   UNL A   1      46.137  28.801  27.831  1.00  0.00     0.167 HD
ATOM     56  C   UNL A   1      47.209  26.334  26.926  1.00  0.00     0.074 A 
ATOM     57  C   UNL A   1      47.293  24.948  26.511  1.00  0.00     0.031 C 
ATOM     58  C   UNL A   1      48.260  27.192  26.954  1.00  0.00     0.037 A 
BRANCH  45  59
ATOM     59  C   UNL A   1      46.812  32.893  28.887  1.00  0.00     0.058 A 
ATOM     60  C   UNL A   1      46.898  33.865  27.877  1.00  0.00     0.135 A 
ATOM     61  C   UNL A   1      47.135  33.283  30.197  1.00  0.00     0.135 A 
ATOM     62  F   UNL A   1      46.606  33.546  26.606  1.00  0.00    -0.206 F 
ATOM     63  C   UNL A   1      47.313  35.166  28.150  1.00  0.00     0.059 A 
ATOM     64  C   UNL A   1      47.530  34.585  30.497  1.00  0.00     0.059 A 
ATOM     65  F   UNL A   1      47.066  32.397  31.203  1.00  0.00    -0.206 F 
ATOM     66  C   UNL A   1      47.629  35.516  29.463  1.00  0.00     0.060 A 
BRANCH  66  67
ATOM     67  S   UNL A   1      48.170  37.206  29.797  1.00  0.00     0.124 S 
ATOM     68  O   UNL A   1      48.059  37.265  31.251  1.00  0.00    -0.237 OA
ATOM     69  O   UNL A   1      49.530  37.209  29.267  1.00  0.00    -0.237 OA
ATOM     70  O   UNL A   1      47.211  38.023  29.061  1.00  0.00    -0.744 OA
ENDBRANCH  66  67
ENDBRANCH  45  59
BRANCH  46  71
ATOM     71  C   UNL A   1      43.274  23.749  27.027  1.00  0.00     0.058 A 
ATOM     72  C   UNL A   1      42.967  23.322  25.728  1.00  0.00     0.135 A 
ATOM     73  C   UNL A   1      43.135  22.829  28.076  1.00  0.00     0.135 A 
ATOM     74  F   UNL A   1      43.084  24.170  24.696  1.00  0.00    -0.206 F 
ATOM     75  C   UNL A   1      42.545  22.021  25.475  1.00  0.00     0.059 A 
ATOM     76  C   UNL A   1      42.735  21.518  27.846  1.00  0.00     0.059 A 
ATOM     77  F   UNL A   1      43.437  23.191  29.333  1.00  0.00    -0.206 F 
ATOM     78  C   UNL A   1      42.442  21.124  26.540  1.00  0.00     0.060 A 
BRANCH  78  79
ATOM     79  S   UNL A   1      41.978  19.415  26.184  1.00  0.00     0.124 S 
ATOM     80  O   UNL A   1      42.807  19.123  25.021  1.00  0.00    -0.237 OA
ATOM     81  O   UNL A   1      42.349  18.736  27.422  1.00  0.00    -0.237 OA
ATOM     82  O   UNL A   1      40.544  19.503  25.932  1.00  0.00    -0.744 OA
ENDBRANCH  78  79
ENDBRANCH  46  71
BRANCH  58  83
ATOM     83  C   UNL A   1      49.590  26.652  26.503  1.00  0.00     0.058 A 
ATOM     84  C   UNL A   1      50.452  25.994  27.395  1.00  0.00     0.135 A 
ATOM     85  C   UNL A   1      50.005  26.782  25.168  1.00  0.00     0.135 A 
ATOM     86  F   UNL A   1      50.110  25.852  28.686  1.00  0.00    -0.206 F 
ATOM     87  C   UNL A   1      51.692  25.511  26.987  1.00  0.00     0.059 A 
ATOM     88  C   UNL A   1      51.230  26.283  24.732  1.00  0.00     0.059 A 
ATOM     89  F   UNL A   1      49.218  27.397  24.272  1.00  0.00    -0.206 F 
ATOM     90  C   UNL A   1      52.073  25.663  25.653  1.00  0.00     0.060 A 
BRANCH  90  91
ATOM     91  S   UNL A   1      53.680  25.023  25.136  1.00  0.00     0.124 S 
ATOM     92  O   UNL A   1      53.835  25.642  23.823  1.00  0.00    -0.237 OA
ATOM     93  O   UNL A   1      54.568  25.525  26.181  1.00  0.00    -0.237 OA
ATOM     94  O   UNL A   1      53.485  23.576  25.130  1.00  0.00    -0.744 OA
ENDBRANCH  90  91
ENDBRANCH  58  83
ENDBRANCH  32  33
ENDBRANCH  25  27
ENDBRANCH  24  25
ENDBRANCH  23  24
ENDBRANCH  22  23
ENDBRANCH  21  22
ENDBRANCH   1  21
TORSDOF 22
ENDMDL
MODEL 3
REMARK VINA RESULT:      -9.8      6.396     12.280
REMARK SMILES C[C@H](C[C@H]1CSc2ccccc21)C(=O)OCCOCCOCCOC(=O)c1ccc(-c2c3nc(c(-c4c(F)cc(S(=O)(=O)[O-])cc4F)c4ccc([nH]4)c(-c4c(F)cc(S(=O)(=O)[O-])cc4F)c4nc(c(-c5c(F)cc(S(=O)(=O)[O-])cc5F)c5ccc2[nH]5)C=C4)C=C3)cc1
REMARK SMILES IDX 20 1 19 2 18 3 17 4 16 5 15 6 13 7 14 8 2 9 1 10 3 11 4 12
REMARK SMILES IDX 5 13 12 14 6 15 7 16 11 17 8 18 10 19 9 20 21 21 22 22 23 23
REMARK SMILES IDX 24 24 25 25 26 26 27 27 28 28 92 29 29 30 91 31 30 32 31 33
REMARK SMILES IDX 32 34 85 35 33 36 90 37 84 38 86 39 34 40 89 41 83 42 82 43
REMARK SMILES IDX 35 45 69 46 48 47 68 48 49 49 52 50 67 51 87 52 50 53 51 54
REMARK SMILES IDX 66 56 88 57 53 58 36 59 37 60 46 61 38 62 39 63 45 64 47 65
REMARK SMILES IDX 40 66 41 67 42 68 43 69 44 70 70 71 71 72 80 73 72 74 73 75
REMARK SMILES IDX 79 76 81 77 74 78 75 79 76 80 77 81 78 82 54 83 55 84 64 85
REMARK SMILES IDX 56 86 57 87 63 88 65 89 58 90 59 91 60 92 61 93 62 94
REMARK H PARENT 86 44 52 55
REMARK Flexibility Score: inf
ROOT
ATOM      1  C   UNL A   1      33.475  30.845  26.874  1.00  0.00     0.188 C 
ENDROOT
BRANCH   1   2
ATOM      2  C   UNL A   1      32.147  30.446  26.220  1.00  0.00     0.188 C 
BRANCH   2   3
ATOM      3  O   UNL A   1      32.204  29.708  25.005  1.00  0.00    -0.376 OA
BRANCH   3   4
ATOM      4  C   UNL A   1      31.396  28.534  24.892  1.00  0.00     0.202 C 
BRANCH   4   5
ATOM      5  C   UNL A   1      31.932  27.395  24.017  1.00  0.00     0.261 C 
BRANCH   5   6
ATOM      6  O   UNL A   1      33.338  27.149  24.239  1.00  0.00    -0.463 OA
BRANCH   6   7
ATOM      7  C   UNL A   1      33.647  26.609  25.445  1.00  0.00     0.308 C 
ATOM      8  O   UNL A   1      33.790  27.274  26.463  1.00  0.00    -0.252 OA
BRANCH   7   9
ATOM      9  C   UNL A   1      33.690  25.074  25.436  1.00  0.00     0.097 C 
ATOM     10  C   UNL A   1      32.627  24.483  26.366  1.00  0.00     0.020 C 
BRANCH   9  11
ATOM     11  C   UNL A   1      35.054  24.356  25.569  1.00  0.00     0.024 C 
BRANCH  11  12
ATOM     12  C   UNL A   1      35.523  23.277  24.565  1.00  0.00     0.031 C 
ATOM     13  C   UNL A   1      36.881  22.718  25.091  1.00  0.00     0.083 C 
ATOM     14  C   UNL A   1      34.583  22.103  24.430  1.00  0.00    -0.030 A 
ATOM     15  S   UNL A   1      36.863  20.909  25.059  1.00  0.00    -0.125 SA
ATOM     16  C   UNL A   1      35.133  20.855  24.730  1.00  0.00     0.011 A 
ATOM     17  C   UNL A   1      33.260  22.169  24.002  1.00  0.00     0.005 A 
ATOM     18  C   UNL A   1      34.364  19.699  24.712  1.00  0.00     0.015 A 
ATOM     19  C   UNL A   1      32.470  21.018  24.003  1.00  0.00     0.000 A 
ATOM     20  C   UNL A   1      33.016  19.789  24.373  1.00  0.00     0.001 A 
ENDBRANCH  11  12
ENDBRANCH   9  11
ENDBRANCH   7   9
ENDBRANCH   6   7
ENDBRANCH   5   6
ENDBRANCH   4   5
ENDBRANCH   3   4
ENDBRANCH   2   3
ENDBRANCH   1   2
BRANCH   1  21
ATOM     21  O   UNL A   1      33.403  31.974  27.727  1.00  0.00    -0.376 OA
BRANCH  21  22
ATOM     22  C   UNL A   1      34.642  32.508  28.180  1.00  0.00     0.202 C 
BRANCH  22  23
ATOM     23  C   UNL A   1      35.203  31.890  29.471  1.00  0.00     0.261 C 
BRANCH  23  24
ATOM     24  O   UNL A   1      35.840  30.610  29.309  1.00  0.00    -0.460 OA
BRANCH  24  25
ATOM     25  C   UNL A   1      36.468  30.077  30.383  1.00  0.00     0.338 C 
ATOM     26  O   UNL A   1      35.953  29.681  31.413  1.00  0.00    -0.246 OA
BRANCH  25  27
ATOM     27  C   UNL A   1      37.861  29.787  29.954  1.00  0.00     0.060 A 
ATOM     28  C   UNL A   1      38.876  29.627  30.899  1.00  0.00     0.016 A 
ATOM     29  C   UNL A   1      38.166  29.799  28.584  1.00  0.00     0.016 A 
ATOM     30  C   UNL A   1      40.197  29.470  30.475  1.00  0.00     0.010 A 
ATOM     31  C   UNL A   1      39.490  29.661  28.163  1.00  0.00     0.010 A 
ATOM     32  C   UNL A   1      40.513  29.481  29.106  1.00  0.00    -0.014 A 
BRANCH  32  33
ATOM     33  C   UNL A   1      41.878  29.108  28.667  1.00  0.00     0.031 A 
ATOM     34  C   UNL A   1      43.017  30.081  28.663  1.00  0.00     0.074 A 
ATOM     35  C   UNL A   1      42.073  27.837  28.269  1.00  0.00     0.049 A 
ATOM     36  N   UNL A   1      44.278  29.863  28.389  1.00  0.00    -0.248 NA
ATOM     37  C   UNL A   1      42.705  31.476  29.001  1.00  0.00     0.031 C 
ATOM     38  C   UNL A   1      41.029  26.811  28.216  1.00  0.00     0.029 A 
ATOM     39  N   UNL A   1      43.203  27.190  27.847  1.00  0.00    -0.354 N 
ATOM     40  C   UNL A   1      44.924  31.081  28.550  1.00  0.00     0.074 A 
ATOM     41  C   UNL A   1      43.899  32.049  28.896  1.00  0.00     0.031 C 
ATOM     42  C   UNL A   1      41.572  25.657  27.805  1.00  0.00     0.029 A 
ATOM     43  C   UNL A   1      42.995  25.866  27.553  1.00  0.00     0.049 A 
ATOM     44  H   UNL A   1      44.079  27.632  27.763  1.00  0.00     0.167 HD
ATOM     45  C   UNL A   1      46.246  31.358  28.435  1.00  0.00     0.037 A 
ATOM     46  C   UNL A   1      43.854  24.918  27.135  1.00  0.00     0.037 A 
ATOM     47  C   UNL A   1      47.253  30.393  28.059  1.00  0.00     0.049 A 
ATOM     48  C   UNL A   1      45.303  25.262  26.965  1.00  0.00     0.074 A 
ATOM     49  C   UNL A   1      48.622  30.570  27.951  1.00  0.00     0.029 A 
ATOM     50  N   UNL A   1      47.000  29.072  27.711  1.00  0.00    -0.354 N 
ATOM     51  N   UNL A   1      45.908  26.405  27.183  1.00  0.00    -0.248 NA
ATOM     52  C   UNL A   1      46.186  24.186  26.500  1.00  0.00     0.031 C 
ATOM     53  C   UNL A   1      49.189  29.375  27.493  1.00  0.00     0.029 A 
ATOM     54  C   UNL A   1      48.181  28.434  27.358  1.00  0.00     0.049 A 
ATOM     55  H   UNL A   1      46.111  28.649  27.715  1.00  0.00     0.167 HD
ATOM     56  C   UNL A   1      47.249  26.184  26.890  1.00  0.00     0.074 A 
ATOM     57  C   UNL A   1      47.366  24.793  26.500  1.00  0.00     0.031 C 
ATOM     58  C   UNL A   1      48.285  27.058  26.938  1.00  0.00     0.037 A 
BRANCH  45  59
ATOM     59  C   UNL A   1      46.691  32.767  28.725  1.00  0.00     0.058 A 
ATOM     60  C   UNL A   1      46.751  33.737  27.710  1.00  0.00     0.135 A 
ATOM     61  C   UNL A   1      47.009  33.171  30.032  1.00  0.00     0.135 A 
ATOM     62  F   UNL A   1      46.461  33.406  26.441  1.00  0.00    -0.206 F 
ATOM     63  C   UNL A   1      47.137  35.048  27.976  1.00  0.00     0.059 A 
ATOM     64  C   UNL A   1      47.376  34.483  30.325  1.00  0.00     0.059 A 
ATOM     65  F   UNL A   1      46.963  32.288  31.042  1.00  0.00    -0.206 F 
ATOM     66  C   UNL A   1      47.450  35.411  29.287  1.00  0.00     0.060 A 
BRANCH  66  67
ATOM     67  S   UNL A   1      47.954  37.115  29.612  1.00  0.00     0.124 S 
ATOM     68  O   UNL A   1      48.841  37.376  28.483  1.00  0.00    -0.237 OA
ATOM     69  O   UNL A   1      46.679  37.826  29.592  1.00  0.00    -0.237 OA
ATOM     70  O   UNL A   1      48.604  37.035  30.915  1.00  0.00    -0.744 OA
ENDBRANCH  66  67
ENDBRANCH  45  59
BRANCH  46  71
ATOM     71  C   UNL A   1      43.350  23.543  26.900  1.00  0.00     0.058 A 
ATOM     72  C   UNL A   1      43.191  23.054  25.597  1.00  0.00     0.135 A 
ATOM     73  C   UNL A   1      43.092  22.671  27.969  1.00  0.00     0.135 A 
ATOM     74  F   UNL A   1      43.425  23.854  24.546  1.00  0.00    -0.206 F 
ATOM     75  C   UNL A   1      42.798  21.742  25.359  1.00  0.00     0.059 A 
ATOM     76  C   UNL A   1      42.718  21.350  27.756  1.00  0.00     0.059 A 
ATOM     77  F   UNL A   1      43.251  23.093  29.234  1.00  0.00    -0.206 F 
ATOM     78  C   UNL A   1      42.574  20.895  26.446  1.00  0.00     0.060 A 
BRANCH  78  79
ATOM     79  S   UNL A   1      42.151  19.170  26.119  1.00  0.00     0.124 S 
ATOM     80  O   UNL A   1      40.724  19.265  25.838  1.00  0.00    -0.237 OA
ATOM     81  O   UNL A   1      43.009  18.857  24.980  1.00  0.00    -0.237 OA
ATOM     82  O   UNL A   1      42.507  18.495  27.364  1.00  0.00    -0.744 OA
ENDBRANCH  78  79
ENDBRANCH  46  71
BRANCH  58  83
ATOM     83  C   UNL A   1      49.638  26.531  26.541  1.00  0.00     0.058 A 
ATOM     84  C   UNL A   1      50.139  26.711  25.242  1.00  0.00     0.135 A 
ATOM     85  C   UNL A   1      50.446  25.852  27.466  1.00  0.00     0.135 A 
ATOM     86  F   UNL A   1      49.403  27.344  24.315  1.00  0.00    -0.206 F 
ATOM     87  C   UNL A   1      51.381  26.208  24.865  1.00  0.00     0.059 A 
ATOM     88  C   UNL A   1      51.703  25.363  27.118  1.00  0.00     0.059 A 
ATOM     89  F   UNL A   1      50.019  25.658  28.723  1.00  0.00    -0.206 F 
ATOM     90  C   UNL A   1      52.155  25.533  25.810  1.00  0.00     0.060 A 
BRANCH  90  91
ATOM     91  S   UNL A   1      53.767  24.895  25.308  1.00  0.00     0.124 S 
ATOM     92  O   UNL A   1      54.063  25.723  24.144  1.00  0.00    -0.237 OA
ATOM     93  O   UNL A   1      54.586  25.148  26.490  1.00  0.00    -0.237 OA
ATOM     94  O   UNL A   1      53.503  23.487  25.027  1.00  0.00    -0.744 OA
ENDBRANCH  90  91
ENDBRANCH  58  83
ENDBRANCH  32  33
ENDBRANCH  25  27
ENDBRANCH  24  25
ENDBRANCH  23  24
ENDBRANCH  22  23
ENDBRANCH  21  22
ENDBRANCH   1  21
TORSDOF 22
ENDMDL
