MODEL 1
REMARK VINA RESULT:     -11.1      0.000      0.000
REMARK SMILES Cc1nn(Cc2ccc(Cl)cc2Cl)c(C)c1NC(=O)c1c(C(=O)OCCOCCOCCOC(=O)c2ccc(-c3c4nc(c(-c5c(F)cc(S(=O)(=O)[O-])cc5F)c5ccc([nH]5)c(-c5c(F)cc(S(=O)(=O)[O-])cc5F)c5nc(c(-c6c(F)cc(S(=O)(=O)[O-])cc6F)c6ccc3[nH]6)C=C5)C=C4)cc2)cnn1C
REMARK SMILES IDX 28 1 27 2 26 3 25 4 24 5 22 6 23 7 21 8 20 9 104 10 102 11
REMARK SMILES IDX 103 12 105 13 18 14 17 15 19 17 16 18 1 19 2 20 3 21 4 22
REMARK SMILES IDX 14 23 15 24 5 25 6 26 7 27 12 28 8 29 11 30 13 31 9 32 10 33
REMARK SMILES IDX 29 34 30 35 31 36 32 37 33 38 34 39 35 40 36 41 37 42 101 43
REMARK SMILES IDX 38 44 100 45 39 46 40 47 41 48 94 49 42 50 99 51 93 52 95 53
REMARK SMILES IDX 43 54 98 55 92 56 91 57 44 59 78 60 57 61 77 62 58 63 61 64
REMARK SMILES IDX 76 65 96 66 59 67 60 68 75 70 97 71 62 72 45 73 46 74 55 75
REMARK SMILES IDX 47 76 48 77 54 78 56 79 49 80 50 81 51 82 52 83 53 84 79 85
REMARK SMILES IDX 80 86 89 87 81 88 82 89 88 90 90 91 83 92 84 93 85 94 86 95
REMARK SMILES IDX 87 96 63 97 64 98 73 99 65 100 66 101 72 102 74 103 67 104
REMARK SMILES IDX 68 105 69 106 70 107 71 108
REMARK H PARENT 17 16 95 58 61 69
REMARK Flexibility Score: inf
ROOT
ATOM      1  C   UNL A   1      40.464  21.142  26.753  1.00  0.00     0.188 C 
ENDROOT
BRANCH   1   2
ATOM      2  O   UNL A   1      39.214  20.924  26.100  1.00  0.00    -0.376 OA
BRANCH   2   3
ATOM      3  C   UNL A   1      38.540  22.037  25.540  1.00  0.00     0.202 C 
BRANCH   3   4
ATOM      4  C   UNL A   1      37.465  22.671  26.423  1.00  0.00     0.261 C 
BRANCH   4   5
ATOM      5  O   UNL A   1      36.149  22.754  25.849  1.00  0.00    -0.460 OA
BRANCH   5   6
ATOM      6  C   UNL A   1      35.399  21.615  25.948  1.00  0.00     0.342 C 
ATOM      7  O   UNL A   1      35.718  20.529  25.488  1.00  0.00    -0.246 OA
BRANCH   6   8
ATOM      8  C   UNL A   1      34.115  21.840  26.578  1.00  0.00     0.111 A 
ATOM      9  C   UNL A   1      32.857  21.601  26.038  1.00  0.00     0.140 A 
ATOM     10  N   UNL A   1      31.982  22.269  26.850  1.00  0.00    -0.262 N 
ATOM     11  C   UNL A   1      33.845  22.449  27.821  1.00  0.00     0.151 A 
ATOM     12  N   UNL A   1      32.546  22.706  27.996  1.00  0.00    -0.180 NA
ATOM     13  C   UNL A   1      30.562  22.452  26.640  1.00  0.00     0.174 C 
BRANCH   9  14
ATOM     14  C   UNL A   1      32.473  20.930  24.831  1.00  0.00     0.274 C 
ATOM     15  N   UNL A   1      32.312  21.653  23.671  1.00  0.00    -0.317 N 
ATOM     16  H   UNL A   1      31.937  21.136  22.922  1.00  0.00     0.170 HD
ATOM     17  O   UNL A   1      32.268  19.717  24.803  1.00  0.00    -0.267 OA
BRANCH  15  18
ATOM     18  C   UNL A   1      32.582  22.977  23.367  1.00  0.00     0.085 A 
ATOM     19  C   UNL A   1      30.118  23.780  23.009  1.00  0.00     0.071 C 
ATOM     20  C   UNL A   1      31.594  23.961  23.083  1.00  0.00     0.083 A 
ATOM     21  N   UNL A   1      32.132  25.186  22.986  1.00  0.00    -0.175 NA
ATOM     22  N   UNL A   1      33.449  24.993  23.189  1.00  0.00    -0.263 N 
ATOM     23  C   UNL A   1      33.770  23.652  23.152  1.00  0.00     0.060 A 
ATOM     24  C   UNL A   1      35.143  23.233  22.815  1.00  0.00     0.069 C 
BRANCH  22  25
ATOM     25  C   UNL A   1      34.256  26.039  23.840  1.00  0.00     0.181 C 
BRANCH  25  26
ATOM     26  C   UNL A   1      33.502  27.220  24.397  1.00  0.00    -0.008 A 
ATOM     27  C   UNL A   1      33.480  28.406  23.648  1.00  0.00     0.009 A 
ATOM     28  C   UNL A   1      32.746  27.200  25.575  1.00  0.00     0.047 A 
ATOM     29  C   UNL A   1      32.836  29.562  24.092  1.00  0.00     0.021 A 
ATOM     30  C   UNL A   1      32.092  28.353  26.032  1.00  0.00     0.041 A 
ATOM     31  Cl  UNL A   1      32.458  25.746  26.456  1.00  0.00    -0.084 Cl
ATOM     32  C   UNL A   1      32.156  29.533  25.299  1.00  0.00     0.042 A 
ATOM     33  Cl  UNL A   1      31.339  30.938  25.860  1.00  0.00    -0.084 Cl
ENDBRANCH  25  26
ENDBRANCH  22  25
ENDBRANCH  15  18
ENDBRANCH   9  14
ENDBRANCH   6   8
ENDBRANCH   5   6
ENDBRANCH   4   5
ENDBRANCH   3   4
ENDBRANCH   2   3
ENDBRANCH   1   2
BRANCH   1  34
ATOM     34  C   UNL A   1      41.381  19.941  26.990  1.00  0.00     0.188 C 
BRANCH  34  35
ATOM     35  O   UNL A   1      41.790  19.342  25.759  1.00  0.00    -0.376 OA
BRANCH  35  36
ATOM     36  C   UNL A   1      43.085  18.739  25.831  1.00  0.00     0.202 C 
BRANCH  36  37
ATOM     37  C   UNL A   1      43.992  19.319  24.764  1.00  0.00     0.261 C 
BRANCH  37  38
ATOM     38  O   UNL A   1      44.768  20.359  25.348  1.00  0.00    -0.460 OA
BRANCH  38  39
ATOM     39  C   UNL A   1      44.693  21.562  24.751  1.00  0.00     0.338 C 
ATOM     40  O   UNL A   1      45.350  21.985  23.820  1.00  0.00    -0.246 OA
BRANCH  39  41
ATOM     41  C   UNL A   1      43.866  22.388  25.614  1.00  0.00     0.060 A 
ATOM     42  C   UNL A   1      42.958  23.303  25.078  1.00  0.00     0.016 A 
ATOM     43  C   UNL A   1      44.252  22.383  26.961  1.00  0.00     0.016 A 
ATOM     44  C   UNL A   1      42.544  24.342  25.885  1.00  0.00     0.010 A 
ATOM     45  C   UNL A   1      43.856  23.419  27.752  1.00  0.00     0.010 A 
ATOM     46  C   UNL A   1      43.092  24.431  27.168  1.00  0.00    -0.014 A 
BRANCH  46  47
ATOM     47  C   UNL A   1      43.140  25.725  27.814  1.00  0.00     0.031 A 
ATOM     48  C   UNL A   1      44.285  26.580  27.454  1.00  0.00     0.074 A 
ATOM     49  C   UNL A   1      42.036  26.124  28.483  1.00  0.00     0.049 A 
ATOM     50  N   UNL A   1      45.218  27.027  28.226  1.00  0.00    -0.248 NA
ATOM     51  C   UNL A   1      44.498  26.880  26.027  1.00  0.00     0.031 C 
ATOM     52  C   UNL A   1      40.745  25.413  28.541  1.00  0.00     0.029 A 
ATOM     53  N   UNL A   1      41.765  27.292  29.125  1.00  0.00    -0.354 N 
ATOM     54  C   UNL A   1      45.970  27.881  27.424  1.00  0.00     0.074 A 
ATOM     55  C   UNL A   1      45.643  27.559  26.063  1.00  0.00     0.031 C 
ATOM     56  C   UNL A   1      39.788  26.254  28.982  1.00  0.00     0.029 A 
ATOM     57  C   UNL A   1      40.411  27.508  29.358  1.00  0.00     0.049 A 
ATOM     58  H   UNL A   1      42.465  27.927  29.399  1.00  0.00     0.167 HD
ATOM     59  C   UNL A   1      46.526  29.008  27.941  1.00  0.00     0.037 A 
ATOM     60  C   UNL A   1      39.833  28.660  29.771  1.00  0.00     0.037 A 
ATOM     61  C   UNL A   1      46.556  28.960  29.381  1.00  0.00     0.049 A 
ATOM     62  C   UNL A   1      40.899  29.490  30.386  1.00  0.00     0.074 A 
ATOM     63  C   UNL A   1      47.203  28.193  30.325  1.00  0.00     0.029 A 
ATOM     64  N   UNL A   1      45.509  29.586  30.011  1.00  0.00    -0.354 N 
ATOM     65  N   UNL A   1      41.542  29.157  31.473  1.00  0.00    -0.248 NA
ATOM     66  C   UNL A   1      41.528  30.541  29.595  1.00  0.00     0.031 C 
ATOM     67  C   UNL A   1      46.348  28.175  31.465  1.00  0.00     0.029 A 
ATOM     68  C   UNL A   1      45.221  28.948  31.191  1.00  0.00     0.049 A 
ATOM     69  H   UNL A   1      45.034  30.377  29.667  1.00  0.00     0.167 HD
ATOM     70  C   UNL A   1      42.826  29.639  31.284  1.00  0.00     0.074 A 
ATOM     71  C   UNL A   1      42.711  30.617  30.212  1.00  0.00     0.031 C 
ATOM     72  C   UNL A   1      43.902  28.973  31.794  1.00  0.00     0.037 A 
BRANCH  59  73
ATOM     73  C   UNL A   1      46.618  30.324  27.196  1.00  0.00     0.058 A 
ATOM     74  C   UNL A   1      47.862  30.984  27.130  1.00  0.00     0.135 A 
ATOM     75  C   UNL A   1      45.499  31.098  26.809  1.00  0.00     0.135 A 
ATOM     76  F   UNL A   1      48.990  30.346  27.483  1.00  0.00    -0.206 F 
ATOM     77  C   UNL A   1      47.975  32.329  26.780  1.00  0.00     0.059 A 
ATOM     78  C   UNL A   1      45.597  32.422  26.399  1.00  0.00     0.059 A 
ATOM     79  F   UNL A   1      44.242  30.651  26.909  1.00  0.00    -0.206 F 
ATOM     80  C   UNL A   1      46.832  33.045  26.435  1.00  0.00     0.060 A 
BRANCH  80  81
ATOM     81  S   UNL A   1      46.950  34.810  26.107  1.00  0.00     0.124 S 
ATOM     82  O   UNL A   1      47.915  34.835  25.014  1.00  0.00    -0.237 OA
ATOM     83  O   UNL A   1      45.575  35.147  25.757  1.00  0.00    -0.237 OA
ATOM     84  O   UNL A   1      47.420  35.356  27.378  1.00  0.00    -0.744 OA
ENDBRANCH  80  81
ENDBRANCH  59  73
BRANCH  60  85
ATOM     85  C   UNL A   1      38.493  29.190  29.411  1.00  0.00     0.058 A 
ATOM     86  C   UNL A   1      37.559  29.532  30.403  1.00  0.00     0.135 A 
ATOM     87  C   UNL A   1      38.195  29.622  28.101  1.00  0.00     0.135 A 
ATOM     88  F   UNL A   1      37.768  29.171  31.678  1.00  0.00    -0.206 F 
ATOM     89  C   UNL A   1      36.429  30.308  30.127  1.00  0.00     0.059 A 
ATOM     90  C   UNL A   1      37.066  30.383  27.798  1.00  0.00     0.059 A 
ATOM     91  F   UNL A   1      39.042  29.401  27.085  1.00  0.00    -0.206 F 
ATOM     92  C   UNL A   1      36.204  30.750  28.823  1.00  0.00     0.060 A 
BRANCH  92  93
ATOM     93  S   UNL A   1      34.861  31.915  28.499  1.00  0.00     0.124 S 
ATOM     94  O   UNL A   1      35.521  32.911  27.662  1.00  0.00    -0.237 OA
ATOM     95  O   UNL A   1      33.878  31.071  27.829  1.00  0.00    -0.237 OA
ATOM     96  O   UNL A   1      34.480  32.373  29.833  1.00  0.00    -0.744 OA
ENDBRANCH  92  93
ENDBRANCH  60  85
BRANCH  72  97
ATOM     97  C   UNL A   1      43.652  28.040  32.948  1.00  0.00     0.058 A 
ATOM     98  C   UNL A   1      43.411  28.454  34.269  1.00  0.00     0.135 A 
ATOM     99  C   UNL A   1      43.546  26.669  32.674  1.00  0.00     0.135 A 
ATOM    100  F   UNL A   1      43.403  29.753  34.592  1.00  0.00    -0.206 F 
ATOM    101  C   UNL A   1      43.116  27.539  35.281  1.00  0.00     0.059 A 
ATOM    102  C   UNL A   1      43.222  25.742  33.660  1.00  0.00     0.059 A 
ATOM    103  F   UNL A   1      43.709  26.220  31.418  1.00  0.00    -0.206 F 
ATOM    104  C   UNL A   1      43.021  26.184  34.966  1.00  0.00     0.060 A 
BRANCH 104 105
ATOM    105  S   UNL A   1      42.553  25.011  36.257  1.00  0.00     0.124 S 
ATOM    106  O   UNL A   1      41.552  25.762  37.006  1.00  0.00    -0.237 OA
ATOM    107  O   UNL A   1      42.049  23.876  35.487  1.00  0.00    -0.237 OA
ATOM    108  O   UNL A   1      43.806  24.763  36.964  1.00  0.00    -0.744 OA
ENDBRANCH 104 105
ENDBRANCH  72  97
ENDBRANCH  46  47
ENDBRANCH  39  41
ENDBRANCH  38  39
ENDBRANCH  37  38
ENDBRANCH  36  37
ENDBRANCH  35  36
ENDBRANCH  34  35
ENDBRANCH   1  34
TORSDOF 24
ENDMDL
MODEL 2
REMARK VINA RESULT:     -10.8      1.956      3.514
REMARK SMILES Cc1nn(Cc2ccc(Cl)cc2Cl)c(C)c1NC(=O)c1c(C(=O)OCCOCCOCCOC(=O)c2ccc(-c3c4nc(c(-c5c(F)cc(S(=O)(=O)[O-])cc5F)c5ccc([nH]5)c(-c5c(F)cc(S(=O)(=O)[O-])cc5F)c5nc(c(-c6c(F)cc(S(=O)(=O)[O-])cc6F)c6ccc3[nH]6)C=C5)C=C4)cc2)cnn1C
REMARK SMILES IDX 28 1 27 2 26 3 25 4 24 5 22 6 23 7 21 8 20 9 104 10 102 11
REMARK SMILES IDX 103 12 105 13 18 14 17 15 19 17 16 18 1 19 2 20 3 21 4 22
REMARK SMILES IDX 14 23 15 24 5 25 6 26 7 27 12 28 8 29 11 30 13 31 9 32 10 33
REMARK SMILES IDX 29 34 30 35 31 36 32 37 33 38 34 39 35 40 36 41 37 42 101 43
REMARK SMILES IDX 38 44 100 45 39 46 40 47 41 48 94 49 42 50 99 51 93 52 95 53
REMARK SMILES IDX 43 54 98 55 92 56 91 57 44 59 78 60 57 61 77 62 58 63 61 64
REMARK SMILES IDX 76 65 96 66 59 67 60 68 75 70 97 71 62 72 45 73 46 74 55 75
REMARK SMILES IDX 47 76 48 77 54 78 56 79 49 80 50 81 51 82 52 83 53 84 79 85
REMARK SMILES IDX 80 86 89 87 81 88 82 89 88 90 90 91 83 92 84 93 85 94 86 95
REMARK SMILES IDX 87 96 63 97 64 98 73 99 65 100 66 101 72 102 74 103 67 104
REMARK SMILES IDX 68 105 69 106 70 107 71 108
REMARK H PARENT 17 16 95 58 61 69
REMARK Flexibility Score: inf
ROOT
ATOM      1  C   UNL A   1      39.231  21.383  26.084  1.00  0.00     0.188 C 
ENDROOT
BRANCH   1   2
ATOM      2  O   UNL A   1      38.142  22.112  25.522  1.00  0.00    -0.376 OA
BRANCH   2   3
ATOM      3  C   UNL A   1      37.814  23.373  26.078  1.00  0.00     0.202 C 
BRANCH   3   4
ATOM      4  C   UNL A   1      36.348  23.789  25.955  1.00  0.00     0.261 C 
BRANCH   4   5
ATOM      5  O   UNL A   1      35.917  24.194  24.644  1.00  0.00    -0.460 OA
BRANCH   5   6
ATOM      6  C   UNL A   1      34.800  24.983  24.619  1.00  0.00     0.342 C 
ATOM      7  O   UNL A   1      34.321  25.545  25.591  1.00  0.00    -0.246 OA
BRANCH   6   8
ATOM      8  C   UNL A   1      34.163  25.013  23.318  1.00  0.00     0.111 A 
ATOM      9  C   UNL A   1      33.568  26.104  22.696  1.00  0.00     0.140 A 
ATOM     10  N   UNL A   1      32.830  25.577  21.671  1.00  0.00    -0.262 N 
ATOM     11  C   UNL A   1      33.906  23.936  22.445  1.00  0.00     0.151 A 
ATOM     12  N   UNL A   1      33.100  24.275  21.435  1.00  0.00    -0.180 NA
ATOM     13  C   UNL A   1      31.909  26.281  20.806  1.00  0.00     0.174 C 
BRANCH   9  14
ATOM     14  C   UNL A   1      33.560  27.492  23.053  1.00  0.00     0.274 C 
ATOM     15  N   UNL A   1      32.525  27.994  23.807  1.00  0.00    -0.317 N 
ATOM     16  H   UNL A   1      32.538  28.974  23.908  1.00  0.00     0.170 HD
ATOM     17  O   UNL A   1      34.453  28.256  22.692  1.00  0.00    -0.267 OA
BRANCH  15  18
ATOM     18  C   UNL A   1      31.466  27.373  24.450  1.00  0.00     0.085 A 
ATOM     19  C   UNL A   1      29.634  27.799  22.631  1.00  0.00     0.071 C 
ATOM     20  C   UNL A   1      30.152  27.259  23.919  1.00  0.00     0.083 A 
ATOM     21  N   UNL A   1      29.380  26.469  24.681  1.00  0.00    -0.175 NA
ATOM     22  N   UNL A   1      30.181  26.093  25.696  1.00  0.00    -0.263 N 
ATOM     23  C   UNL A   1      31.344  26.834  25.717  1.00  0.00     0.060 A 
ATOM     24  C   UNL A   1      32.093  26.991  26.977  1.00  0.00     0.069 C 
BRANCH  22  25
ATOM     25  C   UNL A   1      30.009  24.770  26.320  1.00  0.00     0.181 C 
BRANCH  25  26
ATOM     26  C   UNL A   1      31.083  23.750  26.039  1.00  0.00    -0.008 A 
ATOM     27  C   UNL A   1      31.811  23.239  27.124  1.00  0.00     0.009 A 
ATOM     28  C   UNL A   1      31.357  23.206  24.780  1.00  0.00     0.047 A 
ATOM     29  C   UNL A   1      32.845  22.315  26.964  1.00  0.00     0.021 A 
ATOM     30  C   UNL A   1      32.391  22.274  24.605  1.00  0.00     0.041 A 
ATOM     31  Cl  UNL A   1      30.369  23.533  23.404  1.00  0.00    -0.084 Cl
ATOM     32  C   UNL A   1      33.142  21.848  25.694  1.00  0.00     0.042 A 
ATOM     33  Cl  UNL A   1      34.400  20.697  25.473  1.00  0.00    -0.084 Cl
ENDBRANCH  25  26
ENDBRANCH  22  25
ENDBRANCH  15  18
ENDBRANCH   9  14
ENDBRANCH   6   8
ENDBRANCH   5   6
ENDBRANCH   4   5
ENDBRANCH   3   4
ENDBRANCH   2   3
ENDBRANCH   1   2
BRANCH   1  34
ATOM     34  C   UNL A   1      40.124  22.081  27.111  1.00  0.00     0.188 C 
BRANCH  34  35
ATOM     35  O   UNL A   1      40.826  21.138  27.924  1.00  0.00    -0.376 OA
BRANCH  35  36
ATOM     36  C   UNL A   1      41.065  19.894  27.260  1.00  0.00     0.202 C 
BRANCH  36  37
ATOM     37  C   UNL A   1      42.512  19.808  26.815  1.00  0.00     0.261 C 
BRANCH  37  38
ATOM     38  O   UNL A   1      42.657  20.545  25.607  1.00  0.00    -0.460 OA
BRANCH  38  39
ATOM     39  C   UNL A   1      43.864  20.486  25.016  1.00  0.00     0.338 C 
ATOM     40  O   UNL A   1      44.491  19.502  24.677  1.00  0.00    -0.246 OA
BRANCH  39  41
ATOM     41  C   UNL A   1      44.424  21.823  25.112  1.00  0.00     0.060 A 
ATOM     42  C   UNL A   1      45.600  22.060  25.825  1.00  0.00     0.016 A 
ATOM     43  C   UNL A   1      43.562  22.841  24.684  1.00  0.00     0.016 A 
ATOM     44  C   UNL A   1      45.839  23.349  26.257  1.00  0.00     0.010 A 
ATOM     45  C   UNL A   1      43.790  24.111  25.126  1.00  0.00     0.010 A 
ATOM     46  C   UNL A   1      44.868  24.318  25.987  1.00  0.00    -0.014 A 
BRANCH  46  47
ATOM     47  C   UNL A   1      44.787  25.477  26.850  1.00  0.00     0.031 A 
ATOM     48  C   UNL A   1      45.837  26.494  26.660  1.00  0.00     0.074 A 
ATOM     49  C   UNL A   1      43.651  25.640  27.563  1.00  0.00     0.049 A 
ATOM     50  N   UNL A   1      46.724  26.890  27.510  1.00  0.00    -0.248 NA
ATOM     51  C   UNL A   1      46.011  27.058  25.309  1.00  0.00     0.031 C 
ATOM     52  C   UNL A   1      42.440  24.802  27.480  1.00  0.00     0.029 A 
ATOM     53  N   UNL A   1      43.266  26.643  28.396  1.00  0.00    -0.354 N 
ATOM     54  C   UNL A   1      47.380  27.943  26.880  1.00  0.00     0.074 A 
ATOM     55  C   UNL A   1      47.082  27.833  25.479  1.00  0.00     0.031 C 
ATOM     56  C   UNL A   1      41.404  25.451  28.048  1.00  0.00     0.029 A 
ATOM     57  C   UNL A   1      41.898  26.677  28.646  1.00  0.00     0.049 A 
ATOM     58  H   UNL A   1      43.899  27.288  28.786  1.00  0.00     0.167 HD
ATOM     59  C   UNL A   1      47.821  29.013  27.593  1.00  0.00     0.037 A 
ATOM     60  C   UNL A   1      41.207  27.675  29.246  1.00  0.00     0.037 A 
ATOM     61  C   UNL A   1      47.864  28.717  29.002  1.00  0.00     0.049 A 
ATOM     62  C   UNL A   1      42.187  28.487  30.010  1.00  0.00     0.074 A 
ATOM     63  C   UNL A   1      48.589  27.865  29.806  1.00  0.00     0.029 A 
ATOM     64  N   UNL A   1      46.761  29.114  29.718  1.00  0.00    -0.354 N 
ATOM     65  N   UNL A   1      42.866  28.036  31.031  1.00  0.00    -0.248 NA
ATOM     66  C   UNL A   1      42.702  29.719  29.423  1.00  0.00     0.031 C 
ATOM     67  C   UNL A   1      47.747  27.561  30.915  1.00  0.00     0.029 A 
ATOM     68  C   UNL A   1      46.545  28.253  30.765  1.00  0.00     0.049 A 
ATOM     69  H   UNL A   1      46.206  29.900  29.511  1.00  0.00     0.167 HD
ATOM     70  C   UNL A   1      44.093  28.671  30.946  1.00  0.00     0.074 A 
ATOM     71  C   UNL A   1      43.874  29.805  30.060  1.00  0.00     0.031 C 
ATOM     72  C   UNL A   1      45.233  28.038  31.345  1.00  0.00     0.037 A 
BRANCH  59  73
ATOM     73  C   UNL A   1      47.776  30.441  27.090  1.00  0.00     0.058 A 
ATOM     74  C   UNL A   1      48.937  31.234  27.185  1.00  0.00     0.135 A 
ATOM     75  C   UNL A   1      46.582  31.144  26.802  1.00  0.00     0.135 A 
ATOM     76  F   UNL A   1      50.124  30.672  27.464  1.00  0.00    -0.206 F 
ATOM     77  C   UNL A   1      48.902  32.625  27.077  1.00  0.00     0.059 A 
ATOM     78  C   UNL A   1      46.536  32.522  26.631  1.00  0.00     0.059 A 
ATOM     79  F   UNL A   1      45.383  30.551  26.777  1.00  0.00    -0.206 F 
ATOM     80  C   UNL A   1      47.691  33.260  26.820  1.00  0.00     0.060 A 
BRANCH  80  81
ATOM     81  S   UNL A   1      47.612  35.058  26.806  1.00  0.00     0.124 S 
ATOM     82  O   UNL A   1      46.494  35.289  25.898  1.00  0.00    -0.237 OA
ATOM     83  O   UNL A   1      47.371  35.363  28.212  1.00  0.00    -0.237 OA
ATOM     84  O   UNL A   1      48.926  35.446  26.302  1.00  0.00    -0.744 OA
ENDBRANCH  80  81
ENDBRANCH  59  73
BRANCH  60  85
ATOM     85  C   UNL A   1      39.819  28.122  28.966  1.00  0.00     0.058 A 
ATOM     86  C   UNL A   1      38.838  28.108  29.972  1.00  0.00     0.135 A 
ATOM     87  C   UNL A   1      39.489  28.818  27.785  1.00  0.00     0.135 A 
ATOM     88  F   UNL A   1      39.072  27.478  31.134  1.00  0.00    -0.206 F 
ATOM     89  C   UNL A   1      37.627  28.796  29.841  1.00  0.00     0.059 A 
ATOM     90  C   UNL A   1      38.282  29.497  27.624  1.00  0.00     0.059 A 
ATOM     91  F   UNL A   1      40.370  28.943  26.781  1.00  0.00    -0.206 F 
ATOM     92  C   UNL A   1      37.369  29.509  28.670  1.00  0.00     0.060 A 
BRANCH  92  93
ATOM     93  S   UNL A   1      35.901  30.559  28.576  1.00  0.00     0.124 S 
ATOM     94  O   UNL A   1      35.659  30.868  29.981  1.00  0.00    -0.237 OA
ATOM     95  O   UNL A   1      36.369  31.668  27.751  1.00  0.00    -0.237 OA
ATOM     96  O   UNL A   1      34.906  29.695  27.946  1.00  0.00    -0.744 OA
ENDBRANCH  92  93
ENDBRANCH  60  85
BRANCH  72  97
ATOM     97  C   UNL A   1      45.086  26.897  32.315  1.00  0.00     0.058 A 
ATOM     98  C   UNL A   1      44.930  27.047  33.704  1.00  0.00     0.135 A 
ATOM     99  C   UNL A   1      44.990  25.599  31.794  1.00  0.00     0.135 A 
ATOM    100  F   UNL A   1      44.917  28.261  34.267  1.00  0.00    -0.206 F 
ATOM    101  C   UNL A   1      44.726  25.949  34.541  1.00  0.00     0.059 A 
ATOM    102  C   UNL A   1      44.756  24.493  32.605  1.00  0.00     0.059 A 
ATOM    103  F   UNL A   1      45.074  25.399  30.468  1.00  0.00    -0.206 F 
ATOM    104  C   UNL A   1      44.638  24.675  33.982  1.00  0.00     0.060 A 
BRANCH 104 105
ATOM    105  S   UNL A   1      44.287  23.265  35.054  1.00  0.00     0.124 S 
ATOM    106  O   UNL A   1      44.873  23.689  36.321  1.00  0.00    -0.237 OA
ATOM    107  O   UNL A   1      42.828  23.196  35.022  1.00  0.00    -0.237 OA
ATOM    108  O   UNL A   1      44.967  22.155  34.392  1.00  0.00    -0.744 OA
ENDBRANCH 104 105
ENDBRANCH  72  97
ENDBRANCH  46  47
ENDBRANCH  39  41
ENDBRANCH  38  39
ENDBRANCH  37  38
ENDBRANCH  36  37
ENDBRANCH  35  36
ENDBRANCH  34  35
ENDBRANCH   1  34
TORSDOF 24
ENDMDL
MODEL 3
REMARK VINA RESULT:      -9.8      1.561      2.277
REMARK SMILES Cc1nn(Cc2ccc(Cl)cc2Cl)c(C)c1NC(=O)c1c(C(=O)OCCOCCOCCOC(=O)c2ccc(-c3c4nc(c(-c5c(F)cc(S(=O)(=O)[O-])cc5F)c5ccc([nH]5)c(-c5c(F)cc(S(=O)(=O)[O-])cc5F)c5nc(c(-c6c(F)cc(S(=O)(=O)[O-])cc6F)c6ccc3[nH]6)C=C5)C=C4)cc2)cnn1C
REMARK SMILES IDX 28 1 27 2 26 3 25 4 24 5 22 6 23 7 21 8 20 9 104 10 102 11
REMARK SMILES IDX 103 12 105 13 18 14 17 15 19 17 16 18 1 19 2 20 3 21 4 22
REMARK SMILES IDX 14 23 15 24 5 25 6 26 7 27 12 28 8 29 11 30 13 31 9 32 10 33
REMARK SMILES IDX 29 34 30 35 31 36 32 37 33 38 34 39 35 40 36 41 37 42 101 43
REMARK SMILES IDX 38 44 100 45 39 46 40 47 41 48 94 49 42 50 99 51 93 52 95 53
REMARK SMILES IDX 43 54 98 55 92 56 91 57 44 59 78 60 57 61 77 62 58 63 61 64
REMARK SMILES IDX 76 65 96 66 59 67 60 68 75 70 97 71 62 72 45 73 46 74 55 75
REMARK SMILES IDX 47 76 48 77 54 78 56 79 49 80 50 81 51 82 52 83 53 84 79 85
REMARK SMILES IDX 80 86 89 87 81 88 82 89 88 90 90 91 83 92 84 93 85 94 86 95
REMARK SMILES IDX 87 96 63 97 64 98 73 99 65 100 66 101 72 102 74 103 67 104
REMARK SMILES IDX 68 105 69 106 70 107 71 108
REMARK H PARENT 17 16 95 58 61 69
REMARK Flexibility Score: inf
ROOT
ATOM      1  C   UNL A   1      39.370  19.580  25.732  1.00  0.00     0.188 C 
ENDROOT
BRANCH   1   2
ATOM      2  O   UNL A   1      38.415  19.436  24.682  1.00  0.00    -0.376 OA
BRANCH   2   3
ATOM      3  C   UNL A   1      37.420  20.433  24.533  1.00  0.00     0.202 C 
BRANCH   3   4
ATOM      4  C   UNL A   1      36.037  20.074  25.078  1.00  0.00     0.261 C 
BRANCH   4   5
ATOM      5  O   UNL A   1      35.042  21.109  24.999  1.00  0.00    -0.460 OA
BRANCH   5   6
ATOM      6  C   UNL A   1      35.023  21.979  26.054  1.00  0.00     0.342 C 
ATOM      7  O   UNL A   1      36.011  22.508  26.538  1.00  0.00    -0.246 OA
BRANCH   6   8
ATOM      8  C   UNL A   1      33.701  22.143  26.622  1.00  0.00     0.111 A 
ATOM      9  C   UNL A   1      32.484  21.825  26.032  1.00  0.00     0.140 A 
ATOM     10  N   UNL A   1      31.537  22.457  26.792  1.00  0.00    -0.262 N 
ATOM     11  C   UNL A   1      33.343  22.757  27.840  1.00  0.00     0.151 A 
ATOM     12  N   UNL A   1      32.025  22.944  27.953  1.00  0.00    -0.180 NA
ATOM     13  C   UNL A   1      30.121  22.557  26.516  1.00  0.00     0.174 C 
BRANCH   9  14
ATOM     14  C   UNL A   1      32.191  21.112  24.823  1.00  0.00     0.274 C 
ATOM     15  N   UNL A   1      32.157  21.790  23.626  1.00  0.00    -0.317 N 
ATOM     16  H   UNL A   1      31.836  21.251  22.866  1.00  0.00     0.170 HD
ATOM     17  O   UNL A   1      31.956  19.905  24.825  1.00  0.00    -0.267 OA
BRANCH  15  18
ATOM     18  C   UNL A   1      32.490  23.093  23.294  1.00  0.00     0.085 A 
ATOM     19  C   UNL A   1      30.064  24.045  23.067  1.00  0.00     0.071 C 
ATOM     20  C   UNL A   1      31.550  24.134  23.057  1.00  0.00     0.083 A 
ATOM     21  N   UNL A   1      32.157  25.323  22.919  1.00  0.00    -0.175 NA
ATOM     22  N   UNL A   1      33.469  25.050  23.050  1.00  0.00    -0.263 N 
ATOM     23  C   UNL A   1      33.704  23.691  23.008  1.00  0.00     0.060 A 
ATOM     24  C   UNL A   1      35.027  23.186  22.598  1.00  0.00     0.069 C 
BRANCH  22  25
ATOM     25  C   UNL A   1      34.373  26.048  23.646  1.00  0.00     0.181 C 
BRANCH  25  26
ATOM     26  C   UNL A   1      33.730  27.124  24.483  1.00  0.00    -0.008 A 
ATOM     27  C   UNL A   1      33.367  26.810  25.801  1.00  0.00     0.009 A 
ATOM     28  C   UNL A   1      33.540  28.447  24.072  1.00  0.00     0.047 A 
ATOM     29  C   UNL A   1      32.739  27.728  26.645  1.00  0.00     0.021 A 
ATOM     30  C   UNL A   1      32.912  29.381  24.909  1.00  0.00     0.041 A 
ATOM     31  Cl  UNL A   1      34.177  29.047  22.586  1.00  0.00    -0.084 Cl
ATOM     32  C   UNL A   1      32.497  29.011  26.184  1.00  0.00     0.042 A 
ATOM     33  Cl  UNL A   1      31.741  30.165  27.209  1.00  0.00    -0.084 Cl
ENDBRANCH  25  26
ENDBRANCH  22  25
ENDBRANCH  15  18
ENDBRANCH   9  14
ENDBRANCH   6   8
ENDBRANCH   5   6
ENDBRANCH   4   5
ENDBRANCH   3   4
ENDBRANCH   2   3
ENDBRANCH   1   2
BRANCH   1  34
ATOM     34  C   UNL A   1      39.594  20.970  26.328  1.00  0.00     0.188 C 
BRANCH  34  35
ATOM     35  O   UNL A   1      40.387  20.910  27.516  1.00  0.00    -0.376 OA
BRANCH  35  36
ATOM     36  C   UNL A   1      41.570  20.120  27.360  1.00  0.00     0.202 C 
BRANCH  36  37
ATOM     37  C   UNL A   1      42.679  20.954  26.746  1.00  0.00     0.261 C 
BRANCH  37  38
ATOM     38  O   UNL A   1      42.679  20.739  25.340  1.00  0.00    -0.460 OA
BRANCH  38  39
ATOM     39  C   UNL A   1      43.885  20.630  24.757  1.00  0.00     0.338 C 
ATOM     40  O   UNL A   1      44.444  19.627  24.361  1.00  0.00    -0.246 OA
BRANCH  39  41
ATOM     41  C   UNL A   1      44.538  21.915  24.940  1.00  0.00     0.060 A 
ATOM     42  C   UNL A   1      45.664  22.039  25.756  1.00  0.00     0.016 A 
ATOM     43  C   UNL A   1      43.798  23.010  24.475  1.00  0.00     0.016 A 
ATOM     44  C   UNL A   1      45.965  23.293  26.247  1.00  0.00     0.010 A 
ATOM     45  C   UNL A   1      44.085  24.245  24.974  1.00  0.00     0.010 A 
ATOM     46  C   UNL A   1      45.099  24.343  25.929  1.00  0.00    -0.014 A 
BRANCH  46  47
ATOM     47  C   UNL A   1      45.036  25.483  26.818  1.00  0.00     0.031 A 
ATOM     48  C   UNL A   1      46.087  26.500  26.634  1.00  0.00     0.074 A 
ATOM     49  C   UNL A   1      43.912  25.633  27.552  1.00  0.00     0.049 A 
ATOM     50  N   UNL A   1      46.988  26.875  27.479  1.00  0.00    -0.248 NA
ATOM     51  C   UNL A   1      46.242  27.094  25.294  1.00  0.00     0.031 C 
ATOM     52  C   UNL A   1      42.697  24.802  27.469  1.00  0.00     0.029 A 
ATOM     53  N   UNL A   1      43.544  26.619  28.413  1.00  0.00    -0.354 N 
ATOM     54  C   UNL A   1      47.639  27.939  26.862  1.00  0.00     0.074 A 
ATOM     55  C   UNL A   1      47.318  27.862  25.464  1.00  0.00     0.031 C 
ATOM     56  C   UNL A   1      41.672  25.442  28.068  1.00  0.00     0.029 A 
ATOM     57  C   UNL A   1      42.180  26.652  28.685  1.00  0.00     0.049 A 
ATOM     58  H   UNL A   1      44.185  27.253  28.808  1.00  0.00     0.167 HD
ATOM     59  C   UNL A   1      48.095  28.991  27.592  1.00  0.00     0.037 A 
ATOM     60  C   UNL A   1      41.502  27.639  29.318  1.00  0.00     0.037 A 
ATOM     61  C   UNL A   1      48.158  28.664  28.994  1.00  0.00     0.049 A 
ATOM     62  C   UNL A   1      42.497  28.431  30.085  1.00  0.00     0.074 A 
ATOM     63  C   UNL A   1      48.892  27.792  29.767  1.00  0.00     0.029 A 
ATOM     64  N   UNL A   1      47.067  29.048  29.735  1.00  0.00    -0.354 N 
ATOM     65  N   UNL A   1      43.189  27.955  31.084  1.00  0.00    -0.248 NA
ATOM     66  C   UNL A   1      43.007  29.674  29.517  1.00  0.00     0.031 C 
ATOM     67  C   UNL A   1      48.066  27.466  30.881  1.00  0.00     0.029 A 
ATOM     68  C   UNL A   1      46.865  28.165  30.766  1.00  0.00     0.049 A 
ATOM     69  H   UNL A   1      46.513  29.841  29.555  1.00  0.00     0.167 HD
ATOM     70  C   UNL A   1      44.418  28.587  30.994  1.00  0.00     0.074 A 
ATOM     71  C   UNL A   1      44.189  29.741  30.137  1.00  0.00     0.031 C 
ATOM     72  C   UNL A   1      45.561  27.942  31.362  1.00  0.00     0.037 A 
BRANCH  59  73
ATOM     73  C   UNL A   1      48.046  30.430  27.122  1.00  0.00     0.058 A 
ATOM     74  C   UNL A   1      49.212  31.217  27.217  1.00  0.00     0.135 A 
ATOM     75  C   UNL A   1      46.851  31.144  26.867  1.00  0.00     0.135 A 
ATOM     76  F   UNL A   1      50.401  30.645  27.465  1.00  0.00    -0.206 F 
ATOM     77  C   UNL A   1      49.180  32.610  27.141  1.00  0.00     0.059 A 
ATOM     78  C   UNL A   1      46.807  32.525  26.728  1.00  0.00     0.059 A 
ATOM     79  F   UNL A   1      45.650  30.555  26.847  1.00  0.00    -0.206 F 
ATOM     80  C   UNL A   1      47.967  33.255  26.916  1.00  0.00     0.060 A 
BRANCH  80  81
ATOM     81  S   UNL A   1      47.895  35.053  26.943  1.00  0.00     0.124 S 
ATOM     82  O   UNL A   1      46.577  35.278  27.526  1.00  0.00    -0.237 OA
ATOM     83  O   UNL A   1      49.036  35.391  27.786  1.00  0.00    -0.237 OA
ATOM     84  O   UNL A   1      48.033  35.414  25.535  1.00  0.00    -0.744 OA
ENDBRANCH  80  81
ENDBRANCH  59  73
BRANCH  60  85
ATOM     85  C   UNL A   1      40.111  28.096  29.070  1.00  0.00     0.058 A 
ATOM     86  C   UNL A   1      39.152  28.085  30.096  1.00  0.00     0.135 A 
ATOM     87  C   UNL A   1      39.761  28.801  27.899  1.00  0.00     0.135 A 
ATOM     88  F   UNL A   1      39.406  27.448  31.249  1.00  0.00    -0.206 F 
ATOM     89  C   UNL A   1      37.943  28.782  29.994  1.00  0.00     0.059 A 
ATOM     90  C   UNL A   1      38.556  29.489  27.767  1.00  0.00     0.059 A 
ATOM     91  F   UNL A   1      40.621  28.924  26.877  1.00  0.00    -0.206 F 
ATOM     92  C   UNL A   1      37.665  29.502  28.832  1.00  0.00     0.060 A 
BRANCH  92  93
ATOM     93  S   UNL A   1      36.202  30.563  28.774  1.00  0.00     0.124 S 
ATOM     94  O   UNL A   1      35.300  29.785  27.932  1.00  0.00    -0.237 OA
ATOM     95  O   UNL A   1      35.837  30.659  30.183  1.00  0.00    -0.237 OA
ATOM     96  O   UNL A   1      36.704  31.798  28.177  1.00  0.00    -0.744 OA
ENDBRANCH  92  93
ENDBRANCH  60  85
BRANCH  72  97
ATOM     97  C   UNL A   1      45.425  26.780  32.308  1.00  0.00     0.058 A 
ATOM     98  C   UNL A   1      45.324  25.436  31.911  1.00  0.00     0.135 A 
ATOM     99  C   UNL A   1      45.510  27.039  33.684  1.00  0.00     0.135 A 
ATOM    100  F   UNL A   1      45.330  25.100  30.616  1.00  0.00    -0.206 F 
ATOM    101  C   UNL A   1      45.271  24.398  32.843  1.00  0.00     0.059 A 
ATOM    102  C   UNL A   1      45.491  26.019  34.630  1.00  0.00     0.059 A 
ATOM    103  F   UNL A   1      45.665  28.300  34.122  1.00  0.00    -0.206 F 
ATOM    104  C   UNL A   1      45.358  24.700  34.202  1.00  0.00     0.060 A 
BRANCH 104 105
ATOM    105  S   UNL A   1      45.379  23.352  35.403  1.00  0.00     0.124 S 
ATOM    106  O   UNL A   1      44.172  23.615  36.180  1.00  0.00    -0.237 OA
ATOM    107  O   UNL A   1      45.338  22.166  34.551  1.00  0.00    -0.237 OA
ATOM    108  O   UNL A   1      46.637  23.550  36.117  1.00  0.00    -0.744 OA
ENDBRANCH 104 105
ENDBRANCH  72  97
ENDBRANCH  46  47
ENDBRANCH  39  41
ENDBRANCH  38  39
ENDBRANCH  37  38
ENDBRANCH  36  37
ENDBRANCH  35  36
ENDBRANCH  34  35
ENDBRANCH   1  34
TORSDOF 24
ENDMDL
