MODEL 1
REMARK VINA RESULT:     -11.6      0.000      0.000
REMARK SMILES O=C(OCCOCCOCCOC(=O)[C@@H]1CC2(CC[NH2+]CC2)C[N@H+]1Cc1cccc2nonc12)c1ccc(-c2c3nc(c(-c4c(F)cc(S(=O)(=O)[O-])cc4F)c4ccc([nH]4)c(-c4c(F)cc(S(=O)(=O)[O-])cc4F)c4nc(c(-c5c(F)cc(S(=O)(=O)[O-])cc5F)c5ccc2[nH]5)C=C4)C=C3)cc1
REMARK SMILES IDX 7 1 6 2 5 3 4 4 3 5 2 6 1 7 35 8 36 9 100 10 37 11 99 12
REMARK SMILES IDX 38 13 39 14 40 15 93 16 41 17 98 18 92 19 94 20 42 21 97 22
REMARK SMILES IDX 91 23 90 24 43 26 77 27 56 28 76 29 57 30 60 31 75 32 95 33
REMARK SMILES IDX 58 34 59 35 74 37 96 38 61 39 44 40 45 41 54 42 46 43 47 44
REMARK SMILES IDX 53 45 55 46 48 47 49 48 50 49 51 50 52 51 78 52 79 53 88 54
REMARK SMILES IDX 80 55 81 56 87 57 89 58 82 59 83 60 84 61 85 62 86 63 62 64
REMARK SMILES IDX 63 65 72 66 64 67 65 68 71 69 73 70 66 71 67 72 68 73 69 74
REMARK SMILES IDX 70 75 8 76 9 77 10 78 11 79 12 80 13 81 14 82 15 83 16 84
REMARK SMILES IDX 24 85 17 86 23 87 18 89 22 90 19 91 21 92 20 93 25 96 26 97
REMARK SMILES IDX 27 98 34 99 28 100 30 101 33 102 29 103 31 104 32 105
REMARK H PARENT 94 25 60 36 24 88 20 94 20 95
REMARK Flexibility Score: inf
ROOT
ATOM      1  C   UNL A   1      32.724  21.823  25.888  1.00  0.00     0.188 C 
ENDROOT
BRANCH   1   2
ATOM      2  O   UNL A   1      32.935  20.563  25.239  1.00  0.00    -0.376 OA
BRANCH   2   3
ATOM      3  C   UNL A   1      34.295  20.222  25.000  1.00  0.00     0.202 C 
BRANCH   3   4
ATOM      4  C   UNL A   1      35.086  21.512  24.823  1.00  0.00     0.261 C 
BRANCH   4   5
ATOM      5  O   UNL A   1      36.108  21.535  25.844  1.00  0.00    -0.460 OA
BRANCH   5   6
ATOM      6  C   UNL A   1      37.353  21.153  25.452  1.00  0.00     0.338 C 
ATOM      7  O   UNL A   1      37.628  20.149  24.819  1.00  0.00    -0.246 OA
BRANCH   6   8
ATOM      8  C   UNL A   1      38.371  22.117  25.977  1.00  0.00     0.060 A 
ATOM      9  C   UNL A   1      38.036  23.461  26.149  1.00  0.00     0.016 A 
ATOM     10  C   UNL A   1      39.687  21.732  26.219  1.00  0.00     0.016 A 
ATOM     11  C   UNL A   1      39.019  24.406  26.523  1.00  0.00     0.010 A 
ATOM     12  C   UNL A   1      40.662  22.686  26.561  1.00  0.00     0.010 A 
ATOM     13  C   UNL A   1      40.377  24.060  26.675  1.00  0.00    -0.014 A 
BRANCH  13  14
ATOM     14  C   UNL A   1      41.463  25.073  26.974  1.00  0.00     0.031 A 
ATOM     15  C   UNL A   1      41.132  26.388  27.678  1.00  0.00     0.074 A 
ATOM     16  C   UNL A   1      42.793  24.826  27.087  1.00  0.00     0.049 A 
ATOM     17  N   UNL A   1      41.541  26.725  28.881  1.00  0.00    -0.248 NA
ATOM     18  C   UNL A   1      40.181  27.340  27.104  1.00  0.00     0.031 C 
ATOM     19  C   UNL A   1      43.430  23.552  27.448  1.00  0.00     0.029 A 
ATOM     20  N   UNL A   1      43.836  25.731  27.128  1.00  0.00    -0.354 N 
ATOM     21  C   UNL A   1      40.825  27.843  29.272  1.00  0.00     0.074 A 
ATOM     22  C   UNL A   1      40.008  28.195  28.120  1.00  0.00     0.031 C 
ATOM     23  C   UNL A   1      44.702  23.793  27.840  1.00  0.00     0.029 A 
ATOM     24  C   UNL A   1      45.008  25.196  27.617  1.00  0.00     0.049 A 
ATOM     25  H   UNL A   1      43.750  26.668  26.836  1.00  0.00     0.167 HD
ATOM     26  C   UNL A   1      40.847  28.431  30.505  1.00  0.00     0.037 A 
ATOM     27  C   UNL A   1      46.214  25.781  27.813  1.00  0.00     0.037 A 
ATOM     28  C   UNL A   1      41.733  27.999  31.583  1.00  0.00     0.049 A 
ATOM     29  C   UNL A   1      46.073  26.579  29.077  1.00  0.00     0.074 A 
ATOM     30  C   UNL A   1      41.653  27.990  32.967  1.00  0.00     0.029 A 
ATOM     31  N   UNL A   1      42.999  27.546  31.305  1.00  0.00    -0.354 N 
ATOM     32  N   UNL A   1      46.414  26.204  30.282  1.00  0.00    -0.248 NA
ATOM     33  C   UNL A   1      45.402  27.890  29.018  1.00  0.00     0.031 C 
ATOM     34  C   UNL A   1      42.914  27.553  33.498  1.00  0.00     0.029 A 
ATOM     35  C   UNL A   1      43.786  27.322  32.445  1.00  0.00     0.049 A 
ATOM     36  H   UNL A   1      43.324  27.393  30.389  1.00  0.00     0.167 HD
ATOM     37  C   UNL A   1      45.796  27.117  31.121  1.00  0.00     0.074 A 
ATOM     38  C   UNL A   1      45.425  28.246  30.296  1.00  0.00     0.031 C 
ATOM     39  C   UNL A   1      45.163  26.784  32.282  1.00  0.00     0.037 A 
BRANCH  26  40
ATOM     40  C   UNL A   1      39.986  29.623  30.763  1.00  0.00     0.058 A 
ATOM     41  C   UNL A   1      40.508  30.898  30.499  1.00  0.00     0.135 A 
ATOM     42  C   UNL A   1      38.715  29.542  31.351  1.00  0.00     0.135 A 
ATOM     43  F   UNL A   1      41.709  31.024  29.913  1.00  0.00    -0.206 F 
ATOM     44  C   UNL A   1      39.818  32.054  30.840  1.00  0.00     0.059 A 
ATOM     45  C   UNL A   1      37.997  30.690  31.691  1.00  0.00     0.059 A 
ATOM     46  F   UNL A   1      38.163  28.346  31.611  1.00  0.00    -0.206 F 
ATOM     47  C   UNL A   1      38.569  31.940  31.450  1.00  0.00     0.060 A 
BRANCH  47  48
ATOM     48  S   UNL A   1      37.721  33.461  31.933  1.00  0.00     0.124 S 
ATOM     49  O   UNL A   1      38.103  34.368  30.856  1.00  0.00    -0.237 OA
ATOM     50  O   UNL A   1      36.325  33.039  31.950  1.00  0.00    -0.237 OA
ATOM     51  O   UNL A   1      38.295  33.765  33.241  1.00  0.00    -0.744 OA
ENDBRANCH  47  48
ENDBRANCH  26  40
BRANCH  27  52
ATOM     52  C   UNL A   1      46.814  26.399  26.584  1.00  0.00     0.058 A 
ATOM     53  C   UNL A   1      48.061  25.910  26.142  1.00  0.00     0.135 A 
ATOM     54  C   UNL A   1      46.237  27.413  25.802  1.00  0.00     0.135 A 
ATOM     55  F   UNL A   1      48.755  25.044  26.898  1.00  0.00    -0.206 F 
ATOM     56  C   UNL A   1      48.614  26.283  24.923  1.00  0.00     0.059 A 
ATOM     57  C   UNL A   1      46.748  27.772  24.559  1.00  0.00     0.059 A 
ATOM     58  F   UNL A   1      45.151  28.085  26.203  1.00  0.00    -0.206 F 
ATOM     59  C   UNL A   1      47.920  27.178  24.115  1.00  0.00     0.060 A 
BRANCH  59  60
ATOM     60  S   UNL A   1      48.536  27.506  22.455  1.00  0.00     0.124 S 
ATOM     61  O   UNL A   1      48.589  26.164  21.885  1.00  0.00    -0.237 OA
ATOM     62  O   UNL A   1      47.501  28.387  21.922  1.00  0.00    -0.237 OA
ATOM     63  O   UNL A   1      49.827  28.142  22.696  1.00  0.00    -0.744 OA
ENDBRANCH  59  60
ENDBRANCH  27  52
BRANCH  39  64
ATOM     64  C   UNL A   1      45.793  25.768  33.233  1.00  0.00     0.058 A 
ATOM     65  C   UNL A   1      45.176  24.514  33.394  1.00  0.00     0.135 A 
ATOM     66  C   UNL A   1      47.005  25.925  33.946  1.00  0.00     0.135 A 
ATOM     67  F   UNL A   1      43.947  24.304  32.894  1.00  0.00    -0.206 F 
ATOM     68  C   UNL A   1      45.782  23.449  34.078  1.00  0.00     0.059 A 
ATOM     69  C   UNL A   1      47.669  24.855  34.557  1.00  0.00     0.059 A 
ATOM     70  F   UNL A   1      47.637  27.107  34.026  1.00  0.00    -0.206 F 
ATOM     71  C   UNL A   1      47.064  23.608  34.594  1.00  0.00     0.060 A 
BRANCH  71  72
ATOM     72  S   UNL A   1      47.967  22.226  35.330  1.00  0.00     0.124 S 
ATOM     73  O   UNL A   1      47.055  21.775  36.378  1.00  0.00    -0.237 OA
ATOM     74  O   UNL A   1      48.134  21.294  34.217  1.00  0.00    -0.237 OA
ATOM     75  O   UNL A   1      49.197  22.858  35.796  1.00  0.00    -0.744 OA
ENDBRANCH  71  72
ENDBRANCH  39  64
ENDBRANCH  13  14
ENDBRANCH   6   8
ENDBRANCH   5   6
ENDBRANCH   4   5
ENDBRANCH   3   4
ENDBRANCH   2   3
ENDBRANCH   1   2
BRANCH   1  76
ATOM     76  C   UNL A   1      31.530  22.428  25.176  1.00  0.00     0.188 C 
BRANCH  76  77
ATOM     77  O   UNL A   1      30.326  22.565  25.917  1.00  0.00    -0.376 OA
BRANCH  77  78
ATOM     78  C   UNL A   1      30.316  23.721  26.784  1.00  0.00     0.202 C 
BRANCH  78  79
ATOM     79  C   UNL A   1      29.682  25.033  26.275  1.00  0.00     0.261 C 
BRANCH  79  80
ATOM     80  O   UNL A   1      30.634  25.826  25.555  1.00  0.00    -0.459 OA
BRANCH  80  81
ATOM     81  C   UNL A   1      31.160  26.847  26.277  1.00  0.00     0.365 C 
ATOM     82  O   UNL A   1      31.653  26.705  27.395  1.00  0.00    -0.245 OA
BRANCH  81  83
ATOM     83  C   UNL A   1      31.223  28.180  25.523  1.00  0.00     0.296 C 
ATOM     84  C   UNL A   1      31.399  27.729  24.088  1.00  0.00     0.091 C 
ATOM     85  N   UNL A   1      32.422  29.008  25.753  1.00  0.00    -0.319 N 
ATOM     86  C   UNL A   1      32.900  27.901  23.879  1.00  0.00     0.036 C 
ATOM     87  C   UNL A   1      33.084  29.266  24.486  1.00  0.00     0.270 C 
ATOM     88  H   UNL A   1      32.984  28.404  26.353  1.00  0.00     0.349 HD
ATOM     89  C   UNL A   1      33.163  27.814  22.416  1.00  0.00     0.074 C 
ATOM     90  C   UNL A   1      33.864  26.913  24.598  1.00  0.00     0.074 C 
ATOM     91  C   UNL A   1      33.031  26.392  21.938  1.00  0.00     0.261 C 
ATOM     92  C   UNL A   1      33.712  25.497  24.089  1.00  0.00     0.261 C 
ATOM     93  N   UNL A   1      33.917  25.470  22.652  1.00  0.00    -0.346 N 
ATOM     94  H   UNL A   1      34.884  25.731  22.455  1.00  0.00     0.346 HD
ATOM     95  H   UNL A   1      33.707  24.527  22.327  1.00  0.00     0.346 HD
BRANCH  85  96
ATOM     96  C   UNL A   1      32.470  30.058  26.733  1.00  0.00     0.302 C 
BRANCH  96  97
ATOM     97  C   UNL A   1      33.902  30.255  27.143  1.00  0.00     0.038 A 
ATOM     98  C   UNL A   1      34.826  29.174  27.202  1.00  0.00     0.012 A 
ATOM     99  C   UNL A   1      34.438  31.461  27.636  1.00  0.00     0.144 A 
ATOM    100  C   UNL A   1      36.115  29.251  27.784  1.00  0.00     0.003 A 
ATOM    101  C   UNL A   1      35.764  31.542  28.236  1.00  0.00     0.135 A 
ATOM    102  N   UNL A   1      33.895  32.686  27.670  1.00  0.00    -0.049 NA
ATOM    103  C   UNL A   1      36.621  30.433  28.343  1.00  0.00     0.034 A 
ATOM    104  N   UNL A   1      35.965  32.803  28.642  1.00  0.00    -0.050 NA
ATOM    105  O   UNL A   1      34.826  33.500  28.283  1.00  0.00    -0.243 OA
ENDBRANCH  96  97
ENDBRANCH  85  96
ENDBRANCH  81  83
ENDBRANCH  80  81
ENDBRANCH  79  80
ENDBRANCH  78  79
ENDBRANCH  77  78
ENDBRANCH  76  77
ENDBRANCH   1  76
TORSDOF 22
ENDMDL
MODEL 2
REMARK VINA RESULT:     -11.5      4.151     10.594
REMARK SMILES O=C(OCCOCCOCCOC(=O)[C@@H]1CC2(CC[NH2+]CC2)C[N@H+]1Cc1cccc2nonc12)c1ccc(-c2c3nc(c(-c4c(F)cc(S(=O)(=O)[O-])cc4F)c4ccc([nH]4)c(-c4c(F)cc(S(=O)(=O)[O-])cc4F)c4nc(c(-c5c(F)cc(S(=O)(=O)[O-])cc5F)c5ccc2[nH]5)C=C4)C=C3)cc1
REMARK SMILES IDX 7 1 6 2 5 3 4 4 3 5 2 6 1 7 35 8 36 9 100 10 37 11 99 12
REMARK SMILES IDX 38 13 39 14 40 15 93 16 41 17 98 18 92 19 94 20 42 21 97 22
REMARK SMILES IDX 91 23 90 24 43 26 77 27 56 28 76 29 57 30 60 31 75 32 95 33
REMARK SMILES IDX 58 34 59 35 74 37 96 38 61 39 44 40 45 41 54 42 46 43 47 44
REMARK SMILES IDX 53 45 55 46 48 47 49 48 50 49 51 50 52 51 78 52 79 53 88 54
REMARK SMILES IDX 80 55 81 56 87 57 89 58 82 59 83 60 84 61 85 62 86 63 62 64
REMARK SMILES IDX 63 65 72 66 64 67 65 68 71 69 73 70 66 71 67 72 68 73 69 74
REMARK SMILES IDX 70 75 8 76 9 77 10 78 11 79 12 80 13 81 14 82 15 83 16 84
REMARK SMILES IDX 24 85 17 86 23 87 18 89 22 90 19 91 21 92 20 93 25 96 26 97
REMARK SMILES IDX 27 98 34 99 28 100 30 101 33 102 29 103 31 104 32 105
REMARK H PARENT 94 25 60 36 24 88 20 94 20 95
REMARK Flexibility Score: inf
ROOT
ATOM      1  C   UNL A   1      32.932  28.862  23.128  1.00  0.00     0.188 C 
ENDROOT
BRANCH   1   2
ATOM      2  O   UNL A   1      31.544  28.547  23.298  1.00  0.00    -0.376 OA
BRANCH   2   3
ATOM      3  C   UNL A   1      31.212  27.904  24.523  1.00  0.00     0.202 C 
BRANCH   3   4
ATOM      4  C   UNL A   1      32.421  27.985  25.446  1.00  0.00     0.261 C 
BRANCH   4   5
ATOM      5  O   UNL A   1      32.065  28.845  26.551  1.00  0.00    -0.460 OA
BRANCH   5   6
ATOM      6  C   UNL A   1      32.492  30.134  26.466  1.00  0.00     0.338 C 
ATOM      7  O   UNL A   1      31.979  31.016  25.800  1.00  0.00    -0.246 OA
BRANCH   6   8
ATOM      8  C   UNL A   1      33.748  30.308  27.261  1.00  0.00     0.060 A 
ATOM      9  C   UNL A   1      34.687  29.277  27.318  1.00  0.00     0.016 A 
ATOM     10  C   UNL A   1      33.977  31.446  28.030  1.00  0.00     0.016 A 
ATOM     11  C   UNL A   1      35.817  29.377  28.163  1.00  0.00     0.010 A 
ATOM     12  C   UNL A   1      35.086  31.521  28.890  1.00  0.00     0.010 A 
ATOM     13  C   UNL A   1      36.016  30.473  29.027  1.00  0.00    -0.014 A 
BRANCH  13  14
ATOM     14  C   UNL A   1      37.162  30.553  30.015  1.00  0.00     0.031 A 
ATOM     15  C   UNL A   1      38.378  29.639  29.876  1.00  0.00     0.074 A 
ATOM     16  C   UNL A   1      37.486  31.614  30.796  1.00  0.00     0.049 A 
ATOM     17  N   UNL A   1      39.596  30.041  29.589  1.00  0.00    -0.248 NA
ATOM     18  C   UNL A   1      38.243  28.182  29.908  1.00  0.00     0.031 C 
ATOM     19  C   UNL A   1      37.177  33.028  30.542  1.00  0.00     0.029 A 
ATOM     20  N   UNL A   1      38.362  31.662  31.863  1.00  0.00    -0.354 N 
ATOM     21  C   UNL A   1      40.350  28.920  29.284  1.00  0.00     0.074 A 
ATOM     22  C   UNL A   1      39.463  27.790  29.519  1.00  0.00     0.031 C 
ATOM     23  C   UNL A   1      37.984  33.797  31.308  1.00  0.00     0.029 A 
ATOM     24  C   UNL A   1      38.747  32.941  32.200  1.00  0.00     0.049 A 
ATOM     25  H   UNL A   1      38.680  30.859  32.338  1.00  0.00     0.167 HD
ATOM     26  C   UNL A   1      41.628  28.907  28.803  1.00  0.00     0.037 A 
ATOM     27  C   UNL A   1      39.595  33.366  33.168  1.00  0.00     0.037 A 
ATOM     28  C   UNL A   1      42.432  30.114  28.630  1.00  0.00     0.049 A 
ATOM     29  C   UNL A   1      40.975  33.110  32.634  1.00  0.00     0.074 A 
ATOM     30  C   UNL A   1      43.435  30.501  27.757  1.00  0.00     0.029 A 
ATOM     31  N   UNL A   1      42.321  31.157  29.516  1.00  0.00    -0.354 N 
ATOM     32  N   UNL A   1      41.749  33.969  32.022  1.00  0.00    -0.248 NA
ATOM     33  C   UNL A   1      41.521  31.743  32.701  1.00  0.00     0.031 C 
ATOM     34  C   UNL A   1      43.937  31.782  28.169  1.00  0.00     0.029 A 
ATOM     35  C   UNL A   1      43.267  32.175  29.318  1.00  0.00     0.049 A 
ATOM     36  H   UNL A   1      41.641  31.187  30.227  1.00  0.00     0.167 HD
ATOM     37  C   UNL A   1      42.741  33.195  31.443  1.00  0.00     0.074 A 
ATOM     38  C   UNL A   1      42.694  31.907  32.103  1.00  0.00     0.031 C 
ATOM     39  C   UNL A   1      43.224  33.384  30.183  1.00  0.00     0.037 A 
BRANCH  26  40
ATOM     40  C   UNL A   1      42.283  27.599  28.502  1.00  0.00     0.058 A 
ATOM     41  C   UNL A   1      42.143  27.059  27.215  1.00  0.00     0.135 A 
ATOM     42  C   UNL A   1      42.948  26.830  29.469  1.00  0.00     0.135 A 
ATOM     43  F   UNL A   1      41.538  27.770  26.250  1.00  0.00    -0.206 F 
ATOM     44  C   UNL A   1      42.607  25.788  26.903  1.00  0.00     0.059 A 
ATOM     45  C   UNL A   1      43.434  25.555  29.175  1.00  0.00     0.059 A 
ATOM     46  F   UNL A   1      43.121  27.306  30.713  1.00  0.00    -0.206 F 
ATOM     47  C   UNL A   1      43.238  25.036  27.894  1.00  0.00     0.060 A 
BRANCH  47  48
ATOM     48  S   UNL A   1      43.780  23.365  27.473  1.00  0.00     0.124 S 
ATOM     49  O   UNL A   1      43.162  22.577  28.534  1.00  0.00    -0.237 OA
ATOM     50  O   UNL A   1      43.221  23.191  26.137  1.00  0.00    -0.237 OA
ATOM     51  O   UNL A   1      45.237  23.460  27.530  1.00  0.00    -0.744 OA
ENDBRANCH  47  48
ENDBRANCH  26  40
BRANCH  27  52
ATOM     52  C   UNL A   1      39.223  32.935  34.556  1.00  0.00     0.058 A 
ATOM     53  C   UNL A   1      38.907  33.937  35.496  1.00  0.00     0.135 A 
ATOM     54  C   UNL A   1      39.129  31.610  35.014  1.00  0.00     0.135 A 
ATOM     55  F   UNL A   1      39.103  35.232  35.197  1.00  0.00    -0.206 F 
ATOM     56  C   UNL A   1      38.377  33.642  36.746  1.00  0.00     0.059 A 
ATOM     57  C   UNL A   1      38.562  31.288  36.242  1.00  0.00     0.059 A 
ATOM     58  F   UNL A   1      39.569  30.576  34.285  1.00  0.00    -0.206 F 
ATOM     59  C   UNL A   1      38.161  32.311  37.088  1.00  0.00     0.060 A 
BRANCH  59  60
ATOM     60  S   UNL A   1      37.294  31.939  38.622  1.00  0.00     0.124 S 
ATOM     61  O   UNL A   1      36.143  32.831  38.538  1.00  0.00    -0.237 OA
ATOM     62  O   UNL A   1      37.011  30.514  38.465  1.00  0.00    -0.237 OA
ATOM     63  O   UNL A   1      38.275  32.266  39.651  1.00  0.00    -0.744 OA
ENDBRANCH  59  60
ENDBRANCH  27  52
BRANCH  39  64
ATOM     64  C   UNL A   1      43.509  34.797  29.676  1.00  0.00     0.058 A 
ATOM     65  C   UNL A   1      44.808  35.319  29.812  1.00  0.00     0.135 A 
ATOM     66  C   UNL A   1      42.599  35.646  29.003  1.00  0.00     0.135 A 
ATOM     67  F   UNL A   1      45.713  34.675  30.568  1.00  0.00    -0.206 F 
ATOM     68  C   UNL A   1      45.217  36.514  29.200  1.00  0.00     0.059 A 
ATOM     69  C   UNL A   1      43.004  36.793  28.310  1.00  0.00     0.059 A 
ATOM     70  F   UNL A   1      41.288  35.369  28.927  1.00  0.00    -0.206 F 
ATOM     71  C   UNL A   1      44.325  37.207  28.388  1.00  0.00     0.060 A 
BRANCH  71  72
ATOM     72  S   UNL A   1      44.840  38.653  27.434  1.00  0.00     0.124 S 
ATOM     73  O   UNL A   1      43.676  38.905  26.589  1.00  0.00    -0.237 OA
ATOM     74  O   UNL A   1      45.090  39.667  28.456  1.00  0.00    -0.237 OA
ATOM     75  O   UNL A   1      46.030  38.171  26.739  1.00  0.00    -0.744 OA
ENDBRANCH  71  72
ENDBRANCH  39  64
ENDBRANCH  13  14
ENDBRANCH   6   8
ENDBRANCH   5   6
ENDBRANCH   4   5
ENDBRANCH   3   4
ENDBRANCH   2   3
ENDBRANCH   1   2
BRANCH   1  76
ATOM     76  C   UNL A   1      33.455  27.794  22.187  1.00  0.00     0.188 C 
BRANCH  76  77
ATOM     77  O   UNL A   1      32.502  26.938  21.573  1.00  0.00    -0.376 OA
BRANCH  77  78
ATOM     78  C   UNL A   1      32.916  25.554  21.536  1.00  0.00     0.202 C 
BRANCH  78  79
ATOM     79  C   UNL A   1      33.786  25.002  22.685  1.00  0.00     0.261 C 
BRANCH  79  80
ATOM     80  O   UNL A   1      34.160  23.639  22.446  1.00  0.00    -0.459 OA
BRANCH  80  81
ATOM     81  C   UNL A   1      33.347  22.731  23.043  1.00  0.00     0.365 C 
ATOM     82  O   UNL A   1      32.153  22.608  22.773  1.00  0.00    -0.245 OA
BRANCH  81  83
ATOM     83  C   UNL A   1      34.072  21.765  23.985  1.00  0.00     0.296 C 
ATOM     84  C   UNL A   1      33.075  21.607  25.114  1.00  0.00     0.091 C 
ATOM     85  N   UNL A   1      35.264  22.292  24.676  1.00  0.00    -0.319 N 
ATOM     86  C   UNL A   1      33.632  22.557  26.169  1.00  0.00     0.036 C 
ATOM     87  C   UNL A   1      35.085  22.172  26.113  1.00  0.00     0.270 C 
ATOM     88  H   UNL A   1      35.266  23.268  24.379  1.00  0.00     0.349 HD
ATOM     89  C   UNL A   1      32.942  22.255  27.454  1.00  0.00     0.074 C 
ATOM     90  C   UNL A   1      33.522  24.089  25.917  1.00  0.00     0.074 C 
ATOM     91  C   UNL A   1      31.523  22.758  27.425  1.00  0.00     0.261 C 
ATOM     92  C   UNL A   1      32.085  24.562  25.902  1.00  0.00     0.261 C 
ATOM     93  N   UNL A   1      31.437  24.193  27.148  1.00  0.00    -0.346 N 
ATOM     94  H   UNL A   1      31.886  24.699  27.912  1.00  0.00     0.346 HD
ATOM     95  H   UNL A   1      30.449  24.432  27.065  1.00  0.00     0.346 HD
BRANCH  85  96
ATOM     96  C   UNL A   1      36.599  22.119  24.174  1.00  0.00     0.302 C 
BRANCH  96  97
ATOM     97  C   UNL A   1      37.565  22.523  25.252  1.00  0.00     0.038 A 
ATOM     98  C   UNL A   1      37.586  23.839  25.791  1.00  0.00     0.012 A 
ATOM     99  C   UNL A   1      38.615  21.716  25.733  1.00  0.00     0.144 A 
ATOM    100  C   UNL A   1      38.602  24.341  26.641  1.00  0.00     0.003 A 
ATOM    101  C   UNL A   1      39.662  22.232  26.608  1.00  0.00     0.135 A 
ATOM    102  N   UNL A   1      38.869  20.419  25.507  1.00  0.00    -0.049 NA
ATOM    103  C   UNL A   1      39.688  23.562  27.061  1.00  0.00     0.034 A 
ATOM    104  N   UNL A   1      40.529  21.240  26.853  1.00  0.00    -0.050 NA
ATOM    105  O   UNL A   1      40.034  20.134  26.190  1.00  0.00    -0.243 OA
ENDBRANCH  96  97
ENDBRANCH  85  96
ENDBRANCH  81  83
ENDBRANCH  80  81
ENDBRANCH  79  80
ENDBRANCH  78  79
ENDBRANCH  77  78
ENDBRANCH  76  77
ENDBRANCH   1  76
TORSDOF 22
ENDMDL
MODEL 3
REMARK VINA RESULT:     -11.3      1.594      3.242
REMARK SMILES O=C(OCCOCCOCCOC(=O)[C@@H]1CC2(CC[NH2+]CC2)C[N@H+]1Cc1cccc2nonc12)c1ccc(-c2c3nc(c(-c4c(F)cc(S(=O)(=O)[O-])cc4F)c4ccc([nH]4)c(-c4c(F)cc(S(=O)(=O)[O-])cc4F)c4nc(c(-c5c(F)cc(S(=O)(=O)[O-])cc5F)c5ccc2[nH]5)C=C4)C=C3)cc1
REMARK SMILES IDX 7 1 6 2 5 3 4 4 3 5 2 6 1 7 35 8 36 9 100 10 37 11 99 12
REMARK SMILES IDX 38 13 39 14 40 15 93 16 41 17 98 18 92 19 94 20 42 21 97 22
REMARK SMILES IDX 91 23 90 24 43 26 77 27 56 28 76 29 57 30 60 31 75 32 95 33
REMARK SMILES IDX 58 34 59 35 74 37 96 38 61 39 44 40 45 41 54 42 46 43 47 44
REMARK SMILES IDX 53 45 55 46 48 47 49 48 50 49 51 50 52 51 78 52 79 53 88 54
REMARK SMILES IDX 80 55 81 56 87 57 89 58 82 59 83 60 84 61 85 62 86 63 62 64
REMARK SMILES IDX 63 65 72 66 64 67 65 68 71 69 73 70 66 71 67 72 68 73 69 74
REMARK SMILES IDX 70 75 8 76 9 77 10 78 11 79 12 80 13 81 14 82 15 83 16 84
REMARK SMILES IDX 24 85 17 86 23 87 18 89 22 90 19 91 21 92 20 93 25 96 26 97
REMARK SMILES IDX 27 98 34 99 28 100 30 101 33 102 29 103 31 104 32 105
REMARK H PARENT 94 25 60 36 24 88 20 94 20 95
REMARK Flexibility Score: inf
ROOT
ATOM      1  C   UNL A   1      32.196  20.517  24.095  1.00  0.00     0.188 C 
ENDROOT
BRANCH   1   2
ATOM      2  O   UNL A   1      33.406  19.802  24.375  1.00  0.00    -0.376 OA
BRANCH   2   3
ATOM      3  C   UNL A   1      34.233  20.375  25.381  1.00  0.00     0.202 C 
BRANCH   3   4
ATOM      4  C   UNL A   1      35.252  21.281  24.702  1.00  0.00     0.261 C 
BRANCH   4   5
ATOM      5  O   UNL A   1      36.244  21.633  25.692  1.00  0.00    -0.460 OA
BRANCH   5   6
ATOM      6  C   UNL A   1      37.498  21.148  25.481  1.00  0.00     0.338 C 
ATOM      7  O   UNL A   1      37.774  20.064  24.998  1.00  0.00    -0.246 OA
BRANCH   6   8
ATOM      8  C   UNL A   1      38.513  22.117  26.000  1.00  0.00     0.060 A 
ATOM      9  C   UNL A   1      38.159  23.449  26.218  1.00  0.00     0.016 A 
ATOM     10  C   UNL A   1      39.843  21.752  26.191  1.00  0.00     0.016 A 
ATOM     11  C   UNL A   1      39.136  24.403  26.587  1.00  0.00     0.010 A 
ATOM     12  C   UNL A   1      40.811  22.715  26.528  1.00  0.00     0.010 A 
ATOM     13  C   UNL A   1      40.504  24.079  26.687  1.00  0.00    -0.014 A 
BRANCH  13  14
ATOM     14  C   UNL A   1      41.580  25.106  26.980  1.00  0.00     0.031 A 
ATOM     15  C   UNL A   1      41.229  26.440  27.635  1.00  0.00     0.074 A 
ATOM     16  C   UNL A   1      42.907  24.867  27.131  1.00  0.00     0.049 A 
ATOM     17  N   UNL A   1      41.610  26.815  28.836  1.00  0.00    -0.248 NA
ATOM     18  C   UNL A   1      40.289  27.371  27.011  1.00  0.00     0.031 C 
ATOM     19  C   UNL A   1      43.540  23.607  27.545  1.00  0.00     0.029 A 
ATOM     20  N   UNL A   1      43.946  25.777  27.168  1.00  0.00    -0.354 N 
ATOM     21  C   UNL A   1      40.881  27.942  29.178  1.00  0.00     0.074 A 
ATOM     22  C   UNL A   1      40.090  28.255  27.997  1.00  0.00     0.031 C 
ATOM     23  C   UNL A   1      44.802  23.864  27.958  1.00  0.00     0.029 A 
ATOM     24  C   UNL A   1      45.109  25.261  27.699  1.00  0.00     0.049 A 
ATOM     25  H   UNL A   1      43.865  26.704  26.845  1.00  0.00     0.167 HD
ATOM     26  C   UNL A   1      40.874  28.567  30.392  1.00  0.00     0.037 A 
ATOM     27  C   UNL A   1      46.309  25.856  27.904  1.00  0.00     0.037 A 
ATOM     28  C   UNL A   1      41.736  28.172  31.502  1.00  0.00     0.049 A 
ATOM     29  C   UNL A   1      46.136  26.692  29.140  1.00  0.00     0.074 A 
ATOM     30  C   UNL A   1      41.625  28.205  32.883  1.00  0.00     0.029 A 
ATOM     31  N   UNL A   1      43.009  27.715  31.267  1.00  0.00    -0.354 N 
ATOM     32  N   UNL A   1      46.451  26.355  30.364  1.00  0.00    -0.248 NA
ATOM     33  C   UNL A   1      45.463  27.998  29.026  1.00  0.00     0.031 C 
ATOM     34  C   UNL A   1      42.874  27.789  33.457  1.00  0.00     0.029 A 
ATOM     35  C   UNL A   1      43.771  27.529  32.431  1.00  0.00     0.049 A 
ATOM     36  H   UNL A   1      43.356  27.535  30.364  1.00  0.00     0.167 HD
ATOM     37  C   UNL A   1      45.811  27.290  31.160  1.00  0.00     0.074 A 
ATOM     38  C   UNL A   1      45.455  28.393  30.292  1.00  0.00     0.031 C 
ATOM     39  C   UNL A   1      45.153  26.992  32.316  1.00  0.00     0.037 A 
BRANCH  26  40
ATOM     40  C   UNL A   1      40.003  29.763  30.593  1.00  0.00     0.058 A 
ATOM     41  C   UNL A   1      38.670  29.565  30.981  1.00  0.00     0.135 A 
ATOM     42  C   UNL A   1      40.418  31.074  30.316  1.00  0.00     0.135 A 
ATOM     43  F   UNL A   1      38.234  28.331  31.283  1.00  0.00    -0.206 F 
ATOM     44  C   UNL A   1      37.766  30.617  31.055  1.00  0.00     0.059 A 
ATOM     45  C   UNL A   1      39.532  32.150  30.395  1.00  0.00     0.059 A 
ATOM     46  F   UNL A   1      41.688  31.321  29.953  1.00  0.00    -0.206 F 
ATOM     47  C   UNL A   1      38.203  31.905  30.745  1.00  0.00     0.060 A 
BRANCH  47  48
ATOM     48  S   UNL A   1      36.992  33.245  30.795  1.00  0.00     0.124 S 
ATOM     49  O   UNL A   1      35.811  32.598  30.231  1.00  0.00    -0.237 OA
ATOM     50  O   UNL A   1      36.934  33.550  32.220  1.00  0.00    -0.237 OA
ATOM     51  O   UNL A   1      37.599  34.278  29.961  1.00  0.00    -0.744 OA
ENDBRANCH  47  48
ENDBRANCH  26  40
BRANCH  27  52
ATOM     52  C   UNL A   1      46.935  26.438  26.672  1.00  0.00     0.058 A 
ATOM     53  C   UNL A   1      47.916  25.675  26.007  1.00  0.00     0.135 A 
ATOM     54  C   UNL A   1      46.617  27.676  26.088  1.00  0.00     0.135 A 
ATOM     55  F   UNL A   1      48.387  24.547  26.563  1.00  0.00    -0.206 F 
ATOM     56  C   UNL A   1      48.423  26.037  24.765  1.00  0.00     0.059 A 
ATOM     57  C   UNL A   1      47.077  28.041  24.827  1.00  0.00     0.059 A 
ATOM     58  F   UNL A   1      45.839  28.572  26.707  1.00  0.00    -0.206 F 
ATOM     59  C   UNL A   1      47.956  27.200  24.160  1.00  0.00     0.060 A 
BRANCH  59  60
ATOM     60  S   UNL A   1      48.462  27.564  22.472  1.00  0.00     0.124 S 
ATOM     61  O   UNL A   1      48.629  26.226  21.915  1.00  0.00    -0.237 OA
ATOM     62  O   UNL A   1      47.319  28.325  21.976  1.00  0.00    -0.237 OA
ATOM     63  O   UNL A   1      49.690  28.334  22.647  1.00  0.00    -0.744 OA
ENDBRANCH  59  60
ENDBRANCH  27  52
BRANCH  39  64
ATOM     64  C   UNL A   1      45.764  26.007  33.312  1.00  0.00     0.058 A 
ATOM     65  C   UNL A   1      45.234  24.707  33.395  1.00  0.00     0.135 A 
ATOM     66  C   UNL A   1      46.885  26.242  34.143  1.00  0.00     0.135 A 
ATOM     67  F   UNL A   1      44.079  24.414  32.774  1.00  0.00    -0.206 F 
ATOM     68  C   UNL A   1      45.851  23.677  34.122  1.00  0.00     0.059 A 
ATOM     69  C   UNL A   1      47.567  25.213  34.803  1.00  0.00     0.059 A 
ATOM     70  F   UNL A   1      47.412  27.466  34.300  1.00  0.00    -0.206 F 
ATOM     71  C   UNL A   1      47.060  23.923  34.764  1.00  0.00     0.060 A 
BRANCH  71  72
ATOM     72  S   UNL A   1      47.991  22.599  35.568  1.00  0.00     0.124 S 
ATOM     73  O   UNL A   1      48.696  23.309  36.632  1.00  0.00    -0.237 OA
ATOM     74  O   UNL A   1      46.953  21.678  36.026  1.00  0.00    -0.237 OA
ATOM     75  O   UNL A   1      48.830  22.094  34.486  1.00  0.00    -0.744 OA
ENDBRANCH  71  72
ENDBRANCH  39  64
ENDBRANCH  13  14
ENDBRANCH   6   8
ENDBRANCH   5   6
ENDBRANCH   4   5
ENDBRANCH   3   4
ENDBRANCH   2   3
ENDBRANCH   1   2
BRANCH   1  76
ATOM     76  C   UNL A   1      31.876  21.249  25.384  1.00  0.00     0.188 C 
BRANCH  76  77
ATOM     77  O   UNL A   1      30.652  21.969  25.441  1.00  0.00    -0.376 OA
BRANCH  77  78
ATOM     78  C   UNL A   1      30.578  22.884  26.558  1.00  0.00     0.202 C 
BRANCH  78  79
ATOM     79  C   UNL A   1      30.329  24.382  26.284  1.00  0.00     0.261 C 
BRANCH  79  80
ATOM     80  O   UNL A   1      31.002  24.812  25.094  1.00  0.00    -0.459 OA
BRANCH  80  81
ATOM     81  C   UNL A   1      32.245  25.312  25.313  1.00  0.00     0.365 C 
ATOM     82  O   UNL A   1      32.946  24.991  26.272  1.00  0.00    -0.245 OA
BRANCH  81  83
ATOM     83  C   UNL A   1      32.768  26.206  24.185  1.00  0.00     0.296 C 
ATOM     84  C   UNL A   1      33.846  27.009  24.884  1.00  0.00     0.091 C 
ATOM     85  N   UNL A   1      31.850  27.252  23.697  1.00  0.00    -0.319 N 
ATOM     86  C   UNL A   1      33.131  28.325  25.170  1.00  0.00     0.036 C 
ATOM     87  C   UNL A   1      32.480  28.554  23.833  1.00  0.00     0.270 C 
ATOM     88  H   UNL A   1      31.058  27.151  24.331  1.00  0.00     0.349 HD
ATOM     89  C   UNL A   1      34.166  29.325  25.554  1.00  0.00     0.074 C 
ATOM     90  C   UNL A   1      32.022  28.342  26.262  1.00  0.00     0.074 C 
ATOM     91  C   UNL A   1      34.684  29.045  26.940  1.00  0.00     0.261 C 
ATOM     92  C   UNL A   1      32.578  28.066  27.642  1.00  0.00     0.261 C 
ATOM     93  N   UNL A   1      33.623  29.026  27.948  1.00  0.00    -0.346 N 
ATOM     94  H   UNL A   1      33.207  29.956  28.000  1.00  0.00     0.346 HD
ATOM     95  H   UNL A   1      34.045  28.751  28.834  1.00  0.00     0.346 HD
BRANCH  85  96
ATOM     96  C   UNL A   1      30.988  27.067  22.562  1.00  0.00     0.302 C 
BRANCH  96  97
ATOM     97  C   UNL A   1      29.668  27.722  22.860  1.00  0.00     0.038 A 
ATOM     98  C   UNL A   1      28.651  27.064  23.605  1.00  0.00     0.012 A 
ATOM     99  C   UNL A   1      29.250  28.961  22.334  1.00  0.00     0.144 A 
ATOM    100  C   UNL A   1      27.320  27.533  23.732  1.00  0.00     0.003 A 
ATOM    101  C   UNL A   1      27.880  29.444  22.464  1.00  0.00     0.135 A 
ATOM    102  N   UNL A   1      29.948  29.879  21.652  1.00  0.00    -0.049 NA
ATOM    103  C   UNL A   1      26.882  28.728  23.147  1.00  0.00     0.034 A 
ATOM    104  N   UNL A   1      27.789  30.620  21.829  1.00  0.00    -0.050 NA
ATOM    105  O   UNL A   1      29.056  30.887  21.346  1.00  0.00    -0.243 OA
ENDBRANCH  96  97
ENDBRANCH  85  96
ENDBRANCH  81  83
ENDBRANCH  80  81
ENDBRANCH  79  80
ENDBRANCH  78  79
ENDBRANCH  77  78
ENDBRANCH  76  77
ENDBRANCH   1  76
TORSDOF 22
ENDMDL
