MODEL 1
REMARK VINA RESULT:      -5.3      0.000      0.000
REMARK SMILES CC/C=C/C/C=C/C/C=C/C/C=C/CCSCCCC(=O)OCCOCCOCCOC(=O)c1ccc(-c2c3nc(c(-c4c(F)cc(S(=O)(=O)[O-])cc4F)c4ccc([nH]4)c(-c4c(F)cc(S(=O)(=O)[O-])cc4F)c4nc(c(-c5c(F)cc(S(=O)(=O)[O-])cc5F)c5ccc2[nH]5)C=C4)C=C3)cc1
REMARK SMILES IDX 20 1 21 2 19 3 18 4 17 5 16 6 15 7 14 8 13 9 12 10 11 11
REMARK SMILES IDX 10 12 9 13 8 14 7 15 6 16 5 17 4 18 3 19 2 20 1 21 22 22
REMARK SMILES IDX 23 23 24 24 25 25 26 26 27 27 28 28 29 29 30 30 31 31 32 32
REMARK SMILES IDX 33 33 34 34 35 35 99 36 36 37 98 38 37 39 38 40 39 41 92 42
REMARK SMILES IDX 40 43 97 44 91 45 93 46 41 47 96 48 90 49 89 50 42 52 76 53
REMARK SMILES IDX 55 54 75 55 56 56 59 57 74 58 94 59 57 60 58 61 73 63 95 64
REMARK SMILES IDX 60 65 43 66 44 67 53 68 45 69 46 70 52 71 54 72 47 73 48 74
REMARK SMILES IDX 49 75 50 76 51 77 77 78 78 79 87 80 79 81 80 82 86 83 88 84
REMARK SMILES IDX 81 85 82 86 83 87 84 88 85 89 61 90 62 91 71 92 63 93 64 94
REMARK SMILES IDX 70 95 72 96 65 97 66 98 67 99 68 100 69 101
REMARK H PARENT 93 51 59 62
REMARK Flexibility Score: inf
ROOT
ATOM      1  C   UNL A   1      35.036  31.374  28.424  1.00  0.00     0.305 C 
ATOM      2  O   UNL A   1      34.938  30.935  27.295  1.00  0.00    -0.252 OA
ENDROOT
BRANCH   1   3
ATOM      3  C   UNL A   1      35.644  30.534  29.527  1.00  0.00     0.123 C 
BRANCH   3   4
ATOM      4  C   UNL A   1      37.026  29.935  29.300  1.00  0.00     0.023 C 
BRANCH   4   5
ATOM      5  C   UNL A   1      37.604  28.894  30.262  1.00  0.00     0.070 C 
BRANCH   5   6
ATOM      6  S   UNL A   1      39.310  28.204  30.248  1.00  0.00    -0.162 SA
BRANCH   6   7
ATOM      7  C   UNL A   1      40.291  29.128  29.009  1.00  0.00     0.073 C 
BRANCH   7   8
ATOM      8  C   UNL A   1      39.999  28.725  27.544  1.00  0.00     0.038 C 
BRANCH   8   9
ATOM      9  C   UNL A   1      40.661  27.467  27.032  1.00  0.00    -0.030 C 
ATOM     10  C   UNL A   1      40.108  26.238  26.954  1.00  0.00    -0.027 C 
BRANCH  10  11
ATOM     11  C   UNL A   1      40.799  24.980  26.437  1.00  0.00     0.054 C 
BRANCH  11  12
ATOM     12  C   UNL A   1      41.947  24.525  27.312  1.00  0.00    -0.027 C 
ATOM     13  C   UNL A   1      41.867  24.029  28.567  1.00  0.00    -0.027 C 
BRANCH  13  14
ATOM     14  C   UNL A   1      43.046  23.491  29.347  1.00  0.00     0.054 C 
BRANCH  14  15
ATOM     15  C   UNL A   1      44.298  23.616  28.539  1.00  0.00    -0.027 C 
ATOM     16  C   UNL A   1      45.402  24.276  28.920  1.00  0.00    -0.027 C 
BRANCH  16  17
ATOM     17  C   UNL A   1      46.520  24.587  27.965  1.00  0.00     0.054 C 
BRANCH  17  18
ATOM     18  C   UNL A   1      46.155  25.806  27.163  1.00  0.00    -0.027 C 
ATOM     19  C   UNL A   1      45.481  25.769  26.005  1.00  0.00    -0.031 C 
BRANCH  19  20
ATOM     20  C   UNL A   1      45.191  26.981  25.171  1.00  0.00     0.023 C 
ATOM     21  C   UNL A   1      43.703  27.298  25.192  1.00  0.00     0.008 C 
ENDBRANCH  19  20
ENDBRANCH  17  18
ENDBRANCH  16  17
ENDBRANCH  14  15
ENDBRANCH  13  14
ENDBRANCH  11  12
ENDBRANCH  10  11
ENDBRANCH   8   9
ENDBRANCH   7   8
ENDBRANCH   6   7
ENDBRANCH   5   6
ENDBRANCH   4   5
ENDBRANCH   3   4
ENDBRANCH   1   3
BRANCH   1  22
ATOM     22  O   UNL A   1      34.774  32.635  28.805  1.00  0.00    -0.463 OA
BRANCH  22  23
ATOM     23  C   UNL A   1      35.680  33.711  29.152  1.00  0.00     0.261 C 
BRANCH  23  24
ATOM     24  C   UNL A   1      36.495  33.694  30.443  1.00  0.00     0.202 C 
BRANCH  24  25
ATOM     25  O   UNL A   1      36.098  34.540  31.504  1.00  0.00    -0.376 OA
BRANCH  25  26
ATOM     26  C   UNL A   1      36.788  34.339  32.720  1.00  0.00     0.188 C 
BRANCH  26  27
ATOM     27  C   UNL A   1      35.865  34.334  33.958  1.00  0.00     0.188 C 
BRANCH  27  28
ATOM     28  O   UNL A   1      35.860  33.221  34.839  1.00  0.00    -0.376 OA
BRANCH  28  29
ATOM     29  C   UNL A   1      37.081  32.845  35.458  1.00  0.00     0.202 C 
BRANCH  29  30
ATOM     30  C   UNL A   1      37.754  33.789  36.474  1.00  0.00     0.261 C 
BRANCH  30  31
ATOM     31  O   UNL A   1      39.138  33.534  36.782  1.00  0.00    -0.460 OA
BRANCH  31  32
ATOM     32  C   UNL A   1      40.051  34.304  36.134  1.00  0.00     0.338 C 
ATOM     33  O   UNL A   1      40.228  35.505  36.290  1.00  0.00    -0.246 OA
BRANCH  32  34
ATOM     34  C   UNL A   1      40.998  33.444  35.378  1.00  0.00     0.060 A 
ATOM     35  C   UNL A   1      42.378  33.558  35.634  1.00  0.00     0.016 A 
ATOM     36  C   UNL A   1      40.543  32.542  34.417  1.00  0.00     0.016 A 
ATOM     37  C   UNL A   1      43.303  32.809  34.907  1.00  0.00     0.010 A 
ATOM     38  C   UNL A   1      41.473  31.831  33.651  1.00  0.00     0.010 A 
ATOM     39  C   UNL A   1      42.856  31.998  33.862  1.00  0.00    -0.014 A 
BRANCH  39  40
ATOM     40  C   UNL A   1      43.812  31.580  32.806  1.00  0.00     0.031 A 
ATOM     41  C   UNL A   1      44.359  30.180  32.886  1.00  0.00     0.074 A 
ATOM     42  C   UNL A   1      44.175  32.393  31.800  1.00  0.00     0.049 A 
ATOM     43  N   UNL A   1      45.295  29.609  32.175  1.00  0.00    -0.248 NA
ATOM     44  C   UNL A   1      43.769  29.306  33.916  1.00  0.00     0.031 C 
ATOM     45  C   UNL A   1      43.660  33.740  31.570  1.00  0.00     0.029 A 
ATOM     46  N   UNL A   1      45.088  32.204  30.792  1.00  0.00    -0.354 N 
ATOM     47  C   UNL A   1      45.409  28.317  32.674  1.00  0.00     0.074 A 
ATOM     48  C   UNL A   1      44.474  28.196  33.769  1.00  0.00     0.031 C 
ATOM     49  C   UNL A   1      44.296  34.274  30.512  1.00  0.00     0.029 A 
ATOM     50  C   UNL A   1      45.284  33.319  30.012  1.00  0.00     0.049 A 
ATOM     51  H   UNL A   1      45.559  31.352  30.643  1.00  0.00     0.167 HD
ATOM     52  C   UNL A   1      46.214  27.315  32.250  1.00  0.00     0.037 A 
ATOM     53  C   UNL A   1      46.182  33.548  29.031  1.00  0.00     0.037 A 
ATOM     54  C   UNL A   1      47.151  27.446  31.167  1.00  0.00     0.049 A 
ATOM     55  C   UNL A   1      47.136  32.451  28.631  1.00  0.00     0.074 A 
ATOM     56  C   UNL A   1      48.028  26.499  30.670  1.00  0.00     0.029 A 
ATOM     57  N   UNL A   1      47.333  28.596  30.413  1.00  0.00    -0.354 N 
ATOM     58  N   UNL A   1      47.253  31.238  29.121  1.00  0.00    -0.248 NA
ATOM     59  C   UNL A   1      48.077  32.747  27.540  1.00  0.00     0.031 C 
ATOM     60  C   UNL A   1      48.774  27.090  29.646  1.00  0.00     0.029 A 
ATOM     61  C   UNL A   1      48.319  28.388  29.464  1.00  0.00     0.049 A 
ATOM     62  H   UNL A   1      46.835  29.436  30.536  1.00  0.00     0.167 HD
ATOM     63  C   UNL A   1      48.255  30.619  28.379  1.00  0.00     0.074 A 
ATOM     64  C   UNL A   1      48.707  31.588  27.402  1.00  0.00     0.031 C 
ATOM     65  C   UNL A   1      48.753  29.362  28.493  1.00  0.00     0.037 A 
BRANCH  52  66
ATOM     66  C   UNL A   1      46.129  26.001  32.976  1.00  0.00     0.058 A 
ATOM     67  C   UNL A   1      47.064  25.641  33.960  1.00  0.00     0.135 A 
ATOM     68  C   UNL A   1      45.081  25.104  32.708  1.00  0.00     0.135 A 
ATOM     69  F   UNL A   1      48.100  26.448  34.235  1.00  0.00    -0.206 F 
ATOM     70  C   UNL A   1      46.973  24.432  34.641  1.00  0.00     0.059 A 
ATOM     71  C   UNL A   1      44.954  23.903  33.399  1.00  0.00     0.059 A 
ATOM     72  F   UNL A   1      44.167  25.395  31.770  1.00  0.00    -0.206 F 
ATOM     73  C   UNL A   1      45.910  23.572  34.357  1.00  0.00     0.060 A 
BRANCH  73  74
ATOM     74  S   UNL A   1      45.794  22.020  35.271  1.00  0.00     0.124 S 
ATOM     75  O   UNL A   1      47.187  21.586  35.290  1.00  0.00    -0.237 OA
ATOM     76  O   UNL A   1      45.248  22.455  36.552  1.00  0.00    -0.237 OA
ATOM     77  O   UNL A   1      44.896  21.210  34.454  1.00  0.00    -0.744 OA
ENDBRANCH  73  74
ENDBRANCH  52  66
BRANCH  53  78
ATOM     78  C   UNL A   1      46.232  34.883  28.374  1.00  0.00     0.058 A 
ATOM     79  C   UNL A   1      46.995  35.930  28.909  1.00  0.00     0.135 A 
ATOM     80  C   UNL A   1      45.528  35.132  27.184  1.00  0.00     0.135 A 
ATOM     81  F   UNL A   1      47.673  35.749  30.053  1.00  0.00    -0.206 F 
ATOM     82  C   UNL A   1      47.059  37.177  28.293  1.00  0.00     0.059 A 
ATOM     83  C   UNL A   1      45.596  36.360  26.535  1.00  0.00     0.059 A 
ATOM     84  F   UNL A   1      44.782  34.164  26.628  1.00  0.00    -0.206 F 
ATOM     85  C   UNL A   1      46.363  37.378  27.100  1.00  0.00     0.060 A 
BRANCH  85  86
ATOM     86  S   UNL A   1      46.512  38.977  26.271  1.00  0.00     0.124 S 
ATOM     87  O   UNL A   1      47.270  39.747  27.250  1.00  0.00    -0.237 OA
ATOM     88  O   UNL A   1      47.224  38.620  25.048  1.00  0.00    -0.237 OA
ATOM     89  O   UNL A   1      45.124  39.387  26.082  1.00  0.00    -0.744 OA
ENDBRANCH  85  86
ENDBRANCH  53  78
BRANCH  65  90
ATOM     90  C   UNL A   1      49.815  28.936  27.514  1.00  0.00     0.058 A 
ATOM     91  C   UNL A   1      51.183  29.079  27.794  1.00  0.00     0.135 A 
ATOM     92  C   UNL A   1      49.456  28.313  26.307  1.00  0.00     0.135 A 
ATOM     93  F   UNL A   1      51.582  29.669  28.932  1.00  0.00    -0.206 F 
ATOM     94  C   UNL A   1      52.157  28.641  26.902  1.00  0.00     0.059 A 
ATOM     95  C   UNL A   1      50.412  27.840  25.414  1.00  0.00     0.059 A 
ATOM     96  F   UNL A   1      48.162  28.138  25.994  1.00  0.00    -0.206 F 
ATOM     97  C   UNL A   1      51.762  28.020  25.715  1.00  0.00     0.060 A 
BRANCH  97  98
ATOM     98  S   UNL A   1      53.038  27.427  24.583  1.00  0.00     0.124 S 
ATOM     99  O   UNL A   1      53.127  28.533  23.636  1.00  0.00    -0.237 OA
ATOM    100  O   UNL A   1      54.185  27.255  25.469  1.00  0.00    -0.237 OA
ATOM    101  O   UNL A   1      52.473  26.189  24.051  1.00  0.00    -0.744 OA
ENDBRANCH  97  98
ENDBRANCH  65  90
ENDBRANCH  39  40
ENDBRANCH  32  34
ENDBRANCH  31  32
ENDBRANCH  30  31
ENDBRANCH  29  30
ENDBRANCH  28  29
ENDBRANCH  27  28
ENDBRANCH  26  27
ENDBRANCH  25  26
ENDBRANCH  24  25
ENDBRANCH  23  24
ENDBRANCH  22  23
ENDBRANCH   1  22
TORSDOF 33
ENDMDL
MODEL 2
REMARK VINA RESULT:      -5.2      4.252     11.588
REMARK SMILES CC/C=C/C/C=C/C/C=C/C/C=C/CCSCCCC(=O)OCCOCCOCCOC(=O)c1ccc(-c2c3nc(c(-c4c(F)cc(S(=O)(=O)[O-])cc4F)c4ccc([nH]4)c(-c4c(F)cc(S(=O)(=O)[O-])cc4F)c4nc(c(-c5c(F)cc(S(=O)(=O)[O-])cc5F)c5ccc2[nH]5)C=C4)C=C3)cc1
REMARK SMILES IDX 20 1 21 2 19 3 18 4 17 5 16 6 15 7 14 8 13 9 12 10 11 11
REMARK SMILES IDX 10 12 9 13 8 14 7 15 6 16 5 17 4 18 3 19 2 20 1 21 22 22
REMARK SMILES IDX 23 23 24 24 25 25 26 26 27 27 28 28 29 29 30 30 31 31 32 32
REMARK SMILES IDX 33 33 34 34 35 35 99 36 36 37 98 38 37 39 38 40 39 41 92 42
REMARK SMILES IDX 40 43 97 44 91 45 93 46 41 47 96 48 90 49 89 50 42 52 76 53
REMARK SMILES IDX 55 54 75 55 56 56 59 57 74 58 94 59 57 60 58 61 73 63 95 64
REMARK SMILES IDX 60 65 43 66 44 67 53 68 45 69 46 70 52 71 54 72 47 73 48 74
REMARK SMILES IDX 49 75 50 76 51 77 77 78 78 79 87 80 79 81 80 82 86 83 88 84
REMARK SMILES IDX 81 85 82 86 83 87 84 88 85 89 61 90 62 91 71 92 63 93 64 94
REMARK SMILES IDX 70 95 72 96 65 97 66 98 67 99 68 100 69 101
REMARK H PARENT 93 51 59 62
REMARK Flexibility Score: inf
ROOT
ATOM      1  C   UNL A   1      43.423  37.210  35.317  1.00  0.00     0.305 C 
ATOM      2  O   UNL A   1      42.738  38.001  34.698  1.00  0.00    -0.252 OA
ENDROOT
BRANCH   1   3
ATOM      3  C   UNL A   1      42.796  36.000  35.979  1.00  0.00     0.123 C 
BRANCH   3   4
ATOM      4  C   UNL A   1      42.978  35.825  37.481  1.00  0.00     0.023 C 
BRANCH   4   5
ATOM      5  C   UNL A   1      41.853  36.176  38.459  1.00  0.00     0.070 C 
BRANCH   5   6
ATOM      6  S   UNL A   1      40.117  36.612  38.033  1.00  0.00    -0.162 SA
BRANCH   6   7
ATOM      7  C   UNL A   1      39.401  37.548  39.433  1.00  0.00     0.073 C 
BRANCH   7   8
ATOM      8  C   UNL A   1      38.768  36.659  40.529  1.00  0.00     0.038 C 
BRANCH   8   9
ATOM      9  C   UNL A   1      39.714  35.884  41.418  1.00  0.00    -0.030 C 
ATOM     10  C   UNL A   1      39.381  34.942  42.324  1.00  0.00    -0.027 C 
BRANCH  10  11
ATOM     11  C   UNL A   1      40.355  34.177  43.214  1.00  0.00     0.054 C 
BRANCH  11  12
ATOM     12  C   UNL A   1      40.158  32.676  43.166  1.00  0.00    -0.027 C 
ATOM     13  C   UNL A   1      39.026  31.995  43.452  1.00  0.00    -0.027 C 
BRANCH  13  14
ATOM     14  C   UNL A   1      38.865  30.501  43.280  1.00  0.00     0.054 C 
BRANCH  14  15
ATOM     15  C   UNL A   1      37.985  30.210  42.106  1.00  0.00    -0.027 C 
ATOM     16  C   UNL A   1      37.606  31.108  41.183  1.00  0.00    -0.027 C 
BRANCH  16  17
ATOM     17  C   UNL A   1      36.519  30.821  40.185  1.00  0.00     0.054 C 
BRANCH  17  18
ATOM     18  C   UNL A   1      35.364  31.749  40.438  1.00  0.00    -0.027 C 
ATOM     19  C   UNL A   1      35.285  32.583  41.486  1.00  0.00    -0.031 C 
BRANCH  19  20
ATOM     20  C   UNL A   1      34.095  33.447  41.775  1.00  0.00     0.023 C 
ATOM     21  C   UNL A   1      33.497  33.980  40.481  1.00  0.00     0.008 C 
ENDBRANCH  19  20
ENDBRANCH  17  18
ENDBRANCH  16  17
ENDBRANCH  14  15
ENDBRANCH  13  14
ENDBRANCH  11  12
ENDBRANCH  10  11
ENDBRANCH   8   9
ENDBRANCH   7   8
ENDBRANCH   6   7
ENDBRANCH   5   6
ENDBRANCH   4   5
ENDBRANCH   3   4
ENDBRANCH   1   3
BRANCH   1  22
ATOM     22  O   UNL A   1      44.765  37.209  35.380  1.00  0.00    -0.463 OA
BRANCH  22  23
ATOM     23  C   UNL A   1      45.734  37.957  34.607  1.00  0.00     0.261 C 
BRANCH  23  24
ATOM     24  C   UNL A   1      45.867  37.782  33.096  1.00  0.00     0.202 C 
BRANCH  24  25
ATOM     25  O   UNL A   1      45.105  38.618  32.248  1.00  0.00    -0.376 OA
BRANCH  25  26
ATOM     26  C   UNL A   1      44.072  37.968  31.537  1.00  0.00     0.188 C 
BRANCH  26  27
ATOM     27  C   UNL A   1      44.439  37.650  30.071  1.00  0.00     0.188 C 
BRANCH  27  28
ATOM     28  O   UNL A   1      45.567  38.266  29.468  1.00  0.00    -0.376 OA
BRANCH  28  29
ATOM     29  C   UNL A   1      46.787  37.540  29.422  1.00  0.00     0.202 C 
BRANCH  29  30
ATOM     30  C   UNL A   1      47.791  37.791  28.280  1.00  0.00     0.261 C 
BRANCH  30  31
ATOM     31  O   UNL A   1      49.093  37.189  28.413  1.00  0.00    -0.460 OA
BRANCH  31  32
ATOM     32  C   UNL A   1      49.390  36.197  27.532  1.00  0.00     0.338 C 
ATOM     33  O   UNL A   1      50.402  36.113  26.849  1.00  0.00    -0.246 OA
BRANCH  32  34
ATOM     34  C   UNL A   1      48.430  35.073  27.688  1.00  0.00     0.060 A 
ATOM     35  C   UNL A   1      48.459  34.311  28.872  1.00  0.00     0.016 A 
ATOM     36  C   UNL A   1      47.519  34.758  26.682  1.00  0.00     0.016 A 
ATOM     37  C   UNL A   1      47.614  33.213  29.035  1.00  0.00     0.010 A 
ATOM     38  C   UNL A   1      46.709  33.626  26.822  1.00  0.00     0.010 A 
ATOM     39  C   UNL A   1      46.788  32.824  27.978  1.00  0.00    -0.014 A 
BRANCH  39  40
ATOM     40  C   UNL A   1      46.255  31.439  27.944  1.00  0.00     0.031 A 
ATOM     41  C   UNL A   1      47.161  30.364  27.406  1.00  0.00     0.074 A 
ATOM     42  C   UNL A   1      45.024  31.130  28.386  1.00  0.00     0.049 A 
ATOM     43  N   UNL A   1      46.904  29.109  27.150  1.00  0.00    -0.248 NA
ATOM     44  C   UNL A   1      48.549  30.765  27.113  1.00  0.00     0.031 C 
ATOM     45  C   UNL A   1      44.083  32.063  28.996  1.00  0.00     0.029 A 
ATOM     46  N   UNL A   1      44.349  29.934  28.365  1.00  0.00    -0.354 N 
ATOM     47  C   UNL A   1      48.091  28.575  26.662  1.00  0.00     0.074 A 
ATOM     48  C   UNL A   1      49.060  29.647  26.625  1.00  0.00     0.031 C 
ATOM     49  C   UNL A   1      42.933  31.416  29.254  1.00  0.00     0.029 A 
ATOM     50  C   UNL A   1      43.048  30.031  28.798  1.00  0.00     0.049 A 
ATOM     51  H   UNL A   1      44.757  29.089  28.067  1.00  0.00     0.167 HD
ATOM     52  C   UNL A   1      48.356  27.301  26.289  1.00  0.00     0.037 A 
ATOM     53  C   UNL A   1      42.058  29.114  28.793  1.00  0.00     0.037 A 
ATOM     54  C   UNL A   1      47.384  26.242  26.318  1.00  0.00     0.049 A 
ATOM     55  C   UNL A   1      42.343  27.721  28.288  1.00  0.00     0.074 A 
ATOM     56  C   UNL A   1      47.542  24.920  25.943  1.00  0.00     0.029 A 
ATOM     57  N   UNL A   1      46.072  26.383  26.746  1.00  0.00    -0.354 N 
ATOM     58  N   UNL A   1      43.462  27.229  27.809  1.00  0.00    -0.248 NA
ATOM     59  C   UNL A   1      41.236  26.755  28.329  1.00  0.00     0.031 C 
ATOM     60  C   UNL A   1      46.313  24.272  26.099  1.00  0.00     0.029 A 
ATOM     61  C   UNL A   1      45.405  25.176  26.630  1.00  0.00     0.049 A 
ATOM     62  H   UNL A   1      45.675  27.219  27.082  1.00  0.00     0.167 HD
ATOM     63  C   UNL A   1      43.202  25.892  27.522  1.00  0.00     0.074 A 
ATOM     64  C   UNL A   1      41.821  25.651  27.886  1.00  0.00     0.031 C 
ATOM     65  C   UNL A   1      44.030  24.949  27.006  1.00  0.00     0.037 A 
BRANCH  52  66
ATOM     66  C   UNL A   1      49.743  26.995  25.798  1.00  0.00     0.058 A 
ATOM     67  C   UNL A   1      50.110  27.190  24.457  1.00  0.00     0.135 A 
ATOM     68  C   UNL A   1      50.729  26.532  26.686  1.00  0.00     0.135 A 
ATOM     69  F   UNL A   1      49.201  27.604  23.561  1.00  0.00    -0.206 F 
ATOM     70  C   UNL A   1      51.399  26.921  24.009  1.00  0.00     0.059 A 
ATOM     71  C   UNL A   1      52.032  26.284  26.266  1.00  0.00     0.059 A 
ATOM     72  F   UNL A   1      50.428  26.318  27.976  1.00  0.00    -0.206 F 
ATOM     73  C   UNL A   1      52.355  26.474  24.923  1.00  0.00     0.060 A 
BRANCH  73  74
ATOM     74  S   UNL A   1      54.030  26.156  24.329  1.00  0.00     0.124 S 
ATOM     75  O   UNL A   1      53.857  26.282  22.885  1.00  0.00    -0.237 OA
ATOM     76  O   UNL A   1      54.793  27.222  24.971  1.00  0.00    -0.237 OA
ATOM     77  O   UNL A   1      54.312  24.809  24.812  1.00  0.00    -0.744 OA
ENDBRANCH  73  74
ENDBRANCH  52  66
BRANCH  53  78
ATOM     78  C   UNL A   1      40.699  29.493  29.266  1.00  0.00     0.058 A 
ATOM     79  C   UNL A   1      40.433  29.697  30.628  1.00  0.00     0.135 A 
ATOM     80  C   UNL A   1      39.640  29.675  28.362  1.00  0.00     0.135 A 
ATOM     81  F   UNL A   1      41.405  29.520  31.536  1.00  0.00    -0.206 F 
ATOM     82  C   UNL A   1      39.168  30.066  31.078  1.00  0.00     0.059 A 
ATOM     83  C   UNL A   1      38.374  30.068  28.783  1.00  0.00     0.059 A 
ATOM     84  F   UNL A   1      39.840  29.493  27.047  1.00  0.00    -0.206 F 
ATOM     85  C   UNL A   1      38.147  30.258  30.146  1.00  0.00     0.060 A 
BRANCH  85  86
ATOM     86  S   UNL A   1      36.530  30.807  30.735  1.00  0.00     0.124 S 
ATOM     87  O   UNL A   1      35.957  29.561  31.230  1.00  0.00    -0.237 OA
ATOM     88  O   UNL A   1      36.895  31.790  31.751  1.00  0.00    -0.237 OA
ATOM     89  O   UNL A   1      35.906  31.358  29.537  1.00  0.00    -0.744 OA
ENDBRANCH  85  86
ENDBRANCH  53  78
BRANCH  65  90
ATOM     90  C   UNL A   1      43.490  23.554  26.841  1.00  0.00     0.058 A 
ATOM     91  C   UNL A   1      43.209  23.011  25.578  1.00  0.00     0.135 A 
ATOM     92  C   UNL A   1      43.316  22.725  27.963  1.00  0.00     0.135 A 
ATOM     93  F   UNL A   1      43.356  23.758  24.473  1.00  0.00    -0.206 F 
ATOM     94  C   UNL A   1      42.752  21.704  25.434  1.00  0.00     0.059 A 
ATOM     95  C   UNL A   1      42.890  21.407  27.841  1.00  0.00     0.059 A 
ATOM     96  F   UNL A   1      43.583  23.189  29.194  1.00  0.00    -0.206 F 
ATOM     97  C   UNL A   1      42.599  20.908  26.572  1.00  0.00     0.060 A 
BRANCH  97  98
ATOM     98  S   UNL A   1      42.037  19.205  26.366  1.00  0.00     0.124 S 
ATOM     99  O   UNL A   1      40.632  19.398  26.023  1.00  0.00    -0.237 OA
ATOM    100  O   UNL A   1      42.894  18.723  25.287  1.00  0.00    -0.237 OA
ATOM    101  O   UNL A   1      42.287  18.603  27.673  1.00  0.00    -0.744 OA
ENDBRANCH  97  98
ENDBRANCH  65  90
ENDBRANCH  39  40
ENDBRANCH  32  34
ENDBRANCH  31  32
ENDBRANCH  30  31
ENDBRANCH  29  30
ENDBRANCH  28  29
ENDBRANCH  27  28
ENDBRANCH  26  27
ENDBRANCH  25  26
ENDBRANCH  24  25
ENDBRANCH  23  24
ENDBRANCH  22  23
ENDBRANCH   1  22
TORSDOF 33
ENDMDL
MODEL 3
REMARK VINA RESULT:      -5.0      3.749      8.100
REMARK SMILES CC/C=C/C/C=C/C/C=C/C/C=C/CCSCCCC(=O)OCCOCCOCCOC(=O)c1ccc(-c2c3nc(c(-c4c(F)cc(S(=O)(=O)[O-])cc4F)c4ccc([nH]4)c(-c4c(F)cc(S(=O)(=O)[O-])cc4F)c4nc(c(-c5c(F)cc(S(=O)(=O)[O-])cc5F)c5ccc2[nH]5)C=C4)C=C3)cc1
REMARK SMILES IDX 20 1 21 2 19 3 18 4 17 5 16 6 15 7 14 8 13 9 12 10 11 11
REMARK SMILES IDX 10 12 9 13 8 14 7 15 6 16 5 17 4 18 3 19 2 20 1 21 22 22
REMARK SMILES IDX 23 23 24 24 25 25 26 26 27 27 28 28 29 29 30 30 31 31 32 32
REMARK SMILES IDX 33 33 34 34 35 35 99 36 36 37 98 38 37 39 38 40 39 41 92 42
REMARK SMILES IDX 40 43 97 44 91 45 93 46 41 47 96 48 90 49 89 50 42 52 76 53
REMARK SMILES IDX 55 54 75 55 56 56 59 57 74 58 94 59 57 60 58 61 73 63 95 64
REMARK SMILES IDX 60 65 43 66 44 67 53 68 45 69 46 70 52 71 54 72 47 73 48 74
REMARK SMILES IDX 49 75 50 76 51 77 77 78 78 79 87 80 79 81 80 82 86 83 88 84
REMARK SMILES IDX 81 85 82 86 83 87 84 88 85 89 61 90 62 91 71 92 63 93 64 94
REMARK SMILES IDX 70 95 72 96 65 97 66 98 67 99 68 100 69 101
REMARK H PARENT 93 51 59 62
REMARK Flexibility Score: inf
ROOT
ATOM      1  C   UNL A   1      44.205  33.079  36.318  1.00  0.00     0.305 C 
ATOM      2  O   UNL A   1      45.391  32.902  36.516  1.00  0.00    -0.252 OA
ENDROOT
BRANCH   1   3
ATOM      3  C   UNL A   1      43.218  33.044  37.466  1.00  0.00     0.123 C 
BRANCH   3   4
ATOM      4  C   UNL A   1      43.392  31.971  38.534  1.00  0.00     0.023 C 
BRANCH   4   5
ATOM      5  C   UNL A   1      42.565  31.997  39.822  1.00  0.00     0.070 C 
BRANCH   5   6
ATOM      6  S   UNL A   1      41.869  33.483  40.656  1.00  0.00    -0.162 SA
BRANCH   6   7
ATOM      7  C   UNL A   1      40.173  33.085  41.216  1.00  0.00     0.073 C 
BRANCH   7   8
ATOM      8  C   UNL A   1      39.071  33.943  40.551  1.00  0.00     0.038 C 
BRANCH   8   9
ATOM      9  C   UNL A   1      39.524  35.115  39.712  1.00  0.00    -0.030 C 
ATOM     10  C   UNL A   1      39.518  35.193  38.365  1.00  0.00    -0.027 C 
BRANCH  10  11
ATOM     11  C   UNL A   1      39.986  36.387  37.539  1.00  0.00     0.054 C 
BRANCH  11  12
ATOM     12  C   UNL A   1      41.485  36.420  37.329  1.00  0.00    -0.027 C 
ATOM     13  C   UNL A   1      42.143  36.823  36.220  1.00  0.00    -0.027 C 
BRANCH  13  14
ATOM     14  C   UNL A   1      43.648  36.933  36.115  1.00  0.00     0.054 C 
BRANCH  14  15
ATOM     15  C   UNL A   1      44.028  37.549  34.806  1.00  0.00    -0.027 C 
ATOM     16  C   UNL A   1      43.279  37.523  33.693  1.00  0.00    -0.027 C 
BRANCH  16  17
ATOM     17  C   UNL A   1      43.824  37.925  32.351  1.00  0.00     0.054 C 
BRANCH  17  18
ATOM     18  C   UNL A   1      44.199  39.381  32.390  1.00  0.00    -0.027 C 
ATOM     19  C   UNL A   1      43.313  40.383  32.477  1.00  0.00    -0.031 C 
BRANCH  19  20
ATOM     20  C   UNL A   1      43.690  41.834  32.434  1.00  0.00     0.023 C 
ATOM     21  C   UNL A   1      42.444  42.708  32.431  1.00  0.00     0.008 C 
ENDBRANCH  19  20
ENDBRANCH  17  18
ENDBRANCH  16  17
ENDBRANCH  14  15
ENDBRANCH  13  14
ENDBRANCH  11  12
ENDBRANCH  10  11
ENDBRANCH   8   9
ENDBRANCH   7   8
ENDBRANCH   6   7
ENDBRANCH   5   6
ENDBRANCH   4   5
ENDBRANCH   3   4
ENDBRANCH   1   3
BRANCH   1  22
ATOM     22  O   UNL A   1      43.647  33.453  35.155  1.00  0.00    -0.463 OA
BRANCH  22  23
ATOM     23  C   UNL A   1      42.252  33.611  34.799  1.00  0.00     0.261 C 
BRANCH  23  24
ATOM     24  C   UNL A   1      41.825  34.241  33.475  1.00  0.00     0.202 C 
BRANCH  24  25
ATOM     25  O   UNL A   1      40.444  34.356  33.195  1.00  0.00    -0.376 OA
BRANCH  25  26
ATOM     26  C   UNL A   1      39.708  35.134  34.116  1.00  0.00     0.188 C 
BRANCH  26  27
ATOM     27  C   UNL A   1      38.364  34.495  34.528  1.00  0.00     0.188 C 
BRANCH  27  28
ATOM     28  O   UNL A   1      38.346  33.350  35.366  1.00  0.00    -0.376 OA
BRANCH  28  29
ATOM     29  C   UNL A   1      37.529  32.251  34.990  1.00  0.00     0.202 C 
BRANCH  29  30
ATOM     30  C   UNL A   1      38.139  30.841  34.869  1.00  0.00     0.261 C 
BRANCH  30  31
ATOM     31  O   UNL A   1      37.750  30.059  33.723  1.00  0.00    -0.460 OA
BRANCH  31  32
ATOM     32  C   UNL A   1      37.694  30.717  32.536  1.00  0.00     0.338 C 
ATOM     33  O   UNL A   1      37.067  31.742  32.304  1.00  0.00    -0.246 OA
BRANCH  32  34
ATOM     34  C   UNL A   1      38.710  30.168  31.601  1.00  0.00     0.060 A 
ATOM     35  C   UNL A   1      39.568  29.145  32.049  1.00  0.00     0.016 A 
ATOM     36  C   UNL A   1      38.833  30.658  30.302  1.00  0.00     0.016 A 
ATOM     37  C   UNL A   1      40.571  28.642  31.221  1.00  0.00     0.010 A 
ATOM     38  C   UNL A   1      39.873  30.191  29.490  1.00  0.00     0.010 A 
ATOM     39  C   UNL A   1      40.773  29.217  29.965  1.00  0.00    -0.014 A 
BRANCH  39  40
ATOM     40  C   UNL A   1      42.080  29.037  29.285  1.00  0.00     0.031 A 
ATOM     41  C   UNL A   1      42.386  27.672  28.727  1.00  0.00     0.074 A 
ATOM     42  C   UNL A   1      42.964  30.039  29.144  1.00  0.00     0.049 A 
ATOM     43  N   UNL A   1      43.492  27.214  28.205  1.00  0.00    -0.248 NA
ATOM     44  C   UNL A   1      41.289  26.688  28.770  1.00  0.00     0.031 C 
ATOM     45  C   UNL A   1      42.755  31.419  29.571  1.00  0.00     0.029 A 
ATOM     46  N   UNL A   1      44.231  30.037  28.616  1.00  0.00    -0.354 N 
ATOM     47  C   UNL A   1      43.227  25.892  27.865  1.00  0.00     0.074 A 
ATOM     48  C   UNL A   1      41.868  25.610  28.270  1.00  0.00     0.031 C 
ATOM     49  C   UNL A   1      43.874  32.124  29.328  1.00  0.00     0.029 A 
ATOM     50  C   UNL A   1      44.887  31.237  28.756  1.00  0.00     0.049 A 
ATOM     51  H   UNL A   1      44.633  29.251  28.180  1.00  0.00     0.167 HD
ATOM     52  C   UNL A   1      44.039  24.995  27.259  1.00  0.00     0.037 A 
ATOM     53  C   UNL A   1      46.167  31.567  28.486  1.00  0.00     0.037 A 
ATOM     54  C   UNL A   1      45.394  25.280  26.869  1.00  0.00     0.049 A 
ATOM     55  C   UNL A   1      47.088  30.529  27.894  1.00  0.00     0.074 A 
ATOM     56  C   UNL A   1      46.310  24.437  26.267  1.00  0.00     0.029 A 
ATOM     57  N   UNL A   1      46.028  26.501  27.045  1.00  0.00    -0.354 N 
ATOM     58  N   UNL A   1      46.837  29.276  27.594  1.00  0.00    -0.248 NA
ATOM     59  C   UNL A   1      48.465  30.950  27.596  1.00  0.00     0.031 C 
ATOM     60  C   UNL A   1      47.513  25.133  26.120  1.00  0.00     0.029 A 
ATOM     61  C   UNL A   1      47.328  26.430  26.576  1.00  0.00     0.049 A 
ATOM     62  H   UNL A   1      45.614  27.300  27.445  1.00  0.00     0.167 HD
ATOM     63  C   UNL A   1      48.011  28.770  27.045  1.00  0.00     0.074 A 
ATOM     64  C   UNL A   1      48.972  29.854  27.048  1.00  0.00     0.031 C 
ATOM     65  C   UNL A   1      48.271  27.522  26.578  1.00  0.00     0.037 A 
BRANCH  52  66
ATOM     66  C   UNL A   1      43.488  23.620  27.003  1.00  0.00     0.058 A 
ATOM     67  C   UNL A   1      43.052  23.227  25.727  1.00  0.00     0.135 A 
ATOM     68  C   UNL A   1      43.422  22.674  28.039  1.00  0.00     0.135 A 
ATOM     69  F   UNL A   1      43.068  24.100  24.709  1.00  0.00    -0.206 F 
ATOM     70  C   UNL A   1      42.558  21.949  25.490  1.00  0.00     0.059 A 
ATOM     71  C   UNL A   1      42.958  21.381  27.818  1.00  0.00     0.059 A 
ATOM     72  F   UNL A   1      43.815  23.001  29.279  1.00  0.00    -0.206 F 
ATOM     73  C   UNL A   1      42.520  21.030  26.542  1.00  0.00     0.060 A 
BRANCH  73  74
ATOM     74  S   UNL A   1      41.900  19.369  26.209  1.00  0.00     0.124 S 
ATOM     75  O   UNL A   1      42.707  18.980  25.056  1.00  0.00    -0.237 OA
ATOM     76  O   UNL A   1      42.198  18.671  27.455  1.00  0.00    -0.237 OA
ATOM     77  O   UNL A   1      40.482  19.582  25.938  1.00  0.00    -0.744 OA
ENDBRANCH  73  74
ENDBRANCH  52  66
BRANCH  53  78
ATOM     78  C   UNL A   1      46.656  32.939  28.792  1.00  0.00     0.058 A 
ATOM     79  C   UNL A   1      46.578  33.968  27.842  1.00  0.00     0.135 A 
ATOM     80  C   UNL A   1      47.196  33.253  30.049  1.00  0.00     0.135 A 
ATOM     81  F   UNL A   1      46.086  33.716  26.619  1.00  0.00    -0.206 F 
ATOM     82  C   UNL A   1      47.020  35.258  28.124  1.00  0.00     0.059 A 
ATOM     83  C   UNL A   1      47.620  34.540  30.365  1.00  0.00     0.059 A 
ATOM     84  F   UNL A   1      47.292  32.307  30.996  1.00  0.00    -0.206 F 
ATOM     85  C   UNL A   1      47.530  35.536  29.393  1.00  0.00     0.060 A 
BRANCH  85  86
ATOM     86  S   UNL A   1      48.033  37.230  29.770  1.00  0.00     0.124 S 
ATOM     87  O   UNL A   1      48.072  37.829  28.442  1.00  0.00    -0.237 OA
ATOM     88  O   UNL A   1      46.952  37.679  30.643  1.00  0.00    -0.237 OA
ATOM     89  O   UNL A   1      49.325  37.058  30.426  1.00  0.00    -0.744 OA
ENDBRANCH  85  86
ENDBRANCH  53  78
BRANCH  65  90
ATOM     90  C   UNL A   1      49.631  27.262  25.988  1.00  0.00     0.058 A 
ATOM     91  C   UNL A   1      50.728  26.896  26.783  1.00  0.00     0.135 A 
ATOM     92  C   UNL A   1      49.821  27.314  24.597  1.00  0.00     0.135 A 
ATOM     93  F   UNL A   1      50.604  26.833  28.119  1.00  0.00    -0.206 F 
ATOM     94  C   UNL A   1      51.970  26.614  26.223  1.00  0.00     0.059 A 
ATOM     95  C   UNL A   1      51.045  27.007  24.012  1.00  0.00     0.059 A 
ATOM     96  F   UNL A   1      48.803  27.645  23.787  1.00  0.00    -0.206 F 
ATOM     97  C   UNL A   1      52.119  26.669  24.835  1.00  0.00     0.060 A 
BRANCH  97  98
ATOM     98  S   UNL A   1      53.728  26.268  24.121  1.00  0.00     0.124 S 
ATOM     99  O   UNL A   1      53.511  26.583  22.713  1.00  0.00    -0.237 OA
ATOM    100  O   UNL A   1      54.622  27.169  24.842  1.00  0.00    -0.237 OA
ATOM    101  O   UNL A   1      53.893  24.850  24.429  1.00  0.00    -0.744 OA
ENDBRANCH  97  98
ENDBRANCH  65  90
ENDBRANCH  39  40
ENDBRANCH  32  34
ENDBRANCH  31  32
ENDBRANCH  30  31
ENDBRANCH  29  30
ENDBRANCH  28  29
ENDBRANCH  27  28
ENDBRANCH  26  27
ENDBRANCH  25  26
ENDBRANCH  24  25
ENDBRANCH  23  24
ENDBRANCH  22  23
ENDBRANCH   1  22
TORSDOF 33
ENDMDL
