MODEL 1
REMARK VINA RESULT:     -11.2      0.000      0.000
REMARK SMILES C[NH+]1CCC([NH+]2CCC(Oc3ccc4ccccc4c3)(C(=O)OCCOCCOCCOC(=O)c3ccc(-c4c5nc(c(-c6c(F)cc(S(=O)(=O)[O-])cc6F)c6ccc([nH]6)c(-c6c(F)cc(S(=O)(=O)[O-])cc6F)c6nc(c(-c7c(F)cc(S(=O)(=O)[O-])cc7F)c7ccc4[nH]7)C=C6)C=C5)cc3)CC2)CC1
REMARK SMILES IDX 28 1 27 2 26 3 25 4 24 5 23 6 21 7 22 8 9 9 6 10 7 11 102 12
REMARK SMILES IDX 8 14 101 15 5 16 1 17 2 18 3 19 104 20 4 22 103 23 10 24
REMARK SMILES IDX 11 25 12 26 20 27 13 28 19 29 14 30 18 31 15 32 17 33 16 34
REMARK SMILES IDX 29 35 30 36 31 37 32 38 33 39 34 40 35 41 36 42 100 43 37 44
REMARK SMILES IDX 99 45 38 46 39 47 40 48 93 49 41 50 98 51 92 52 94 53 42 54
REMARK SMILES IDX 97 55 91 56 90 57 43 59 77 60 56 61 76 62 57 63 60 64 75 65
REMARK SMILES IDX 95 66 58 67 59 68 74 70 96 71 61 72 44 73 45 74 54 75 46 76
REMARK SMILES IDX 47 77 53 78 55 79 48 80 49 81 50 82 51 83 52 84 78 85 79 86
REMARK SMILES IDX 88 87 80 88 81 89 87 90 89 91 82 92 83 93 84 94 85 95 86 96
REMARK SMILES IDX 62 97 63 98 72 99 64 100 65 101 71 102 73 103 66 104 67 105
REMARK SMILES IDX 68 106 69 107 70 108
REMARK H PARENT 6 13 2 21 94 58 60 69
REMARK Flexibility Score: inf
ROOT
ATOM      1  C   UNL A   1      42.715  21.345  25.858  1.00  0.00     0.188 C 
ENDROOT
BRANCH   1   2
ATOM      2  C   UNL A   1      41.821  21.139  27.089  1.00  0.00     0.188 C 
BRANCH   2   3
ATOM      3  O   UNL A   1      40.421  21.074  26.899  1.00  0.00    -0.376 OA
BRANCH   3   4
ATOM      4  C   UNL A   1      39.740  22.241  26.462  1.00  0.00     0.202 C 
BRANCH   4   5
ATOM      5  C   UNL A   1      38.372  22.050  25.800  1.00  0.00     0.261 C 
BRANCH   5   6
ATOM      6  O   UNL A   1      37.528  23.226  25.864  1.00  0.00    -0.460 OA
BRANCH   6   7
ATOM      7  C   UNL A   1      36.643  23.410  24.834  1.00  0.00     0.351 C 
ATOM      8  O   UNL A   1      37.004  23.664  23.689  1.00  0.00    -0.247 OA
BRANCH   7   9
ATOM      9  C   UNL A   1      35.155  23.357  25.270  1.00  0.00     0.216 C 
ATOM     10  N   UNL A   1      33.652  20.755  25.071  1.00  0.00    -0.332 N 
ATOM     11  C   UNL A   1      34.412  21.043  26.292  1.00  0.00     0.267 C 
ATOM     12  C   UNL A   1      34.267  21.397  23.898  1.00  0.00     0.267 C 
ATOM     13  H   UNL A   1      32.728  21.161  25.216  1.00  0.00     0.348 HD
ATOM     14  C   UNL A   1      34.812  22.510  26.512  1.00  0.00     0.122 C 
ATOM     15  C   UNL A   1      34.301  22.921  24.060  1.00  0.00     0.122 C 
BRANCH  10  16
ATOM     16  C   UNL A   1      33.412  19.289  24.837  1.00  0.00     0.195 C 
ATOM     17  C   UNL A   1      33.490  14.970  25.157  1.00  0.00     0.332 C 
ATOM     18  N   UNL A   1      33.659  16.402  25.418  1.00  0.00    -0.337 N 
ATOM     19  C   UNL A   1      32.368  17.086  25.606  1.00  0.00     0.268 C 
ATOM     20  C   UNL A   1      34.401  17.016  24.321  1.00  0.00     0.268 C 
ATOM     21  H   UNL A   1      34.181  16.502  26.288  1.00  0.00     0.347 HD
ATOM     22  C   UNL A   1      32.550  18.594  25.911  1.00  0.00     0.126 C 
ATOM     23  C   UNL A   1      34.691  18.465  24.666  1.00  0.00     0.126 C 
ENDBRANCH  10  16
BRANCH   9  24
ATOM     24  O   UNL A   1      35.100  24.780  25.620  1.00  0.00    -0.475 OA
BRANCH  24  25
ATOM     25  C   UNL A   1      33.959  25.457  25.320  1.00  0.00     0.121 A 
ATOM     26  C   UNL A   1      32.828  25.337  26.118  1.00  0.00     0.047 A 
ATOM     27  C   UNL A   1      33.993  26.381  24.278  1.00  0.00     0.055 A 
ATOM     28  C   UNL A   1      31.679  26.056  25.811  1.00  0.00     0.012 A 
ATOM     29  C   UNL A   1      32.858  27.152  23.985  1.00  0.00    -0.015 A 
ATOM     30  C   UNL A   1      31.679  26.966  24.747  1.00  0.00    -0.018 A 
ATOM     31  C   UNL A   1      32.863  28.111  22.961  1.00  0.00     0.009 A 
ATOM     32  C   UNL A   1      30.532  27.710  24.444  1.00  0.00     0.009 A 
ATOM     33  C   UNL A   1      31.719  28.863  22.687  1.00  0.00     0.001 A 
ATOM     34  C   UNL A   1      30.554  28.655  23.420  1.00  0.00     0.001 A 
ENDBRANCH  24  25
ENDBRANCH   9  24
ENDBRANCH   7   9
ENDBRANCH   6   7
ENDBRANCH   5   6
ENDBRANCH   4   5
ENDBRANCH   3   4
ENDBRANCH   2   3
ENDBRANCH   1   2
BRANCH   1  35
ATOM     35  O   UNL A   1      43.681  22.377  25.830  1.00  0.00    -0.376 OA
BRANCH  35  36
ATOM     36  C   UNL A   1      43.555  23.318  24.772  1.00  0.00     0.202 C 
BRANCH  36  37
ATOM     37  C   UNL A   1      43.689  24.799  25.153  1.00  0.00     0.261 C 
BRANCH  37  38
ATOM     38  O   UNL A   1      42.416  25.472  25.229  1.00  0.00    -0.460 OA
BRANCH  38  39
ATOM     39  C   UNL A   1      42.507  26.808  25.450  1.00  0.00     0.338 C 
ATOM     40  O   UNL A   1      42.581  27.652  24.574  1.00  0.00    -0.246 OA
BRANCH  39  41
ATOM     41  C   UNL A   1      42.357  27.158  26.897  1.00  0.00     0.060 A 
ATOM     42  C   UNL A   1      41.584  26.411  27.786  1.00  0.00     0.016 A 
ATOM     43  C   UNL A   1      42.845  28.390  27.332  1.00  0.00     0.016 A 
ATOM     44  C   UNL A   1      41.146  26.956  28.997  1.00  0.00     0.010 A 
ATOM     45  C   UNL A   1      42.522  28.875  28.609  1.00  0.00     0.010 A 
ATOM     46  C   UNL A   1      41.625  28.187  29.444  1.00  0.00    -0.014 A 
BRANCH  46  47
ATOM     47  C   UNL A   1      41.211  28.768  30.756  1.00  0.00     0.031 A 
ATOM     48  C   UNL A   1      40.041  29.719  30.828  1.00  0.00     0.074 A 
ATOM     49  C   UNL A   1      41.889  28.486  31.889  1.00  0.00     0.049 A 
ATOM     50  N   UNL A   1      39.740  30.600  31.746  1.00  0.00    -0.248 NA
ATOM     51  C   UNL A   1      39.081  29.671  29.712  1.00  0.00     0.031 C 
ATOM     52  C   UNL A   1      42.963  27.499  32.026  1.00  0.00     0.029 A 
ATOM     53  N   UNL A   1      41.788  29.030  33.150  1.00  0.00    -0.354 N 
ATOM     54  C   UNL A   1      38.597  31.252  31.294  1.00  0.00     0.074 A 
ATOM     55  C   UNL A   1      38.242  30.648  30.028  1.00  0.00     0.031 C 
ATOM     56  C   UNL A   1      43.417  27.505  33.285  1.00  0.00     0.029 A 
ATOM     57  C   UNL A   1      42.770  28.591  34.008  1.00  0.00     0.049 A 
ATOM     58  H   UNL A   1      41.085  29.669  33.410  1.00  0.00     0.167 HD
ATOM     59  C   UNL A   1      37.929  32.279  31.874  1.00  0.00     0.037 A 
ATOM     60  C   UNL A   1      43.189  29.067  35.197  1.00  0.00     0.037 A 
ATOM     61  C   UNL A   1      38.289  32.853  33.147  1.00  0.00     0.049 A 
ATOM     62  C   UNL A   1      42.526  30.286  35.769  1.00  0.00     0.074 A 
ATOM     63  C   UNL A   1      37.700  33.913  33.814  1.00  0.00     0.029 A 
ATOM     64  N   UNL A   1      39.330  32.408  33.948  1.00  0.00    -0.354 N 
ATOM     65  N   UNL A   1      41.522  30.979  35.284  1.00  0.00    -0.248 NA
ATOM     66  C   UNL A   1      43.070  30.808  37.028  1.00  0.00     0.031 C 
ATOM     67  C   UNL A   1      38.417  34.141  34.994  1.00  0.00     0.029 A 
ATOM     68  C   UNL A   1      39.418  33.187  35.090  1.00  0.00     0.049 A 
ATOM     69  H   UNL A   1      39.922  31.651  33.736  1.00  0.00     0.167 HD
ATOM     70  C   UNL A   1      41.305  32.010  36.190  1.00  0.00     0.074 A 
ATOM     71  C   UNL A   1      42.273  31.843  37.255  1.00  0.00     0.031 C 
ATOM     72  C   UNL A   1      40.387  33.006  36.142  1.00  0.00     0.037 A 
BRANCH  59  73
ATOM     73  C   UNL A   1      36.787  32.903  31.115  1.00  0.00     0.058 A 
ATOM     74  C   UNL A   1      35.448  32.733  31.495  1.00  0.00     0.135 A 
ATOM     75  C   UNL A   1      37.052  33.731  30.010  1.00  0.00     0.135 A 
ATOM     76  F   UNL A   1      35.133  31.939  32.530  1.00  0.00    -0.206 F 
ATOM     77  C   UNL A   1      34.410  33.349  30.797  1.00  0.00     0.059 A 
ATOM     78  C   UNL A   1      36.034  34.373  29.312  1.00  0.00     0.059 A 
ATOM     79  F   UNL A   1      38.316  33.924  29.600  1.00  0.00    -0.206 F 
ATOM     80  C   UNL A   1      34.715  34.168  29.706  1.00  0.00     0.060 A 
BRANCH  80  81
ATOM     81  S   UNL A   1      33.360  34.960  28.812  1.00  0.00     0.124 S 
ATOM     82  O   UNL A   1      33.991  36.197  28.364  1.00  0.00    -0.237 OA
ATOM     83  O   UNL A   1      33.061  33.986  27.768  1.00  0.00    -0.237 OA
ATOM     84  O   UNL A   1      32.326  35.119  29.831  1.00  0.00    -0.744 OA
ENDBRANCH  80  81
ENDBRANCH  59  73
BRANCH  60  85
ATOM     85  C   UNL A   1      44.368  28.448  35.862  1.00  0.00     0.058 A 
ATOM     86  C   UNL A   1      44.225  27.349  36.719  1.00  0.00     0.135 A 
ATOM     87  C   UNL A   1      45.670  28.922  35.619  1.00  0.00     0.135 A 
ATOM     88  F   UNL A   1      43.002  26.871  36.997  1.00  0.00    -0.206 F 
ATOM     89  C   UNL A   1      45.327  26.736  37.306  1.00  0.00     0.059 A 
ATOM     90  C   UNL A   1      46.789  28.305  36.167  1.00  0.00     0.059 A 
ATOM     91  F   UNL A   1      45.864  29.967  34.800  1.00  0.00    -0.206 F 
ATOM     92  C   UNL A   1      46.606  27.215  37.016  1.00  0.00     0.060 A 
BRANCH  92  93
ATOM     93  S   UNL A   1      48.036  26.367  37.722  1.00  0.00     0.124 S 
ATOM     94  O   UNL A   1      47.674  24.969  37.522  1.00  0.00    -0.237 OA
ATOM     95  O   UNL A   1      49.130  26.869  36.895  1.00  0.00    -0.237 OA
ATOM     96  O   UNL A   1      48.046  26.827  39.108  1.00  0.00    -0.744 OA
ENDBRANCH  92  93
ENDBRANCH  60  85
BRANCH  72  97
ATOM     97  C   UNL A   1      40.357  33.968  37.296  1.00  0.00     0.058 A 
ATOM     98  C   UNL A   1      41.146  35.127  37.312  1.00  0.00     0.135 A 
ATOM     99  C   UNL A   1      39.498  33.741  38.383  1.00  0.00     0.135 A 
ATOM    100  F   UNL A   1      41.991  35.383  36.301  1.00  0.00    -0.206 F 
ATOM    101  C   UNL A   1      41.101  36.019  38.378  1.00  0.00     0.059 A 
ATOM    102  C   UNL A   1      39.418  34.633  39.447  1.00  0.00     0.059 A 
ATOM    103  F   UNL A   1      38.718  32.649  38.412  1.00  0.00    -0.206 F 
ATOM    104  C   UNL A   1      40.232  35.763  39.440  1.00  0.00     0.060 A 
BRANCH 104 105
ATOM    105  S   UNL A   1      40.161  36.944  40.803  1.00  0.00     0.124 S 
ATOM    106  O   UNL A   1      38.777  37.397  40.729  1.00  0.00    -0.237 OA
ATOM    107  O   UNL A   1      40.496  36.113  41.956  1.00  0.00    -0.237 OA
ATOM    108  O   UNL A   1      41.168  37.939  40.443  1.00  0.00    -0.744 OA
ENDBRANCH 104 105
ENDBRANCH  72  97
ENDBRANCH  46  47
ENDBRANCH  39  41
ENDBRANCH  38  39
ENDBRANCH  37  38
ENDBRANCH  36  37
ENDBRANCH  35  36
ENDBRANCH   1  35
TORSDOF 23
ENDMDL
MODEL 2
REMARK VINA RESULT:     -11.0      5.119      9.707
REMARK SMILES C[NH+]1CCC([NH+]2CCC(Oc3ccc4ccccc4c3)(C(=O)OCCOCCOCCOC(=O)c3ccc(-c4c5nc(c(-c6c(F)cc(S(=O)(=O)[O-])cc6F)c6ccc([nH]6)c(-c6c(F)cc(S(=O)(=O)[O-])cc6F)c6nc(c(-c7c(F)cc(S(=O)(=O)[O-])cc7F)c7ccc4[nH]7)C=C6)C=C5)cc3)CC2)CC1
REMARK SMILES IDX 28 1 27 2 26 3 25 4 24 5 23 6 21 7 22 8 9 9 6 10 7 11 102 12
REMARK SMILES IDX 8 14 101 15 5 16 1 17 2 18 3 19 104 20 4 22 103 23 10 24
REMARK SMILES IDX 11 25 12 26 20 27 13 28 19 29 14 30 18 31 15 32 17 33 16 34
REMARK SMILES IDX 29 35 30 36 31 37 32 38 33 39 34 40 35 41 36 42 100 43 37 44
REMARK SMILES IDX 99 45 38 46 39 47 40 48 93 49 41 50 98 51 92 52 94 53 42 54
REMARK SMILES IDX 97 55 91 56 90 57 43 59 77 60 56 61 76 62 57 63 60 64 75 65
REMARK SMILES IDX 95 66 58 67 59 68 74 70 96 71 61 72 44 73 45 74 54 75 46 76
REMARK SMILES IDX 47 77 53 78 55 79 48 80 49 81 50 82 51 83 52 84 78 85 79 86
REMARK SMILES IDX 88 87 80 88 81 89 87 90 89 91 82 92 83 93 84 94 85 95 86 96
REMARK SMILES IDX 62 97 63 98 72 99 64 100 65 101 71 102 73 103 66 104 67 105
REMARK SMILES IDX 68 106 69 107 70 108
REMARK H PARENT 6 13 2 21 94 58 60 69
REMARK Flexibility Score: inf
ROOT
ATOM      1  C   UNL A   1      31.251  27.582  26.519  1.00  0.00     0.188 C 
ENDROOT
BRANCH   1   2
ATOM      2  C   UNL A   1      31.997  26.242  26.449  1.00  0.00     0.188 C 
BRANCH   2   3
ATOM      3  O   UNL A   1      31.322  25.073  26.870  1.00  0.00    -0.376 OA
BRANCH   3   4
ATOM      4  C   UNL A   1      30.655  24.285  25.895  1.00  0.00     0.202 C 
BRANCH   4   5
ATOM      5  C   UNL A   1      31.298  22.950  25.510  1.00  0.00     0.261 C 
BRANCH   5   6
ATOM      6  O   UNL A   1      32.713  23.051  25.216  1.00  0.00    -0.460 OA
BRANCH   6   7
ATOM      7  C   UNL A   1      33.093  22.844  23.917  1.00  0.00     0.351 C 
ATOM      8  O   UNL A   1      32.579  21.985  23.206  1.00  0.00    -0.247 OA
BRANCH   7   9
ATOM      9  C   UNL A   1      34.284  23.729  23.463  1.00  0.00     0.216 C 
ATOM     10  N   UNL A   1      36.880  23.602  24.985  1.00  0.00    -0.332 N 
ATOM     11  C   UNL A   1      36.653  22.653  23.890  1.00  0.00     0.267 C 
ATOM     12  C   UNL A   1      35.612  23.987  25.627  1.00  0.00     0.267 C 
ATOM     13  H   UNL A   1      37.290  24.431  24.554  1.00  0.00     0.348 HD
ATOM     14  C   UNL A   1      35.528  23.009  22.906  1.00  0.00     0.122 C 
ATOM     15  C   UNL A   1      34.673  24.669  24.625  1.00  0.00     0.122 C 
BRANCH  10  16
ATOM     16  C   UNL A   1      37.891  23.134  25.994  1.00  0.00     0.195 C 
ATOM     17  C   UNL A   1      41.591  22.000  27.940  1.00  0.00     0.332 C 
ATOM     18  N   UNL A   1      40.606  22.520  26.989  1.00  0.00    -0.337 N 
ATOM     19  C   UNL A   1      39.860  23.665  27.537  1.00  0.00     0.268 C 
ATOM     20  C   UNL A   1      39.684  21.454  26.605  1.00  0.00     0.268 C 
ATOM     21  H   UNL A   1      41.109  22.855  26.168  1.00  0.00     0.347 HD
ATOM     22  C   UNL A   1      38.839  24.233  26.518  1.00  0.00     0.126 C 
ATOM     23  C   UNL A   1      38.757  21.966  25.517  1.00  0.00     0.126 C 
ENDBRANCH  10  16
BRANCH   9  24
ATOM     24  O   UNL A   1      33.540  24.343  22.358  1.00  0.00    -0.475 OA
BRANCH  24  25
ATOM     25  C   UNL A   1      33.014  25.580  22.565  1.00  0.00     0.121 A 
ATOM     26  C   UNL A   1      33.800  26.719  22.439  1.00  0.00     0.047 A 
ATOM     27  C   UNL A   1      31.640  25.689  22.768  1.00  0.00     0.055 A 
ATOM     28  C   UNL A   1      33.239  27.976  22.628  1.00  0.00     0.012 A 
ATOM     29  C   UNL A   1      31.050  26.953  22.912  1.00  0.00    -0.015 A 
ATOM     30  C   UNL A   1      31.867  28.109  22.867  1.00  0.00    -0.018 A 
ATOM     31  C   UNL A   1      29.666  27.103  23.091  1.00  0.00     0.009 A 
ATOM     32  C   UNL A   1      31.291  29.373  23.038  1.00  0.00     0.009 A 
ATOM     33  C   UNL A   1      29.103  28.373  23.236  1.00  0.00     0.001 A 
ATOM     34  C   UNL A   1      29.915  29.504  23.219  1.00  0.00     0.001 A 
ENDBRANCH  24  25
ENDBRANCH   9  24
ENDBRANCH   7   9
ENDBRANCH   6   7
ENDBRANCH   5   6
ENDBRANCH   4   5
ENDBRANCH   3   4
ENDBRANCH   2   3
ENDBRANCH   1   2
BRANCH   1  35
ATOM     35  O   UNL A   1      31.611  28.562  27.473  1.00  0.00    -0.376 OA
BRANCH  35  36
ATOM     36  C   UNL A   1      31.958  29.838  26.951  1.00  0.00     0.202 C 
BRANCH  36  37
ATOM     37  C   UNL A   1      33.428  30.043  26.560  1.00  0.00     0.261 C 
BRANCH  37  38
ATOM     38  O   UNL A   1      34.343  29.434  27.493  1.00  0.00    -0.460 OA
BRANCH  38  39
ATOM     39  C   UNL A   1      35.059  30.322  28.227  1.00  0.00     0.338 C 
ATOM     40  O   UNL A   1      34.601  31.329  28.738  1.00  0.00    -0.246 OA
BRANCH  39  41
ATOM     41  C   UNL A   1      36.461  29.859  28.474  1.00  0.00     0.060 A 
ATOM     42  C   UNL A   1      36.925  29.469  29.730  1.00  0.00     0.016 A 
ATOM     43  C   UNL A   1      37.396  30.010  27.450  1.00  0.00     0.016 A 
ATOM     44  C   UNL A   1      38.294  29.423  30.012  1.00  0.00     0.010 A 
ATOM     45  C   UNL A   1      38.764  29.822  27.700  1.00  0.00     0.010 A 
ATOM     46  C   UNL A   1      39.240  29.574  28.998  1.00  0.00    -0.014 A 
BRANCH  46  47
ATOM     47  C   UNL A   1      40.707  29.480  29.264  1.00  0.00     0.031 A 
ATOM     48  C   UNL A   1      41.428  30.620  29.943  1.00  0.00     0.074 A 
ATOM     49  C   UNL A   1      41.419  28.400  28.877  1.00  0.00     0.049 A 
ATOM     50  N   UNL A   1      42.702  30.914  29.945  1.00  0.00    -0.248 NA
ATOM     51  C   UNL A   1      40.600  31.554  30.724  1.00  0.00     0.031 C 
ATOM     52  C   UNL A   1      40.868  27.162  28.320  1.00  0.00     0.029 A 
ATOM     53  N   UNL A   1      42.778  28.182  28.869  1.00  0.00    -0.354 N 
ATOM     54  C   UNL A   1      42.822  32.096  30.670  1.00  0.00     0.074 A 
ATOM     55  C   UNL A   1      41.493  32.453  31.116  1.00  0.00     0.031 C 
ATOM     56  C   UNL A   1      41.868  26.320  28.030  1.00  0.00     0.029 A 
ATOM     57  C   UNL A   1      43.133  27.009  28.243  1.00  0.00     0.049 A 
ATOM     58  H   UNL A   1      43.429  28.802  29.270  1.00  0.00     0.167 HD
ATOM     59  C   UNL A   1      43.940  32.824  30.912  1.00  0.00     0.037 A 
ATOM     60  C   UNL A   1      44.322  26.572  27.785  1.00  0.00     0.037 A 
ATOM     61  C   UNL A   1      45.259  32.439  30.476  1.00  0.00     0.049 A 
ATOM     62  C   UNL A   1      45.531  27.446  27.942  1.00  0.00     0.074 A 
ATOM     63  C   UNL A   1      46.455  33.115  30.641  1.00  0.00     0.029 A 
ATOM     64  N   UNL A   1      45.555  31.268  29.792  1.00  0.00    -0.354 N 
ATOM     65  N   UNL A   1      45.626  28.620  28.521  1.00  0.00    -0.248 NA
ATOM     66  C   UNL A   1      46.786  26.956  27.359  1.00  0.00     0.031 C 
ATOM     67  C   UNL A   1      47.466  32.377  30.013  1.00  0.00     0.029 A 
ATOM     68  C   UNL A   1      46.908  31.214  29.505  1.00  0.00     0.049 A 
ATOM     69  H   UNL A   1      44.898  30.578  29.545  1.00  0.00     0.167 HD
ATOM     70  C   UNL A   1      46.955  29.001  28.384  1.00  0.00     0.074 A 
ATOM     71  C   UNL A   1      47.628  27.929  27.680  1.00  0.00     0.031 C 
ATOM     72  C   UNL A   1      47.563  30.138  28.804  1.00  0.00     0.037 A 
BRANCH  59  73
ATOM     73  C   UNL A   1      43.787  34.146  31.618  1.00  0.00     0.058 A 
ATOM     74  C   UNL A   1      43.865  34.270  33.012  1.00  0.00     0.135 A 
ATOM     75  C   UNL A   1      43.608  35.322  30.868  1.00  0.00     0.135 A 
ATOM     76  F   UNL A   1      44.016  33.180  33.781  1.00  0.00    -0.206 F 
ATOM     77  C   UNL A   1      43.755  35.509  33.640  1.00  0.00     0.059 A 
ATOM     78  C   UNL A   1      43.518  36.572  31.471  1.00  0.00     0.059 A 
ATOM     79  F   UNL A   1      43.523  35.261  29.529  1.00  0.00    -0.206 F 
ATOM     80  C   UNL A   1      43.581  36.655  32.860  1.00  0.00     0.060 A 
BRANCH  80  81
ATOM     81  S   UNL A   1      43.441  38.255  33.687  1.00  0.00     0.124 S 
ATOM     82  O   UNL A   1      42.334  38.011  34.606  1.00  0.00    -0.237 OA
ATOM     83  O   UNL A   1      44.755  38.405  34.303  1.00  0.00    -0.237 OA
ATOM     84  O   UNL A   1      43.154  39.180  32.594  1.00  0.00    -0.744 OA
ENDBRANCH  80  81
ENDBRANCH  59  73
BRANCH  60  85
ATOM     85  C   UNL A   1      44.393  25.287  27.034  1.00  0.00     0.058 A 
ATOM     86  C   UNL A   1      44.090  25.228  25.667  1.00  0.00     0.135 A 
ATOM     87  C   UNL A   1      44.805  24.100  27.665  1.00  0.00     0.135 A 
ATOM     88  F   UNL A   1      43.675  26.330  25.024  1.00  0.00    -0.206 F 
ATOM     89  C   UNL A   1      44.200  24.040  24.950  1.00  0.00     0.059 A 
ATOM     90  C   UNL A   1      44.955  22.910  26.962  1.00  0.00     0.059 A 
ATOM     91  F   UNL A   1      45.114  24.104  28.971  1.00  0.00    -0.206 F 
ATOM     92  C   UNL A   1      44.643  22.889  25.604  1.00  0.00     0.060 A 
BRANCH  92  93
ATOM     93  S   UNL A   1      44.855  21.371  24.649  1.00  0.00     0.124 S 
ATOM     94  O   UNL A   1      46.203  20.970  25.033  1.00  0.00    -0.237 OA
ATOM     95  O   UNL A   1      43.770  20.536  25.155  1.00  0.00    -0.237 OA
ATOM     96  O   UNL A   1      44.698  21.821  23.268  1.00  0.00    -0.744 OA
ENDBRANCH  92  93
ENDBRANCH  60  85
BRANCH  72  97
ATOM     97  C   UNL A   1      49.039  30.261  28.550  1.00  0.00     0.058 A 
ATOM     98  C   UNL A   1      49.984  29.627  29.371  1.00  0.00     0.135 A 
ATOM     99  C   UNL A   1      49.508  30.993  27.449  1.00  0.00     0.135 A 
ATOM    100  F   UNL A   1      49.586  28.924  30.443  1.00  0.00    -0.206 F 
ATOM    101  C   UNL A   1      51.347  29.735  29.120  1.00  0.00     0.059 A 
ATOM    102  C   UNL A   1      50.865  31.092  27.164  1.00  0.00     0.059 A 
ATOM    103  F   UNL A   1      48.642  31.612  26.630  1.00  0.00    -0.206 F 
ATOM    104  C   UNL A   1      51.778  30.468  28.013  1.00  0.00     0.060 A 
BRANCH 104 105
ATOM    105  S   UNL A   1      53.549  30.575  27.680  1.00  0.00     0.124 S 
ATOM    106  O   UNL A   1      53.703  31.988  27.355  1.00  0.00    -0.237 OA
ATOM    107  O   UNL A   1      54.132  30.148  28.949  1.00  0.00    -0.237 OA
ATOM    108  O   UNL A   1      53.741  29.649  26.568  1.00  0.00    -0.744 OA
ENDBRANCH 104 105
ENDBRANCH  72  97
ENDBRANCH  46  47
ENDBRANCH  39  41
ENDBRANCH  38  39
ENDBRANCH  37  38
ENDBRANCH  36  37
ENDBRANCH  35  36
ENDBRANCH   1  35
TORSDOF 23
ENDMDL
MODEL 3
REMARK VINA RESULT:     -10.8      2.696      8.427
REMARK SMILES C[NH+]1CCC([NH+]2CCC(Oc3ccc4ccccc4c3)(C(=O)OCCOCCOCCOC(=O)c3ccc(-c4c5nc(c(-c6c(F)cc(S(=O)(=O)[O-])cc6F)c6ccc([nH]6)c(-c6c(F)cc(S(=O)(=O)[O-])cc6F)c6nc(c(-c7c(F)cc(S(=O)(=O)[O-])cc7F)c7ccc4[nH]7)C=C6)C=C5)cc3)CC2)CC1
REMARK SMILES IDX 28 1 27 2 26 3 25 4 24 5 23 6 21 7 22 8 9 9 6 10 7 11 102 12
REMARK SMILES IDX 8 14 101 15 5 16 1 17 2 18 3 19 104 20 4 22 103 23 10 24
REMARK SMILES IDX 11 25 12 26 20 27 13 28 19 29 14 30 18 31 15 32 17 33 16 34
REMARK SMILES IDX 29 35 30 36 31 37 32 38 33 39 34 40 35 41 36 42 100 43 37 44
REMARK SMILES IDX 99 45 38 46 39 47 40 48 93 49 41 50 98 51 92 52 94 53 42 54
REMARK SMILES IDX 97 55 91 56 90 57 43 59 77 60 56 61 76 62 57 63 60 64 75 65
REMARK SMILES IDX 95 66 58 67 59 68 74 70 96 71 61 72 44 73 45 74 54 75 46 76
REMARK SMILES IDX 47 77 53 78 55 79 48 80 49 81 50 82 51 83 52 84 78 85 79 86
REMARK SMILES IDX 88 87 80 88 81 89 87 90 89 91 82 92 83 93 84 94 85 95 86 96
REMARK SMILES IDX 62 97 63 98 72 99 64 100 65 101 71 102 73 103 66 104 67 105
REMARK SMILES IDX 68 106 69 107 70 108
REMARK H PARENT 6 13 2 21 94 58 60 69
REMARK Flexibility Score: inf
ROOT
ATOM      1  C   UNL A   1      32.026  28.104  27.423  1.00  0.00     0.188 C 
ENDROOT
BRANCH   1   2
ATOM      2  C   UNL A   1      31.285  27.086  26.545  1.00  0.00     0.188 C 
BRANCH   2   3
ATOM      3  O   UNL A   1      31.391  25.713  26.870  1.00  0.00    -0.376 OA
BRANCH   3   4
ATOM      4  C   UNL A   1      30.303  24.856  26.559  1.00  0.00     0.202 C 
BRANCH   4   5
ATOM      5  C   UNL A   1      30.604  23.360  26.424  1.00  0.00     0.261 C 
BRANCH   5   6
ATOM      6  O   UNL A   1      32.006  23.068  26.203  1.00  0.00    -0.460 OA
BRANCH   6   7
ATOM      7  C   UNL A   1      32.330  22.435  25.032  1.00  0.00     0.351 C 
ATOM      8  O   UNL A   1      32.049  21.259  24.816  1.00  0.00    -0.247 OA
BRANCH   7   9
ATOM      9  C   UNL A   1      33.155  23.310  24.053  1.00  0.00     0.216 C 
ATOM     10  N   UNL A   1      36.127  23.579  24.462  1.00  0.00    -0.332 N 
ATOM     11  C   UNL A   1      35.620  22.460  23.660  1.00  0.00     0.267 C 
ATOM     12  C   UNL A   1      35.154  23.980  25.492  1.00  0.00     0.267 C 
ATOM     13  H   UNL A   1      36.249  24.355  23.811  1.00  0.00     0.348 HD
ATOM     14  C   UNL A   1      34.176  22.591  23.150  1.00  0.00     0.122 C 
ATOM     15  C   UNL A   1      33.837  24.440  24.855  1.00  0.00     0.122 C 
BRANCH  10  16
ATOM     16  C   UNL A   1      37.488  23.335  25.052  1.00  0.00     0.195 C 
ATOM     17  C   UNL A   1      40.715  22.287  27.744  1.00  0.00     0.332 C 
ATOM     18  N   UNL A   1      39.394  22.461  27.134  1.00  0.00    -0.337 N 
ATOM     19  C   UNL A   1      39.254  21.687  25.890  1.00  0.00     0.268 C 
ATOM     20  C   UNL A   1      39.156  23.879  26.877  1.00  0.00     0.268 C 
ATOM     21  H   UNL A   1      38.697  22.107  27.789  1.00  0.00     0.347 HD
ATOM     22  C   UNL A   1      37.846  21.849  25.261  1.00  0.00     0.126 C 
ATOM     23  C   UNL A   1      37.736  24.062  26.376  1.00  0.00     0.126 C 
ENDBRANCH  10  16
BRANCH   9  24
ATOM     24  O   UNL A   1      31.988  23.700  23.255  1.00  0.00    -0.475 OA
BRANCH  24  25
ATOM     25  C   UNL A   1      31.778  25.029  23.056  1.00  0.00     0.121 A 
ATOM     26  C   UNL A   1      32.742  25.818  22.441  1.00  0.00     0.047 A 
ATOM     27  C   UNL A   1      30.522  25.552  23.354  1.00  0.00     0.055 A 
ATOM     28  C   UNL A   1      32.500  27.169  22.222  1.00  0.00     0.012 A 
ATOM     29  C   UNL A   1      30.244  26.903  23.094  1.00  0.00    -0.015 A 
ATOM     30  C   UNL A   1      31.257  27.725  22.545  1.00  0.00    -0.018 A 
ATOM     31  C   UNL A   1      28.982  27.458  23.356  1.00  0.00     0.009 A 
ATOM     32  C   UNL A   1      30.998  29.081  22.308  1.00  0.00     0.009 A 
ATOM     33  C   UNL A   1      28.732  28.806  23.092  1.00  0.00     0.001 A 
ATOM     34  C   UNL A   1      29.740  29.617  22.578  1.00  0.00     0.001 A 
ENDBRANCH  24  25
ENDBRANCH   9  24
ENDBRANCH   7   9
ENDBRANCH   6   7
ENDBRANCH   5   6
ENDBRANCH   4   5
ENDBRANCH   3   4
ENDBRANCH   2   3
ENDBRANCH   1   2
BRANCH   1  35
ATOM     35  O   UNL A   1      33.162  28.790  26.935  1.00  0.00    -0.376 OA
BRANCH  35  36
ATOM     36  C   UNL A   1      32.971  30.165  26.624  1.00  0.00     0.202 C 
BRANCH  36  37
ATOM     37  C   UNL A   1      33.937  31.157  27.286  1.00  0.00     0.261 C 
BRANCH  37  38
ATOM     38  O   UNL A   1      33.291  31.994  28.267  1.00  0.00    -0.460 OA
BRANCH  38  39
ATOM     39  C   UNL A   1      33.829  33.234  28.379  1.00  0.00     0.338 C 
ATOM     40  O   UNL A   1      33.343  34.247  27.907  1.00  0.00    -0.246 OA
BRANCH  39  41
ATOM     41  C   UNL A   1      35.024  33.257  29.280  1.00  0.00     0.060 A 
ATOM     42  C   UNL A   1      36.177  33.990  28.998  1.00  0.00     0.016 A 
ATOM     43  C   UNL A   1      35.067  32.355  30.344  1.00  0.00     0.016 A 
ATOM     44  C   UNL A   1      37.392  33.694  29.624  1.00  0.00     0.010 A 
ATOM     45  C   UNL A   1      36.253  32.164  31.069  1.00  0.00     0.010 A 
ATOM     46  C   UNL A   1      37.450  32.794  30.688  1.00  0.00    -0.014 A 
BRANCH  46  47
ATOM     47  C   UNL A   1      38.726  32.498  31.406  1.00  0.00     0.031 A 
ATOM     48  C   UNL A   1      39.670  31.449  30.871  1.00  0.00     0.074 A 
ATOM     49  C   UNL A   1      39.043  33.132  32.555  1.00  0.00     0.049 A 
ATOM     50  N   UNL A   1      40.611  30.784  31.490  1.00  0.00    -0.248 NA
ATOM     51  C   UNL A   1      39.533  31.101  29.448  1.00  0.00     0.031 C 
ATOM     52  C   UNL A   1      38.311  34.253  33.149  1.00  0.00     0.029 A 
ATOM     53  N   UNL A   1      40.062  32.900  33.452  1.00  0.00    -0.354 N 
ATOM     54  C   UNL A   1      41.136  29.899  30.553  1.00  0.00     0.074 A 
ATOM     55  C   UNL A   1      40.425  30.128  29.314  1.00  0.00     0.031 C 
ATOM     56  C   UNL A   1      38.898  34.611  34.298  1.00  0.00     0.029 A 
ATOM     57  C   UNL A   1      39.957  33.657  34.596  1.00  0.00     0.049 A 
ATOM     58  H   UNL A   1      40.790  32.257  33.291  1.00  0.00     0.167 HD
ATOM     59  C   UNL A   1      42.103  28.965  30.727  1.00  0.00     0.037 A 
ATOM     60  C   UNL A   1      40.558  33.541  35.796  1.00  0.00     0.037 A 
ATOM     61  C   UNL A   1      42.813  28.767  31.966  1.00  0.00     0.049 A 
ATOM     62  C   UNL A   1      41.531  32.421  36.019  1.00  0.00     0.074 A 
ATOM     63  C   UNL A   1      43.790  27.833  32.262  1.00  0.00     0.029 A 
ATOM     64  N   UNL A   1      42.626  29.524  33.114  1.00  0.00    -0.354 N 
ATOM     65  N   UNL A   1      41.940  31.507  35.171  1.00  0.00    -0.248 NA
ATOM     66  C   UNL A   1      42.101  32.295  37.366  1.00  0.00     0.031 C 
ATOM     67  C   UNL A   1      44.157  27.992  33.604  1.00  0.00     0.029 A 
ATOM     68  C   UNL A   1      43.449  29.063  34.127  1.00  0.00     0.049 A 
ATOM     69  H   UNL A   1      41.999  30.279  33.197  1.00  0.00     0.167 HD
ATOM     70  C   UNL A   1      42.827  30.706  35.879  1.00  0.00     0.074 A 
ATOM     71  C   UNL A   1      42.904  31.250  37.219  1.00  0.00     0.031 C 
ATOM     72  C   UNL A   1      43.515  29.617  35.457  1.00  0.00     0.037 A 
BRANCH  59  73
ATOM     73  C   UNL A   1      42.404  28.033  29.583  1.00  0.00     0.058 A 
ATOM     74  C   UNL A   1      41.518  27.024  29.180  1.00  0.00     0.135 A 
ATOM     75  C   UNL A   1      43.590  28.193  28.844  1.00  0.00     0.135 A 
ATOM     76  F   UNL A   1      40.379  26.812  29.858  1.00  0.00    -0.206 F 
ATOM     77  C   UNL A   1      41.803  26.195  28.096  1.00  0.00     0.059 A 
ATOM     78  C   UNL A   1      43.886  27.393  27.746  1.00  0.00     0.059 A 
ATOM     79  F   UNL A   1      44.476  29.142  29.189  1.00  0.00    -0.206 F 
ATOM     80  C   UNL A   1      42.991  26.389  27.385  1.00  0.00     0.060 A 
BRANCH  80  81
ATOM     81  S   UNL A   1      43.347  25.308  25.982  1.00  0.00     0.124 S 
ATOM     82  O   UNL A   1      43.927  24.147  26.649  1.00  0.00    -0.237 OA
ATOM     83  O   UNL A   1      42.025  25.109  25.397  1.00  0.00    -0.237 OA
ATOM     84  O   UNL A   1      44.276  26.094  25.174  1.00  0.00    -0.744 OA
ENDBRANCH  80  81
ENDBRANCH  59  73
BRANCH  60  85
ATOM     85  C   UNL A   1      40.163  34.451  36.907  1.00  0.00     0.058 A 
ATOM     86  C   UNL A   1      39.223  34.058  37.868  1.00  0.00     0.135 A 
ATOM     87  C   UNL A   1      40.752  35.720  37.049  1.00  0.00     0.135 A 
ATOM     88  F   UNL A   1      38.619  32.864  37.766  1.00  0.00    -0.206 F 
ATOM     89  C   UNL A   1      38.885  34.885  38.935  1.00  0.00     0.059 A 
ATOM     90  C   UNL A   1      40.456  36.550  38.125  1.00  0.00     0.059 A 
ATOM     91  F   UNL A   1      41.665  36.142  36.160  1.00  0.00    -0.206 F 
ATOM     92  C   UNL A   1      39.514  36.125  39.060  1.00  0.00     0.060 A 
BRANCH  92  93
ATOM     93  S   UNL A   1      39.126  37.159  40.489  1.00  0.00     0.124 S 
ATOM     94  O   UNL A   1      38.526  36.189  41.397  1.00  0.00    -0.237 OA
ATOM     95  O   UNL A   1      40.442  37.664  40.869  1.00  0.00    -0.237 OA
ATOM     96  O   UNL A   1      38.215  38.159  39.939  1.00  0.00    -0.744 OA
ENDBRANCH  92  93
ENDBRANCH  60  85
BRANCH  72  97
ATOM     97  C   UNL A   1      44.444  28.967  36.443  1.00  0.00     0.058 A 
ATOM     98  C   UNL A   1      45.727  29.476  36.694  1.00  0.00     0.135 A 
ATOM     99  C   UNL A   1      44.028  27.841  37.171  1.00  0.00     0.135 A 
ATOM    100  F   UNL A   1      46.176  30.544  36.016  1.00  0.00    -0.206 F 
ATOM    101  C   UNL A   1      46.575  28.877  37.619  1.00  0.00     0.059 A 
ATOM    102  C   UNL A   1      44.849  27.242  38.119  1.00  0.00     0.059 A 
ATOM    103  F   UNL A   1      42.806  27.321  36.970  1.00  0.00    -0.206 F 
ATOM    104  C   UNL A   1      46.126  27.760  38.328  1.00  0.00     0.060 A 
BRANCH 104 105
ATOM    105  S   UNL A   1      47.224  27.010  39.547  1.00  0.00     0.124 S 
ATOM    106  O   UNL A   1      48.215  26.365  38.693  1.00  0.00    -0.237 OA
ATOM    107  O   UNL A   1      47.694  28.169  40.301  1.00  0.00    -0.237 OA
ATOM    108  O   UNL A   1      46.346  26.106  40.285  1.00  0.00    -0.744 OA
ENDBRANCH 104 105
ENDBRANCH  72  97
ENDBRANCH  46  47
ENDBRANCH  39  41
ENDBRANCH  38  39
ENDBRANCH  37  38
ENDBRANCH  36  37
ENDBRANCH  35  36
ENDBRANCH   1  35
TORSDOF 23
ENDMDL
