MODEL 1
REMARK VINA RESULT:     -12.9      0.000      0.000
REMARK SMILES Cc1cc(C(=O)OCCOCCOCCOC(=O)c2ccc(-c3c4nc(c(-c5c(F)cc(S(=O)(=O)[O-])cc5F)c5ccc([nH]5)c(-c5c(F)cc(S(=O)(=O)[O-])cc5F)c5nc(c(-c6c(F)cc(S(=O)(=O)[O-])cc6F)c6ccc3[nH]6)C=C5)C=C4)cc2)ccc1NS(=O)(=O)c1c(F)cccc1F
REMARK SMILES IDX 11 1 10 2 9 3 8 4 7 5 5 6 6 7 4 8 1 9 2 10 3 11 87 12 86 13
REMARK SMILES IDX 85 14 88 15 89 17 90 18 91 19 92 20 93 21 98 22 94 23 95 24
REMARK SMILES IDX 97 25 99 26 96 27 12 28 13 29 14 30 15 31 16 32 17 33 18 34
REMARK SMILES IDX 19 35 20 36 84 37 21 38 83 39 22 40 23 41 24 42 77 43 25 44
REMARK SMILES IDX 82 45 76 46 78 47 26 48 81 49 75 50 74 51 27 53 61 54 40 55
REMARK SMILES IDX 60 56 41 57 44 58 59 59 79 60 42 61 43 62 58 64 80 65 45 66
REMARK SMILES IDX 28 67 29 68 38 69 30 70 31 71 37 72 39 73 32 74 33 75 34 76
REMARK SMILES IDX 35 77 36 78 62 79 63 80 72 81 64 82 65 83 71 84 73 85 66 86
REMARK SMILES IDX 67 87 68 88 69 89 70 90 46 91 47 92 56 93 48 94 49 95 55 96
REMARK SMILES IDX 57 97 50 98 51 99 52 100 53 101 54 102
REMARK H PARENT 88 16 78 52 44 63
REMARK Flexibility Score: inf
ROOT
ATOM      1  C   UNL A   1      32.503  35.774  30.959  1.00  0.00     0.188 C 
ENDROOT
BRANCH   1   2
ATOM      2  O   UNL A   1      32.480  34.953  29.795  1.00  0.00    -0.376 OA
BRANCH   2   3
ATOM      3  C   UNL A   1      33.532  34.384  29.010  1.00  0.00     0.202 C 
BRANCH   3   4
ATOM      4  C   UNL A   1      33.784  32.850  28.318  1.00  0.00     0.261 C 
BRANCH   4   5
ATOM      5  O   UNL A   1      32.961  31.742  27.220  1.00  0.00    -0.460 OA
BRANCH   5   6
ATOM      6  C   UNL A   1      32.763  30.363  26.895  1.00  0.00     0.338 C 
ATOM      7  O   UNL A   1      32.271  29.446  27.545  1.00  0.00    -0.246 OA
BRANCH   6   8
ATOM      8  C   UNL A   1      32.952  29.703  25.591  1.00  0.00     0.060 A 
ATOM      9  C   UNL A   1      30.471  28.643  22.840  1.00  0.00     0.046 C 
ATOM     10  C   UNL A   1      31.768  28.789  23.603  1.00  0.00    -0.026 A 
ATOM     11  C   UNL A   1      31.861  29.702  24.670  1.00  0.00     0.021 A 
ATOM     12  C   UNL A   1      32.836  27.915  23.436  1.00  0.00     0.052 A 
ATOM     13  C   UNL A   1      33.670  27.646  24.522  1.00  0.00     0.028 A 
ATOM     14  C   UNL A   1      33.737  28.548  25.592  1.00  0.00     0.018 A 
BRANCH  12  15
ATOM     15  N   UNL A   1      33.122  27.397  22.131  1.00  0.00    -0.279 N 
ATOM     16  H   UNL A   1      33.732  27.878  21.524  1.00  0.00     0.180 HD
BRANCH  15  17
ATOM     17  S   UNL A   1      32.387  25.927  21.642  1.00  0.00     0.267 S 
ATOM     18  O   UNL A   1      31.036  26.287  21.264  1.00  0.00    -0.201 OA
ATOM     19  O   UNL A   1      33.275  25.340  20.657  1.00  0.00    -0.201 OA
BRANCH  17  20
ATOM     20  C   UNL A   1      32.326  24.817  23.007  1.00  0.00     0.158 A 
ATOM     21  C   UNL A   1      31.115  24.574  23.646  1.00  0.00     0.146 A 
ATOM     22  C   UNL A   1      33.497  24.317  23.570  1.00  0.00     0.146 A 
ATOM     23  F   UNL A   1      29.947  24.956  23.116  1.00  0.00    -0.205 F 
ATOM     24  C   UNL A   1      31.079  23.953  24.895  1.00  0.00     0.041 A 
ATOM     25  C   UNL A   1      33.472  23.705  24.829  1.00  0.00     0.041 A 
ATOM     26  F   UNL A   1      34.686  24.518  22.988  1.00  0.00    -0.205 F 
ATOM     27  C   UNL A   1      32.263  23.550  25.508  1.00  0.00     0.006 A 
ENDBRANCH  17  20
ENDBRANCH  15  17
ENDBRANCH  12  15
ENDBRANCH   6   8
ENDBRANCH   5   6
ENDBRANCH   4   5
ENDBRANCH   3   4
ENDBRANCH   2   3
ENDBRANCH   1   2
BRANCH   1  28
ATOM     28  C   UNL A   1      33.285  37.064  31.031  1.00  0.00     0.188 C 
BRANCH  28  29
ATOM     29  O   UNL A   1      34.029  37.105  32.234  1.00  0.00    -0.376 OA
BRANCH  29  30
ATOM     30  C   UNL A   1      33.977  35.900  32.977  1.00  0.00     0.202 C 
BRANCH  30  31
ATOM     31  C   UNL A   1      35.305  35.127  32.998  1.00  0.00     0.261 C 
BRANCH  31  32
ATOM     32  O   UNL A   1      35.439  34.234  31.871  1.00  0.00    -0.460 OA
BRANCH  32  33
ATOM     33  C   UNL A   1      35.063  32.921  32.062  1.00  0.00     0.338 C 
ATOM     34  O   UNL A   1      33.963  32.613  32.496  1.00  0.00    -0.246 OA
BRANCH  33  35
ATOM     35  C   UNL A   1      36.070  32.002  31.455  1.00  0.00     0.060 A 
ATOM     36  C   UNL A   1      36.537  30.760  31.869  1.00  0.00     0.016 A 
ATOM     37  C   UNL A   1      36.643  32.440  30.320  1.00  0.00     0.016 A 
ATOM     38  C   UNL A   1      37.777  30.159  31.355  1.00  0.00     0.010 A 
ATOM     39  C   UNL A   1      37.826  31.830  29.880  1.00  0.00     0.010 A 
ATOM     40  C   UNL A   1      38.621  30.770  30.413  1.00  0.00    -0.014 A 
BRANCH  40  41
ATOM     41  C   UNL A   1      40.287  30.303  30.153  1.00  0.00     0.031 A 
ATOM     42  C   UNL A   1      41.092  29.077  29.255  1.00  0.00     0.074 A 
ATOM     43  C   UNL A   1      41.245  30.952  30.859  1.00  0.00     0.049 A 
ATOM     44  N   UNL A   1      41.873  28.151  29.805  1.00  0.00    -0.248 NA
ATOM     45  C   UNL A   1      40.966  28.711  27.817  1.00  0.00     0.031 C 
ATOM     46  C   UNL A   1      42.697  30.789  30.751  1.00  0.00     0.029 A 
ATOM     47  N   UNL A   1      41.089  31.866  31.900  1.00  0.00    -0.354 N 
ATOM     48  C   UNL A   1      42.141  27.146  28.858  1.00  0.00     0.074 A 
ATOM     49  C   UNL A   1      41.367  27.451  27.718  1.00  0.00     0.031 C 
ATOM     50  C   UNL A   1      43.268  31.312  31.845  1.00  0.00     0.029 A 
ATOM     51  C   UNL A   1      42.204  31.747  32.730  1.00  0.00     0.049 A 
ATOM     52  H   UNL A   1      40.333  32.482  32.025  1.00  0.00     0.167 HD
ATOM     53  C   UNL A   1      43.132  26.208  28.896  1.00  0.00     0.037 A 
ATOM     54  C   UNL A   1      42.054  31.422  34.042  1.00  0.00     0.037 A 
ATOM     55  C   UNL A   1      44.045  26.555  29.945  1.00  0.00     0.049 A 
ATOM     56  C   UNL A   1      42.749  30.130  34.394  1.00  0.00     0.074 A 
ATOM     57  C   UNL A   1      45.062  27.496  29.951  1.00  0.00     0.029 A 
ATOM     58  N   UNL A   1      43.687  26.323  31.256  1.00  0.00    -0.354 N 
ATOM     59  N   UNL A   1      43.195  29.270  33.516  1.00  0.00    -0.248 NA
ATOM     60  C   UNL A   1      43.016  29.711  35.766  1.00  0.00     0.031 C 
ATOM     61  C   UNL A   1      45.213  27.942  31.285  1.00  0.00     0.029 A 
ATOM     62  C   UNL A   1      44.373  27.187  32.086  1.00  0.00     0.049 A 
ATOM     63  H   UNL A   1      43.040  25.644  31.554  1.00  0.00     0.167 HD
ATOM     64  C   UNL A   1      43.730  28.190  34.167  1.00  0.00     0.074 A 
ATOM     65  C   UNL A   1      43.634  28.534  35.571  1.00  0.00     0.031 C 
ATOM     66  C   UNL A   1      44.193  27.083  33.517  1.00  0.00     0.037 A 
BRANCH  53  67
ATOM     67  C   UNL A   1      43.428  25.321  27.684  1.00  0.00     0.058 A 
ATOM     68  C   UNL A   1      42.915  24.014  27.578  1.00  0.00     0.135 A 
ATOM     69  C   UNL A   1      44.339  25.688  26.663  1.00  0.00     0.135 A 
ATOM     70  F   UNL A   1      41.982  23.569  28.430  1.00  0.00    -0.206 F 
ATOM     71  C   UNL A   1      43.382  23.092  26.628  1.00  0.00     0.059 A 
ATOM     72  C   UNL A   1      44.856  24.771  25.732  1.00  0.00     0.059 A 
ATOM     73  F   UNL A   1      44.822  26.942  26.602  1.00  0.00    -0.206 F 
ATOM     74  C   UNL A   1      44.387  23.462  25.739  1.00  0.00     0.060 A 
BRANCH  74  75
ATOM     75  S   UNL A   1      45.131  22.198  24.673  1.00  0.00     0.124 S 
ATOM     76  O   UNL A   1      46.220  21.686  25.501  1.00  0.00    -0.237 OA
ATOM     77  O   UNL A   1      44.015  21.284  24.456  1.00  0.00    -0.237 OA
ATOM     78  O   UNL A   1      45.560  22.955  23.500  1.00  0.00    -0.744 OA
ENDBRANCH  74  75
ENDBRANCH  53  67
BRANCH  54  79
ATOM     79  C   UNL A   1      40.842  32.033  34.673  1.00  0.00     0.058 A 
ATOM     80  C   UNL A   1      39.693  31.212  34.769  1.00  0.00     0.135 A 
ATOM     81  C   UNL A   1      40.861  33.181  35.478  1.00  0.00     0.135 A 
ATOM     82  F   UNL A   1      39.603  30.099  34.020  1.00  0.00    -0.206 F 
ATOM     83  C   UNL A   1      38.691  31.430  35.708  1.00  0.00     0.059 A 
ATOM     84  C   UNL A   1      39.846  33.433  36.424  1.00  0.00     0.059 A 
ATOM     85  F   UNL A   1      41.924  33.998  35.464  1.00  0.00    -0.206 F 
ATOM     86  C   UNL A   1      38.794  32.521  36.563  1.00  0.00     0.060 A 
BRANCH  86  87
ATOM     87  S   UNL A   1      37.628  32.585  37.953  1.00  0.00     0.124 S 
ATOM     88  O   UNL A   1      38.374  33.343  38.950  1.00  0.00    -0.237 OA
ATOM     89  O   UNL A   1      36.496  33.287  37.347  1.00  0.00    -0.237 OA
ATOM     90  O   UNL A   1      37.405  31.177  38.261  1.00  0.00    -0.744 OA
ENDBRANCH  86  87
ENDBRANCH  54  79
BRANCH  66  91
ATOM     91  C   UNL A   1      44.568  25.778  34.166  1.00  0.00     0.058 A 
ATOM     92  C   UNL A   1      43.629  24.899  34.724  1.00  0.00     0.135 A 
ATOM     93  C   UNL A   1      45.896  25.291  34.073  1.00  0.00     0.135 A 
ATOM     94  F   UNL A   1      42.324  25.206  34.761  1.00  0.00    -0.206 F 
ATOM     95  C   UNL A   1      43.991  23.651  35.227  1.00  0.00     0.059 A 
ATOM     96  C   UNL A   1      46.264  24.024  34.506  1.00  0.00     0.059 A 
ATOM     97  F   UNL A   1      46.879  26.032  33.537  1.00  0.00    -0.206 F 
ATOM     98  C   UNL A   1      45.310  23.224  35.115  1.00  0.00     0.060 A 
BRANCH  98  99
ATOM     99  S   UNL A   1      45.801  21.611  35.744  1.00  0.00     0.124 S 
ATOM    100  O   UNL A   1      44.904  20.729  35.002  1.00  0.00    -0.237 OA
ATOM    101  O   UNL A   1      47.211  21.525  35.375  1.00  0.00    -0.237 OA
ATOM    102  O   UNL A   1      45.539  21.726  37.174  1.00  0.00    -0.744 OA
ENDBRANCH  98  99
ENDBRANCH  66  91
ENDBRANCH  40  41
ENDBRANCH  33  35
ENDBRANCH  32  33
ENDBRANCH  31  32
ENDBRANCH  30  31
ENDBRANCH  29  30
ENDBRANCH  28  29
ENDBRANCH   1  28
TORSDOF 23
ENDMDL
MODEL 2
REMARK VINA RESULT:     -12.5      2.136      2.977
REMARK SMILES Cc1cc(C(=O)OCCOCCOCCOC(=O)c2ccc(-c3c4nc(c(-c5c(F)cc(S(=O)(=O)[O-])cc5F)c5ccc([nH]5)c(-c5c(F)cc(S(=O)(=O)[O-])cc5F)c5nc(c(-c6c(F)cc(S(=O)(=O)[O-])cc6F)c6ccc3[nH]6)C=C5)C=C4)cc2)ccc1NS(=O)(=O)c1c(F)cccc1F
REMARK SMILES IDX 11 1 10 2 9 3 8 4 7 5 5 6 6 7 4 8 1 9 2 10 3 11 87 12 86 13
REMARK SMILES IDX 85 14 88 15 89 17 90 18 91 19 92 20 93 21 98 22 94 23 95 24
REMARK SMILES IDX 97 25 99 26 96 27 12 28 13 29 14 30 15 31 16 32 17 33 18 34
REMARK SMILES IDX 19 35 20 36 84 37 21 38 83 39 22 40 23 41 24 42 77 43 25 44
REMARK SMILES IDX 82 45 76 46 78 47 26 48 81 49 75 50 74 51 27 53 61 54 40 55
REMARK SMILES IDX 60 56 41 57 44 58 59 59 79 60 42 61 43 62 58 64 80 65 45 66
REMARK SMILES IDX 28 67 29 68 38 69 30 70 31 71 37 72 39 73 32 74 33 75 34 76
REMARK SMILES IDX 35 77 36 78 62 79 63 80 72 81 64 82 65 83 71 84 73 85 66 86
REMARK SMILES IDX 67 87 68 88 69 89 70 90 46 91 47 92 56 93 48 94 49 95 55 96
REMARK SMILES IDX 57 97 50 98 51 99 52 100 53 101 54 102
REMARK H PARENT 88 16 78 52 44 63
REMARK Flexibility Score: inf
ROOT
ATOM      1  C   UNL A   1      33.982  33.955  28.127  1.00  0.00     0.188 C 
ENDROOT
BRANCH   1   2
ATOM      2  O   UNL A   1      35.124  33.278  27.608  1.00  0.00    -0.376 OA
BRANCH   2   3
ATOM      3  C   UNL A   1      35.633  31.960  27.834  1.00  0.00     0.202 C 
BRANCH   3   4
ATOM      4  C   UNL A   1      34.963  30.402  27.700  1.00  0.00     0.261 C 
BRANCH   4   5
ATOM      5  O   UNL A   1      34.407  29.305  26.437  1.00  0.00    -0.460 OA
BRANCH   5   6
ATOM      6  C   UNL A   1      33.274  28.911  25.657  1.00  0.00     0.338 C 
ATOM      7  O   UNL A   1      32.652  29.508  24.784  1.00  0.00    -0.246 OA
BRANCH   6   8
ATOM      8  C   UNL A   1      32.646  27.580  25.578  1.00  0.00     0.060 A 
ATOM      9  C   UNL A   1      32.658  24.866  22.843  1.00  0.00     0.046 C 
ATOM     10  C   UNL A   1      32.300  25.596  24.117  1.00  0.00    -0.026 A 
ATOM     11  C   UNL A   1      33.073  26.691  24.546  1.00  0.00     0.021 A 
ATOM     12  C   UNL A   1      31.110  25.369  24.800  1.00  0.00     0.052 A 
ATOM     13  C   UNL A   1      30.515  26.421  25.499  1.00  0.00     0.028 A 
ATOM     14  C   UNL A   1      31.288  27.519  25.898  1.00  0.00     0.018 A 
BRANCH  12  15
ATOM     15  N   UNL A   1      30.580  24.039  24.863  1.00  0.00    -0.279 N 
ATOM     16  H   UNL A   1      29.905  23.738  24.212  1.00  0.00     0.180 HD
BRANCH  15  17
ATOM     17  S   UNL A   1      31.140  22.981  26.091  1.00  0.00     0.267 S 
ATOM     18  O   UNL A   1      31.227  23.799  27.284  1.00  0.00    -0.201 OA
ATOM     19  O   UNL A   1      30.253  21.835  26.072  1.00  0.00    -0.201 OA
BRANCH  17  20
ATOM     20  C   UNL A   1      32.748  22.396  25.676  1.00  0.00     0.158 A 
ATOM     21  C   UNL A   1      32.893  21.160  25.056  1.00  0.00     0.146 A 
ATOM     22  C   UNL A   1      33.885  23.065  26.118  1.00  0.00     0.146 A 
ATOM     23  F   UNL A   1      31.850  20.503  24.536  1.00  0.00    -0.205 F 
ATOM     24  C   UNL A   1      34.140  20.536  24.990  1.00  0.00     0.041 A 
ATOM     25  C   UNL A   1      35.138  22.443  26.069  1.00  0.00     0.041 A 
ATOM     26  F   UNL A   1      33.796  24.262  26.714  1.00  0.00    -0.205 F 
ATOM     27  C   UNL A   1      35.261  21.161  25.530  1.00  0.00     0.006 A 
ENDBRANCH  17  20
ENDBRANCH  15  17
ENDBRANCH  12  15
ENDBRANCH   6   8
ENDBRANCH   5   6
ENDBRANCH   4   5
ENDBRANCH   3   4
ENDBRANCH   2   3
ENDBRANCH   1   2
BRANCH   1  28
ATOM     28  C   UNL A   1      34.022  35.400  28.565  1.00  0.00     0.188 C 
BRANCH  28  29
ATOM     29  O   UNL A   1      33.788  35.483  29.958  1.00  0.00    -0.376 OA
BRANCH  29  30
ATOM     30  C   UNL A   1      34.080  34.286  30.657  1.00  0.00     0.202 C 
BRANCH  30  31
ATOM     31  C   UNL A   1      35.425  34.313  31.399  1.00  0.00     0.261 C 
BRANCH  31  32
ATOM     32  O   UNL A   1      36.308  33.251  30.973  1.00  0.00    -0.460 OA
BRANCH  32  33
ATOM     33  C   UNL A   1      36.451  32.175  31.822  1.00  0.00     0.338 C 
ATOM     34  O   UNL A   1      35.718  31.999  32.784  1.00  0.00    -0.246 OA
BRANCH  33  35
ATOM     35  C   UNL A   1      37.428  31.198  31.257  1.00  0.00     0.060 A 
ATOM     36  C   UNL A   1      37.737  29.896  31.635  1.00  0.00     0.016 A 
ATOM     37  C   UNL A   1      38.150  31.640  30.212  1.00  0.00     0.016 A 
ATOM     38  C   UNL A   1      38.964  29.208  31.205  1.00  0.00     0.010 A 
ATOM     39  C   UNL A   1      39.311  30.943  29.850  1.00  0.00     0.010 A 
ATOM     40  C   UNL A   1      39.950  29.785  30.389  1.00  0.00    -0.014 A 
BRANCH  40  41
ATOM     41  C   UNL A   1      41.585  29.175  30.261  1.00  0.00     0.031 A 
ATOM     42  C   UNL A   1      42.332  27.808  29.533  1.00  0.00     0.074 A 
ATOM     43  C   UNL A   1      42.559  29.825  30.945  1.00  0.00     0.049 A 
ATOM     44  N   UNL A   1      43.015  26.891  30.213  1.00  0.00    -0.248 NA
ATOM     45  C   UNL A   1      42.239  27.303  28.135  1.00  0.00     0.031 C 
ATOM     46  C   UNL A   1      43.998  29.547  30.927  1.00  0.00     0.029 A 
ATOM     47  N   UNL A   1      42.430  30.851  31.879  1.00  0.00    -0.354 N 
ATOM     48  C   UNL A   1      43.246  25.776  29.387  1.00  0.00     0.074 A 
ATOM     49  C   UNL A   1      42.546  26.014  28.184  1.00  0.00     0.031 C 
ATOM     50  C   UNL A   1      44.560  30.140  31.989  1.00  0.00     0.029 A 
ATOM     51  C   UNL A   1      43.496  30.740  32.772  1.00  0.00     0.049 A 
ATOM     52  H   UNL A   1      41.718  31.530  31.903  1.00  0.00     0.167 HD
ATOM     53  C   UNL A   1      44.160  24.778  29.569  1.00  0.00     0.037 A 
ATOM     54  C   UNL A   1      43.266  30.566  34.100  1.00  0.00     0.037 A 
ATOM     55  C   UNL A   1      45.051  25.167  30.621  1.00  0.00     0.049 A 
ATOM     56  C   UNL A   1      43.845  29.271  34.616  1.00  0.00     0.074 A 
ATOM     57  C   UNL A   1      46.136  26.028  30.583  1.00  0.00     0.029 A 
ATOM     58  N   UNL A   1      44.622  25.099  31.929  1.00  0.00    -0.354 N 
ATOM     59  N   UNL A   1      44.261  28.294  33.853  1.00  0.00    -0.248 NA
ATOM     60  C   UNL A   1      44.021  28.979  36.035  1.00  0.00     0.031 C 
ATOM     61  C   UNL A   1      46.264  26.599  31.871  1.00  0.00     0.029 A 
ATOM     62  C   UNL A   1      45.336  25.994  32.701  1.00  0.00     0.049 A 
ATOM     63  H   UNL A   1      43.912  24.503  32.262  1.00  0.00     0.167 HD
ATOM     64  C   UNL A   1      44.684  27.252  34.635  1.00  0.00     0.074 A 
ATOM     65  C   UNL A   1      44.555  27.747  35.990  1.00  0.00     0.031 C 
ATOM     66  C   UNL A   1      45.088  26.053  34.125  1.00  0.00     0.037 A 
BRANCH  53  67
ATOM     67  C   UNL A   1      44.438  23.751  28.469  1.00  0.00     0.058 A 
ATOM     68  C   UNL A   1      45.588  23.821  27.660  1.00  0.00     0.135 A 
ATOM     69  C   UNL A   1      43.506  22.752  28.091  1.00  0.00     0.135 A 
ATOM     70  F   UNL A   1      46.587  24.664  27.955  1.00  0.00    -0.206 F 
ATOM     71  C   UNL A   1      45.735  23.070  26.484  1.00  0.00     0.059 A 
ATOM     72  C   UNL A   1      43.608  22.023  26.895  1.00  0.00     0.059 A 
ATOM     73  F   UNL A   1      42.414  22.523  28.843  1.00  0.00    -0.206 F 
ATOM     74  C   UNL A   1      44.720  22.208  26.081  1.00  0.00     0.060 A 
BRANCH  74  75
ATOM     75  S   UNL A   1      44.827  21.417  24.453  1.00  0.00     0.124 S 
ATOM     76  O   UNL A   1      43.917  20.283  24.591  1.00  0.00    -0.237 OA
ATOM     77  O   UNL A   1      44.380  22.485  23.564  1.00  0.00    -0.237 OA
ATOM     78  O   UNL A   1      46.238  21.057  24.344  1.00  0.00    -0.744 OA
ENDBRANCH  74  75
ENDBRANCH  53  67
BRANCH  54  79
ATOM     79  C   UNL A   1      42.079  31.324  34.605  1.00  0.00     0.058 A 
ATOM     80  C   UNL A   1      42.285  32.687  34.925  1.00  0.00     0.135 A 
ATOM     81  C   UNL A   1      40.748  30.912  34.445  1.00  0.00     0.135 A 
ATOM     82  F   UNL A   1      43.534  33.151  35.101  1.00  0.00    -0.206 F 
ATOM     83  C   UNL A   1      41.253  33.619  34.941  1.00  0.00     0.059 A 
ATOM     84  C   UNL A   1      39.683  31.836  34.476  1.00  0.00     0.059 A 
ATOM     85  F   UNL A   1      40.469  29.643  34.117  1.00  0.00    -0.206 F 
ATOM     86  C   UNL A   1      39.957  33.194  34.673  1.00  0.00     0.060 A 
BRANCH  86  87
ATOM     87  S   UNL A   1      38.708  34.486  34.411  1.00  0.00     0.124 S 
ATOM     88  O   UNL A   1      38.707  34.628  32.960  1.00  0.00    -0.237 OA
ATOM     89  O   UNL A   1      37.517  33.856  34.981  1.00  0.00    -0.237 OA
ATOM     90  O   UNL A   1      39.243  35.616  35.161  1.00  0.00    -0.744 OA
ENDBRANCH  86  87
ENDBRANCH  54  79
BRANCH  66  91
ATOM     91  C   UNL A   1      45.334  24.799  34.920  1.00  0.00     0.058 A 
ATOM     92  C   UNL A   1      44.377  23.788  35.077  1.00  0.00     0.135 A 
ATOM     93  C   UNL A   1      46.636  24.503  35.399  1.00  0.00     0.135 A 
ATOM     94  F   UNL A   1      43.144  23.911  34.563  1.00  0.00    -0.206 F 
ATOM     95  C   UNL A   1      44.663  22.592  35.732  1.00  0.00     0.059 A 
ATOM     96  C   UNL A   1      46.959  23.291  35.994  1.00  0.00     0.059 A 
ATOM     97  F   UNL A   1      47.642  25.384  35.286  1.00  0.00    -0.206 F 
ATOM     98  C   UNL A   1      45.956  22.354  36.188  1.00  0.00     0.060 A 
BRANCH  98  99
ATOM     99  S   UNL A   1      46.357  20.812  37.024  1.00  0.00     0.124 S 
ATOM    100  O   UNL A   1      47.798  20.733  36.804  1.00  0.00    -0.237 OA
ATOM    101  O   UNL A   1      45.946  21.065  38.402  1.00  0.00    -0.237 OA
ATOM    102  O   UNL A   1      45.549  19.833  36.305  1.00  0.00    -0.744 OA
ENDBRANCH  98  99
ENDBRANCH  66  91
ENDBRANCH  40  41
ENDBRANCH  33  35
ENDBRANCH  32  33
ENDBRANCH  31  32
ENDBRANCH  30  31
ENDBRANCH  29  30
ENDBRANCH  28  29
ENDBRANCH   1  28
TORSDOF 23
ENDMDL
MODEL 3
REMARK VINA RESULT:     -11.6      1.675      2.432
REMARK SMILES Cc1cc(C(=O)OCCOCCOCCOC(=O)c2ccc(-c3c4nc(c(-c5c(F)cc(S(=O)(=O)[O-])cc5F)c5ccc([nH]5)c(-c5c(F)cc(S(=O)(=O)[O-])cc5F)c5nc(c(-c6c(F)cc(S(=O)(=O)[O-])cc6F)c6ccc3[nH]6)C=C5)C=C4)cc2)ccc1NS(=O)(=O)c1c(F)cccc1F
REMARK SMILES IDX 11 1 10 2 9 3 8 4 7 5 5 6 6 7 4 8 1 9 2 10 3 11 87 12 86 13
REMARK SMILES IDX 85 14 88 15 89 17 90 18 91 19 92 20 93 21 98 22 94 23 95 24
REMARK SMILES IDX 97 25 99 26 96 27 12 28 13 29 14 30 15 31 16 32 17 33 18 34
REMARK SMILES IDX 19 35 20 36 84 37 21 38 83 39 22 40 23 41 24 42 77 43 25 44
REMARK SMILES IDX 82 45 76 46 78 47 26 48 81 49 75 50 74 51 27 53 61 54 40 55
REMARK SMILES IDX 60 56 41 57 44 58 59 59 79 60 42 61 43 62 58 64 80 65 45 66
REMARK SMILES IDX 28 67 29 68 38 69 30 70 31 71 37 72 39 73 32 74 33 75 34 76
REMARK SMILES IDX 35 77 36 78 62 79 63 80 72 81 64 82 65 83 71 84 73 85 66 86
REMARK SMILES IDX 67 87 68 88 69 89 70 90 46 91 47 92 56 93 48 94 49 95 55 96
REMARK SMILES IDX 57 97 50 98 51 99 52 100 53 101 54 102
REMARK H PARENT 88 16 78 52 44 63
REMARK Flexibility Score: inf
ROOT
ATOM      1  C   UNL A   1      32.918  35.950  30.285  1.00  0.00     0.188 C 
ENDROOT
BRANCH   1   2
ATOM      2  O   UNL A   1      32.533  34.891  29.413  1.00  0.00    -0.376 OA
BRANCH   2   3
ATOM      3  C   UNL A   1      33.278  34.118  28.467  1.00  0.00     0.202 C 
BRANCH   3   4
ATOM      4  C   UNL A   1      32.859  32.901  27.355  1.00  0.00     0.261 C 
BRANCH   4   5
ATOM      5  O   UNL A   1      32.804  31.140  27.278  1.00  0.00    -0.460 OA
BRANCH   5   6
ATOM      6  C   UNL A   1      33.597  29.961  27.113  1.00  0.00     0.338 C 
ATOM      7  O   UNL A   1      34.231  29.297  27.928  1.00  0.00    -0.246 OA
BRANCH   6   8
ATOM      8  C   UNL A   1      33.722  29.113  25.914  1.00  0.00     0.060 A 
ATOM      9  C   UNL A   1      31.565  28.782  22.737  1.00  0.00     0.046 C 
ATOM     10  C   UNL A   1      32.643  28.495  23.759  1.00  0.00    -0.026 A 
ATOM     11  C   UNL A   1      32.917  29.427  24.777  1.00  0.00     0.021 A 
ATOM     12  C   UNL A   1      33.255  27.252  23.871  1.00  0.00     0.052 A 
ATOM     13  C   UNL A   1      33.689  26.818  25.125  1.00  0.00     0.028 A 
ATOM     14  C   UNL A   1      33.934  27.751  26.141  1.00  0.00     0.018 A 
BRANCH  12  15
ATOM     15  N   UNL A   1      33.528  26.494  22.685  1.00  0.00    -0.279 N 
ATOM     16  H   UNL A   1      34.241  26.773  22.066  1.00  0.00     0.180 HD
BRANCH  15  17
ATOM     17  S   UNL A   1      32.591  25.095  22.362  1.00  0.00     0.267 S 
ATOM     18  O   UNL A   1      31.216  25.547  22.383  1.00  0.00    -0.201 OA
ATOM     19  O   UNL A   1      33.137  24.514  21.151  1.00  0.00    -0.201 OA
BRANCH  17  20
ATOM     20  C   UNL A   1      32.828  23.917  23.650  1.00  0.00     0.158 A 
ATOM     21  C   UNL A   1      33.852  22.982  23.549  1.00  0.00     0.146 A 
ATOM     22  C   UNL A   1      31.899  23.790  24.678  1.00  0.00     0.146 A 
ATOM     23  F   UNL A   1      34.823  23.092  22.635  1.00  0.00    -0.205 F 
ATOM     24  C   UNL A   1      33.881  21.862  24.382  1.00  0.00     0.041 A 
ATOM     25  C   UNL A   1      31.912  22.664  25.510  1.00  0.00     0.041 A 
ATOM     26  F   UNL A   1      30.900  24.671  24.821  1.00  0.00    -0.205 F 
ATOM     27  C   UNL A   1      32.888  21.682  25.341  1.00  0.00     0.006 A 
ENDBRANCH  17  20
ENDBRANCH  15  17
ENDBRANCH  12  15
ENDBRANCH   6   8
ENDBRANCH   5   6
ENDBRANCH   4   5
ENDBRANCH   3   4
ENDBRANCH   2   3
ENDBRANCH   1   2
BRANCH   1  28
ATOM     28  C   UNL A   1      33.403  35.708  31.696  1.00  0.00     0.188 C 
BRANCH  28  29
ATOM     29  O   UNL A   1      34.671  35.081  31.663  1.00  0.00    -0.376 OA
BRANCH  29  30
ATOM     30  C   UNL A   1      34.719  33.855  32.370  1.00  0.00     0.202 C 
BRANCH  30  31
ATOM     31  C   UNL A   1      34.522  32.618  31.479  1.00  0.00     0.261 C 
BRANCH  31  32
ATOM     32  O   UNL A   1      35.668  31.739  31.498  1.00  0.00    -0.460 OA
BRANCH  32  33
ATOM     33  C   UNL A   1      36.395  31.629  30.332  1.00  0.00     0.338 C 
ATOM     34  O   UNL A   1      35.905  31.845  29.234  1.00  0.00    -0.246 OA
BRANCH  33  35
ATOM     35  C   UNL A   1      37.845  31.459  30.642  1.00  0.00     0.060 A 
ATOM     36  C   UNL A   1      38.958  32.180  30.223  1.00  0.00     0.016 A 
ATOM     37  C   UNL A   1      38.147  30.429  31.452  1.00  0.00     0.016 A 
ATOM     38  C   UNL A   1      40.331  31.666  30.330  1.00  0.00     0.010 A 
ATOM     39  C   UNL A   1      39.474  29.982  31.512  1.00  0.00     0.010 A 
ATOM     40  C   UNL A   1      40.666  30.404  30.848  1.00  0.00    -0.014 A 
BRANCH  40  41
ATOM     41  C   UNL A   1      42.196  29.609  30.557  1.00  0.00     0.031 A 
ATOM     42  C   UNL A   1      42.726  28.278  29.604  1.00  0.00     0.074 A 
ATOM     43  C   UNL A   1      43.269  30.013  31.280  1.00  0.00     0.049 A 
ATOM     44  N   UNL A   1      43.294  27.187  30.111  1.00  0.00    -0.248 NA
ATOM     45  C   UNL A   1      42.526  28.006  28.153  1.00  0.00     0.031 C 
ATOM     46  C   UNL A   1      44.654  29.552  31.154  1.00  0.00     0.029 A 
ATOM     47  N   UNL A   1      43.309  30.895  32.358  1.00  0.00    -0.354 N 
ATOM     48  C   UNL A   1      43.346  26.188  29.122  1.00  0.00     0.074 A 
ATOM     49  C   UNL A   1      42.653  26.695  28.001  1.00  0.00     0.031 C 
ATOM     50  C   UNL A   1      45.322  29.899  32.264  1.00  0.00     0.029 A 
ATOM     51  C   UNL A   1      44.373  30.511  33.174  1.00  0.00     0.049 A 
ATOM     52  H   UNL A   1      42.699  31.652  32.513  1.00  0.00     0.167 HD
ATOM     53  C   UNL A   1      44.117  25.062  29.115  1.00  0.00     0.037 A 
ATOM     54  C   UNL A   1      44.157  30.172  34.473  1.00  0.00     0.037 A 
ATOM     55  C   UNL A   1      45.082  25.166  30.170  1.00  0.00     0.049 A 
ATOM     56  C   UNL A   1      44.564  28.749  34.768  1.00  0.00     0.074 A 
ATOM     57  C   UNL A   1      46.274  25.871  30.205  1.00  0.00     0.029 A 
ATOM     58  N   UNL A   1      44.682  24.961  31.473  1.00  0.00    -0.354 N 
ATOM     59  N   UNL A   1      44.820  27.851  33.853  1.00  0.00    -0.248 NA
ATOM     60  C   UNL A   1      44.736  28.228  36.120  1.00  0.00     0.031 C 
ATOM     61  C   UNL A   1      46.514  26.220  31.555  1.00  0.00     0.029 A 
ATOM     62  C   UNL A   1      45.534  25.627  32.331  1.00  0.00     0.049 A 
ATOM     63  H   UNL A   1      43.906  24.422  31.749  1.00  0.00     0.167 HD
ATOM     64  C   UNL A   1      45.115  26.657  34.455  1.00  0.00     0.074 A 
ATOM     65  C   UNL A   1      45.093  26.956  35.873  1.00  0.00     0.031 C 
ATOM     66  C   UNL A   1      45.335  25.505  33.759  1.00  0.00     0.037 A 
BRANCH  53  67
ATOM     67  C   UNL A   1      44.220  24.183  27.866  1.00  0.00     0.058 A 
ATOM     68  C   UNL A   1      43.265  23.190  27.576  1.00  0.00     0.135 A 
ATOM     69  C   UNL A   1      45.340  24.202  26.998  1.00  0.00     0.135 A 
ATOM     70  F   UNL A   1      42.119  23.114  28.266  1.00  0.00    -0.206 F 
ATOM     71  C   UNL A   1      43.472  22.200  26.603  1.00  0.00     0.059 A 
ATOM     72  C   UNL A   1      45.592  23.196  26.050  1.00  0.00     0.059 A 
ATOM     73  F   UNL A   1      46.272  25.165  27.114  1.00  0.00    -0.206 F 
ATOM     74  C   UNL A   1      44.659  22.180  25.877  1.00  0.00     0.060 A 
BRANCH  74  75
ATOM     75  S   UNL A   1      45.005  20.772  24.788  1.00  0.00     0.124 S 
ATOM     76  O   UNL A   1      46.448  20.603  24.937  1.00  0.00    -0.237 OA
ATOM     77  O   UNL A   1      44.180  19.721  25.375  1.00  0.00    -0.237 OA
ATOM     78  O   UNL A   1      44.577  21.246  23.475  1.00  0.00    -0.744 OA
ENDBRANCH  74  75
ENDBRANCH  53  67
BRANCH  54  79
ATOM     79  C   UNL A   1      43.100  30.998  35.138  1.00  0.00     0.058 A 
ATOM     80  C   UNL A   1      43.508  32.246  35.666  1.00  0.00     0.135 A 
ATOM     81  C   UNL A   1      41.721  30.812  34.962  1.00  0.00     0.135 A 
ATOM     82  F   UNL A   1      44.814  32.492  35.868  1.00  0.00    -0.206 F 
ATOM     83  C   UNL A   1      42.624  33.300  35.871  1.00  0.00     0.059 A 
ATOM     84  C   UNL A   1      40.804  31.859  35.182  1.00  0.00     0.059 A 
ATOM     85  F   UNL A   1      41.255  29.667  34.444  1.00  0.00    -0.206 F 
ATOM     86  C   UNL A   1      41.276  33.113  35.586  1.00  0.00     0.060 A 
BRANCH  86  87
ATOM     87  S   UNL A   1      40.227  34.595  35.582  1.00  0.00     0.124 S 
ATOM     88  O   UNL A   1      41.209  35.672  35.601  1.00  0.00    -0.237 OA
ATOM     89  O   UNL A   1      39.499  34.430  34.323  1.00  0.00    -0.237 OA
ATOM     90  O   UNL A   1      39.431  34.437  36.794  1.00  0.00    -0.744 OA
ENDBRANCH  86  87
ENDBRANCH  54  79
BRANCH  66  91
ATOM     91  C   UNL A   1      45.427  24.125  34.352  1.00  0.00     0.058 A 
ATOM     92  C   UNL A   1      44.316  23.287  34.524  1.00  0.00     0.135 A 
ATOM     93  C   UNL A   1      46.693  23.536  34.596  1.00  0.00     0.135 A 
ATOM     94  F   UNL A   1      43.078  23.699  34.214  1.00  0.00    -0.206 F 
ATOM     95  C   UNL A   1      44.441  21.977  34.980  1.00  0.00     0.059 A 
ATOM     96  C   UNL A   1      46.844  22.212  34.986  1.00  0.00     0.059 A 
ATOM     97  F   UNL A   1      47.831  24.232  34.444  1.00  0.00    -0.206 F 
ATOM     98  C   UNL A   1      45.709  21.449  35.210  1.00  0.00     0.060 A 
BRANCH  98  99
ATOM     99  S   UNL A   1      45.899  19.755  35.786  1.00  0.00     0.124 S 
ATOM    100  O   UNL A   1      45.703  19.918  37.224  1.00  0.00    -0.237 OA
ATOM    101  O   UNL A   1      44.834  19.044  35.085  1.00  0.00    -0.237 OA
ATOM    102  O   UNL A   1      47.254  19.418  35.363  1.00  0.00    -0.744 OA
ENDBRANCH  98  99
ENDBRANCH  66  91
ENDBRANCH  40  41
ENDBRANCH  33  35
ENDBRANCH  32  33
ENDBRANCH  31  32
ENDBRANCH  30  31
ENDBRANCH  29  30
ENDBRANCH  28  29
ENDBRANCH   1  28
TORSDOF 23
ENDMDL
