MODEL 1
REMARK VINA RESULT:     -10.8      0.000      0.000
REMARK SMILES CS(=O)(=O)N1C[C@@H]2CN(C(=O)C3CCOCC3)C[C@@]2(C(=O)OCCOCCOCCOC(=O)c2ccc(-c3c4nc(c(-c5c(F)cc(S(=O)(=O)[O-])cc5F)c5ccc([nH]5)c(-c5c(F)cc(S(=O)(=O)[O-])cc5F)c5nc(c(-c6c(F)cc(S(=O)(=O)[O-])cc6F)c6ccc3[nH]6)C=C5)C=C4)cc2)C1
REMARK SMILES IDX 27 1 26 2 25 3 24 4 23 5 22 6 20 7 21 8 19 9 5 10 6 11
REMARK SMILES IDX 100 12 7 13 8 14 18 15 9 16 2 17 1 18 3 19 4 20 10 21 11 22
REMARK SMILES IDX 12 23 13 24 17 25 14 26 16 27 15 28 28 29 29 30 30 31 31 32
REMARK SMILES IDX 32 33 33 34 34 35 35 36 99 37 36 38 98 39 37 40 38 41 39 42
REMARK SMILES IDX 92 43 40 44 97 45 91 46 93 47 41 48 96 49 90 50 89 51 42 53
REMARK SMILES IDX 76 54 55 55 75 56 56 57 59 58 74 59 94 60 57 61 58 62 73 64
REMARK SMILES IDX 95 65 60 66 43 67 44 68 53 69 45 70 46 71 52 72 54 73 47 74
REMARK SMILES IDX 48 75 49 76 50 77 51 78 77 79 78 80 87 81 79 82 80 83 86 84
REMARK SMILES IDX 88 85 81 86 82 87 83 88 84 89 85 90 61 91 62 92 71 93 63 94
REMARK SMILES IDX 64 95 70 96 72 97 65 98 66 99 67 100 68 101 69 102
REMARK H PARENT 93 52 59 63
REMARK Flexibility Score: inf
ROOT
ATOM      1  C   UNL A   1      41.449  21.433  26.449  1.00  0.00     0.188 C 
ENDROOT
BRANCH   1   2
ATOM      2  C   UNL A   1      39.998  21.040  26.115  1.00  0.00     0.188 C 
BRANCH   2   3
ATOM      3  O   UNL A   1      39.056  22.040  26.468  1.00  0.00    -0.376 OA
BRANCH   3   4
ATOM      4  C   UNL A   1      37.929  22.283  25.629  1.00  0.00     0.202 C 
BRANCH   4   5
ATOM      5  C   UNL A   1      37.496  23.722  25.281  1.00  0.00     0.261 C 
BRANCH   5   6
ATOM      6  O   UNL A   1      36.361  23.680  24.415  1.00  0.00    -0.463 OA
BRANCH   6   7
ATOM      7  C   UNL A   1      35.063  23.745  24.834  1.00  0.00     0.315 C 
ATOM      8  O   UNL A   1      34.666  24.325  25.827  1.00  0.00    -0.251 OA
BRANCH   7   9
ATOM      9  C   UNL A   1      34.290  22.834  23.808  1.00  0.00     0.105 C 
ATOM     10  N   UNL A   1      32.967  24.630  22.745  1.00  0.00    -0.201 NA
ATOM     11  C   UNL A   1      32.018  23.574  23.041  1.00  0.00     0.109 C 
ATOM     12  C   UNL A   1      34.340  24.113  22.891  1.00  0.00     0.123 C 
ATOM     13  C   UNL A   1      32.928  22.383  23.193  1.00  0.00     0.044 C 
ATOM     14  C   UNL A   1      32.300  21.198  23.896  1.00  0.00     0.125 C 
ATOM     15  C   UNL A   1      34.185  21.905  25.062  1.00  0.00     0.140 C 
ATOM     16  N   UNL A   1      33.304  20.794  24.826  1.00  0.00    -0.341 N 
BRANCH  10  17
ATOM     17  S   UNL A   1      32.606  25.833  21.634  1.00  0.00     0.211 S 
ATOM     18  C   UNL A   1      33.579  27.222  22.196  1.00  0.00     0.176 C 
ATOM     19  O   UNL A   1      31.212  26.176  21.823  1.00  0.00    -0.213 OA
ATOM     20  O   UNL A   1      33.116  25.404  20.352  1.00  0.00    -0.213 OA
ENDBRANCH  10  17
BRANCH  16  21
ATOM     21  C   UNL A   1      33.173  19.639  25.568  1.00  0.00     0.225 C 
ATOM     22  O   UNL A   1      33.052  19.708  26.798  1.00  0.00    -0.275 OA
BRANCH  21  23
ATOM     23  C   UNL A   1      33.036  18.255  24.901  1.00  0.00     0.083 C 
ATOM     24  C   UNL A   1      32.666  17.042  25.766  1.00  0.00     0.042 C 
ATOM     25  C   UNL A   1      34.260  18.010  24.013  1.00  0.00     0.042 C 
ATOM     26  C   UNL A   1      32.763  15.735  24.987  1.00  0.00     0.161 C 
ATOM     27  C   UNL A   1      34.235  16.631  23.374  1.00  0.00     0.161 C 
ATOM     28  O   UNL A   1      34.028  15.612  24.348  1.00  0.00    -0.381 OA
ENDBRANCH  21  23
ENDBRANCH  16  21
ENDBRANCH   7   9
ENDBRANCH   6   7
ENDBRANCH   5   6
ENDBRANCH   4   5
ENDBRANCH   3   4
ENDBRANCH   2   3
ENDBRANCH   1   2
BRANCH   1  29
ATOM     29  O   UNL A   1      42.411  21.464  25.409  1.00  0.00    -0.376 OA
BRANCH  29  30
ATOM     30  C   UNL A   1      43.549  22.304  25.578  1.00  0.00     0.202 C 
BRANCH  30  31
ATOM     31  C   UNL A   1      43.435  23.787  25.194  1.00  0.00     0.261 C 
BRANCH  31  32
ATOM     32  O   UNL A   1      42.944  24.640  26.243  1.00  0.00    -0.460 OA
BRANCH  32  33
ATOM     33  C   UNL A   1      43.287  25.953  26.145  1.00  0.00     0.338 C 
ATOM     34  O   UNL A   1      43.705  26.538  25.161  1.00  0.00    -0.246 OA
BRANCH  33  35
ATOM     35  C   UNL A   1      42.818  26.640  27.369  1.00  0.00     0.060 A 
ATOM     36  C   UNL A   1      43.354  27.900  27.688  1.00  0.00     0.016 A 
ATOM     37  C   UNL A   1      41.828  26.069  28.164  1.00  0.00     0.016 A 
ATOM     38  C   UNL A   1      42.878  28.605  28.794  1.00  0.00     0.010 A 
ATOM     39  C   UNL A   1      41.379  26.758  29.289  1.00  0.00     0.010 A 
ATOM     40  C   UNL A   1      41.902  28.024  29.611  1.00  0.00    -0.014 A 
BRANCH  40  41
ATOM     41  C   UNL A   1      41.503  28.649  30.892  1.00  0.00     0.031 A 
ATOM     42  C   UNL A   1      40.352  29.612  30.879  1.00  0.00     0.074 A 
ATOM     43  C   UNL A   1      42.203  28.426  32.018  1.00  0.00     0.049 A 
ATOM     44  N   UNL A   1      39.960  30.444  31.804  1.00  0.00    -0.248 NA
ATOM     45  C   UNL A   1      39.546  29.647  29.648  1.00  0.00     0.031 C 
ATOM     46  C   UNL A   1      43.313  27.483  32.151  1.00  0.00     0.029 A 
ATOM     47  N   UNL A   1      42.109  29.014  33.254  1.00  0.00    -0.354 N 
ATOM     48  C   UNL A   1      38.874  31.121  31.263  1.00  0.00     0.074 A 
ATOM     49  C   UNL A   1      38.682  30.612  29.922  1.00  0.00     0.031 C 
ATOM     50  C   UNL A   1      43.827  27.588  33.390  1.00  0.00     0.029 A 
ATOM     51  C   UNL A   1      43.114  28.641  34.115  1.00  0.00     0.049 A 
ATOM     52  H   UNL A   1      41.392  29.642  33.500  1.00  0.00     0.167 HD
ATOM     53  C   UNL A   1      38.110  32.080  31.835  1.00  0.00     0.037 A 
ATOM     54  C   UNL A   1      43.454  29.134  35.323  1.00  0.00     0.037 A 
ATOM     55  C   UNL A   1      38.327  32.586  33.164  1.00  0.00     0.049 A 
ATOM     56  C   UNL A   1      42.646  30.267  35.907  1.00  0.00     0.074 A 
ATOM     57  C   UNL A   1      37.601  33.545  33.848  1.00  0.00     0.029 A 
ATOM     58  N   UNL A   1      39.354  32.184  34.006  1.00  0.00    -0.354 N 
ATOM     59  N   UNL A   1      41.604  30.885  35.401  1.00  0.00    -0.248 NA
ATOM     60  C   UNL A   1      43.064  30.778  37.221  1.00  0.00     0.031 C 
ATOM     61  C   UNL A   1      38.225  33.765  35.080  1.00  0.00     0.029 A 
ATOM     62  C   UNL A   1      39.303  32.899  35.190  1.00  0.00     0.049 A 
ATOM     63  H   UNL A   1      40.022  31.493  33.793  1.00  0.00     0.167 HD
ATOM     64  C   UNL A   1      41.231  31.841  36.342  1.00  0.00     0.074 A 
ATOM     65  C   UNL A   1      42.148  31.709  37.455  1.00  0.00     0.031 C 
ATOM     66  C   UNL A   1      40.224  32.748  36.291  1.00  0.00     0.037 A 
BRANCH  53  67
ATOM     67  C   UNL A   1      36.995  32.664  31.014  1.00  0.00     0.058 A 
ATOM     68  C   UNL A   1      37.235  33.625  30.019  1.00  0.00     0.135 A 
ATOM     69  C   UNL A   1      35.670  32.236  31.205  1.00  0.00     0.135 A 
ATOM     70  F   UNL A   1      38.477  34.086  29.809  1.00  0.00    -0.206 F 
ATOM     71  C   UNL A   1      36.199  34.157  29.259  1.00  0.00     0.059 A 
ATOM     72  C   UNL A   1      34.623  32.733  30.435  1.00  0.00     0.059 A 
ATOM     73  F   UNL A   1      35.384  31.326  32.148  1.00  0.00    -0.206 F 
ATOM     74  C   UNL A   1      34.897  33.704  29.473  1.00  0.00     0.060 A 
BRANCH  74  75
ATOM     75  S   UNL A   1      33.567  34.401  28.470  1.00  0.00     0.124 S 
ATOM     76  O   UNL A   1      33.174  33.247  27.668  1.00  0.00    -0.237 OA
ATOM     77  O   UNL A   1      32.606  34.825  29.484  1.00  0.00    -0.237 OA
ATOM     78  O   UNL A   1      34.221  35.480  27.738  1.00  0.00    -0.744 OA
ENDBRANCH  74  75
ENDBRANCH  53  67
BRANCH  54  79
ATOM     79  C   UNL A   1      44.638  28.594  36.044  1.00  0.00     0.058 A 
ATOM     80  C   UNL A   1      45.914  29.145  35.854  1.00  0.00     0.135 A 
ATOM     81  C   UNL A   1      44.520  27.516  36.936  1.00  0.00     0.135 A 
ATOM     82  F   UNL A   1      46.081  30.168  35.003  1.00  0.00    -0.206 F 
ATOM     83  C   UNL A   1      47.033  28.638  36.508  1.00  0.00     0.059 A 
ATOM     84  C   UNL A   1      45.619  27.010  37.625  1.00  0.00     0.059 A 
ATOM     85  F   UNL A   1      43.321  26.957  37.163  1.00  0.00    -0.206 F 
ATOM     86  C   UNL A   1      46.873  27.572  37.395  1.00  0.00     0.060 A 
BRANCH  86  87
ATOM     87  S   UNL A   1      48.326  26.952  38.273  1.00  0.00     0.124 S 
ATOM     88  O   UNL A   1      47.820  25.703  38.829  1.00  0.00    -0.237 OA
ATOM     89  O   UNL A   1      49.301  26.824  37.195  1.00  0.00    -0.237 OA
ATOM     90  O   UNL A   1      48.606  28.007  39.242  1.00  0.00    -0.744 OA
ENDBRANCH  86  87
ENDBRANCH  54  79
BRANCH  66  91
ATOM     91  C   UNL A   1      40.036  33.657  37.477  1.00  0.00     0.058 A 
ATOM     92  C   UNL A   1      40.732  34.869  37.593  1.00  0.00     0.135 A 
ATOM     93  C   UNL A   1      39.087  33.348  38.465  1.00  0.00     0.135 A 
ATOM     94  F   UNL A   1      41.656  35.208  36.681  1.00  0.00    -0.206 F 
ATOM     95  C   UNL A   1      40.500  35.740  38.653  1.00  0.00     0.059 A 
ATOM     96  C   UNL A   1      38.818  34.218  39.517  1.00  0.00     0.059 A 
ATOM     97  F   UNL A   1      38.386  32.204  38.396  1.00  0.00    -0.206 F 
ATOM     98  C   UNL A   1      39.534  35.410  39.605  1.00  0.00     0.060 A 
BRANCH  98  99
ATOM     99  S   UNL A   1      39.202  36.580  40.940  1.00  0.00     0.124 S 
ATOM    100  O   UNL A   1      38.591  37.689  40.214  1.00  0.00    -0.237 OA
ATOM    101  O   UNL A   1      38.307  35.818  41.805  1.00  0.00    -0.237 OA
ATOM    102  O   UNL A   1      40.526  36.847  41.495  1.00  0.00    -0.744 OA
ENDBRANCH  98  99
ENDBRANCH  66  91
ENDBRANCH  40  41
ENDBRANCH  33  35
ENDBRANCH  32  33
ENDBRANCH  31  32
ENDBRANCH  30  31
ENDBRANCH  29  30
ENDBRANCH   1  29
TORSDOF 23
ENDMDL
MODEL 2
REMARK VINA RESULT:     -10.5      1.701      3.875
REMARK SMILES CS(=O)(=O)N1C[C@@H]2CN(C(=O)C3CCOCC3)C[C@@]2(C(=O)OCCOCCOCCOC(=O)c2ccc(-c3c4nc(c(-c5c(F)cc(S(=O)(=O)[O-])cc5F)c5ccc([nH]5)c(-c5c(F)cc(S(=O)(=O)[O-])cc5F)c5nc(c(-c6c(F)cc(S(=O)(=O)[O-])cc6F)c6ccc3[nH]6)C=C5)C=C4)cc2)C1
REMARK SMILES IDX 27 1 26 2 25 3 24 4 23 5 22 6 20 7 21 8 19 9 5 10 6 11
REMARK SMILES IDX 100 12 7 13 8 14 18 15 9 16 2 17 1 18 3 19 4 20 10 21 11 22
REMARK SMILES IDX 12 23 13 24 17 25 14 26 16 27 15 28 28 29 29 30 30 31 31 32
REMARK SMILES IDX 32 33 33 34 34 35 35 36 99 37 36 38 98 39 37 40 38 41 39 42
REMARK SMILES IDX 92 43 40 44 97 45 91 46 93 47 41 48 96 49 90 50 89 51 42 53
REMARK SMILES IDX 76 54 55 55 75 56 56 57 59 58 74 59 94 60 57 61 58 62 73 64
REMARK SMILES IDX 95 65 60 66 43 67 44 68 53 69 45 70 46 71 52 72 54 73 47 74
REMARK SMILES IDX 48 75 49 76 50 77 51 78 77 79 78 80 87 81 79 82 80 83 86 84
REMARK SMILES IDX 88 85 81 86 82 87 83 88 84 89 85 90 61 91 62 92 71 93 63 94
REMARK SMILES IDX 64 95 70 96 72 97 65 98 66 99 67 100 68 101 69 102
REMARK H PARENT 93 52 59 63
REMARK Flexibility Score: inf
ROOT
ATOM      1  C   UNL A   1      40.886  21.096  26.562  1.00  0.00     0.188 C 
ENDROOT
BRANCH   1   2
ATOM      2  C   UNL A   1      39.420  21.471  26.278  1.00  0.00     0.188 C 
BRANCH   2   3
ATOM      3  O   UNL A   1      39.133  22.835  26.544  1.00  0.00    -0.376 OA
BRANCH   3   4
ATOM      4  C   UNL A   1      38.224  23.546  25.707  1.00  0.00     0.202 C 
BRANCH   4   5
ATOM      5  C   UNL A   1      36.856  24.015  26.241  1.00  0.00     0.261 C 
BRANCH   5   6
ATOM      6  O   UNL A   1      35.909  22.952  26.120  1.00  0.00    -0.463 OA
BRANCH   6   7
ATOM      7  C   UNL A   1      34.934  22.885  25.166  1.00  0.00     0.315 C 
ATOM      8  O   UNL A   1      35.084  23.122  23.981  1.00  0.00    -0.251 OA
BRANCH   7   9
ATOM      9  C   UNL A   1      33.631  22.547  25.982  1.00  0.00     0.105 C 
ATOM     10  N   UNL A   1      33.147  20.380  24.895  1.00  0.00    -0.201 NA
ATOM     11  C   UNL A   1      31.891  21.104  24.892  1.00  0.00     0.109 C 
ATOM     12  C   UNL A   1      34.101  21.056  25.793  1.00  0.00     0.123 C 
ATOM     13  C   UNL A   1      32.127  22.127  25.972  1.00  0.00     0.044 C 
ATOM     14  C   UNL A   1      31.164  23.296  25.951  1.00  0.00     0.125 C 
ATOM     15  C   UNL A   1      33.348  24.063  25.719  1.00  0.00     0.140 C 
ATOM     16  N   UNL A   1      32.015  24.429  26.113  1.00  0.00    -0.341 N 
BRANCH  10  17
ATOM     17  S   UNL A   1      33.192  18.719  24.673  1.00  0.00     0.211 S 
ATOM     18  C   UNL A   1      32.439  18.494  23.068  1.00  0.00     0.176 C 
ATOM     19  O   UNL A   1      32.299  18.139  25.655  1.00  0.00    -0.213 OA
ATOM     20  O   UNL A   1      34.581  18.332  24.587  1.00  0.00    -0.213 OA
ENDBRANCH  10  17
BRANCH  16  21
ATOM     21  C   UNL A   1      31.499  25.695  26.294  1.00  0.00     0.225 C 
ATOM     22  O   UNL A   1      30.298  25.840  26.552  1.00  0.00    -0.275 OA
BRANCH  21  23
ATOM     23  C   UNL A   1      32.403  26.946  26.319  1.00  0.00     0.083 C 
ATOM     24  C   UNL A   1      32.097  28.069  27.318  1.00  0.00     0.042 C 
ATOM     25  C   UNL A   1      32.589  27.451  24.884  1.00  0.00     0.042 C 
ATOM     26  C   UNL A   1      32.963  29.300  27.076  1.00  0.00     0.161 C 
ATOM     27  C   UNL A   1      33.412  28.727  24.830  1.00  0.00     0.161 C 
ATOM     28  O   UNL A   1      32.894  29.716  25.717  1.00  0.00    -0.381 OA
ENDBRANCH  21  23
ENDBRANCH  16  21
ENDBRANCH   7   9
ENDBRANCH   6   7
ENDBRANCH   5   6
ENDBRANCH   4   5
ENDBRANCH   3   4
ENDBRANCH   2   3
ENDBRANCH   1   2
BRANCH   1  29
ATOM     29  O   UNL A   1      41.896  21.546  25.675  1.00  0.00    -0.376 OA
BRANCH  29  30
ATOM     30  C   UNL A   1      43.142  21.950  26.234  1.00  0.00     0.202 C 
BRANCH  30  31
ATOM     31  C   UNL A   1      43.367  23.440  26.535  1.00  0.00     0.261 C 
BRANCH  31  32
ATOM     32  O   UNL A   1      42.183  24.251  26.455  1.00  0.00    -0.460 OA
BRANCH  32  33
ATOM     33  C   UNL A   1      42.388  25.572  26.201  1.00  0.00     0.338 C 
ATOM     34  O   UNL A   1      42.623  26.092  25.124  1.00  0.00    -0.246 OA
BRANCH  33  35
ATOM     35  C   UNL A   1      42.016  26.333  27.413  1.00  0.00     0.060 A 
ATOM     36  C   UNL A   1      42.716  27.514  27.716  1.00  0.00     0.016 A 
ATOM     37  C   UNL A   1      40.958  25.912  28.215  1.00  0.00     0.016 A 
ATOM     38  C   UNL A   1      42.339  28.293  28.811  1.00  0.00     0.010 A 
ATOM     39  C   UNL A   1      40.605  26.672  29.329  1.00  0.00     0.010 A 
ATOM     40  C   UNL A   1      41.294  27.860  29.634  1.00  0.00    -0.014 A 
BRANCH  40  41
ATOM     41  C   UNL A   1      40.983  28.552  30.905  1.00  0.00     0.031 A 
ATOM     42  C   UNL A   1      39.894  29.584  30.899  1.00  0.00     0.074 A 
ATOM     43  C   UNL A   1      41.710  28.323  32.013  1.00  0.00     0.049 A 
ATOM     44  N   UNL A   1      39.589  30.470  31.807  1.00  0.00    -0.248 NA
ATOM     45  C   UNL A   1      39.046  29.629  29.697  1.00  0.00     0.031 C 
ATOM     46  C   UNL A   1      42.764  27.317  32.140  1.00  0.00     0.029 A 
ATOM     47  N   UNL A   1      41.699  28.956  33.230  1.00  0.00    -0.354 N 
ATOM     48  C   UNL A   1      38.526  31.195  31.281  1.00  0.00     0.074 A 
ATOM     49  C   UNL A   1      38.253  30.654  29.966  1.00  0.00     0.031 C 
ATOM     50  C   UNL A   1      43.329  27.431  33.356  1.00  0.00     0.029 A 
ATOM     51  C   UNL A   1      42.710  28.549  34.067  1.00  0.00     0.049 A 
ATOM     52  H   UNL A   1      41.031  29.636  33.479  1.00  0.00     0.167 HD
ATOM     53  C   UNL A   1      37.845  32.219  31.845  1.00  0.00     0.037 A 
ATOM     54  C   UNL A   1      43.125  29.061  35.245  1.00  0.00     0.037 A 
ATOM     55  C   UNL A   1      38.143  32.754  33.146  1.00  0.00     0.049 A 
ATOM     56  C   UNL A   1      42.411  30.261  35.816  1.00  0.00     0.074 A 
ATOM     57  C   UNL A   1      37.504  33.779  33.821  1.00  0.00     0.029 A 
ATOM     58  N   UNL A   1      39.174  32.317  33.965  1.00  0.00    -0.354 N 
ATOM     59  N   UNL A   1      41.391  30.926  35.325  1.00  0.00    -0.248 NA
ATOM     60  C   UNL A   1      42.908  30.788  37.095  1.00  0.00     0.031 C 
ATOM     61  C   UNL A   1      38.186  34.000  35.022  1.00  0.00     0.029 A 
ATOM     62  C   UNL A   1      39.211  33.072  35.125  1.00  0.00     0.049 A 
ATOM     63  H   UNL A   1      39.790  31.578  33.753  1.00  0.00     0.167 HD
ATOM     64  C   UNL A   1      41.113  31.934  36.244  1.00  0.00     0.074 A 
ATOM     65  C   UNL A   1      42.061  31.782  37.328  1.00  0.00     0.031 C 
ATOM     66  C   UNL A   1      40.162  32.901  36.196  1.00  0.00     0.037 A 
BRANCH  53  67
ATOM     67  C   UNL A   1      36.738  32.844  31.044  1.00  0.00     0.058 A 
ATOM     68  C   UNL A   1      35.386  32.594  31.331  1.00  0.00     0.135 A 
ATOM     69  C   UNL A   1      37.031  33.728  29.992  1.00  0.00     0.135 A 
ATOM     70  F   UNL A   1      35.049  31.741  32.311  1.00  0.00    -0.206 F 
ATOM     71  C   UNL A   1      34.366  33.180  30.590  1.00  0.00     0.059 A 
ATOM     72  C   UNL A   1      36.026  34.349  29.257  1.00  0.00     0.059 A 
ATOM     73  F   UNL A   1      38.306  33.995  29.670  1.00  0.00    -0.206 F 
ATOM     74  C   UNL A   1      34.695  34.058  29.556  1.00  0.00     0.060 A 
BRANCH  74  75
ATOM     75  S   UNL A   1      33.357  34.815  28.611  1.00  0.00     0.124 S 
ATOM     76  O   UNL A   1      34.038  35.957  28.010  1.00  0.00    -0.237 OA
ATOM     77  O   UNL A   1      32.984  33.744  27.691  1.00  0.00    -0.237 OA
ATOM     78  O   UNL A   1      32.363  35.141  29.628  1.00  0.00    -0.744 OA
ENDBRANCH  74  75
ENDBRANCH  53  67
BRANCH  54  79
ATOM     79  C   UNL A   1      44.300  28.472  35.942  1.00  0.00     0.058 A 
ATOM     80  C   UNL A   1      44.152  27.385  36.816  1.00  0.00     0.135 A 
ATOM     81  C   UNL A   1      45.593  28.985  35.753  1.00  0.00     0.135 A 
ATOM     82  F   UNL A   1      42.936  26.867  37.041  1.00  0.00    -0.206 F 
ATOM     83  C   UNL A   1      45.241  26.836  37.489  1.00  0.00     0.059 A 
ATOM     84  C   UNL A   1      46.701  28.436  36.391  1.00  0.00     0.059 A 
ATOM     85  F   UNL A   1      45.793  30.019  34.920  1.00  0.00    -0.206 F 
ATOM     86  C   UNL A   1      46.513  27.367  37.266  1.00  0.00     0.060 A 
BRANCH  86  87
ATOM     87  S   UNL A   1      47.923  26.618  38.110  1.00  0.00     0.124 S 
ATOM     88  O   UNL A   1      47.449  26.572  39.488  1.00  0.00    -0.237 OA
ATOM     89  O   UNL A   1      48.037  25.332  37.429  1.00  0.00    -0.237 OA
ATOM     90  O   UNL A   1      49.008  27.559  37.846  1.00  0.00    -0.744 OA
ENDBRANCH  86  87
ENDBRANCH  54  79
BRANCH  66  91
ATOM     91  C   UNL A   1      40.075  33.858  37.355  1.00  0.00     0.058 A 
ATOM     92  C   UNL A   1      40.848  35.028  37.403  1.00  0.00     0.135 A 
ATOM     93  C   UNL A   1      39.147  33.643  38.387  1.00  0.00     0.135 A 
ATOM     94  F   UNL A   1      41.757  35.278  36.448  1.00  0.00    -0.206 F 
ATOM     95  C   UNL A   1      40.711  35.947  38.439  1.00  0.00     0.059 A 
ATOM     96  C   UNL A   1      38.972  34.563  39.416  1.00  0.00     0.059 A 
ATOM     97  F   UNL A   1      38.375  32.544  38.384  1.00  0.00    -0.206 F 
ATOM     98  C   UNL A   1      39.762  35.710  39.436  1.00  0.00     0.060 A 
BRANCH  98  99
ATOM     99  S   UNL A   1      39.553  36.943  40.739  1.00  0.00     0.124 S 
ATOM    100  O   UNL A   1      38.606  37.865  40.122  1.00  0.00    -0.237 OA
ATOM    101  O   UNL A   1      39.032  36.142  41.842  1.00  0.00    -0.237 OA
ATOM    102  O   UNL A   1      40.903  37.465  40.933  1.00  0.00    -0.744 OA
ENDBRANCH  98  99
ENDBRANCH  66  91
ENDBRANCH  40  41
ENDBRANCH  33  35
ENDBRANCH  32  33
ENDBRANCH  31  32
ENDBRANCH  30  31
ENDBRANCH  29  30
ENDBRANCH   1  29
TORSDOF 23
ENDMDL
MODEL 3
REMARK VINA RESULT:     -10.1      1.584      8.630
REMARK SMILES CS(=O)(=O)N1C[C@@H]2CN(C(=O)C3CCOCC3)C[C@@]2(C(=O)OCCOCCOCCOC(=O)c2ccc(-c3c4nc(c(-c5c(F)cc(S(=O)(=O)[O-])cc5F)c5ccc([nH]5)c(-c5c(F)cc(S(=O)(=O)[O-])cc5F)c5nc(c(-c6c(F)cc(S(=O)(=O)[O-])cc6F)c6ccc3[nH]6)C=C5)C=C4)cc2)C1
REMARK SMILES IDX 27 1 26 2 25 3 24 4 23 5 22 6 20 7 21 8 19 9 5 10 6 11
REMARK SMILES IDX 100 12 7 13 8 14 18 15 9 16 2 17 1 18 3 19 4 20 10 21 11 22
REMARK SMILES IDX 12 23 13 24 17 25 14 26 16 27 15 28 28 29 29 30 30 31 31 32
REMARK SMILES IDX 32 33 33 34 34 35 35 36 99 37 36 38 98 39 37 40 38 41 39 42
REMARK SMILES IDX 92 43 40 44 97 45 91 46 93 47 41 48 96 49 90 50 89 51 42 53
REMARK SMILES IDX 76 54 55 55 75 56 56 57 59 58 74 59 94 60 57 61 58 62 73 64
REMARK SMILES IDX 95 65 60 66 43 67 44 68 53 69 45 70 46 71 52 72 54 73 47 74
REMARK SMILES IDX 48 75 49 76 50 77 51 78 77 79 78 80 87 81 79 82 80 83 86 84
REMARK SMILES IDX 88 85 81 86 82 87 83 88 84 89 85 90 61 91 62 92 71 93 63 94
REMARK SMILES IDX 64 95 70 96 72 97 65 98 66 99 67 100 68 101 69 102
REMARK H PARENT 93 52 59 63
REMARK Flexibility Score: inf
ROOT
ATOM      1  C   UNL A   1      41.147  22.781  27.860  1.00  0.00     0.188 C 
ENDROOT
BRANCH   1   2
ATOM      2  C   UNL A   1      39.751  23.135  27.315  1.00  0.00     0.188 C 
BRANCH   2   3
ATOM      3  O   UNL A   1      39.374  22.346  26.199  1.00  0.00    -0.376 OA
BRANCH   3   4
ATOM      4  C   UNL A   1      38.032  22.389  25.720  1.00  0.00     0.202 C 
BRANCH   4   5
ATOM      5  C   UNL A   1      37.564  21.452  24.588  1.00  0.00     0.261 C 
BRANCH   5   6
ATOM      6  O   UNL A   1      36.192  21.108  24.791  1.00  0.00    -0.463 OA
BRANCH   6   7
ATOM      7  C   UNL A   1      35.133  21.876  24.402  1.00  0.00     0.315 C 
ATOM      8  O   UNL A   1      35.169  22.764  23.570  1.00  0.00    -0.251 OA
BRANCH   7   9
ATOM      9  C   UNL A   1      33.960  21.403  25.338  1.00  0.00     0.105 C 
ATOM     10  N   UNL A   1      33.484  19.275  24.175  1.00  0.00    -0.201 NA
ATOM     11  C   UNL A   1      32.194  19.909  24.363  1.00  0.00     0.109 C 
ATOM     12  C   UNL A   1      34.495  19.961  24.999  1.00  0.00     0.123 C 
ATOM     13  C   UNL A   1      32.494  20.882  25.474  1.00  0.00     0.044 C 
ATOM     14  C   UNL A   1      31.465  21.981  25.641  1.00  0.00     0.125 C 
ATOM     15  C   UNL A   1      33.555  22.909  25.210  1.00  0.00     0.140 C 
ATOM     16  N   UNL A   1      32.259  23.159  25.778  1.00  0.00    -0.341 N 
BRANCH  10  17
ATOM     17  S   UNL A   1      33.604  17.636  23.840  1.00  0.00     0.211 S 
ATOM     18  C   UNL A   1      32.618  16.877  25.123  1.00  0.00     0.176 C 
ATOM     19  O   UNL A   1      34.983  17.259  24.074  1.00  0.00    -0.213 OA
ATOM     20  O   UNL A   1      32.958  17.406  22.569  1.00  0.00    -0.213 OA
ENDBRANCH  10  17
BRANCH  16  21
ATOM     21  C   UNL A   1      31.691  24.374  26.100  1.00  0.00     0.225 C 
ATOM     22  O   UNL A   1      31.207  24.548  27.225  1.00  0.00    -0.275 OA
BRANCH  21  23
ATOM     23  C   UNL A   1      31.759  25.582  25.143  1.00  0.00     0.083 C 
ATOM     24  C   UNL A   1      31.448  26.984  25.685  1.00  0.00     0.042 C 
ATOM     25  C   UNL A   1      30.981  25.246  23.866  1.00  0.00     0.042 C 
ATOM     26  C   UNL A   1      31.373  28.023  24.573  1.00  0.00     0.161 C 
ATOM     27  C   UNL A   1      30.939  26.416  22.897  1.00  0.00     0.161 C 
ATOM     28  O   UNL A   1      30.487  27.605  23.540  1.00  0.00    -0.381 OA
ENDBRANCH  21  23
ENDBRANCH  16  21
ENDBRANCH   7   9
ENDBRANCH   6   7
ENDBRANCH   5   6
ENDBRANCH   4   5
ENDBRANCH   3   4
ENDBRANCH   2   3
ENDBRANCH   1   2
BRANCH   1  29
ATOM     29  O   UNL A   1      41.867  21.712  27.270  1.00  0.00    -0.376 OA
BRANCH  29  30
ATOM     30  C   UNL A   1      43.007  22.034  26.478  1.00  0.00     0.202 C 
BRANCH  30  31
ATOM     31  C   UNL A   1      43.008  23.350  25.686  1.00  0.00     0.261 C 
BRANCH  31  32
ATOM     32  O   UNL A   1      43.272  24.522  26.476  1.00  0.00    -0.460 OA
BRANCH  32  33
ATOM     33  C   UNL A   1      42.734  25.682  26.009  1.00  0.00     0.338 C 
ATOM     34  O   UNL A   1      42.281  25.894  24.898  1.00  0.00    -0.246 OA
BRANCH  33  35
ATOM     35  C   UNL A   1      42.536  26.589  27.161  1.00  0.00     0.060 A 
ATOM     36  C   UNL A   1      41.595  26.240  28.146  1.00  0.00     0.016 A 
ATOM     37  C   UNL A   1      43.302  27.744  27.291  1.00  0.00     0.016 A 
ATOM     38  C   UNL A   1      41.439  27.037  29.281  1.00  0.00     0.010 A 
ATOM     39  C   UNL A   1      43.121  28.557  28.408  1.00  0.00     0.010 A 
ATOM     40  C   UNL A   1      42.188  28.212  29.403  1.00  0.00    -0.014 A 
BRANCH  40  41
ATOM     41  C   UNL A   1      41.924  29.180  30.492  1.00  0.00     0.031 A 
ATOM     42  C   UNL A   1      42.743  29.073  31.744  1.00  0.00     0.074 A 
ATOM     43  C   UNL A   1      40.925  30.074  30.395  1.00  0.00     0.049 A 
ATOM     44  N   UNL A   1      42.559  29.643  32.904  1.00  0.00    -0.248 NA
ATOM     45  C   UNL A   1      43.920  28.191  31.681  1.00  0.00     0.031 C 
ATOM     46  C   UNL A   1      40.094  30.289  29.211  1.00  0.00     0.029 A 
ATOM     47  N   UNL A   1      40.413  30.939  31.329  1.00  0.00    -0.354 N 
ATOM     48  C   UNL A   1      43.583  29.174  33.718  1.00  0.00     0.074 A 
ATOM     49  C   UNL A   1      44.374  28.259  32.922  1.00  0.00     0.031 C 
ATOM     50  C   UNL A   1      39.145  31.196  29.505  1.00  0.00     0.029 A 
ATOM     51  C   UNL A   1      39.273  31.584  30.910  1.00  0.00     0.049 A 
ATOM     52  H   UNL A   1      40.822  31.083  32.213  1.00  0.00     0.167 HD
ATOM     53  C   UNL A   1      43.836  29.480  35.012  1.00  0.00     0.037 A 
ATOM     54  C   UNL A   1      38.403  32.350  31.599  1.00  0.00     0.037 A 
ATOM     55  C   UNL A   1      43.028  30.378  35.792  1.00  0.00     0.049 A 
ATOM     56  C   UNL A   1      38.651  32.606  33.065  1.00  0.00     0.074 A 
ATOM     57  C   UNL A   1      43.205  30.772  37.106  1.00  0.00     0.029 A 
ATOM     58  N   UNL A   1      41.882  31.013  35.334  1.00  0.00    -0.354 N 
ATOM     59  N   UNL A   1      39.636  32.181  33.823  1.00  0.00    -0.248 NA
ATOM     60  C   UNL A   1      37.667  33.438  33.773  1.00  0.00     0.031 C 
ATOM     61  C   UNL A   1      42.133  31.598  37.461  1.00  0.00     0.029 A 
ATOM     62  C   UNL A   1      41.321  31.769  36.349  1.00  0.00     0.049 A 
ATOM     63  H   UNL A   1      41.519  30.936  34.422  1.00  0.00     0.167 HD
ATOM     64  C   UNL A   1      39.400  32.709  35.089  1.00  0.00     0.074 A 
ATOM     65  C   UNL A   1      38.190  33.498  34.992  1.00  0.00     0.031 C 
ATOM     66  C   UNL A   1      40.117  32.554  36.230  1.00  0.00     0.037 A 
BRANCH  53  67
ATOM     67  C   UNL A   1      45.011  28.812  35.668  1.00  0.00     0.058 A 
ATOM     68  C   UNL A   1      46.280  29.414  35.700  1.00  0.00     0.135 A 
ATOM     69  C   UNL A   1      44.862  27.566  36.300  1.00  0.00     0.135 A 
ATOM     70  F   UNL A   1      46.485  30.593  35.093  1.00  0.00    -0.206 F 
ATOM     71  C   UNL A   1      47.362  28.794  36.314  1.00  0.00     0.059 A 
ATOM     72  C   UNL A   1      45.924  26.942  36.947  1.00  0.00     0.059 A 
ATOM     73  F   UNL A   1      43.673  26.944  36.293  1.00  0.00    -0.206 F 
ATOM     74  C   UNL A   1      47.174  27.559  36.937  1.00  0.00     0.060 A 
BRANCH  74  75
ATOM     75  S   UNL A   1      48.590  26.774  37.736  1.00  0.00     0.124 S 
ATOM     76  O   UNL A   1      47.952  26.114  38.871  1.00  0.00    -0.237 OA
ATOM     77  O   UNL A   1      49.085  25.888  36.686  1.00  0.00    -0.237 OA
ATOM     78  O   UNL A   1      49.459  27.896  38.069  1.00  0.00    -0.744 OA
ENDBRANCH  74  75
ENDBRANCH  53  67
BRANCH  54  79
ATOM     79  C   UNL A   1      37.193  32.895  30.926  1.00  0.00     0.058 A 
ATOM     80  C   UNL A   1      37.276  34.007  30.075  1.00  0.00     0.135 A 
ATOM     81  C   UNL A   1      35.928  32.318  31.122  1.00  0.00     0.135 A 
ATOM     82  F   UNL A   1      38.460  34.602  29.866  1.00  0.00    -0.206 F 
ATOM     83  C   UNL A   1      36.149  34.537  29.454  1.00  0.00     0.059 A 
ATOM     84  C   UNL A   1      34.790  32.811  30.489  1.00  0.00     0.059 A 
ATOM     85  F   UNL A   1      35.792  31.246  31.919  1.00  0.00    -0.206 F 
ATOM     86  C   UNL A   1      34.910  33.928  29.665  1.00  0.00     0.060 A 
BRANCH  86  87
ATOM     87  S   UNL A   1      33.462  34.598  28.818  1.00  0.00     0.124 S 
ATOM     88  O   UNL A   1      34.016  35.792  28.190  1.00  0.00    -0.237 OA
ATOM     89  O   UNL A   1      33.106  33.508  27.916  1.00  0.00    -0.237 OA
ATOM     90  O   UNL A   1      32.519  34.837  29.907  1.00  0.00    -0.744 OA
ENDBRANCH  86  87
ENDBRANCH  54  79
BRANCH  66  91
ATOM     91  C   UNL A   1      39.634  33.268  37.465  1.00  0.00     0.058 A 
ATOM     92  C   UNL A   1      38.641  32.720  38.291  1.00  0.00     0.135 A 
ATOM     93  C   UNL A   1      40.232  34.473  37.869  1.00  0.00     0.135 A 
ATOM     94  F   UNL A   1      38.031  31.576  37.948  1.00  0.00    -0.206 F 
ATOM     95  C   UNL A   1      38.251  33.348  39.470  1.00  0.00     0.059 A 
ATOM     96  C   UNL A   1      39.879  35.101  39.059  1.00  0.00     0.059 A 
ATOM     97  F   UNL A   1      41.194  35.035  37.119  1.00  0.00    -0.206 F 
ATOM     98  C   UNL A   1      38.883  34.534  39.851  1.00  0.00     0.060 A 
BRANCH  98  99
ATOM     99  S   UNL A   1      38.408  35.301  41.415  1.00  0.00     0.124 S 
ATOM    100  O   UNL A   1      38.557  36.719  41.104  1.00  0.00    -0.237 OA
ATOM    101  O   UNL A   1      37.037  34.831  41.587  1.00  0.00    -0.237 OA
ATOM    102  O   UNL A   1      39.376  34.762  42.366  1.00  0.00    -0.744 OA
ENDBRANCH  98  99
ENDBRANCH  66  91
ENDBRANCH  40  41
ENDBRANCH  33  35
ENDBRANCH  32  33
ENDBRANCH  31  32
ENDBRANCH  30  31
ENDBRANCH  29  30
ENDBRANCH   1  29
TORSDOF 23
ENDMDL
