MODEL 1
REMARK VINA RESULT:      -9.0      0.000      0.000
REMARK SMILES COc1ccc(NS(=O)(=O)c2ccc(NC(=O)[C@H]3CCCC[C@@H]3C(=O)OCCOCCOCCOC(=O)c3ccc(-c4c5nc(c(-c6c(F)cc(S(=O)(=O)[O-])cc6F)c6ccc([nH]6)c(-c6c(F)cc(S(=O)(=O)[O-])cc6F)c6nc(c(-c7c(F)cc(S(=O)(=O)[O-])cc7F)c7ccc4[nH]7)C=C6)C=C5)cc3)cc2)cc1
REMARK SMILES IDX 29 1 28 2 27 3 26 4 24 5 25 6 23 7 18 8 19 9 20 10 22 11
REMARK SMILES IDX 21 12 16 13 15 14 17 16 14 17 11 18 12 19 105 20 13 21
REMARK SMILES IDX 104 22 8 23 9 24 10 25 7 26 6 28 3 29 4 30 107 31 5 32
REMARK SMILES IDX 106 33 2 34 1 35 30 36 31 37 32 38 33 39 34 40 35 41 36 42
REMARK SMILES IDX 37 43 38 44 39 45 103 46 40 47 102 48 41 49 42 50 43 51
REMARK SMILES IDX 96 52 44 53 101 54 95 55 97 56 45 57 100 58 94 59 93 60
REMARK SMILES IDX 46 62 80 63 59 64 79 65 60 66 63 67 78 68 98 69 61 70 62 71
REMARK SMILES IDX 77 73 99 74 64 75 47 76 48 77 57 78 49 79 50 80 56 81 58 82
REMARK SMILES IDX 51 83 52 84 53 85 54 86 55 87 81 88 82 89 91 90 83 91 84 92
REMARK SMILES IDX 90 93 92 94 85 95 86 96 87 97 88 98 89 99 65 100 66 101
REMARK SMILES IDX 75 102 67 103 68 104 74 105 76 106 69 107 70 108 71 109
REMARK SMILES IDX 72 110 73 111
REMARK H PARENT 15 15 7 27 97 61 63 72
REMARK Flexibility Score: inf
ROOT
ATOM      1  O   UNL A   1      37.935  28.754  30.531  1.00  0.00    -0.376 OA
ENDROOT
BRANCH   1   2
ATOM      2  C   UNL A   1      39.212  29.261  30.178  1.00  0.00     0.202 C 
BRANCH   2   3
ATOM      3  C   UNL A   1      40.188  28.198  29.659  1.00  0.00     0.261 C 
BRANCH   3   4
ATOM      4  O   UNL A   1      39.880  27.501  28.423  1.00  0.00    -0.463 OA
BRANCH   4   5
ATOM      5  C   UNL A   1      40.403  27.959  27.254  1.00  0.00     0.309 C 
ATOM      6  O   UNL A   1      40.179  29.076  26.811  1.00  0.00    -0.252 OA
BRANCH   5   7
ATOM      7  C   UNL A   1      41.168  26.855  26.502  1.00  0.00     0.111 C 
ATOM      8  C   UNL A   1      41.723  25.675  27.348  1.00  0.00     0.093 C 
ATOM      9  C   UNL A   1      42.969  26.199  28.104  1.00  0.00     0.014 C 
ATOM     10  C   UNL A   1      44.024  26.746  27.136  1.00  0.00     0.001 C 
ATOM     11  C   UNL A   1      42.208  27.433  25.549  1.00  0.00     0.016 C 
ATOM     12  C   UNL A   1      43.467  27.870  26.272  1.00  0.00     0.001 C 
BRANCH   8  13
ATOM     13  C   UNL A   1      42.138  24.316  26.668  1.00  0.00     0.228 C 
ATOM     14  N   UNL A   1      41.272  23.370  26.195  1.00  0.00    -0.326 N 
ATOM     15  H   UNL A   1      41.675  22.688  25.611  1.00  0.00     0.169 HD
ATOM     16  O   UNL A   1      43.336  24.030  26.541  1.00  0.00    -0.274 OA
BRANCH  14  17
ATOM     17  C   UNL A   1      39.907  23.229  26.418  1.00  0.00     0.041 A 
ATOM     18  C   UNL A   1      37.153  23.273  26.095  1.00  0.00     0.087 A 
ATOM     19  C   UNL A   1      37.843  24.372  26.582  1.00  0.00     0.024 A 
ATOM     20  C   UNL A   1      37.854  22.086  25.847  1.00  0.00     0.024 A 
ATOM     21  C   UNL A   1      39.184  24.296  26.909  1.00  0.00     0.027 A 
ATOM     22  C   UNL A   1      39.251  22.071  25.988  1.00  0.00     0.027 A 
BRANCH  18  23
ATOM     23  S   UNL A   1      35.457  23.444  25.608  1.00  0.00     0.261 S 
ATOM     24  O   UNL A   1      35.288  24.791  25.107  1.00  0.00    -0.201 OA
ATOM     25  O   UNL A   1      34.661  22.972  26.724  1.00  0.00    -0.201 OA
BRANCH  23  26
ATOM     26  N   UNL A   1      35.055  22.421  24.285  1.00  0.00    -0.280 N 
ATOM     27  H   UNL A   1      35.243  22.732  23.370  1.00  0.00     0.180 HD
BRANCH  26  28
ATOM     28  C   UNL A   1      34.455  21.126  24.466  1.00  0.00     0.049 A 
ATOM     29  C   UNL A   1      33.311  18.577  24.501  1.00  0.00     0.119 A 
ATOM     30  C   UNL A   1      32.523  19.682  24.193  1.00  0.00     0.048 A 
ATOM     31  C   UNL A   1      34.648  18.739  24.857  1.00  0.00     0.048 A 
ATOM     32  C   UNL A   1      33.084  20.964  24.238  1.00  0.00     0.030 A 
ATOM     33  C   UNL A   1      35.229  20.014  24.817  1.00  0.00     0.030 A 
BRANCH  29  34
ATOM     34  O   UNL A   1      32.821  17.321  24.284  1.00  0.00    -0.497 OA
ATOM     35  C   UNL A   1      33.455  16.702  23.170  1.00  0.00     0.278 C 
ENDBRANCH  29  34
ENDBRANCH  26  28
ENDBRANCH  23  26
ENDBRANCH  18  23
ENDBRANCH  14  17
ENDBRANCH   8  13
ENDBRANCH   5   7
ENDBRANCH   4   5
ENDBRANCH   3   4
ENDBRANCH   2   3
ENDBRANCH   1   2
BRANCH   1  36
ATOM     36  C   UNL A   1      36.848  29.327  29.824  1.00  0.00     0.188 C 
BRANCH  36  37
ATOM     37  C   UNL A   1      37.278  30.018  28.517  1.00  0.00     0.188 C 
BRANCH  37  38
ATOM     38  O   UNL A   1      36.389  30.862  27.798  1.00  0.00    -0.376 OA
BRANCH  38  39
ATOM     39  C   UNL A   1      35.085  30.402  27.506  1.00  0.00     0.202 C 
BRANCH  39  40
ATOM     40  C   UNL A   1      33.912  31.367  27.735  1.00  0.00     0.261 C 
BRANCH  40  41
ATOM     41  O   UNL A   1      34.238  32.765  27.659  1.00  0.00    -0.460 OA
BRANCH  41  42
ATOM     42  C   UNL A   1      33.809  33.533  28.698  1.00  0.00     0.338 C 
ATOM     43  O   UNL A   1      32.724  34.068  28.803  1.00  0.00    -0.246 OA
BRANCH  42  44
ATOM     44  C   UNL A   1      34.793  33.463  29.811  1.00  0.00     0.060 A 
ATOM     45  C   UNL A   1      35.665  34.548  29.986  1.00  0.00     0.016 A 
ATOM     46  C   UNL A   1      34.881  32.360  30.664  1.00  0.00     0.016 A 
ATOM     47  C   UNL A   1      36.624  34.535  31.002  1.00  0.00     0.010 A 
ATOM     48  C   UNL A   1      35.873  32.330  31.658  1.00  0.00     0.010 A 
ATOM     49  C   UNL A   1      36.763  33.408  31.819  1.00  0.00    -0.014 A 
BRANCH  49  50
ATOM     50  C   UNL A   1      37.976  33.269  32.669  1.00  0.00     0.031 A 
ATOM     51  C   UNL A   1      39.304  33.089  31.979  1.00  0.00     0.074 A 
ATOM     52  C   UNL A   1      37.930  33.337  34.013  1.00  0.00     0.049 A 
ATOM     53  N   UNL A   1      40.488  32.882  32.491  1.00  0.00    -0.248 NA
ATOM     54  C   UNL A   1      39.286  33.158  30.508  1.00  0.00     0.031 C 
ATOM     55  C   UNL A   1      36.732  33.586  34.811  1.00  0.00     0.029 A 
ATOM     56  N   UNL A   1      38.932  33.200  34.946  1.00  0.00    -0.354 N 
ATOM     57  C   UNL A   1      41.356  32.792  31.409  1.00  0.00     0.074 A 
ATOM     58  C   UNL A   1      40.560  32.951  30.212  1.00  0.00     0.031 C 
ATOM     59  C   UNL A   1      37.067  33.572  36.115  1.00  0.00     0.029 A 
ATOM     60  C   UNL A   1      38.493  33.271  36.247  1.00  0.00     0.049 A 
ATOM     61  H   UNL A   1      39.876  33.063  34.704  1.00  0.00     0.167 HD
ATOM     62  C   UNL A   1      42.696  32.592  31.408  1.00  0.00     0.037 A 
ATOM     63  C   UNL A   1      39.158  33.083  37.407  1.00  0.00     0.037 A 
ATOM     64  C   UNL A   1      43.491  32.414  32.593  1.00  0.00     0.049 A 
ATOM     65  C   UNL A   1      40.633  32.754  37.379  1.00  0.00     0.074 A 
ATOM     66  C   UNL A   1      44.852  32.182  32.687  1.00  0.00     0.029 A 
ATOM     67  N   UNL A   1      42.999  32.439  33.889  1.00  0.00    -0.354 N 
ATOM     68  N   UNL A   1      41.441  32.657  36.349  1.00  0.00    -0.248 NA
ATOM     69  C   UNL A   1      41.287  32.502  38.674  1.00  0.00     0.031 C 
ATOM     70  C   UNL A   1      45.175  32.016  34.039  1.00  0.00     0.029 A 
ATOM     71  C   UNL A   1      44.025  32.202  34.789  1.00  0.00     0.049 A 
ATOM     72  H   UNL A   1      42.059  32.601  34.134  1.00  0.00     0.167 HD
ATOM     73  C   UNL A   1      42.698  32.363  36.874  1.00  0.00     0.074 A 
ATOM     74  C   UNL A   1      42.548  32.305  38.312  1.00  0.00     0.031 C 
ATOM     75  C   UNL A   1      43.871  32.160  36.222  1.00  0.00     0.037 A 
BRANCH  62  76
ATOM     76  C   UNL A   1      43.375  32.506  30.071  1.00  0.00     0.058 A 
ATOM     77  C   UNL A   1      43.705  33.653  29.333  1.00  0.00     0.135 A 
ATOM     78  C   UNL A   1      43.709  31.256  29.526  1.00  0.00     0.135 A 
ATOM     79  F   UNL A   1      43.387  34.872  29.799  1.00  0.00    -0.206 F 
ATOM     80  C   UNL A   1      44.317  33.563  28.087  1.00  0.00     0.059 A 
ATOM     81  C   UNL A   1      44.345  31.143  28.295  1.00  0.00     0.059 A 
ATOM     82  F   UNL A   1      43.410  30.128  30.190  1.00  0.00    -0.206 F 
ATOM     83  C   UNL A   1      44.630  32.302  27.575  1.00  0.00     0.060 A 
BRANCH  83  84
ATOM     84  S   UNL A   1      45.417  32.199  25.955  1.00  0.00     0.124 S 
ATOM     85  O   UNL A   1      46.593  33.041  26.148  1.00  0.00    -0.237 OA
ATOM     86  O   UNL A   1      45.676  30.769  25.822  1.00  0.00    -0.237 OA
ATOM     87  O   UNL A   1      44.405  32.736  25.050  1.00  0.00    -0.744 OA
ENDBRANCH  83  84
ENDBRANCH  62  76
BRANCH  63  88
ATOM     88  C   UNL A   1      38.437  33.159  38.709  1.00  0.00     0.058 A 
ATOM     89  C   UNL A   1      37.550  32.149  39.111  1.00  0.00     0.135 A 
ATOM     90  C   UNL A   1      38.592  34.265  39.561  1.00  0.00     0.135 A 
ATOM     91  F   UNL A   1      37.348  31.081  38.324  1.00  0.00    -0.206 F 
ATOM     92  C   UNL A   1      36.830  32.238  40.300  1.00  0.00     0.059 A 
ATOM     93  C   UNL A   1      37.905  34.364  40.767  1.00  0.00     0.059 A 
ATOM     94  F   UNL A   1      39.426  35.261  39.225  1.00  0.00    -0.206 F 
ATOM     95  C   UNL A   1      37.016  33.350  41.123  1.00  0.00     0.060 A 
BRANCH  95  96
ATOM     96  S   UNL A   1      36.106  33.440  42.680  1.00  0.00     0.124 S 
ATOM     97  O   UNL A   1      34.724  33.392  42.216  1.00  0.00    -0.237 OA
ATOM     98  O   UNL A   1      36.584  32.254  43.384  1.00  0.00    -0.237 OA
ATOM     99  O   UNL A   1      36.537  34.714  43.248  1.00  0.00    -0.744 OA
ENDBRANCH  95  96
ENDBRANCH  63  88
BRANCH  75 100
ATOM    100  C   UNL A   1      45.104  31.899  37.048  1.00  0.00     0.058 A 
ATOM    101  C   UNL A   1      45.886  32.944  37.566  1.00  0.00     0.135 A 
ATOM    102  C   UNL A   1      45.466  30.584  37.384  1.00  0.00     0.135 A 
ATOM    103  F   UNL A   1      45.588  34.220  37.275  1.00  0.00    -0.206 F 
ATOM    104  C   UNL A   1      46.992  32.692  38.372  1.00  0.00     0.059 A 
ATOM    105  C   UNL A   1      46.552  30.311  38.211  1.00  0.00     0.059 A 
ATOM    106  F   UNL A   1      44.746  29.547  36.927  1.00  0.00    -0.206 F 
ATOM    107  C   UNL A   1      47.316  31.373  38.693  1.00  0.00     0.060 A 
BRANCH 107 108
ATOM    108  S   UNL A   1      48.730  31.062  39.774  1.00  0.00     0.124 S 
ATOM    109  O   UNL A   1      49.530  32.263  39.565  1.00  0.00    -0.237 OA
ATOM    110  O   UNL A   1      48.099  30.941  41.085  1.00  0.00    -0.237 OA
ATOM    111  O   UNL A   1      49.300  29.827  39.244  1.00  0.00    -0.744 OA
ENDBRANCH 107 108
ENDBRANCH  75 100
ENDBRANCH  49  50
ENDBRANCH  42  44
ENDBRANCH  41  42
ENDBRANCH  40  41
ENDBRANCH  39  40
ENDBRANCH  38  39
ENDBRANCH  37  38
ENDBRANCH  36  37
ENDBRANCH   1  36
TORSDOF 26
ENDMDL
MODEL 2
REMARK VINA RESULT:      -9.0      3.442      9.010
REMARK SMILES COc1ccc(NS(=O)(=O)c2ccc(NC(=O)[C@H]3CCCC[C@@H]3C(=O)OCCOCCOCCOC(=O)c3ccc(-c4c5nc(c(-c6c(F)cc(S(=O)(=O)[O-])cc6F)c6ccc([nH]6)c(-c6c(F)cc(S(=O)(=O)[O-])cc6F)c6nc(c(-c7c(F)cc(S(=O)(=O)[O-])cc7F)c7ccc4[nH]7)C=C6)C=C5)cc3)cc2)cc1
REMARK SMILES IDX 29 1 28 2 27 3 26 4 24 5 25 6 23 7 18 8 19 9 20 10 22 11
REMARK SMILES IDX 21 12 16 13 15 14 17 16 14 17 11 18 12 19 105 20 13 21
REMARK SMILES IDX 104 22 8 23 9 24 10 25 7 26 6 28 3 29 4 30 107 31 5 32
REMARK SMILES IDX 106 33 2 34 1 35 30 36 31 37 32 38 33 39 34 40 35 41 36 42
REMARK SMILES IDX 37 43 38 44 39 45 103 46 40 47 102 48 41 49 42 50 43 51
REMARK SMILES IDX 96 52 44 53 101 54 95 55 97 56 45 57 100 58 94 59 93 60
REMARK SMILES IDX 46 62 80 63 59 64 79 65 60 66 63 67 78 68 98 69 61 70 62 71
REMARK SMILES IDX 77 73 99 74 64 75 47 76 48 77 57 78 49 79 50 80 56 81 58 82
REMARK SMILES IDX 51 83 52 84 53 85 54 86 55 87 81 88 82 89 91 90 83 91 84 92
REMARK SMILES IDX 90 93 92 94 85 95 86 96 87 97 88 98 89 99 65 100 66 101
REMARK SMILES IDX 75 102 67 103 68 104 74 105 76 106 69 107 70 108 71 109
REMARK SMILES IDX 72 110 73 111
REMARK H PARENT 15 15 7 27 97 61 63 72
REMARK Flexibility Score: inf
ROOT
ATOM      1  O   UNL A   1      40.013  21.063  26.560  1.00  0.00    -0.376 OA
ENDROOT
BRANCH   1   2
ATOM      2  C   UNL A   1      39.269  22.157  26.048  1.00  0.00     0.202 C 
BRANCH   2   3
ATOM      3  C   UNL A   1      37.774  22.113  26.385  1.00  0.00     0.261 C 
BRANCH   3   4
ATOM      4  O   UNL A   1      36.833  21.693  25.362  1.00  0.00    -0.463 OA
BRANCH   4   5
ATOM      5  C   UNL A   1      35.523  22.041  25.481  1.00  0.00     0.309 C 
ATOM      6  O   UNL A   1      35.059  22.574  26.478  1.00  0.00    -0.252 OA
BRANCH   5   7
ATOM      7  C   UNL A   1      34.691  21.542  24.286  1.00  0.00     0.111 C 
ATOM      8  C   UNL A   1      33.424  22.362  23.912  1.00  0.00     0.093 C 
ATOM      9  C   UNL A   1      32.338  22.035  24.967  1.00  0.00     0.014 C 
ATOM     10  C   UNL A   1      32.044  20.532  25.021  1.00  0.00     0.001 C 
ATOM     11  C   UNL A   1      34.416  20.044  24.371  1.00  0.00     0.016 C 
ATOM     12  C   UNL A   1      33.294  19.723  25.339  1.00  0.00     0.001 C 
BRANCH   8  13
ATOM     13  C   UNL A   1      32.750  22.209  22.497  1.00  0.00     0.228 C 
ATOM     14  N   UNL A   1      32.657  23.193  21.553  1.00  0.00    -0.326 N 
ATOM     15  H   UNL A   1      32.407  22.887  20.651  1.00  0.00     0.169 HD
ATOM     16  O   UNL A   1      32.234  21.130  22.171  1.00  0.00    -0.274 OA
BRANCH  14  17
ATOM     17  C   UNL A   1      32.864  24.562  21.677  1.00  0.00     0.041 A 
ATOM     18  C   UNL A   1      32.774  27.182  22.581  1.00  0.00     0.087 A 
ATOM     19  C   UNL A   1      31.819  26.684  21.708  1.00  0.00     0.024 A 
ATOM     20  C   UNL A   1      33.857  26.369  22.940  1.00  0.00     0.024 A 
ATOM     21  C   UNL A   1      31.957  25.440  21.120  1.00  0.00     0.027 A 
ATOM     22  C   UNL A   1      33.890  25.036  22.501  1.00  0.00     0.027 A 
BRANCH  18  23
ATOM     23  S   UNL A   1      32.509  28.745  23.376  1.00  0.00     0.261 S 
ATOM     24  O   UNL A   1      31.552  29.477  22.574  1.00  0.00    -0.201 OA
ATOM     25  O   UNL A   1      33.822  29.299  23.637  1.00  0.00    -0.201 OA
BRANCH  23  26
ATOM     26  N   UNL A   1      31.762  28.570  24.916  1.00  0.00    -0.280 N 
ATOM     27  H   UNL A   1      31.694  29.358  25.502  1.00  0.00     0.180 HD
BRANCH  26  28
ATOM     28  C   UNL A   1      31.234  27.315  25.379  1.00  0.00     0.049 A 
ATOM     29  C   UNL A   1      30.316  24.751  26.006  1.00  0.00     0.119 A 
ATOM     30  C   UNL A   1      29.562  25.568  25.169  1.00  0.00     0.048 A 
ATOM     31  C   UNL A   1      31.491  25.226  26.586  1.00  0.00     0.048 A 
ATOM     32  C   UNL A   1      29.991  26.875  24.908  1.00  0.00     0.030 A 
ATOM     33  C   UNL A   1      31.964  26.503  26.254  1.00  0.00     0.030 A 
BRANCH  29  34
ATOM     34  O   UNL A   1      29.999  23.427  26.118  1.00  0.00    -0.497 OA
ATOM     35  C   UNL A   1      29.689  23.080  27.463  1.00  0.00     0.278 C 
ENDBRANCH  29  34
ENDBRANCH  26  28
ENDBRANCH  23  26
ENDBRANCH  18  23
ENDBRANCH  14  17
ENDBRANCH   8  13
ENDBRANCH   5   7
ENDBRANCH   4   5
ENDBRANCH   3   4
ENDBRANCH   2   3
ENDBRANCH   1   2
BRANCH   1  36
ATOM     36  C   UNL A   1      41.376  21.343  26.832  1.00  0.00     0.188 C 
BRANCH  36  37
ATOM     37  C   UNL A   1      42.339  20.658  25.846  1.00  0.00     0.188 C 
BRANCH  37  38
ATOM     38  O   UNL A   1      43.349  21.391  25.167  1.00  0.00    -0.376 OA
BRANCH  38  39
ATOM     39  C   UNL A   1      43.531  22.760  25.470  1.00  0.00     0.202 C 
BRANCH  39  40
ATOM     40  C   UNL A   1      42.681  23.368  26.596  1.00  0.00     0.261 C 
BRANCH  40  41
ATOM     41  O   UNL A   1      41.709  24.342  26.179  1.00  0.00    -0.460 OA
BRANCH  41  42
ATOM     42  C   UNL A   1      42.191  25.587  25.917  1.00  0.00     0.338 C 
ATOM     43  O   UNL A   1      42.463  26.044  24.825  1.00  0.00    -0.246 OA
BRANCH  42  44
ATOM     44  C   UNL A   1      42.150  26.410  27.155  1.00  0.00     0.060 A 
ATOM     45  C   UNL A   1      41.189  26.091  28.125  1.00  0.00     0.016 A 
ATOM     46  C   UNL A   1      43.019  27.483  27.369  1.00  0.00     0.016 A 
ATOM     47  C   UNL A   1      41.088  26.838  29.302  1.00  0.00     0.010 A 
ATOM     48  C   UNL A   1      42.889  28.259  28.533  1.00  0.00     0.010 A 
ATOM     49  C   UNL A   1      41.909  27.953  29.496  1.00  0.00    -0.014 A 
BRANCH  49  50
ATOM     50  C   UNL A   1      41.582  28.920  30.578  1.00  0.00     0.031 A 
ATOM     51  C   UNL A   1      42.443  28.912  31.815  1.00  0.00     0.074 A 
ATOM     52  C   UNL A   1      40.580  29.813  30.472  1.00  0.00     0.049 A 
ATOM     53  N   UNL A   1      42.325  29.605  32.917  1.00  0.00    -0.248 NA
ATOM     54  C   UNL A   1      43.597  27.998  31.797  1.00  0.00     0.031 C 
ATOM     55  C   UNL A   1      39.717  29.988  29.307  1.00  0.00     0.029 A 
ATOM     56  N   UNL A   1      40.120  30.746  31.373  1.00  0.00    -0.354 N 
ATOM     57  C   UNL A   1      43.385  29.210  33.725  1.00  0.00     0.074 A 
ATOM     58  C   UNL A   1      44.126  28.206  32.994  1.00  0.00     0.031 C 
ATOM     59  C   UNL A   1      38.825  30.962  29.568  1.00  0.00     0.029 A 
ATOM     60  C   UNL A   1      39.023  31.450  30.933  1.00  0.00     0.049 A 
ATOM     61  H   UNL A   1      40.538  30.896  32.252  1.00  0.00     0.167 HD
ATOM     62  C   UNL A   1      43.713  29.640  34.967  1.00  0.00     0.037 A 
ATOM     63  C   UNL A   1      38.252  32.358  31.570  1.00  0.00     0.037 A 
ATOM     64  C   UNL A   1      42.971  30.624  35.708  1.00  0.00     0.049 A 
ATOM     65  C   UNL A   1      38.574  32.744  32.995  1.00  0.00     0.074 A 
ATOM     66  C   UNL A   1      43.216  31.104  36.983  1.00  0.00     0.029 A 
ATOM     67  N   UNL A   1      41.835  31.272  35.248  1.00  0.00    -0.354 N 
ATOM     68  N   UNL A   1      39.570  32.353  33.755  1.00  0.00    -0.248 NA
ATOM     69  C   UNL A   1      37.661  33.692  33.654  1.00  0.00     0.031 C 
ATOM     70  C   UNL A   1      42.199  32.006  37.314  1.00  0.00     0.029 A 
ATOM     71  C   UNL A   1      41.354  32.130  36.223  1.00  0.00     0.049 A 
ATOM     72  H   UNL A   1      41.431  31.142  34.360  1.00  0.00     0.167 HD
ATOM     73  C   UNL A   1      39.418  33.028  34.965  1.00  0.00     0.074 A 
ATOM     74  C   UNL A   1      38.240  33.858  34.836  1.00  0.00     0.031 C 
ATOM     75  C   UNL A   1      40.187  32.966  36.082  1.00  0.00     0.037 A 
BRANCH  62  76
ATOM     76  C   UNL A   1      44.907  29.004  35.619  1.00  0.00     0.058 A 
ATOM     77  C   UNL A   1      46.199  29.534  35.478  1.00  0.00     0.135 A 
ATOM     78  C   UNL A   1      44.754  27.850  36.405  1.00  0.00     0.135 A 
ATOM     79  F   UNL A   1      46.404  30.623  34.718  1.00  0.00    -0.206 F 
ATOM     80  C   UNL A   1      47.302  28.928  36.070  1.00  0.00     0.059 A 
ATOM     81  C   UNL A   1      45.838  27.242  37.028  1.00  0.00     0.059 A 
ATOM     82  F   UNL A   1      43.540  27.300  36.567  1.00  0.00    -0.206 F 
ATOM     83  C   UNL A   1      47.111  27.779  36.841  1.00  0.00     0.060 A 
BRANCH  83  84
ATOM     84  S   UNL A   1      48.551  26.998  37.598  1.00  0.00     0.124 S 
ATOM     85  O   UNL A   1      49.358  26.678  36.424  1.00  0.00    -0.237 OA
ATOM     86  O   UNL A   1      49.070  28.059  38.453  1.00  0.00    -0.237 OA
ATOM     87  O   UNL A   1      47.985  25.850  38.300  1.00  0.00    -0.744 OA
ENDBRANCH  83  84
ENDBRANCH  62  76
BRANCH  63  88
ATOM     88  C   UNL A   1      37.065  32.947  30.889  1.00  0.00     0.058 A 
ATOM     89  C   UNL A   1      37.185  34.067  30.053  1.00  0.00     0.135 A 
ATOM     90  C   UNL A   1      35.778  32.423  31.094  1.00  0.00     0.135 A 
ATOM     91  F   UNL A   1      38.390  34.620  29.842  1.00  0.00    -0.206 F 
ATOM     92  C   UNL A   1      36.075  34.658  29.456  1.00  0.00     0.059 A 
ATOM     93  C   UNL A   1      34.656  32.978  30.486  1.00  0.00     0.059 A 
ATOM     94  F   UNL A   1      35.604  31.354  31.885  1.00  0.00    -0.206 F 
ATOM     95  C   UNL A   1      34.812  34.104  29.678  1.00  0.00     0.060 A 
BRANCH  95  96
ATOM     96  S   UNL A   1      33.381  34.854  28.871  1.00  0.00     0.124 S 
ATOM     97  O   UNL A   1      33.065  33.861  27.851  1.00  0.00    -0.237 OA
ATOM     98  O   UNL A   1      32.429  34.964  29.972  1.00  0.00    -0.237 OA
ATOM     99  O   UNL A   1      33.904  36.124  28.374  1.00  0.00    -0.744 OA
ENDBRANCH  95  96
ENDBRANCH  63  88
BRANCH  75 100
ATOM    100  C   UNL A   1      39.816  33.847  37.246  1.00  0.00     0.058 A 
ATOM    101  C   UNL A   1      38.839  33.470  38.181  1.00  0.00     0.135 A 
ATOM    102  C   UNL A   1      40.500  35.055  37.466  1.00  0.00     0.135 A 
ATOM    103  F   UNL A   1      38.153  32.328  38.018  1.00  0.00    -0.206 F 
ATOM    104  C   UNL A   1      38.542  34.268  39.283  1.00  0.00     0.059 A 
ATOM    105  C   UNL A   1      40.237  35.854  38.576  1.00  0.00     0.059 A 
ATOM    106  F   UNL A   1      41.452  35.458  36.611  1.00  0.00    -0.206 F 
ATOM    107  C   UNL A   1      39.248  35.457  39.474  1.00  0.00     0.060 A 
BRANCH 107 108
ATOM    108  S   UNL A   1      38.881  36.462  40.930  1.00  0.00     0.124 S 
ATOM    109  O   UNL A   1      40.208  36.633  41.512  1.00  0.00    -0.237 OA
ATOM    110  O   UNL A   1      38.288  37.658  40.342  1.00  0.00    -0.237 OA
ATOM    111  O   UNL A   1      37.962  35.627  41.698  1.00  0.00    -0.744 OA
ENDBRANCH 107 108
ENDBRANCH  75 100
ENDBRANCH  49  50
ENDBRANCH  42  44
ENDBRANCH  41  42
ENDBRANCH  40  41
ENDBRANCH  39  40
ENDBRANCH  38  39
ENDBRANCH  37  38
ENDBRANCH  36  37
ENDBRANCH   1  36
TORSDOF 26
ENDMDL
MODEL 3
REMARK VINA RESULT:      -8.5      1.212      2.173
REMARK SMILES COc1ccc(NS(=O)(=O)c2ccc(NC(=O)[C@H]3CCCC[C@@H]3C(=O)OCCOCCOCCOC(=O)c3ccc(-c4c5nc(c(-c6c(F)cc(S(=O)(=O)[O-])cc6F)c6ccc([nH]6)c(-c6c(F)cc(S(=O)(=O)[O-])cc6F)c6nc(c(-c7c(F)cc(S(=O)(=O)[O-])cc7F)c7ccc4[nH]7)C=C6)C=C5)cc3)cc2)cc1
REMARK SMILES IDX 29 1 28 2 27 3 26 4 24 5 25 6 23 7 18 8 19 9 20 10 22 11
REMARK SMILES IDX 21 12 16 13 15 14 17 16 14 17 11 18 12 19 105 20 13 21
REMARK SMILES IDX 104 22 8 23 9 24 10 25 7 26 6 28 3 29 4 30 107 31 5 32
REMARK SMILES IDX 106 33 2 34 1 35 30 36 31 37 32 38 33 39 34 40 35 41 36 42
REMARK SMILES IDX 37 43 38 44 39 45 103 46 40 47 102 48 41 49 42 50 43 51
REMARK SMILES IDX 96 52 44 53 101 54 95 55 97 56 45 57 100 58 94 59 93 60
REMARK SMILES IDX 46 62 80 63 59 64 79 65 60 66 63 67 78 68 98 69 61 70 62 71
REMARK SMILES IDX 77 73 99 74 64 75 47 76 48 77 57 78 49 79 50 80 56 81 58 82
REMARK SMILES IDX 51 83 52 84 53 85 54 86 55 87 81 88 82 89 91 90 83 91 84 92
REMARK SMILES IDX 90 93 92 94 85 95 86 96 87 97 88 98 89 99 65 100 66 101
REMARK SMILES IDX 75 102 67 103 68 104 74 105 76 106 69 107 70 108 71 109
REMARK SMILES IDX 72 110 73 111
REMARK H PARENT 15 15 7 27 97 61 63 72
REMARK Flexibility Score: inf
ROOT
ATOM      1  O   UNL A   1      38.612  28.655  30.438  1.00  0.00    -0.376 OA
ENDROOT
BRANCH   1   2
ATOM      2  C   UNL A   1      39.793  29.417  30.242  1.00  0.00     0.202 C 
BRANCH   2   3
ATOM      3  C   UNL A   1      41.052  28.575  30.001  1.00  0.00     0.261 C 
BRANCH   3   4
ATOM      4  O   UNL A   1      41.035  27.565  28.958  1.00  0.00    -0.463 OA
BRANCH   4   5
ATOM      5  C   UNL A   1      41.448  27.898  27.705  1.00  0.00     0.309 C 
ATOM      6  O   UNL A   1      40.976  28.828  27.068  1.00  0.00    -0.252 OA
BRANCH   5   7
ATOM      7  C   UNL A   1      42.454  26.875  27.148  1.00  0.00     0.111 C 
ATOM      8  C   UNL A   1      42.722  25.605  28.004  1.00  0.00     0.093 C 
ATOM      9  C   UNL A   1      43.622  26.033  29.190  1.00  0.00     0.014 C 
ATOM     10  C   UNL A   1      44.926  26.672  28.702  1.00  0.00     0.001 C 
ATOM     11  C   UNL A   1      43.740  27.543  26.672  1.00  0.00     0.016 C 
ATOM     12  C   UNL A   1      44.664  27.887  27.823  1.00  0.00     0.001 C 
BRANCH   8  13
ATOM     13  C   UNL A   1      43.381  24.323  27.368  1.00  0.00     0.228 C 
ATOM     14  N   UNL A   1      42.703  23.288  26.789  1.00  0.00    -0.326 N 
ATOM     15  H   UNL A   1      43.254  22.674  26.251  1.00  0.00     0.169 HD
ATOM     16  O   UNL A   1      44.613  24.192  27.381  1.00  0.00    -0.274 OA
BRANCH  14  17
ATOM     17  C   UNL A   1      41.350  22.973  26.847  1.00  0.00     0.041 A 
ATOM     18  C   UNL A   1      38.692  22.575  26.164  1.00  0.00     0.087 A 
ATOM     19  C   UNL A   1      39.153  23.811  26.590  1.00  0.00     0.024 A 
ATOM     20  C   UNL A   1      39.571  21.484  26.166  1.00  0.00     0.024 A 
ATOM     21  C   UNL A   1      40.430  23.970  27.097  1.00  0.00     0.027 A 
ATOM     22  C   UNL A   1      40.921  21.690  26.490  1.00  0.00     0.027 A 
BRANCH  18  23
ATOM     23  S   UNL A   1      37.079  22.440  25.441  1.00  0.00     0.261 S 
ATOM     24  O   UNL A   1      37.209  21.626  24.251  1.00  0.00    -0.201 OA
ATOM     25  O   UNL A   1      36.555  23.788  25.353  1.00  0.00    -0.201 OA
BRANCH  23  26
ATOM     26  N   UNL A   1      35.984  21.581  26.453  1.00  0.00    -0.280 N 
ATOM     27  H   UNL A   1      36.345  20.931  27.098  1.00  0.00     0.180 HD
BRANCH  26  28
ATOM     28  C   UNL A   1      34.561  21.778  26.390  1.00  0.00     0.049 A 
ATOM     29  C   UNL A   1      31.859  22.455  26.166  1.00  0.00     0.119 A 
ATOM     30  C   UNL A   1      32.575  22.840  27.295  1.00  0.00     0.048 A 
ATOM     31  C   UNL A   1      32.461  21.678  25.179  1.00  0.00     0.048 A 
ATOM     32  C   UNL A   1      33.911  22.445  27.435  1.00  0.00     0.030 A 
ATOM     33  C   UNL A   1      33.822  21.357  25.279  1.00  0.00     0.030 A 
BRANCH  29  34
ATOM     34  O   UNL A   1      30.621  22.986  25.941  1.00  0.00    -0.497 OA
ATOM     35  C   UNL A   1      30.611  24.392  26.163  1.00  0.00     0.278 C 
ENDBRANCH  29  34
ENDBRANCH  26  28
ENDBRANCH  23  26
ENDBRANCH  18  23
ENDBRANCH  14  17
ENDBRANCH   8  13
ENDBRANCH   5   7
ENDBRANCH   4   5
ENDBRANCH   3   4
ENDBRANCH   2   3
ENDBRANCH   1   2
BRANCH   1  36
ATOM     36  C   UNL A   1      37.529  29.003  29.592  1.00  0.00     0.188 C 
BRANCH  36  37
ATOM     37  C   UNL A   1      37.869  30.145  28.619  1.00  0.00     0.188 C 
BRANCH  37  38
ATOM     38  O   UNL A   1      36.860  30.997  28.093  1.00  0.00    -0.376 OA
BRANCH  38  39
ATOM     39  C   UNL A   1      35.725  30.423  27.478  1.00  0.00     0.202 C 
BRANCH  39  40
ATOM     40  C   UNL A   1      34.357  31.071  27.739  1.00  0.00     0.261 C 
BRANCH  40  41
ATOM     41  O   UNL A   1      34.282  32.483  27.476  1.00  0.00    -0.460 OA
BRANCH  41  42
ATOM     42  C   UNL A   1      33.809  33.253  28.494  1.00  0.00     0.338 C 
ATOM     43  O   UNL A   1      32.697  33.733  28.584  1.00  0.00    -0.246 OA
BRANCH  42  44
ATOM     44  C   UNL A   1      34.793  33.264  29.610  1.00  0.00     0.060 A 
ATOM     45  C   UNL A   1      35.708  34.325  29.669  1.00  0.00     0.016 A 
ATOM     46  C   UNL A   1      34.837  32.256  30.578  1.00  0.00     0.016 A 
ATOM     47  C   UNL A   1      36.667  34.382  30.683  1.00  0.00     0.010 A 
ATOM     48  C   UNL A   1      35.829  32.293  31.571  1.00  0.00     0.010 A 
ATOM     49  C   UNL A   1      36.763  33.345  31.617  1.00  0.00    -0.014 A 
BRANCH  49  50
ATOM     50  C   UNL A   1      37.971  33.249  32.479  1.00  0.00     0.031 A 
ATOM     51  C   UNL A   1      39.314  33.141  31.803  1.00  0.00     0.074 A 
ATOM     52  C   UNL A   1      37.907  33.295  33.823  1.00  0.00     0.049 A 
ATOM     53  N   UNL A   1      40.501  32.982  32.327  1.00  0.00    -0.248 NA
ATOM     54  C   UNL A   1      39.310  33.232  30.333  1.00  0.00     0.031 C 
ATOM     55  C   UNL A   1      36.690  33.477  34.610  1.00  0.00     0.029 A 
ATOM     56  N   UNL A   1      38.903  33.190  34.766  1.00  0.00    -0.354 N 
ATOM     57  C   UNL A   1      41.384  32.948  31.255  1.00  0.00     0.074 A 
ATOM     58  C   UNL A   1      40.596  33.088  30.050  1.00  0.00     0.031 C 
ATOM     59  C   UNL A   1      37.009  33.458  35.918  1.00  0.00     0.029 A 
ATOM     60  C   UNL A   1      38.446  33.221  36.064  1.00  0.00     0.049 A 
ATOM     61  H   UNL A   1      39.855  33.101  34.534  1.00  0.00     0.167 HD
ATOM     62  C   UNL A   1      42.732  32.810  31.267  1.00  0.00     0.037 A 
ATOM     63  C   UNL A   1      39.106  33.047  37.229  1.00  0.00     0.037 A 
ATOM     64  C   UNL A   1      43.520  32.651  32.459  1.00  0.00     0.049 A 
ATOM     65  C   UNL A   1      40.595  32.787  37.214  1.00  0.00     0.074 A 
ATOM     66  C   UNL A   1      44.890  32.480  32.566  1.00  0.00     0.029 A 
ATOM     67  N   UNL A   1      43.013  32.634  33.749  1.00  0.00    -0.354 N 
ATOM     68  N   UNL A   1      41.418  32.743  36.193  1.00  0.00    -0.248 NA
ATOM     69  C   UNL A   1      41.245  32.546  38.513  1.00  0.00     0.031 C 
ATOM     70  C   UNL A   1      45.204  32.309  33.919  1.00  0.00     0.029 A 
ATOM     71  C   UNL A   1      44.039  32.430  34.657  1.00  0.00     0.049 A 
ATOM     72  H   UNL A   1      42.064  32.748  33.984  1.00  0.00     0.167 HD
ATOM     73  C   UNL A   1      42.681  32.499  36.728  1.00  0.00     0.074 A 
ATOM     74  C   UNL A   1      42.517  32.412  38.163  1.00  0.00     0.031 C 
ATOM     75  C   UNL A   1      43.870  32.360  36.088  1.00  0.00     0.037 A 
BRANCH  62  76
ATOM     76  C   UNL A   1      43.429  32.775  29.937  1.00  0.00     0.058 A 
ATOM     77  C   UNL A   1      43.721  31.567  29.285  1.00  0.00     0.135 A 
ATOM     78  C   UNL A   1      43.801  33.971  29.301  1.00  0.00     0.135 A 
ATOM     79  F   UNL A   1      43.407  30.395  29.861  1.00  0.00    -0.206 F 
ATOM     80  C   UNL A   1      44.384  31.543  28.063  1.00  0.00     0.059 A 
ATOM     81  C   UNL A   1      44.441  33.972  28.067  1.00  0.00     0.059 A 
ATOM     82  F   UNL A   1      43.550  35.153  29.885  1.00  0.00    -0.206 F 
ATOM     83  C   UNL A   1      44.743  32.753  27.463  1.00  0.00     0.060 A 
BRANCH  83  84
ATOM     84  S   UNL A   1      45.609  32.708  25.881  1.00  0.00     0.124 S 
ATOM     85  O   UNL A   1      46.277  34.006  25.878  1.00  0.00    -0.237 OA
ATOM     86  O   UNL A   1      46.480  31.547  26.033  1.00  0.00    -0.237 OA
ATOM     87  O   UNL A   1      44.532  32.556  24.907  1.00  0.00    -0.744 OA
ENDBRANCH  83  84
ENDBRANCH  62  76
BRANCH  63  88
ATOM     88  C   UNL A   1      38.367  33.070  38.522  1.00  0.00     0.058 A 
ATOM     89  C   UNL A   1      38.485  34.149  39.411  1.00  0.00     0.135 A 
ATOM     90  C   UNL A   1      37.558  31.991  38.914  1.00  0.00     0.135 A 
ATOM     91  F   UNL A   1      39.264  35.195  39.096  1.00  0.00    -0.206 F 
ATOM     92  C   UNL A   1      37.842  34.154  40.646  1.00  0.00     0.059 A 
ATOM     93  C   UNL A   1      36.883  31.984  40.131  1.00  0.00     0.059 A 
ATOM     94  F   UNL A   1      37.411  30.932  38.104  1.00  0.00    -0.206 F 
ATOM     95  C   UNL A   1      37.041  33.066  40.997  1.00  0.00     0.060 A 
BRANCH  95  96
ATOM     96  S   UNL A   1      36.181  33.097  42.585  1.00  0.00     0.124 S 
ATOM     97  O   UNL A   1      35.611  31.755  42.637  1.00  0.00    -0.237 OA
ATOM     98  O   UNL A   1      37.270  33.364  43.519  1.00  0.00    -0.237 OA
ATOM     99  O   UNL A   1      35.220  34.185  42.425  1.00  0.00    -0.744 OA
ENDBRANCH  95  96
ENDBRANCH  63  88
BRANCH  75 100
ATOM    100  C   UNL A   1      45.104  32.144  36.925  1.00  0.00     0.058 A 
ATOM    101  C   UNL A   1      45.636  30.865  37.146  1.00  0.00     0.135 A 
ATOM    102  C   UNL A   1      45.802  33.243  37.455  1.00  0.00     0.135 A 
ATOM    103  F   UNL A   1      45.009  29.779  36.666  1.00  0.00    -0.206 F 
ATOM    104  C   UNL A   1      46.807  30.681  37.877  1.00  0.00     0.059 A 
ATOM    105  C   UNL A   1      46.988  33.084  38.166  1.00  0.00     0.059 A 
ATOM    106  F   UNL A   1      45.345  34.490  37.263  1.00  0.00    -0.206 F 
ATOM    107  C   UNL A   1      47.479  31.797  38.380  1.00  0.00     0.060 A 
BRANCH 107 108
ATOM    108  S   UNL A   1      49.019  31.548  39.291  1.00  0.00     0.124 S 
ATOM    109  O   UNL A   1      48.594  31.806  40.663  1.00  0.00    -0.237 OA
ATOM    110  O   UNL A   1      49.345  30.160  38.979  1.00  0.00    -0.237 OA
ATOM    111  O   UNL A   1      49.920  32.542  38.716  1.00  0.00    -0.744 OA
ENDBRANCH 107 108
ENDBRANCH  75 100
ENDBRANCH  49  50
ENDBRANCH  42  44
ENDBRANCH  41  42
ENDBRANCH  40  41
ENDBRANCH  39  40
ENDBRANCH  38  39
ENDBRANCH  37  38
ENDBRANCH  36  37
ENDBRANCH   1  36
TORSDOF 26
ENDMDL
