MODEL 1
REMARK VINA RESULT:     -11.1      0.000      0.000
REMARK SMILES CC(C)c1ccc(-c2cnc([C@@H]3[NH2+][C@H](C(=O)OCCOCCOCCOC(=O)c4ccc(-c5c6nc(c(-c7c(F)cc(S(=O)(=O)[O-])cc7F)c7ccc([nH]7)c(-c7c(F)cc(S(=O)(=O)[O-])cc7F)c7nc(c(-c8c(F)cc(S(=O)(=O)[O-])cc8F)c8ccc5[nH]8)C=C7)C=C6)cc4)C(C)(C)S3)s2)cc1
REMARK SMILES IDX 21 1 20 2 19 3 18 4 17 5 15 6 16 7 14 8 12 9 13 10 98 11
REMARK SMILES IDX 95 14 96 15 97 16 11 17 8 18 9 19 99 20 10 21 7 22 4 23 5 24
REMARK SMILES IDX 101 25 6 26 100 27 2 28 1 29 3 30 22 31 23 32 24 33 25 34
REMARK SMILES IDX 26 35 27 36 28 37 29 38 30 39 94 40 31 41 93 42 32 43 33 44
REMARK SMILES IDX 34 45 87 46 35 47 92 48 86 49 88 50 36 51 91 52 85 53 84 54
REMARK SMILES IDX 37 56 71 57 50 58 70 59 51 60 54 61 69 62 89 63 52 64 53 65
REMARK SMILES IDX 68 67 90 68 55 69 38 70 39 71 48 72 40 73 41 74 47 75 49 76
REMARK SMILES IDX 42 77 43 78 44 79 45 80 46 81 72 82 73 83 82 84 74 85 75 86
REMARK SMILES IDX 81 87 83 88 76 89 77 90 78 91 79 92 80 93 56 94 57 95 66 96
REMARK SMILES IDX 58 97 59 98 65 99 67 100 60 101 61 102 62 103 63 104 64 105
REMARK H PARENT 13 12 13 13 88 55 54 66
REMARK Flexibility Score: inf
ROOT
ATOM      1  C   UNL A   1      37.939  22.003  25.423  1.00  0.00     0.188 C 
ENDROOT
BRANCH   1   2
ATOM      2  O   UNL A   1      37.445  23.323  25.408  1.00  0.00    -0.376 OA
BRANCH   2   3
ATOM      3  C   UNL A   1      36.323  23.617  24.606  1.00  0.00     0.202 C 
BRANCH   3   4
ATOM      4  C   UNL A   1      35.001  24.202  25.147  1.00  0.00     0.261 C 
BRANCH   4   5
ATOM      5  O   UNL A   1      34.742  25.610  24.979  1.00  0.00    -0.459 OA
BRANCH   5   6
ATOM      6  C   UNL A   1      33.601  26.064  25.567  1.00  0.00     0.366 C 
ATOM      7  O   UNL A   1      33.079  25.508  26.535  1.00  0.00    -0.245 OA
BRANCH   6   8
ATOM      8  C   UNL A   1      32.932  27.320  24.921  1.00  0.00     0.310 C 
ATOM      9  C   UNL A   1      31.908  26.524  22.888  1.00  0.00     0.304 C 
ATOM     10  N   UNL A   1      33.080  27.242  23.433  1.00  0.00    -0.317 N 
ATOM     11  S   UNL A   1      30.518  26.744  24.085  1.00  0.00    -0.079 SA
ATOM     12  H   UNL A   1      33.121  28.183  23.040  1.00  0.00     0.348 HD
ATOM     13  H   UNL A   1      33.940  26.750  23.190  1.00  0.00     0.348 HD
ATOM     14  C   UNL A   1      31.489  27.784  25.225  1.00  0.00     0.079 C 
ATOM     15  C   UNL A   1      31.237  29.244  24.769  1.00  0.00     0.030 C 
ATOM     16  C   UNL A   1      31.059  27.741  26.696  1.00  0.00     0.030 C 
BRANCH   9  17
ATOM     17  C   UNL A   1      32.182  25.054  22.638  1.00  0.00     0.162 A 
ATOM     18  C   UNL A   1      32.365  22.633  22.817  1.00  0.00     0.055 A 
ATOM     19  C   UNL A   1      33.223  23.244  21.930  1.00  0.00     0.132 A 
ATOM     20  S   UNL A   1      31.306  23.817  23.469  1.00  0.00    -0.112 S 
ATOM     21  N   UNL A   1      33.090  24.602  21.799  1.00  0.00    -0.242 NA
BRANCH  18  22
ATOM     22  C   UNL A   1      32.342  21.218  23.177  1.00  0.00    -0.007 A 
ATOM     23  C   UNL A   1      32.643  18.487  23.875  1.00  0.00    -0.045 A 
ATOM     24  C   UNL A   1      32.242  18.874  22.584  1.00  0.00     0.004 A 
ATOM     25  C   UNL A   1      32.867  19.491  24.821  1.00  0.00     0.004 A 
ATOM     26  C   UNL A   1      32.083  20.222  22.239  1.00  0.00     0.010 A 
ATOM     27  C   UNL A   1      32.716  20.838  24.476  1.00  0.00     0.010 A 
BRANCH  23  28
ATOM     28  C   UNL A   1      32.835  17.008  24.172  1.00  0.00     0.013 C 
ATOM     29  C   UNL A   1      34.084  16.482  23.456  1.00  0.00     0.012 C 
ATOM     30  C   UNL A   1      32.910  16.652  25.661  1.00  0.00     0.012 C 
ENDBRANCH  23  28
ENDBRANCH  18  22
ENDBRANCH   9  17
ENDBRANCH   6   8
ENDBRANCH   5   6
ENDBRANCH   4   5
ENDBRANCH   3   4
ENDBRANCH   2   3
ENDBRANCH   1   2
BRANCH   1  31
ATOM     31  C   UNL A   1      39.234  21.901  26.222  1.00  0.00     0.188 C 
BRANCH  31  32
ATOM     32  O   UNL A   1      40.055  20.744  26.133  1.00  0.00    -0.376 OA
BRANCH  32  33
ATOM     33  C   UNL A   1      41.390  20.836  26.594  1.00  0.00     0.202 C 
BRANCH  33  34
ATOM     34  C   UNL A   1      42.253  22.022  26.136  1.00  0.00     0.261 C 
BRANCH  34  35
ATOM     35  O   UNL A   1      42.244  23.184  26.982  1.00  0.00    -0.460 OA
BRANCH  35  36
ATOM     36  C   UNL A   1      42.302  24.384  26.348  1.00  0.00     0.338 C 
ATOM     37  O   UNL A   1      42.474  24.577  25.155  1.00  0.00    -0.246 OA
BRANCH  36  38
ATOM     38  C   UNL A   1      41.960  25.460  27.310  1.00  0.00     0.060 A 
ATOM     39  C   UNL A   1      42.709  26.646  27.302  1.00  0.00     0.016 A 
ATOM     40  C   UNL A   1      40.926  25.295  28.232  1.00  0.00     0.016 A 
ATOM     41  C   UNL A   1      42.413  27.677  28.198  1.00  0.00     0.010 A 
ATOM     42  C   UNL A   1      40.658  26.314  29.155  1.00  0.00     0.010 A 
ATOM     43  C   UNL A   1      41.402  27.507  29.150  1.00  0.00    -0.014 A 
BRANCH  43  44
ATOM     44  C   UNL A   1      41.215  28.500  30.239  1.00  0.00     0.031 A 
ATOM     45  C   UNL A   1      42.118  28.439  31.437  1.00  0.00     0.074 A 
ATOM     46  C   UNL A   1      40.251  29.435  30.185  1.00  0.00     0.049 A 
ATOM     47  N   UNL A   1      42.045  29.096  32.565  1.00  0.00    -0.248 NA
ATOM     48  C   UNL A   1      43.256  27.512  31.346  1.00  0.00     0.031 C 
ATOM     49  C   UNL A   1      39.354  29.661  29.056  1.00  0.00     0.029 A 
ATOM     50  N   UNL A   1      39.860  30.366  31.118  1.00  0.00    -0.354 N 
ATOM     51  C   UNL A   1      43.116  28.650  33.330  1.00  0.00     0.074 A 
ATOM     52  C   UNL A   1      43.816  27.660  32.537  1.00  0.00     0.031 C 
ATOM     53  C   UNL A   1      38.506  30.657  29.370  1.00  0.00     0.029 A 
ATOM     54  C   UNL A   1      38.774  31.114  30.731  1.00  0.00     0.049 A 
ATOM     55  H   UNL A   1      40.314  30.485  31.984  1.00  0.00     0.167 HD
ATOM     56  C   UNL A   1      43.477  29.022  34.582  1.00  0.00     0.037 A 
ATOM     57  C   UNL A   1      38.053  32.035  31.401  1.00  0.00     0.037 A 
ATOM     58  C   UNL A   1      42.765  29.984  35.380  1.00  0.00     0.049 A 
ATOM     59  C   UNL A   1      38.394  32.345  32.834  1.00  0.00     0.074 A 
ATOM     60  C   UNL A   1      43.040  30.405  36.670  1.00  0.00     0.029 A 
ATOM     61  N   UNL A   1      41.628  30.668  34.974  1.00  0.00    -0.354 N 
ATOM     62  N   UNL A   1      39.385  31.892  33.564  1.00  0.00    -0.248 NA
ATOM     63  C   UNL A   1      37.499  33.271  33.545  1.00  0.00     0.031 C 
ATOM     64  C   UNL A   1      42.041  31.304  37.061  1.00  0.00     0.029 A 
ATOM     65  C   UNL A   1      41.173  31.485  35.997  1.00  0.00     0.049 A 
ATOM     66  H   UNL A   1      41.207  30.586  34.088  1.00  0.00     0.167 HD
ATOM     67  C   UNL A   1      39.240  32.487  34.813  1.00  0.00     0.074 A 
ATOM     68  C   UNL A   1      38.075  33.342  34.739  1.00  0.00     0.031 C 
ATOM     69  C   UNL A   1      40.007  32.333  35.920  1.00  0.00     0.037 A 
BRANCH  56  70
ATOM     70  C   UNL A   1      44.666  28.325  35.179  1.00  0.00     0.058 A 
ATOM     71  C   UNL A   1      44.548  27.094  35.842  1.00  0.00     0.135 A 
ATOM     72  C   UNL A   1      45.940  28.913  35.108  1.00  0.00     0.135 A 
ATOM     73  F   UNL A   1      43.350  26.497  35.954  1.00  0.00    -0.206 F 
ATOM     74  C   UNL A   1      45.641  26.494  36.458  1.00  0.00     0.059 A 
ATOM     75  C   UNL A   1      47.052  28.317  35.691  1.00  0.00     0.059 A 
ATOM     76  F   UNL A   1      46.107  30.090  34.485  1.00  0.00    -0.206 F 
ATOM     77  C   UNL A   1      46.888  27.119  36.386  1.00  0.00     0.060 A 
BRANCH  77  78
ATOM     78  S   UNL A   1      48.288  26.356  37.231  1.00  0.00     0.124 S 
ATOM     79  O   UNL A   1      48.258  25.006  36.677  1.00  0.00    -0.237 OA
ATOM     80  O   UNL A   1      49.405  27.192  36.806  1.00  0.00    -0.237 OA
ATOM     81  O   UNL A   1      47.931  26.462  38.642  1.00  0.00    -0.744 OA
ENDBRANCH  77  78
ENDBRANCH  56  70
BRANCH  57  82
ATOM     82  C   UNL A   1      36.908  32.718  30.741  1.00  0.00     0.058 A 
ATOM     83  C   UNL A   1      35.598  32.240  30.897  1.00  0.00     0.135 A 
ATOM     84  C   UNL A   1      37.098  33.850  29.934  1.00  0.00     0.135 A 
ATOM     85  F   UNL A   1      35.369  31.142  31.633  1.00  0.00    -0.206 F 
ATOM     86  C   UNL A   1      34.515  32.865  30.287  1.00  0.00     0.059 A 
ATOM     87  C   UNL A   1      36.029  34.498  29.323  1.00  0.00     0.059 A 
ATOM     88  F   UNL A   1      38.333  34.342  29.745  1.00  0.00    -0.206 F 
ATOM     89  C   UNL A   1      34.740  34.002  29.509  1.00  0.00     0.060 A 
BRANCH  89  90
ATOM     90  S   UNL A   1      33.321  34.860  28.792  1.00  0.00     0.124 S 
ATOM     91  O   UNL A   1      32.532  35.170  29.978  1.00  0.00    -0.237 OA
ATOM     92  O   UNL A   1      33.951  35.996  28.128  1.00  0.00    -0.237 OA
ATOM     93  O   UNL A   1      32.743  33.864  27.893  1.00  0.00    -0.744 OA
ENDBRANCH  89  90
ENDBRANCH  57  82
BRANCH  69  94
ATOM     94  C   UNL A   1      39.631  33.118  37.148  1.00  0.00     0.058 A 
ATOM     95  C   UNL A   1      38.619  32.685  38.018  1.00  0.00     0.135 A 
ATOM     96  C   UNL A   1      40.340  34.280  37.494  1.00  0.00     0.135 A 
ATOM     97  F   UNL A   1      37.902  31.588  37.730  1.00  0.00    -0.206 F 
ATOM     98  C   UNL A   1      38.318  33.380  39.187  1.00  0.00     0.059 A 
ATOM     99  C   UNL A   1      40.073  34.976  38.669  1.00  0.00     0.059 A 
ATOM    100  F   UNL A   1      41.321  34.735  36.699  1.00  0.00    -0.206 F 
ATOM    101  C   UNL A   1      39.057  34.521  39.507  1.00  0.00     0.060 A 
BRANCH 101 102
ATOM    102  S   UNL A   1      38.697  35.379  41.056  1.00  0.00     0.124 S 
ATOM    103  O   UNL A   1      38.530  36.754  40.600  1.00  0.00    -0.237 OA
ATOM    104  O   UNL A   1      37.482  34.708  41.508  1.00  0.00    -0.237 OA
ATOM    105  O   UNL A   1      39.884  35.127  41.868  1.00  0.00    -0.744 OA
ENDBRANCH 101 102
ENDBRANCH  69  94
ENDBRANCH  43  44
ENDBRANCH  36  38
ENDBRANCH  35  36
ENDBRANCH  34  35
ENDBRANCH  33  34
ENDBRANCH  32  33
ENDBRANCH  31  32
ENDBRANCH   1  31
TORSDOF 23
ENDMDL
MODEL 2
REMARK VINA RESULT:     -10.9      5.817     10.443
REMARK SMILES CC(C)c1ccc(-c2cnc([C@@H]3[NH2+][C@H](C(=O)OCCOCCOCCOC(=O)c4ccc(-c5c6nc(c(-c7c(F)cc(S(=O)(=O)[O-])cc7F)c7ccc([nH]7)c(-c7c(F)cc(S(=O)(=O)[O-])cc7F)c7nc(c(-c8c(F)cc(S(=O)(=O)[O-])cc8F)c8ccc5[nH]8)C=C7)C=C6)cc4)C(C)(C)S3)s2)cc1
REMARK SMILES IDX 21 1 20 2 19 3 18 4 17 5 15 6 16 7 14 8 12 9 13 10 98 11
REMARK SMILES IDX 95 14 96 15 97 16 11 17 8 18 9 19 99 20 10 21 7 22 4 23 5 24
REMARK SMILES IDX 101 25 6 26 100 27 2 28 1 29 3 30 22 31 23 32 24 33 25 34
REMARK SMILES IDX 26 35 27 36 28 37 29 38 30 39 94 40 31 41 93 42 32 43 33 44
REMARK SMILES IDX 34 45 87 46 35 47 92 48 86 49 88 50 36 51 91 52 85 53 84 54
REMARK SMILES IDX 37 56 71 57 50 58 70 59 51 60 54 61 69 62 89 63 52 64 53 65
REMARK SMILES IDX 68 67 90 68 55 69 38 70 39 71 48 72 40 73 41 74 47 75 49 76
REMARK SMILES IDX 42 77 43 78 44 79 45 80 46 81 72 82 73 83 82 84 74 85 75 86
REMARK SMILES IDX 81 87 83 88 76 89 77 90 78 91 79 92 80 93 56 94 57 95 66 96
REMARK SMILES IDX 58 97 59 98 65 99 67 100 60 101 61 102 62 103 63 104 64 105
REMARK H PARENT 13 12 13 13 88 55 54 66
REMARK Flexibility Score: inf
ROOT
ATOM      1  C   UNL A   1      36.955  23.672  25.052  1.00  0.00     0.188 C 
ENDROOT
BRANCH   1   2
ATOM      2  O   UNL A   1      35.825  23.818  25.882  1.00  0.00    -0.376 OA
BRANCH   2   3
ATOM      3  C   UNL A   1      34.836  24.757  25.520  1.00  0.00     0.202 C 
BRANCH   3   4
ATOM      4  C   UNL A   1      34.483  25.124  24.062  1.00  0.00     0.261 C 
BRANCH   4   5
ATOM      5  O   UNL A   1      33.569  26.211  23.820  1.00  0.00    -0.459 OA
BRANCH   5   6
ATOM      6  C   UNL A   1      33.106  26.305  22.543  1.00  0.00     0.366 C 
ATOM      7  O   UNL A   1      33.804  26.061  21.557  1.00  0.00    -0.245 OA
BRANCH   6   8
ATOM      8  C   UNL A   1      31.632  26.793  22.366  1.00  0.00     0.310 C 
ATOM      9  C   UNL A   1      30.273  25.117  23.441  1.00  0.00     0.304 C 
ATOM     10  N   UNL A   1      30.750  25.606  22.130  1.00  0.00    -0.317 N 
ATOM     11  S   UNL A   1      30.311  26.544  24.613  1.00  0.00    -0.079 SA
ATOM     12  H   UNL A   1      29.953  25.877  21.553  1.00  0.00     0.348 HD
ATOM     13  H   UNL A   1      31.268  24.873  21.647  1.00  0.00     0.348 HD
ATOM     14  C   UNL A   1      30.906  27.727  23.360  1.00  0.00     0.079 C 
ATOM     15  C   UNL A   1      29.628  28.355  22.745  1.00  0.00     0.030 C 
ATOM     16  C   UNL A   1      31.720  28.911  23.896  1.00  0.00     0.030 C 
BRANCH   9  17
ATOM     17  C   UNL A   1      31.092  23.957  23.971  1.00  0.00     0.162 A 
ATOM     18  C   UNL A   1      32.231  21.826  24.271  1.00  0.00     0.055 A 
ATOM     19  C   UNL A   1      31.951  22.533  25.419  1.00  0.00     0.132 A 
ATOM     20  S   UNL A   1      31.767  22.769  22.913  1.00  0.00    -0.112 S 
ATOM     21  N   UNL A   1      31.347  23.751  25.247  1.00  0.00    -0.242 NA
BRANCH  18  22
ATOM     22  C   UNL A   1      32.813  20.490  24.188  1.00  0.00    -0.007 A 
ATOM     23  C   UNL A   1      33.700  17.798  24.251  1.00  0.00    -0.045 A 
ATOM     24  C   UNL A   1      34.418  18.821  24.895  1.00  0.00     0.004 A 
ATOM     25  C   UNL A   1      32.542  18.149  23.552  1.00  0.00     0.004 A 
ATOM     26  C   UNL A   1      33.988  20.153  24.857  1.00  0.00     0.010 A 
ATOM     27  C   UNL A   1      32.107  19.477  23.520  1.00  0.00     0.010 A 
BRANCH  23  28
ATOM     28  C   UNL A   1      34.202  16.366  24.364  1.00  0.00     0.013 C 
ATOM     29  C   UNL A   1      35.463  16.315  25.233  1.00  0.00     0.012 C 
ATOM     30  C   UNL A   1      33.172  15.362  24.895  1.00  0.00     0.012 C 
ENDBRANCH  23  28
ENDBRANCH  18  22
ENDBRANCH   9  17
ENDBRANCH   6   8
ENDBRANCH   5   6
ENDBRANCH   4   5
ENDBRANCH   3   4
ENDBRANCH   2   3
ENDBRANCH   1   2
BRANCH   1  31
ATOM     31  C   UNL A   1      36.881  22.389  24.230  1.00  0.00     0.188 C 
BRANCH  31  32
ATOM     32  O   UNL A   1      37.380  21.163  24.748  1.00  0.00    -0.376 OA
BRANCH  32  33
ATOM     33  C   UNL A   1      38.555  21.198  25.534  1.00  0.00     0.202 C 
BRANCH  33  34
ATOM     34  C   UNL A   1      39.374  19.909  25.705  1.00  0.00     0.261 C 
BRANCH  34  35
ATOM     35  O   UNL A   1      40.478  19.968  26.624  1.00  0.00    -0.460 OA
BRANCH  35  36
ATOM     36  C   UNL A   1      41.717  19.883  26.075  1.00  0.00     0.338 C 
ATOM     37  O   UNL A   1      42.132  19.008  25.332  1.00  0.00    -0.246 OA
BRANCH  36  38
ATOM     38  C   UNL A   1      42.472  21.121  26.384  1.00  0.00     0.060 A 
ATOM     39  C   UNL A   1      42.669  21.484  27.724  1.00  0.00     0.016 A 
ATOM     40  C   UNL A   1      42.964  21.935  25.363  1.00  0.00     0.016 A 
ATOM     41  C   UNL A   1      43.374  22.646  28.048  1.00  0.00     0.010 A 
ATOM     42  C   UNL A   1      43.636  23.120  25.689  1.00  0.00     0.010 A 
ATOM     43  C   UNL A   1      43.840  23.488  27.031  1.00  0.00    -0.014 A 
BRANCH  43  44
ATOM     44  C   UNL A   1      44.403  24.824  27.354  1.00  0.00     0.031 A 
ATOM     45  C   UNL A   1      43.477  25.899  27.847  1.00  0.00     0.074 A 
ATOM     46  C   UNL A   1      45.710  25.096  27.201  1.00  0.00     0.049 A 
ATOM     47  N   UNL A   1      43.713  27.170  28.044  1.00  0.00    -0.248 NA
ATOM     48  C   UNL A   1      42.103  25.480  28.160  1.00  0.00     0.031 C 
ATOM     49  C   UNL A   1      46.734  24.134  26.806  1.00  0.00     0.029 A 
ATOM     50  N   UNL A   1      46.398  26.278  27.350  1.00  0.00    -0.354 N 
ATOM     51  C   UNL A   1      42.512  27.711  28.485  1.00  0.00     0.074 A 
ATOM     52  C   UNL A   1      41.550  26.629  28.518  1.00  0.00     0.031 C 
ATOM     53  C   UNL A   1      47.917  24.769  26.730  1.00  0.00     0.029 A 
ATOM     54  C   UNL A   1      47.731  26.184  27.032  1.00  0.00     0.049 A 
ATOM     55  H   UNL A   1      45.974  27.113  27.654  1.00  0.00     0.167 HD
ATOM     56  C   UNL A   1      42.233  28.994  28.821  1.00  0.00     0.037 A 
ATOM     57  C   UNL A   1      48.688  27.131  26.957  1.00  0.00     0.037 A 
ATOM     58  C   UNL A   1      43.182  30.074  28.762  1.00  0.00     0.049 A 
ATOM     59  C   UNL A   1      48.330  28.571  27.215  1.00  0.00     0.074 A 
ATOM     60  C   UNL A   1      42.982  31.412  29.057  1.00  0.00     0.029 A 
ATOM     61  N   UNL A   1      44.505  29.947  28.367  1.00  0.00    -0.354 N 
ATOM     62  N   UNL A   1      47.183  29.081  27.595  1.00  0.00    -0.248 NA
ATOM     63  C   UNL A   1      49.391  29.568  27.003  1.00  0.00     0.031 C 
ATOM     64  C   UNL A   1      44.172  32.102  28.792  1.00  0.00     0.029 A 
ATOM     65  C   UNL A   1      45.127  31.187  28.383  1.00  0.00     0.049 A 
ATOM     66  H   UNL A   1      44.940  29.102  28.114  1.00  0.00     0.167 HD
ATOM     67  C   UNL A   1      47.388  30.454  27.681  1.00  0.00     0.074 A 
ATOM     68  C   UNL A   1      48.770  30.696  27.326  1.00  0.00     0.031 C 
ATOM     69  C   UNL A   1      46.505  31.424  28.023  1.00  0.00     0.037 A 
BRANCH  56  70
ATOM     70  C   UNL A   1      40.817  29.296  29.222  1.00  0.00     0.058 A 
ATOM     71  C   UNL A   1      39.794  29.448  28.273  1.00  0.00     0.135 A 
ATOM     72  C   UNL A   1      40.485  29.461  30.577  1.00  0.00     0.135 A 
ATOM     73  F   UNL A   1      40.062  29.318  26.963  1.00  0.00    -0.206 F 
ATOM     74  C   UNL A   1      38.504  29.803  28.648  1.00  0.00     0.059 A 
ATOM     75  C   UNL A   1      39.194  29.787  30.976  1.00  0.00     0.059 A 
ATOM     76  F   UNL A   1      41.426  29.326  31.524  1.00  0.00    -0.206 F 
ATOM     77  C   UNL A   1      38.216  29.981  30.003  1.00  0.00     0.060 A 
BRANCH  77  78
ATOM     78  S   UNL A   1      36.549  30.490  30.472  1.00  0.00     0.124 S 
ATOM     79  O   UNL A   1      35.818  30.267  29.229  1.00  0.00    -0.237 OA
ATOM     80  O   UNL A   1      36.237  29.574  31.564  1.00  0.00    -0.237 OA
ATOM     81  O   UNL A   1      36.717  31.886  30.860  1.00  0.00    -0.744 OA
ENDBRANCH  77  78
ENDBRANCH  56  70
BRANCH  57  82
ATOM     82  C   UNL A   1      50.082  26.762  26.591  1.00  0.00     0.058 A 
ATOM     83  C   UNL A   1      51.032  26.468  27.581  1.00  0.00     0.135 A 
ATOM     84  C   UNL A   1      50.495  26.705  25.251  1.00  0.00     0.135 A 
ATOM     85  F   UNL A   1      50.694  26.540  28.877  1.00  0.00    -0.206 F 
ATOM     86  C   UNL A   1      52.340  26.121  27.257  1.00  0.00     0.059 A 
ATOM     87  C   UNL A   1      51.795  26.349  24.903  1.00  0.00     0.059 A 
ATOM     88  F   UNL A   1      49.627  26.985  24.267  1.00  0.00    -0.206 F 
ATOM     89  C   UNL A   1      52.709  26.053  25.912  1.00  0.00     0.060 A 
BRANCH  89  90
ATOM     90  S   UNL A   1      54.384  25.517  25.496  1.00  0.00     0.124 S 
ATOM     91  O   UNL A   1      54.508  25.976  24.118  1.00  0.00    -0.237 OA
ATOM     92  O   UNL A   1      55.189  26.229  26.483  1.00  0.00    -0.237 OA
ATOM     93  O   UNL A   1      54.330  24.068  25.677  1.00  0.00    -0.744 OA
ENDBRANCH  89  90
ENDBRANCH  57  82
BRANCH  69  94
ATOM     94  C   UNL A   1      47.001  32.844  28.052  1.00  0.00     0.058 A 
ATOM     95  C   UNL A   1      47.730  33.349  29.140  1.00  0.00     0.135 A 
ATOM     96  C   UNL A   1      46.806  33.689  26.947  1.00  0.00     0.135 A 
ATOM     97  F   UNL A   1      47.937  32.588  30.227  1.00  0.00    -0.206 F 
ATOM     98  C   UNL A   1      48.243  34.643  29.135  1.00  0.00     0.059 A 
ATOM     99  C   UNL A   1      47.330  34.977  26.910  1.00  0.00     0.059 A 
ATOM    100  F   UNL A   1      46.119  33.255  25.878  1.00  0.00    -0.206 F 
ATOM    101  C   UNL A   1      48.044  35.447  28.010  1.00  0.00     0.060 A 
BRANCH 101 102
ATOM    102  S   UNL A   1      48.767  37.102  27.991  1.00  0.00     0.124 S 
ATOM    103  O   UNL A   1      50.186  36.803  27.831  1.00  0.00    -0.237 OA
ATOM    104  O   UNL A   1      48.114  37.714  26.838  1.00  0.00    -0.237 OA
ATOM    105  O   UNL A   1      48.385  37.656  29.286  1.00  0.00    -0.744 OA
ENDBRANCH 101 102
ENDBRANCH  69  94
ENDBRANCH  43  44
ENDBRANCH  36  38
ENDBRANCH  35  36
ENDBRANCH  34  35
ENDBRANCH  33  34
ENDBRANCH  32  33
ENDBRANCH  31  32
ENDBRANCH   1  31
TORSDOF 23
ENDMDL
MODEL 3
REMARK VINA RESULT:     -10.9      1.163      8.005
REMARK SMILES CC(C)c1ccc(-c2cnc([C@@H]3[NH2+][C@H](C(=O)OCCOCCOCCOC(=O)c4ccc(-c5c6nc(c(-c7c(F)cc(S(=O)(=O)[O-])cc7F)c7ccc([nH]7)c(-c7c(F)cc(S(=O)(=O)[O-])cc7F)c7nc(c(-c8c(F)cc(S(=O)(=O)[O-])cc8F)c8ccc5[nH]8)C=C7)C=C6)cc4)C(C)(C)S3)s2)cc1
REMARK SMILES IDX 21 1 20 2 19 3 18 4 17 5 15 6 16 7 14 8 12 9 13 10 98 11
REMARK SMILES IDX 95 14 96 15 97 16 11 17 8 18 9 19 99 20 10 21 7 22 4 23 5 24
REMARK SMILES IDX 101 25 6 26 100 27 2 28 1 29 3 30 22 31 23 32 24 33 25 34
REMARK SMILES IDX 26 35 27 36 28 37 29 38 30 39 94 40 31 41 93 42 32 43 33 44
REMARK SMILES IDX 34 45 87 46 35 47 92 48 86 49 88 50 36 51 91 52 85 53 84 54
REMARK SMILES IDX 37 56 71 57 50 58 70 59 51 60 54 61 69 62 89 63 52 64 53 65
REMARK SMILES IDX 68 67 90 68 55 69 38 70 39 71 48 72 40 73 41 74 47 75 49 76
REMARK SMILES IDX 42 77 43 78 44 79 45 80 46 81 72 82 73 83 82 84 74 85 75 86
REMARK SMILES IDX 81 87 83 88 76 89 77 90 78 91 79 92 80 93 56 94 57 95 66 96
REMARK SMILES IDX 58 97 59 98 65 99 67 100 60 101 61 102 62 103 63 104 64 105
REMARK H PARENT 13 12 13 13 88 55 54 66
REMARK Flexibility Score: inf
ROOT
ATOM      1  C   UNL A   1      37.263  21.845  25.725  1.00  0.00     0.188 C 
ENDROOT
BRANCH   1   2
ATOM      2  O   UNL A   1      36.203  22.715  26.052  1.00  0.00    -0.376 OA
BRANCH   2   3
ATOM      3  C   UNL A   1      35.756  23.633  25.080  1.00  0.00     0.202 C 
BRANCH   3   4
ATOM      4  C   UNL A   1      34.771  24.787  25.368  1.00  0.00     0.261 C 
BRANCH   4   5
ATOM      5  O   UNL A   1      34.451  25.710  24.308  1.00  0.00    -0.459 OA
BRANCH   5   6
ATOM      6  C   UNL A   1      33.583  26.702  24.647  1.00  0.00     0.366 C 
ATOM      7  O   UNL A   1      33.460  27.121  25.799  1.00  0.00    -0.245 OA
BRANCH   6   8
ATOM      8  C   UNL A   1      32.690  27.274  23.498  1.00  0.00     0.310 C 
ATOM      9  C   UNL A   1      31.413  25.395  22.689  1.00  0.00     0.304 C 
ATOM     10  N   UNL A   1      32.584  26.253  22.408  1.00  0.00    -0.317 N 
ATOM     11  S   UNL A   1      30.237  26.382  23.717  1.00  0.00    -0.079 SA
ATOM     12  H   UNL A   1      32.462  26.719  21.508  1.00  0.00     0.348 HD
ATOM     13  H   UNL A   1      33.433  25.689  22.370  1.00  0.00     0.348 HD
ATOM     14  C   UNL A   1      31.283  27.876  23.715  1.00  0.00     0.079 C 
ATOM     15  C   UNL A   1      30.810  28.710  22.496  1.00  0.00     0.030 C 
ATOM     16  C   UNL A   1      31.122  28.803  24.926  1.00  0.00     0.030 C 
BRANCH   9  17
ATOM     17  C   UNL A   1      31.784  24.100  23.382  1.00  0.00     0.162 A 
ATOM     18  C   UNL A   1      32.489  21.827  23.896  1.00  0.00     0.055 A 
ATOM     19  C   UNL A   1      31.710  22.451  24.844  1.00  0.00     0.132 A 
ATOM     20  S   UNL A   1      32.829  22.943  22.636  1.00  0.00    -0.112 S 
ATOM     21  N   UNL A   1      31.348  23.745  24.573  1.00  0.00    -0.242 NA
BRANCH  18  22
ATOM     22  C   UNL A   1      32.955  20.443  23.921  1.00  0.00    -0.007 A 
ATOM     23  C   UNL A   1      33.613  17.700  24.204  1.00  0.00    -0.045 A 
ATOM     24  C   UNL A   1      34.430  18.710  24.743  1.00  0.00     0.004 A 
ATOM     25  C   UNL A   1      32.471  18.088  23.497  1.00  0.00     0.004 A 
ATOM     26  C   UNL A   1      34.114  20.066  24.596  1.00  0.00     0.010 A 
ATOM     27  C   UNL A   1      32.149  19.441  23.356  1.00  0.00     0.010 A 
BRANCH  23  28
ATOM     28  C   UNL A   1      33.995  16.246  24.434  1.00  0.00     0.013 C 
ATOM     29  C   UNL A   1      35.310  16.161  25.217  1.00  0.00     0.012 C 
ATOM     30  C   UNL A   1      32.925  15.401  25.135  1.00  0.00     0.012 C 
ENDBRANCH  23  28
ENDBRANCH  18  22
ENDBRANCH   9  17
ENDBRANCH   6   8
ENDBRANCH   5   6
ENDBRANCH   4   5
ENDBRANCH   3   4
ENDBRANCH   2   3
ENDBRANCH   1   2
BRANCH   1  31
ATOM     31  C   UNL A   1      38.614  22.448  26.093  1.00  0.00     0.188 C 
BRANCH  31  32
ATOM     32  O   UNL A   1      39.784  21.642  26.139  1.00  0.00    -0.376 OA
BRANCH  32  33
ATOM     33  C   UNL A   1      40.835  22.039  26.998  1.00  0.00     0.202 C 
BRANCH  33  34
ATOM     34  C   UNL A   1      41.936  22.959  26.447  1.00  0.00     0.261 C 
BRANCH  34  35
ATOM     35  O   UNL A   1      41.589  24.344  26.280  1.00  0.00    -0.460 OA
BRANCH  35  36
ATOM     36  C   UNL A   1      42.579  25.242  26.523  1.00  0.00     0.338 C 
ATOM     37  O   UNL A   1      43.601  25.402  25.874  1.00  0.00    -0.246 OA
BRANCH  36  38
ATOM     38  C   UNL A   1      42.164  26.137  27.630  1.00  0.00     0.060 A 
ATOM     39  C   UNL A   1      42.946  27.263  27.926  1.00  0.00     0.016 A 
ATOM     40  C   UNL A   1      41.027  25.859  28.388  1.00  0.00     0.016 A 
ATOM     41  C   UNL A   1      42.582  28.124  28.965  1.00  0.00     0.010 A 
ATOM     42  C   UNL A   1      40.687  26.702  29.455  1.00  0.00     0.010 A 
ATOM     43  C   UNL A   1      41.464  27.834  29.756  1.00  0.00    -0.014 A 
BRANCH  43  44
ATOM     44  C   UNL A   1      41.185  28.616  30.987  1.00  0.00     0.031 A 
ATOM     45  C   UNL A   1      40.080  29.633  30.964  1.00  0.00     0.074 A 
ATOM     46  C   UNL A   1      41.905  28.448  32.110  1.00  0.00     0.049 A 
ATOM     47  N   UNL A   1      39.759  30.529  31.860  1.00  0.00    -0.248 NA
ATOM     48  C   UNL A   1      39.224  29.636  29.768  1.00  0.00     0.031 C 
ATOM     49  C   UNL A   1      42.952  27.449  32.301  1.00  0.00     0.029 A 
ATOM     50  N   UNL A   1      41.868  29.130  33.303  1.00  0.00    -0.354 N 
ATOM     51  C   UNL A   1      38.675  31.218  31.331  1.00  0.00     0.074 A 
ATOM     52  C   UNL A   1      38.402  30.639  30.032  1.00  0.00     0.031 C 
ATOM     53  C   UNL A   1      43.468  27.595  33.535  1.00  0.00     0.029 A 
ATOM     54  C   UNL A   1      42.818  28.717  34.206  1.00  0.00     0.049 A 
ATOM     55  H   UNL A   1      41.222  29.849  33.493  1.00  0.00     0.167 HD
ATOM     56  C   UNL A   1      37.978  32.247  31.872  1.00  0.00     0.037 A 
ATOM     57  C   UNL A   1      43.153  29.202  35.418  1.00  0.00     0.037 A 
ATOM     58  C   UNL A   1      38.268  32.841  33.151  1.00  0.00     0.049 A 
ATOM     59  C   UNL A   1      42.449  30.423  35.949  1.00  0.00     0.074 A 
ATOM     60  C   UNL A   1      37.633  33.904  33.769  1.00  0.00     0.029 A 
ATOM     61  N   UNL A   1      39.284  32.435  34.003  1.00  0.00    -0.354 N 
ATOM     62  N   UNL A   1      41.450  31.092  35.427  1.00  0.00    -0.248 NA
ATOM     63  C   UNL A   1      42.940  30.972  37.223  1.00  0.00     0.031 C 
ATOM     64  C   UNL A   1      38.298  34.173  34.972  1.00  0.00     0.029 A 
ATOM     65  C   UNL A   1      39.314  33.244  35.128  1.00  0.00     0.049 A 
ATOM     66  H   UNL A   1      39.895  31.681  33.834  1.00  0.00     0.167 HD
ATOM     67  C   UNL A   1      41.184  32.131  36.312  1.00  0.00     0.074 A 
ATOM     68  C   UNL A   1      42.118  31.997  37.410  1.00  0.00     0.031 C 
ATOM     69  C   UNL A   1      40.250  33.109  36.219  1.00  0.00     0.037 A 
BRANCH  56  70
ATOM     70  C   UNL A   1      36.873  32.829  31.038  1.00  0.00     0.058 A 
ATOM     71  C   UNL A   1      37.132  33.707  29.974  1.00  0.00     0.135 A 
ATOM     72  C   UNL A   1      35.533  32.523  31.326  1.00  0.00     0.135 A 
ATOM     73  F   UNL A   1      38.395  34.047  29.669  1.00  0.00    -0.206 F 
ATOM     74  C   UNL A   1      36.099  34.301  29.257  1.00  0.00     0.059 A 
ATOM     75  C   UNL A   1      34.486  33.082  30.602  1.00  0.00     0.059 A 
ATOM     76  F   UNL A   1      35.231  31.688  32.332  1.00  0.00    -0.206 F 
ATOM     77  C   UNL A   1      34.778  33.990  29.586  1.00  0.00     0.060 A 
BRANCH  77  78
ATOM     78  S   UNL A   1      33.447  34.805  28.680  1.00  0.00     0.124 S 
ATOM     79  O   UNL A   1      32.495  35.081  29.751  1.00  0.00    -0.237 OA
ATOM     80  O   UNL A   1      34.120  35.969  28.113  1.00  0.00    -0.237 OA
ATOM     81  O   UNL A   1      33.028  33.796  27.713  1.00  0.00    -0.744 OA
ENDBRANCH  77  78
ENDBRANCH  56  70
BRANCH  57  82
ATOM     82  C   UNL A   1      44.233  28.557  36.212  1.00  0.00     0.058 A 
ATOM     83  C   UNL A   1      45.560  29.000  36.115  1.00  0.00     0.135 A 
ATOM     84  C   UNL A   1      43.964  27.482  37.074  1.00  0.00     0.135 A 
ATOM     85  F   UNL A   1      45.872  30.003  35.280  1.00  0.00    -0.206 F 
ATOM     86  C   UNL A   1      46.583  28.408  36.849  1.00  0.00     0.059 A 
ATOM     87  C   UNL A   1      44.969  26.883  37.827  1.00  0.00     0.059 A 
ATOM     88  F   UNL A   1      42.712  27.015  37.196  1.00  0.00    -0.206 F 
ATOM     89  C   UNL A   1      46.274  27.355  37.713  1.00  0.00     0.060 A 
BRANCH  89  90
ATOM     90  S   UNL A   1      47.592  26.650  38.729  1.00  0.00     0.124 S 
ATOM     91  O   UNL A   1      48.525  27.767  38.821  1.00  0.00    -0.237 OA
ATOM     92  O   UNL A   1      46.882  26.307  39.957  1.00  0.00    -0.237 OA
ATOM     93  O   UNL A   1      48.051  25.508  37.943  1.00  0.00    -0.744 OA
ENDBRANCH  89  90
ENDBRANCH  57  82
BRANCH  69  94
ATOM     94  C   UNL A   1      40.167  34.109  37.340  1.00  0.00     0.058 A 
ATOM     95  C   UNL A   1      40.934  35.284  37.338  1.00  0.00     0.135 A 
ATOM     96  C   UNL A   1      39.257  33.923  38.394  1.00  0.00     0.135 A 
ATOM     97  F   UNL A   1      41.827  35.507  36.361  1.00  0.00    -0.206 F 
ATOM     98  C   UNL A   1      40.806  36.238  38.345  1.00  0.00     0.059 A 
ATOM     99  C   UNL A   1      39.095  34.873  39.397  1.00  0.00     0.059 A 
ATOM    100  F   UNL A   1      38.496  32.818  38.441  1.00  0.00    -0.206 F 
ATOM    101  C   UNL A   1      39.878  36.026  39.366  1.00  0.00     0.060 A 
BRANCH 101 102
ATOM    102  S   UNL A   1      39.679  37.299  40.633  1.00  0.00     0.124 S 
ATOM    103  O   UNL A   1      40.867  38.118  40.417  1.00  0.00    -0.237 OA
ATOM    104  O   UNL A   1      38.409  37.913  40.260  1.00  0.00    -0.237 OA
ATOM    105  O   UNL A   1      39.659  36.539  41.879  1.00  0.00    -0.744 OA
ENDBRANCH 101 102
ENDBRANCH  69  94
ENDBRANCH  43  44
ENDBRANCH  36  38
ENDBRANCH  35  36
ENDBRANCH  34  35
ENDBRANCH  33  34
ENDBRANCH  32  33
ENDBRANCH  31  32
ENDBRANCH   1  31
TORSDOF 23
ENDMDL
