MODEL 1
REMARK VINA RESULT:      -9.9      0.000      0.000
REMARK SMILES COc1ccc(O[C@H]2CC[C@@]([NH2+]C(C)C)(C(=O)OCCOCCOCCOC(=O)c3ccc(-c4c5nc(c(-c6c(F)cc(S(=O)(=O)[O-])cc6F)c6ccc([nH]6)c(-c6c(F)cc(S(=O)(=O)[O-])cc6F)c6nc(c(-c7c(F)cc(S(=O)(=O)[O-])cc7F)c7ccc4[nH]7)C=C6)C=C5)cc3)C2)cc1
REMARK SMILES IDX 22 1 21 2 20 3 19 4 18 5 16 6 17 7 11 8 8 9 9 10 96 11 10 12
REMARK SMILES IDX 7 13 6 14 3 15 4 16 98 17 5 18 97 19 2 20 1 21 12 22 13 25
REMARK SMILES IDX 14 26 15 27 23 28 24 29 25 30 26 31 27 32 28 33 29 34 30 35
REMARK SMILES IDX 31 36 95 37 32 38 94 39 33 40 34 41 35 42 88 43 36 44 93 45
REMARK SMILES IDX 87 46 89 47 37 48 92 49 86 50 85 51 38 53 72 54 51 55 71 56
REMARK SMILES IDX 52 57 55 58 70 59 90 60 53 61 54 62 69 64 91 65 56 66 39 67
REMARK SMILES IDX 40 68 49 69 41 70 42 71 48 72 50 73 43 74 44 75 45 76 46 77
REMARK SMILES IDX 47 78 73 79 74 80 83 81 75 82 76 83 82 84 84 85 77 86 78 87
REMARK SMILES IDX 79 88 80 89 81 90 57 91 58 92 67 93 59 94 60 95 66 96 68 97
REMARK SMILES IDX 61 98 62 99 63 100 64 101 65 102
REMARK H PARENT 12 23 12 24 89 52 55 63
REMARK Flexibility Score: inf
ROOT
ATOM      1  C   UNL A   1      34.836  32.530  29.042  1.00  0.00     0.188 C 
ENDROOT
BRANCH   1   2
ATOM      2  O   UNL A   1      33.907  31.847  28.225  1.00  0.00    -0.376 OA
BRANCH   2   3
ATOM      3  C   UNL A   1      34.323  30.723  27.478  1.00  0.00     0.202 C 
BRANCH   3   4
ATOM      4  C   UNL A   1      33.309  29.637  27.118  1.00  0.00     0.261 C 
BRANCH   4   5
ATOM      5  O   UNL A   1      33.209  29.306  25.727  1.00  0.00    -0.459 OA
BRANCH   5   6
ATOM      6  C   UNL A   1      32.111  28.558  25.416  1.00  0.00     0.368 C 
ATOM      7  O   UNL A   1      31.282  28.198  26.251  1.00  0.00    -0.245 OA
BRANCH   6   8
ATOM      8  C   UNL A   1      32.046  28.131  23.918  1.00  0.00     0.198 C 
ATOM      9  C   UNL A   1      33.260  26.049  23.126  1.00  0.00     0.180 C 
ATOM     10  C   UNL A   1      31.788  25.929  22.777  1.00  0.00     0.052 C 
ATOM     11  C   UNL A   1      33.426  27.554  23.459  1.00  0.00     0.126 C 
ATOM     12  C   UNL A   1      31.056  26.982  23.612  1.00  0.00     0.085 C 
BRANCH   9  13
ATOM     13  O   UNL A   1      33.588  25.268  24.275  1.00  0.00    -0.490 OA
BRANCH  13  14
ATOM     14  C   UNL A   1      34.641  24.394  24.287  1.00  0.00     0.119 A 
ATOM     15  C   UNL A   1      36.818  22.654  24.856  1.00  0.00     0.119 A 
ATOM     16  C   UNL A   1      36.124  22.586  23.639  1.00  0.00     0.050 A 
ATOM     17  C   UNL A   1      36.461  23.638  25.755  1.00  0.00     0.050 A 
ATOM     18  C   UNL A   1      35.039  23.455  23.348  1.00  0.00     0.050 A 
ATOM     19  C   UNL A   1      35.379  24.462  25.466  1.00  0.00     0.050 A 
BRANCH  15  20
ATOM     20  O   UNL A   1      37.804  21.732  25.082  1.00  0.00    -0.497 OA
ATOM     21  C   UNL A   1      37.476  20.379  24.741  1.00  0.00     0.278 C 
ENDBRANCH  15  20
ENDBRANCH  13  14
ENDBRANCH   9  13
BRANCH   8  22
ATOM     22  N   UNL A   1      31.579  29.300  23.110  1.00  0.00    -0.330 N 
ATOM     23  H   UNL A   1      31.860  29.135  22.143  1.00  0.00     0.347 HD
ATOM     24  H   UNL A   1      32.007  30.112  23.556  1.00  0.00     0.347 HD
BRANCH  22  25
ATOM     25  C   UNL A   1      30.135  29.590  23.107  1.00  0.00     0.176 C 
ATOM     26  C   UNL A   1      29.768  30.722  24.060  1.00  0.00     0.075 C 
ATOM     27  C   UNL A   1      29.725  29.924  21.673  1.00  0.00     0.075 C 
ENDBRANCH  22  25
ENDBRANCH   8  22
ENDBRANCH   6   8
ENDBRANCH   5   6
ENDBRANCH   4   5
ENDBRANCH   3   4
ENDBRANCH   2   3
ENDBRANCH   1   2
BRANCH   1  28
ATOM     28  C   UNL A   1      34.520  33.823  29.779  1.00  0.00     0.188 C 
BRANCH  28  29
ATOM     29  O   UNL A   1      35.039  33.964  31.077  1.00  0.00    -0.376 OA
BRANCH  29  30
ATOM     30  C   UNL A   1      34.764  32.926  32.011  1.00  0.00     0.202 C 
BRANCH  30  31
ATOM     31  C   UNL A   1      35.879  32.290  32.870  1.00  0.00     0.261 C 
BRANCH  31  32
ATOM     32  O   UNL A   1      36.613  31.182  32.280  1.00  0.00    -0.460 OA
BRANCH  32  33
ATOM     33  C   UNL A   1      37.955  31.234  32.530  1.00  0.00     0.338 C 
ATOM     34  O   UNL A   1      38.414  31.790  33.524  1.00  0.00    -0.246 OA
BRANCH  33  35
ATOM     35  C   UNL A   1      38.871  30.394  31.661  1.00  0.00     0.060 A 
ATOM     36  C   UNL A   1      39.950  29.635  32.112  1.00  0.00     0.016 A 
ATOM     37  C   UNL A   1      38.814  30.642  30.284  1.00  0.00     0.016 A 
ATOM     38  C   UNL A   1      41.081  29.455  31.290  1.00  0.00     0.010 A 
ATOM     39  C   UNL A   1      39.861  30.266  29.421  1.00  0.00     0.010 A 
ATOM     40  C   UNL A   1      41.058  29.733  29.917  1.00  0.00    -0.014 A 
BRANCH  40  41
ATOM     41  C   UNL A   1      42.209  29.430  28.993  1.00  0.00     0.031 A 
ATOM     42  C   UNL A   1      42.392  28.047  28.387  1.00  0.00     0.074 A 
ATOM     43  C   UNL A   1      43.152  30.362  28.722  1.00  0.00     0.049 A 
ATOM     44  N   UNL A   1      43.478  27.480  27.918  1.00  0.00    -0.248 NA
ATOM     45  C   UNL A   1      41.196  27.192  28.293  1.00  0.00     0.031 C 
ATOM     46  C   UNL A   1      43.108  31.772  29.115  1.00  0.00     0.029 A 
ATOM     47  N   UNL A   1      44.364  30.253  28.069  1.00  0.00    -0.354 N 
ATOM     48  C   UNL A   1      43.118  26.185  27.542  1.00  0.00     0.074 A 
ATOM     49  C   UNL A   1      41.700  26.059  27.811  1.00  0.00     0.031 C 
ATOM     50  C   UNL A   1      44.209  32.396  28.685  1.00  0.00     0.029 A 
ATOM     51  C   UNL A   1      45.119  31.402  28.141  1.00  0.00     0.049 A 
ATOM     52  H   UNL A   1      44.656  29.438  27.601  1.00  0.00     0.167 HD
ATOM     53  C   UNL A   1      43.903  25.196  27.040  1.00  0.00     0.037 A 
ATOM     54  C   UNL A   1      46.428  31.637  27.921  1.00  0.00     0.037 A 
ATOM     55  C   UNL A   1      45.307  25.357  26.729  1.00  0.00     0.049 A 
ATOM     56  C   UNL A   1      47.315  30.505  27.501  1.00  0.00     0.074 A 
ATOM     57  C   UNL A   1      46.190  24.419  26.217  1.00  0.00     0.029 A 
ATOM     58  N   UNL A   1      46.032  26.528  26.894  1.00  0.00    -0.354 N 
ATOM     59  N   UNL A   1      46.996  29.258  27.262  1.00  0.00    -0.248 NA
ATOM     60  C   UNL A   1      48.744  30.808  27.348  1.00  0.00     0.031 C 
ATOM     61  C   UNL A   1      47.458  25.003  26.133  1.00  0.00     0.029 A 
ATOM     62  C   UNL A   1      47.355  26.327  26.526  1.00  0.00     0.049 A 
ATOM     63  H   UNL A   1      45.662  27.380  27.223  1.00  0.00     0.167 HD
ATOM     64  C   UNL A   1      48.183  28.629  26.907  1.00  0.00     0.074 A 
ATOM     65  C   UNL A   1      49.222  29.637  26.952  1.00  0.00     0.031 C 
ATOM     66  C   UNL A   1      48.388  27.332  26.573  1.00  0.00     0.037 A 
BRANCH  53  67
ATOM     67  C   UNL A   1      43.312  23.818  26.848  1.00  0.00     0.058 A 
ATOM     68  C   UNL A   1      43.024  23.283  25.584  1.00  0.00     0.135 A 
ATOM     69  C   UNL A   1      43.138  22.975  27.961  1.00  0.00     0.135 A 
ATOM     70  F   UNL A   1      43.166  24.037  24.482  1.00  0.00    -0.206 F 
ATOM     71  C   UNL A   1      42.573  21.971  25.430  1.00  0.00     0.059 A 
ATOM     72  C   UNL A   1      42.716  21.654  27.830  1.00  0.00     0.059 A 
ATOM     73  F   UNL A   1      43.408  23.425  29.197  1.00  0.00    -0.206 F 
ATOM     74  C   UNL A   1      42.427  21.161  26.560  1.00  0.00     0.060 A 
BRANCH  74  75
ATOM     75  S   UNL A   1      41.869  19.455  26.346  1.00  0.00     0.124 S 
ATOM     76  O   UNL A   1      40.435  19.639  26.141  1.00  0.00    -0.237 OA
ATOM     77  O   UNL A   1      42.625  19.022  25.175  1.00  0.00    -0.237 OA
ATOM     78  O   UNL A   1      42.242  18.812  27.602  1.00  0.00    -0.744 OA
ENDBRANCH  74  75
ENDBRANCH  53  67
BRANCH  54  79
ATOM     79  C   UNL A   1      46.989  32.987  28.209  1.00  0.00     0.058 A 
ATOM     80  C   UNL A   1      47.007  33.989  27.230  1.00  0.00     0.135 A 
ATOM     81  C   UNL A   1      47.479  33.313  29.487  1.00  0.00     0.135 A 
ATOM     82  F   UNL A   1      46.568  33.724  25.990  1.00  0.00    -0.206 F 
ATOM     83  C   UNL A   1      47.486  35.266  27.507  1.00  0.00     0.059 A 
ATOM     84  C   UNL A   1      47.925  34.592  29.798  1.00  0.00     0.059 A 
ATOM     85  F   UNL A   1      47.479  32.392  30.464  1.00  0.00    -0.206 F 
ATOM     86  C   UNL A   1      47.931  35.560  28.797  1.00  0.00     0.060 A 
BRANCH  86  87
ATOM     87  S   UNL A   1      48.480  37.239  29.168  1.00  0.00     0.124 S 
ATOM     88  O   UNL A   1      47.524  37.636  30.201  1.00  0.00    -0.237 OA
ATOM     89  O   UNL A   1      49.852  37.017  29.627  1.00  0.00    -0.237 OA
ATOM     90  O   UNL A   1      48.357  37.926  27.895  1.00  0.00    -0.744 OA
ENDBRANCH  86  87
ENDBRANCH  54  79
BRANCH  66  91
ATOM     91  C   UNL A   1      49.785  26.941  26.177  1.00  0.00     0.058 A 
ATOM     92  C   UNL A   1      50.237  27.046  24.853  1.00  0.00     0.135 A 
ATOM     93  C   UNL A   1      50.685  26.461  27.142  1.00  0.00     0.135 A 
ATOM     94  F   UNL A   1      49.413  27.486  23.889  1.00  0.00    -0.206 F 
ATOM     95  C   UNL A   1      51.524  26.657  24.492  1.00  0.00     0.059 A 
ATOM     96  C   UNL A   1      51.985  26.094  26.809  1.00  0.00     0.059 A 
ATOM     97  F   UNL A   1      50.305  26.345  28.424  1.00  0.00    -0.206 F 
ATOM     98  C   UNL A   1      52.391  26.182  25.479  1.00  0.00     0.060 A 
BRANCH  98  99
ATOM     99  S   UNL A   1      54.061  25.693  25.000  1.00  0.00     0.124 S 
ATOM    100  O   UNL A   1      53.968  24.238  25.054  1.00  0.00    -0.237 OA
ATOM    101  O   UNL A   1      54.185  26.271  23.665  1.00  0.00    -0.237 OA
ATOM    102  O   UNL A   1      54.902  26.306  26.024  1.00  0.00    -0.744 OA
ENDBRANCH  98  99
ENDBRANCH  66  91
ENDBRANCH  40  41
ENDBRANCH  33  35
ENDBRANCH  32  33
ENDBRANCH  31  32
ENDBRANCH  30  31
ENDBRANCH  29  30
ENDBRANCH  28  29
ENDBRANCH   1  28
TORSDOF 25
ENDMDL
MODEL 2
REMARK VINA RESULT:      -9.1      5.825      9.297
REMARK SMILES COc1ccc(O[C@H]2CC[C@@]([NH2+]C(C)C)(C(=O)OCCOCCOCCOC(=O)c3ccc(-c4c5nc(c(-c6c(F)cc(S(=O)(=O)[O-])cc6F)c6ccc([nH]6)c(-c6c(F)cc(S(=O)(=O)[O-])cc6F)c6nc(c(-c7c(F)cc(S(=O)(=O)[O-])cc7F)c7ccc4[nH]7)C=C6)C=C5)cc3)C2)cc1
REMARK SMILES IDX 22 1 21 2 20 3 19 4 18 5 16 6 17 7 11 8 8 9 9 10 96 11 10 12
REMARK SMILES IDX 7 13 6 14 3 15 4 16 98 17 5 18 97 19 2 20 1 21 12 22 13 25
REMARK SMILES IDX 14 26 15 27 23 28 24 29 25 30 26 31 27 32 28 33 29 34 30 35
REMARK SMILES IDX 31 36 95 37 32 38 94 39 33 40 34 41 35 42 88 43 36 44 93 45
REMARK SMILES IDX 87 46 89 47 37 48 92 49 86 50 85 51 38 53 72 54 51 55 71 56
REMARK SMILES IDX 52 57 55 58 70 59 90 60 53 61 54 62 69 64 91 65 56 66 39 67
REMARK SMILES IDX 40 68 49 69 41 70 42 71 48 72 50 73 43 74 44 75 45 76 46 77
REMARK SMILES IDX 47 78 73 79 74 80 83 81 75 82 76 83 82 84 84 85 77 86 78 87
REMARK SMILES IDX 79 88 80 89 81 90 57 91 58 92 67 93 59 94 60 95 66 96 68 97
REMARK SMILES IDX 61 98 62 99 63 100 64 101 65 102
REMARK H PARENT 12 23 12 24 89 52 55 63
REMARK Flexibility Score: inf
ROOT
ATOM      1  C   UNL A   1      33.613  27.818  25.726  1.00  0.00     0.188 C 
ENDROOT
BRANCH   1   2
ATOM      2  O   UNL A   1      33.600  26.451  26.085  1.00  0.00    -0.376 OA
BRANCH   2   3
ATOM      3  C   UNL A   1      34.412  25.534  25.382  1.00  0.00     0.202 C 
BRANCH   3   4
ATOM      4  C   UNL A   1      34.736  24.176  26.008  1.00  0.00     0.261 C 
BRANCH   4   5
ATOM      5  O   UNL A   1      33.620  23.444  26.531  1.00  0.00    -0.459 OA
BRANCH   5   6
ATOM      6  C   UNL A   1      33.687  22.101  26.303  1.00  0.00     0.368 C 
ATOM      7  O   UNL A   1      34.508  21.364  26.848  1.00  0.00    -0.245 OA
BRANCH   6   8
ATOM      8  C   UNL A   1      32.681  21.596  25.223  1.00  0.00     0.198 C 
ATOM      9  C   UNL A   1      31.048  23.209  24.142  1.00  0.00     0.180 C 
ATOM     10  C   UNL A   1      31.877  22.541  23.060  1.00  0.00     0.052 C 
ATOM     11  C   UNL A   1      31.303  22.320  25.387  1.00  0.00     0.126 C 
ATOM     12  C   UNL A   1      33.083  21.912  23.762  1.00  0.00     0.085 C 
BRANCH   9  13
ATOM     13  O   UNL A   1      31.504  24.536  24.403  1.00  0.00    -0.490 OA
BRANCH  13  14
ATOM     14  C   UNL A   1      30.938  25.631  23.809  1.00  0.00     0.119 A 
ATOM     15  C   UNL A   1      29.394  27.872  22.981  1.00  0.00     0.119 A 
ATOM     16  C   UNL A   1      30.711  27.685  22.535  1.00  0.00     0.050 A 
ATOM     17  C   UNL A   1      28.834  26.901  23.785  1.00  0.00     0.050 A 
ATOM     18  C   UNL A   1      31.485  26.566  22.943  1.00  0.00     0.050 A 
ATOM     19  C   UNL A   1      29.615  25.826  24.196  1.00  0.00     0.050 A 
BRANCH  15  20
ATOM     20  O   UNL A   1      28.745  29.015  22.595  1.00  0.00    -0.497 OA
ATOM     21  C   UNL A   1      29.581  30.051  22.066  1.00  0.00     0.278 C 
ENDBRANCH  15  20
ENDBRANCH  13  14
ENDBRANCH   9  13
BRANCH   8  22
ATOM     22  N   UNL A   1      32.596  20.106  25.312  1.00  0.00    -0.330 N 
ATOM     23  H   UNL A   1      31.608  19.857  25.351  1.00  0.00     0.347 HD
ATOM     24  H   UNL A   1      33.140  19.863  26.140  1.00  0.00     0.347 HD
BRANCH  22  25
ATOM     25  C   UNL A   1      33.204  19.325  24.221  1.00  0.00     0.176 C 
ATOM     26  C   UNL A   1      34.492  18.630  24.651  1.00  0.00     0.075 C 
ATOM     27  C   UNL A   1      32.169  18.311  23.733  1.00  0.00     0.075 C 
ENDBRANCH  22  25
ENDBRANCH   8  22
ENDBRANCH   6   8
ENDBRANCH   5   6
ENDBRANCH   4   5
ENDBRANCH   3   4
ENDBRANCH   2   3
ENDBRANCH   1   2
BRANCH   1  28
ATOM     28  C   UNL A   1      32.463  28.774  26.006  1.00  0.00     0.188 C 
BRANCH  28  29
ATOM     29  O   UNL A   1      32.503  29.487  27.215  1.00  0.00    -0.376 OA
BRANCH  29  30
ATOM     30  C   UNL A   1      33.216  30.718  27.229  1.00  0.00     0.202 C 
BRANCH  30  31
ATOM     31  C   UNL A   1      32.488  32.080  27.271  1.00  0.00     0.261 C 
BRANCH  31  32
ATOM     32  O   UNL A   1      32.794  32.955  28.391  1.00  0.00    -0.460 OA
BRANCH  32  33
ATOM     33  C   UNL A   1      33.865  33.770  28.158  1.00  0.00     0.338 C 
ATOM     34  O   UNL A   1      33.874  34.593  27.247  1.00  0.00    -0.246 OA
BRANCH  33  35
ATOM     35  C   UNL A   1      34.976  33.795  29.190  1.00  0.00     0.060 A 
ATOM     36  C   UNL A   1      36.126  34.579  29.129  1.00  0.00     0.016 A 
ATOM     37  C   UNL A   1      34.989  32.737  30.108  1.00  0.00     0.016 A 
ATOM     38  C   UNL A   1      37.334  34.108  29.683  1.00  0.00     0.010 A 
ATOM     39  C   UNL A   1      36.150  32.397  30.828  1.00  0.00     0.010 A 
ATOM     40  C   UNL A   1      37.375  33.027  30.574  1.00  0.00    -0.014 A 
BRANCH  40  41
ATOM     41  C   UNL A   1      38.631  32.585  31.279  1.00  0.00     0.031 A 
ATOM     42  C   UNL A   1      39.449  31.407  30.772  1.00  0.00     0.074 A 
ATOM     43  C   UNL A   1      39.040  33.185  32.422  1.00  0.00     0.049 A 
ATOM     44  N   UNL A   1      40.292  30.638  31.420  1.00  0.00    -0.248 NA
ATOM     45  C   UNL A   1      39.300  31.049  29.351  1.00  0.00     0.031 C 
ATOM     46  C   UNL A   1      38.461  34.392  33.015  1.00  0.00     0.029 A 
ATOM     47  N   UNL A   1      40.030  32.836  33.317  1.00  0.00    -0.354 N 
ATOM     48  C   UNL A   1      40.718  29.667  30.513  1.00  0.00     0.074 A 
ATOM     49  C   UNL A   1      40.061  29.962  29.256  1.00  0.00     0.031 C 
ATOM     50  C   UNL A   1      39.108  34.696  34.144  1.00  0.00     0.029 A 
ATOM     51  C   UNL A   1      40.029  33.614  34.453  1.00  0.00     0.049 A 
ATOM     52  H   UNL A   1      40.672  32.106  33.159  1.00  0.00     0.167 HD
ATOM     53  C   UNL A   1      41.561  28.622  30.721  1.00  0.00     0.037 A 
ATOM     54  C   UNL A   1      40.593  33.443  35.665  1.00  0.00     0.037 A 
ATOM     55  C   UNL A   1      42.250  28.373  31.970  1.00  0.00     0.049 A 
ATOM     56  C   UNL A   1      41.408  32.215  35.927  1.00  0.00     0.074 A 
ATOM     57  C   UNL A   1      43.124  27.344  32.282  1.00  0.00     0.029 A 
ATOM     58  N   UNL A   1      42.148  29.160  33.107  1.00  0.00    -0.354 N 
ATOM     59  N   UNL A   1      41.711  31.240  35.107  1.00  0.00    -0.248 NA
ATOM     60  C   UNL A   1      41.935  32.050  37.288  1.00  0.00     0.031 C 
ATOM     61  C   UNL A   1      43.500  27.473  33.623  1.00  0.00     0.029 A 
ATOM     62  C   UNL A   1      42.916  28.621  34.131  1.00  0.00     0.049 A 
ATOM     63  H   UNL A   1      41.611  29.982  33.179  1.00  0.00     0.167 HD
ATOM     64  C   UNL A   1      42.485  30.354  35.845  1.00  0.00     0.074 A 
ATOM     65  C   UNL A   1      42.612  30.916  37.175  1.00  0.00     0.031 C 
ATOM     66  C   UNL A   1      43.040  29.182  35.453  1.00  0.00     0.037 A 
BRANCH  53  67
ATOM     67  C   UNL A   1      41.758  27.608  29.617  1.00  0.00     0.058 A 
ATOM     68  C   UNL A   1      40.741  26.743  29.187  1.00  0.00     0.135 A 
ATOM     69  C   UNL A   1      42.968  27.588  28.899  1.00  0.00     0.135 A 
ATOM     70  F   UNL A   1      39.563  26.713  29.831  1.00  0.00    -0.206 F 
ATOM     71  C   UNL A   1      40.919  25.888  28.098  1.00  0.00     0.059 A 
ATOM     72  C   UNL A   1      43.160  26.763  27.793  1.00  0.00     0.059 A 
ATOM     73  F   UNL A   1      43.977  28.401  29.254  1.00  0.00    -0.206 F 
ATOM     74  C   UNL A   1      42.132  25.908  27.403  1.00  0.00     0.060 A 
BRANCH  74  75
ATOM     75  S   UNL A   1      42.341  24.815  25.979  1.00  0.00     0.124 S 
ATOM     76  O   UNL A   1      41.452  23.711  26.323  1.00  0.00    -0.237 OA
ATOM     77  O   UNL A   1      41.904  25.658  24.870  1.00  0.00    -0.237 OA
ATOM     78  O   UNL A   1      43.766  24.498  25.997  1.00  0.00    -0.744 OA
ENDBRANCH  74  75
ENDBRANCH  53  67
BRANCH  54  79
ATOM     79  C   UNL A   1      40.302  34.419  36.753  1.00  0.00     0.058 A 
ATOM     80  C   UNL A   1      39.223  34.231  37.627  1.00  0.00     0.135 A 
ATOM     81  C   UNL A   1      41.129  35.537  36.967  1.00  0.00     0.135 A 
ATOM     82  F   UNL A   1      38.393  33.190  37.455  1.00  0.00    -0.206 F 
ATOM     83  C   UNL A   1      38.974  35.113  38.674  1.00  0.00     0.059 A 
ATOM     84  C   UNL A   1      40.924  36.409  38.030  1.00  0.00     0.059 A 
ATOM     85  F   UNL A   1      42.181  35.760  36.164  1.00  0.00    -0.206 F 
ATOM     86  C   UNL A   1      39.838  36.191  38.874  1.00  0.00     0.060 A 
BRANCH  86  87
ATOM     87  S   UNL A   1      39.554  37.287  40.280  1.00  0.00     0.124 S 
ATOM     88  O   UNL A   1      39.602  36.346  41.398  1.00  0.00    -0.237 OA
ATOM     89  O   UNL A   1      40.685  38.211  40.180  1.00  0.00    -0.237 OA
ATOM     90  O   UNL A   1      38.253  37.869  39.999  1.00  0.00    -0.744 OA
ENDBRANCH  86  87
ENDBRANCH  54  79
BRANCH  66  91
ATOM     91  C   UNL A   1      43.882  28.453  36.463  1.00  0.00     0.058 A 
ATOM     92  C   UNL A   1      43.405  27.329  37.154  1.00  0.00     0.135 A 
ATOM     93  C   UNL A   1      45.189  28.886  36.739  1.00  0.00     0.135 A 
ATOM     94  F   UNL A   1      42.158  26.882  36.938  1.00  0.00    -0.206 F 
ATOM     95  C   UNL A   1      44.183  26.678  38.106  1.00  0.00     0.059 A 
ATOM     96  C   UNL A   1      45.995  28.233  37.665  1.00  0.00     0.059 A 
ATOM     97  F   UNL A   1      45.697  29.954  36.103  1.00  0.00    -0.206 F 
ATOM     98  C   UNL A   1      45.478  27.138  38.355  1.00  0.00     0.060 A 
BRANCH  98  99
ATOM     99  S   UNL A   1      46.480  26.277  39.584  1.00  0.00     0.124 S 
ATOM    100  O   UNL A   1      46.582  27.281  40.638  1.00  0.00    -0.237 OA
ATOM    101  O   UNL A   1      45.659  25.111  39.896  1.00  0.00    -0.237 OA
ATOM    102  O   UNL A   1      47.721  25.990  38.871  1.00  0.00    -0.744 OA
ENDBRANCH  98  99
ENDBRANCH  66  91
ENDBRANCH  40  41
ENDBRANCH  33  35
ENDBRANCH  32  33
ENDBRANCH  31  32
ENDBRANCH  30  31
ENDBRANCH  29  30
ENDBRANCH  28  29
ENDBRANCH   1  28
TORSDOF 25
ENDMDL
MODEL 3
REMARK VINA RESULT:      -8.6      5.105     10.534
REMARK SMILES COc1ccc(O[C@H]2CC[C@@]([NH2+]C(C)C)(C(=O)OCCOCCOCCOC(=O)c3ccc(-c4c5nc(c(-c6c(F)cc(S(=O)(=O)[O-])cc6F)c6ccc([nH]6)c(-c6c(F)cc(S(=O)(=O)[O-])cc6F)c6nc(c(-c7c(F)cc(S(=O)(=O)[O-])cc7F)c7ccc4[nH]7)C=C6)C=C5)cc3)C2)cc1
REMARK SMILES IDX 22 1 21 2 20 3 19 4 18 5 16 6 17 7 11 8 8 9 9 10 96 11 10 12
REMARK SMILES IDX 7 13 6 14 3 15 4 16 98 17 5 18 97 19 2 20 1 21 12 22 13 25
REMARK SMILES IDX 14 26 15 27 23 28 24 29 25 30 26 31 27 32 28 33 29 34 30 35
REMARK SMILES IDX 31 36 95 37 32 38 94 39 33 40 34 41 35 42 88 43 36 44 93 45
REMARK SMILES IDX 87 46 89 47 37 48 92 49 86 50 85 51 38 53 72 54 51 55 71 56
REMARK SMILES IDX 52 57 55 58 70 59 90 60 53 61 54 62 69 64 91 65 56 66 39 67
REMARK SMILES IDX 40 68 49 69 41 70 42 71 48 72 50 73 43 74 44 75 45 76 46 77
REMARK SMILES IDX 47 78 73 79 74 80 83 81 75 82 76 83 82 84 84 85 77 86 78 87
REMARK SMILES IDX 79 88 80 89 81 90 57 91 58 92 67 93 59 94 60 95 66 96 68 97
REMARK SMILES IDX 61 98 62 99 63 100 64 101 65 102
REMARK H PARENT 12 23 12 24 89 52 55 63
REMARK Flexibility Score: inf
ROOT
ATOM      1  C   UNL A   1      33.433  29.137  25.735  1.00  0.00     0.188 C 
ENDROOT
BRANCH   1   2
ATOM      2  O   UNL A   1      33.480  27.787  26.150  1.00  0.00    -0.376 OA
BRANCH   2   3
ATOM      3  C   UNL A   1      33.915  26.791  25.249  1.00  0.00     0.202 C 
BRANCH   3   4
ATOM      4  C   UNL A   1      34.138  25.363  25.750  1.00  0.00     0.261 C 
BRANCH   4   5
ATOM      5  O   UNL A   1      33.004  24.724  26.350  1.00  0.00    -0.459 OA
BRANCH   5   6
ATOM      6  C   UNL A   1      33.053  23.361  26.306  1.00  0.00     0.368 C 
ATOM      7  O   UNL A   1      33.700  22.683  27.104  1.00  0.00    -0.245 OA
BRANCH   6   8
ATOM      8  C   UNL A   1      32.281  22.743  25.100  1.00  0.00     0.198 C 
ATOM      9  C   UNL A   1      30.659  24.159  23.758  1.00  0.00     0.180 C 
ATOM     10  C   UNL A   1      31.709  23.585  22.824  1.00  0.00     0.052 C 
ATOM     11  C   UNL A   1      30.823  23.309  25.044  1.00  0.00     0.126 C 
ATOM     12  C   UNL A   1      32.858  23.097  23.709  1.00  0.00     0.085 C 
BRANCH   9  13
ATOM     13  O   UNL A   1      30.923  25.530  24.057  1.00  0.00    -0.490 OA
BRANCH  13  14
ATOM     14  C   UNL A   1      30.020  26.522  23.786  1.00  0.00     0.119 A 
ATOM     15  C   UNL A   1      28.544  28.791  22.910  1.00  0.00     0.119 A 
ATOM     16  C   UNL A   1      27.905  27.667  23.454  1.00  0.00     0.050 A 
ATOM     17  C   UNL A   1      29.923  28.801  22.870  1.00  0.00     0.050 A 
ATOM     18  C   UNL A   1      28.637  26.533  23.895  1.00  0.00     0.050 A 
ATOM     19  C   UNL A   1      30.622  27.672  23.282  1.00  0.00     0.050 A 
BRANCH  15  20
ATOM     20  O   UNL A   1      27.757  29.810  22.444  1.00  0.00    -0.497 OA
ATOM     21  C   UNL A   1      28.346  30.629  21.426  1.00  0.00     0.278 C 
ENDBRANCH  15  20
ENDBRANCH  13  14
ENDBRANCH   9  13
BRANCH   8  22
ATOM     22  N   UNL A   1      32.349  21.253  25.205  1.00  0.00    -0.330 N 
ATOM     23  H   UNL A   1      31.401  20.895  25.086  1.00  0.00     0.347 HD
ATOM     24  H   UNL A   1      32.771  21.075  26.117  1.00  0.00     0.347 HD
BRANCH  22  25
ATOM     25  C   UNL A   1      33.213  20.544  24.246  1.00  0.00     0.176 C 
ATOM     26  C   UNL A   1      34.451  19.949  24.909  1.00  0.00     0.075 C 
ATOM     27  C   UNL A   1      32.375  19.457  23.572  1.00  0.00     0.075 C 
ENDBRANCH  22  25
ENDBRANCH   8  22
ENDBRANCH   6   8
ENDBRANCH   5   6
ENDBRANCH   4   5
ENDBRANCH   3   4
ENDBRANCH   2   3
ENDBRANCH   1   2
BRANCH   1  28
ATOM     28  C   UNL A   1      32.397  30.136  26.230  1.00  0.00     0.188 C 
BRANCH  28  29
ATOM     29  O   UNL A   1      32.681  30.816  27.424  1.00  0.00    -0.376 OA
BRANCH  29  30
ATOM     30  C   UNL A   1      33.590  31.909  27.358  1.00  0.00     0.202 C 
BRANCH  30  31
ATOM     31  C   UNL A   1      33.122  33.368  27.558  1.00  0.00     0.261 C 
BRANCH  31  32
ATOM     32  O   UNL A   1      32.758  33.762  28.909  1.00  0.00    -0.460 OA
BRANCH  32  33
ATOM     33  C   UNL A   1      33.797  34.307  29.609  1.00  0.00     0.338 C 
ATOM     34  O   UNL A   1      33.720  35.408  30.145  1.00  0.00    -0.246 OA
BRANCH  33  35
ATOM     35  C   UNL A   1      34.996  33.423  29.900  1.00  0.00     0.060 A 
ATOM     36  C   UNL A   1      34.983  32.263  30.670  1.00  0.00     0.016 A 
ATOM     37  C   UNL A   1      36.252  33.979  29.628  1.00  0.00     0.016 A 
ATOM     38  C   UNL A   1      36.120  31.898  31.421  1.00  0.00     0.010 A 
ATOM     39  C   UNL A   1      37.427  33.474  30.217  1.00  0.00     0.010 A 
ATOM     40  C   UNL A   1      37.379  32.469  31.192  1.00  0.00    -0.014 A 
BRANCH  40  41
ATOM     41  C   UNL A   1      38.633  32.008  31.888  1.00  0.00     0.031 A 
ATOM     42  C   UNL A   1      39.056  32.597  33.225  1.00  0.00     0.074 A 
ATOM     43  C   UNL A   1      39.457  31.099  31.315  1.00  0.00     0.049 A 
ATOM     44  N   UNL A   1      40.245  32.642  33.777  1.00  0.00    -0.248 NA
ATOM     45  C   UNL A   1      38.003  33.212  34.051  1.00  0.00     0.031 C 
ATOM     46  C   UNL A   1      39.185  30.340  30.093  1.00  0.00     0.029 A 
ATOM     47  N   UNL A   1      40.722  30.679  31.674  1.00  0.00    -0.354 N 
ATOM     48  C   UNL A   1      40.101  33.347  34.972  1.00  0.00     0.074 A 
ATOM     49  C   UNL A   1      38.697  33.687  35.081  1.00  0.00     0.031 C 
ATOM     50  C   UNL A   1      40.221  29.541  29.818  1.00  0.00     0.029 A 
ATOM     51  C   UNL A   1      41.302  29.854  30.737  1.00  0.00     0.049 A 
ATOM     52  H   UNL A   1      41.163  30.942  32.515  1.00  0.00     0.167 HD
ATOM     53  C   UNL A   1      41.055  33.692  35.876  1.00  0.00     0.037 A 
ATOM     54  C   UNL A   1      42.579  29.473  30.537  1.00  0.00     0.037 A 
ATOM     55  C   UNL A   1      42.444  33.298  35.777  1.00  0.00     0.049 A 
ATOM     56  C   UNL A   1      43.646  29.973  31.461  1.00  0.00     0.074 A 
ATOM     57  C   UNL A   1      43.487  33.594  36.640  1.00  0.00     0.029 A 
ATOM     58  N   UNL A   1      42.983  32.522  34.762  1.00  0.00    -0.354 N 
ATOM     59  N   UNL A   1      43.525  30.736  32.519  1.00  0.00    -0.248 NA
ATOM     60  C   UNL A   1      45.027  29.582  31.149  1.00  0.00     0.031 C 
ATOM     61  C   UNL A   1      44.665  33.052  36.114  1.00  0.00     0.029 A 
ATOM     62  C   UNL A   1      44.347  32.358  34.959  1.00  0.00     0.049 A 
ATOM     63  H   UNL A   1      42.473  32.141  34.011  1.00  0.00     0.167 HD
ATOM     64  C   UNL A   1      44.812  30.898  33.014  1.00  0.00     0.074 A 
ATOM     65  C   UNL A   1      45.694  30.145  32.146  1.00  0.00     0.031 C 
ATOM     66  C   UNL A   1      45.222  31.609  34.093  1.00  0.00     0.037 A 
BRANCH  53  67
ATOM     67  C   UNL A   1      40.679  34.594  37.030  1.00  0.00     0.058 A 
ATOM     68  C   UNL A   1      40.869  35.983  37.003  1.00  0.00     0.135 A 
ATOM     69  C   UNL A   1      40.006  34.055  38.143  1.00  0.00     0.135 A 
ATOM     70  F   UNL A   1      41.504  36.559  35.971  1.00  0.00    -0.206 F 
ATOM     71  C   UNL A   1      40.420  36.802  38.041  1.00  0.00     0.059 A 
ATOM     72  C   UNL A   1      39.526  34.855  39.177  1.00  0.00     0.059 A 
ATOM     73  F   UNL A   1      39.784  32.733  38.222  1.00  0.00    -0.206 F 
ATOM     74  C   UNL A   1      39.744  36.230  39.122  1.00  0.00     0.060 A 
BRANCH  74  75
ATOM     75  S   UNL A   1      39.144  37.304  40.446  1.00  0.00     0.124 S 
ATOM     76  O   UNL A   1      38.515  36.341  41.344  1.00  0.00    -0.237 OA
ATOM     77  O   UNL A   1      40.376  37.915  40.936  1.00  0.00    -0.237 OA
ATOM     78  O   UNL A   1      38.227  38.212  39.762  1.00  0.00    -0.744 OA
ENDBRANCH  74  75
ENDBRANCH  53  67
BRANCH  54  79
ATOM     79  C   UNL A   1      42.922  28.658  29.338  1.00  0.00     0.058 A 
ATOM     80  C   UNL A   1      43.048  27.265  29.419  1.00  0.00     0.135 A 
ATOM     81  C   UNL A   1      43.086  29.256  28.075  1.00  0.00     0.135 A 
ATOM     82  F   UNL A   1      42.918  26.647  30.603  1.00  0.00    -0.206 F 
ATOM     83  C   UNL A   1      43.320  26.493  28.294  1.00  0.00     0.059 A 
ATOM     84  C   UNL A   1      43.319  28.503  26.930  1.00  0.00     0.059 A 
ATOM     85  F   UNL A   1      42.969  30.586  27.939  1.00  0.00    -0.206 F 
ATOM     86  C   UNL A   1      43.442  27.121  27.052  1.00  0.00     0.060 A 
BRANCH  86  87
ATOM     87  S   UNL A   1      43.721  26.106  25.586  1.00  0.00     0.124 S 
ATOM     88  O   UNL A   1      42.668  26.588  24.694  1.00  0.00    -0.237 OA
ATOM     89  O   UNL A   1      45.086  26.478  25.213  1.00  0.00    -0.237 OA
ATOM     90  O   UNL A   1      43.561  24.749  26.077  1.00  0.00    -0.744 OA
ENDBRANCH  86  87
ENDBRANCH  54  79
BRANCH  66  91
ATOM     91  C   UNL A   1      46.688  31.560  34.425  1.00  0.00     0.058 A 
ATOM     92  C   UNL A   1      47.594  32.509  33.926  1.00  0.00     0.135 A 
ATOM     93  C   UNL A   1      47.191  30.550  35.261  1.00  0.00     0.135 A 
ATOM     94  F   UNL A   1      47.168  33.486  33.111  1.00  0.00    -0.206 F 
ATOM     95  C   UNL A   1      48.953  32.439  34.218  1.00  0.00     0.059 A 
ATOM     96  C   UNL A   1      48.541  30.479  35.590  1.00  0.00     0.059 A 
ATOM     97  F   UNL A   1      46.367  29.620  35.770  1.00  0.00    -0.206 F 
ATOM     98  C   UNL A   1      49.416  31.419  35.051  1.00  0.00     0.060 A 
BRANCH  98  99
ATOM     99  S   UNL A   1      51.179  31.347  35.432  1.00  0.00     0.124 S 
ATOM    100  O   UNL A   1      51.408  32.664  36.017  1.00  0.00    -0.237 OA
ATOM    101  O   UNL A   1      51.253  30.220  36.358  1.00  0.00    -0.237 OA
ATOM    102  O   UNL A   1      51.800  31.123  34.130  1.00  0.00    -0.744 OA
ENDBRANCH  98  99
ENDBRANCH  66  91
ENDBRANCH  40  41
ENDBRANCH  33  35
ENDBRANCH  32  33
ENDBRANCH  31  32
ENDBRANCH  30  31
ENDBRANCH  29  30
ENDBRANCH  28  29
ENDBRANCH   1  28
TORSDOF 25
ENDMDL
