MODEL 1
REMARK VINA RESULT:      -9.0      0.000      0.000
REMARK SMILES O=C(C[NH+]1CC(c2nc(-c3cccs3)no2)C1)OCCOCCOCCOC(=O)c1ccc(-c2c3nc(c(-c4c(F)cc(S(=O)(=O)[O-])cc4F)c4ccc([nH]4)c(-c4c(F)cc(S(=O)(=O)[O-])cc4F)c4nc(c(-c5c(F)cc(S(=O)(=O)[O-])cc5F)c5ccc2[nH]5)C=C4)C=C3)cc1
REMARK SMILES IDX 22 1 21 2 20 3 19 4 18 5 2 6 1 7 3 8 4 9 5 10 17 11 6 13
REMARK SMILES IDX 7 14 8 15 16 16 9 17 15 18 10 19 11 20 14 21 12 22 13 23
REMARK SMILES IDX 23 24 24 25 25 26 26 27 27 28 28 29 29 30 30 31 31 32 95 33
REMARK SMILES IDX 32 34 94 35 33 36 34 37 35 38 88 39 36 40 93 41 87 42 89 43
REMARK SMILES IDX 37 44 92 45 86 46 85 47 38 49 72 50 51 51 71 52 52 53 55 54
REMARK SMILES IDX 70 55 90 56 53 57 54 58 69 60 91 61 56 62 39 63 40 64 49 65
REMARK SMILES IDX 41 66 42 67 48 68 50 69 43 70 44 71 45 72 46 73 47 74 73 75
REMARK SMILES IDX 74 76 83 77 75 78 76 79 82 80 84 81 77 82 78 83 79 84 80 85
REMARK SMILES IDX 81 86 57 87 58 88 67 89 59 90 60 91 66 92 68 93 61 94 62 95
REMARK SMILES IDX 63 96 64 97 65 98
REMARK H PARENT 4 12 89 48 55 59
REMARK Flexibility Score: inf
ROOT
ATOM      1  C   UNL A   1      47.830  39.120  26.848  1.00  0.00     0.188 C 
ENDROOT
BRANCH   1   2
ATOM      2  O   UNL A   1      46.954  39.388  25.759  1.00  0.00    -0.376 OA
BRANCH   2   3
ATOM      3  C   UNL A   1      45.599  39.686  26.068  1.00  0.00     0.202 C 
BRANCH   3   4
ATOM      4  C   UNL A   1      45.106  41.115  25.858  1.00  0.00     0.261 C 
BRANCH   4   5
ATOM      5  O   UNL A   1      44.203  41.289  24.762  1.00  0.00    -0.459 OA
BRANCH   5   6
ATOM      6  C   UNL A   1      42.920  41.715  24.903  1.00  0.00     0.361 C 
ATOM      7  O   UNL A   1      42.267  41.338  25.876  1.00  0.00    -0.245 OA
BRANCH   6   8
ATOM      8  C   UNL A   1      42.272  42.530  23.784  1.00  0.00     0.386 C 
BRANCH   8   9
ATOM      9  N   UNL A   1      43.060  42.449  22.546  1.00  0.00    -0.324 N 
ATOM     10  C   UNL A   1      42.195  42.079  21.377  1.00  0.00     0.282 C 
ATOM     11  C   UNL A   1      43.185  43.792  21.911  1.00  0.00     0.282 C 
ATOM     12  H   UNL A   1      43.865  41.893  22.831  1.00  0.00     0.348 HD
ATOM     13  C   UNL A   1      43.048  43.060  20.547  1.00  0.00     0.188 C 
BRANCH  13  14
ATOM     14  C   UNL A   1      42.343  43.917  19.536  1.00  0.00     0.241 A 
ATOM     15  N   UNL A   1      42.994  44.771  18.782  1.00  0.00    -0.190 NA
ATOM     16  O   UNL A   1      40.988  44.009  19.404  1.00  0.00    -0.338 OA
ATOM     17  C   UNL A   1      41.975  45.539  18.269  1.00  0.00     0.212 A 
ATOM     18  N   UNL A   1      40.748  45.069  18.533  1.00  0.00    -0.056 NA
BRANCH  17  19
ATOM     19  C   UNL A   1      42.258  46.849  17.616  1.00  0.00     0.075 A 
ATOM     20  C   UNL A   1      41.527  47.326  16.546  1.00  0.00     0.024 A 
ATOM     21  S   UNL A   1      43.559  47.875  18.013  1.00  0.00    -0.140 S 
ATOM     22  C   UNL A   1      42.098  48.509  15.996  1.00  0.00     0.012 A 
ATOM     23  C   UNL A   1      43.225  48.901  16.684  1.00  0.00     0.065 A 
ENDBRANCH  17  19
ENDBRANCH  13  14
ENDBRANCH   8   9
ENDBRANCH   6   8
ENDBRANCH   5   6
ENDBRANCH   4   5
ENDBRANCH   3   4
ENDBRANCH   2   3
ENDBRANCH   1   2
BRANCH   1  24
ATOM     24  C   UNL A   1      48.194  40.223  27.858  1.00  0.00     0.188 C 
BRANCH  24  25
ATOM     25  O   UNL A   1      47.654  40.186  29.167  1.00  0.00    -0.376 OA
BRANCH  25  26
ATOM     26  C   UNL A   1      46.303  39.758  29.334  1.00  0.00     0.202 C 
BRANCH  26  27
ATOM     27  C   UNL A   1      46.058  38.505  30.171  1.00  0.00     0.261 C 
BRANCH  27  28
ATOM     28  O   UNL A   1      46.304  37.310  29.405  1.00  0.00    -0.460 OA
BRANCH  28  29
ATOM     29  C   UNL A   1      47.504  36.731  29.644  1.00  0.00     0.338 C 
ATOM     30  O   UNL A   1      48.448  37.221  30.243  1.00  0.00    -0.246 OA
BRANCH  29  31
ATOM     31  C   UNL A   1      47.515  35.330  29.192  1.00  0.00     0.060 A 
ATOM     32  C   UNL A   1      46.965  35.053  27.936  1.00  0.00     0.016 A 
ATOM     33  C   UNL A   1      47.874  34.297  30.059  1.00  0.00     0.016 A 
ATOM     34  C   UNL A   1      46.693  33.737  27.573  1.00  0.00     0.010 A 
ATOM     35  C   UNL A   1      47.588  32.975  29.698  1.00  0.00     0.010 A 
ATOM     36  C   UNL A   1      46.941  32.697  28.480  1.00  0.00    -0.014 A 
BRANCH  36  37
ATOM     37  C   UNL A   1      46.315  31.373  28.240  1.00  0.00     0.031 A 
ATOM     38  C   UNL A   1      47.177  30.254  27.711  1.00  0.00     0.074 A 
ATOM     39  C   UNL A   1      45.024  31.147  28.538  1.00  0.00     0.049 A 
ATOM     40  N   UNL A   1      46.863  29.010  27.463  1.00  0.00    -0.248 NA
ATOM     41  C   UNL A   1      48.583  30.588  27.424  1.00  0.00     0.031 C 
ATOM     42  C   UNL A   1      44.096  32.133  29.085  1.00  0.00     0.029 A 
ATOM     43  N   UNL A   1      44.273  30.005  28.421  1.00  0.00    -0.354 N 
ATOM     44  C   UNL A   1      48.025  28.412  26.989  1.00  0.00     0.074 A 
ATOM     45  C   UNL A   1      49.045  29.437  26.958  1.00  0.00     0.031 C 
ATOM     46  C   UNL A   1      42.895  31.553  29.256  1.00  0.00     0.029 A 
ATOM     47  C   UNL A   1      42.966  30.161  28.814  1.00  0.00     0.049 A 
ATOM     48  H   UNL A   1      44.637  29.152  28.087  1.00  0.00     0.167 HD
ATOM     49  C   UNL A   1      48.229  27.125  26.622  1.00  0.00     0.037 A 
ATOM     50  C   UNL A   1      41.945  29.281  28.813  1.00  0.00     0.037 A 
ATOM     51  C   UNL A   1      47.218  26.102  26.657  1.00  0.00     0.049 A 
ATOM     52  C   UNL A   1      42.186  27.865  28.356  1.00  0.00     0.074 A 
ATOM     53  C   UNL A   1      47.336  24.762  26.330  1.00  0.00     0.029 A 
ATOM     54  N   UNL A   1      45.900  26.307  27.035  1.00  0.00    -0.354 N 
ATOM     55  N   UNL A   1      43.299  27.305  27.946  1.00  0.00    -0.248 NA
ATOM     56  C   UNL A   1      41.029  26.957  28.370  1.00  0.00     0.031 C 
ATOM     57  C   UNL A   1      46.078  24.166  26.471  1.00  0.00     0.029 A 
ATOM     58  C   UNL A   1      45.187  25.124  26.930  1.00  0.00     0.049 A 
ATOM     59  H   UNL A   1      45.526  27.167  27.335  1.00  0.00     0.167 HD
ATOM     60  C   UNL A   1      42.985  25.973  27.687  1.00  0.00     0.074 A 
ATOM     61  C   UNL A   1      41.578  25.812  27.988  1.00  0.00     0.031 C 
ATOM     62  C   UNL A   1      43.790  24.974  27.245  1.00  0.00     0.037 A 
BRANCH  49  63
ATOM     63  C   UNL A   1      49.600  26.758  26.124  1.00  0.00     0.058 A 
ATOM     64  C   UNL A   1      49.991  26.993  24.796  1.00  0.00     0.135 A 
ATOM     65  C   UNL A   1      50.537  26.174  26.990  1.00  0.00     0.135 A 
ATOM     66  F   UNL A   1      49.125  27.531  23.921  1.00  0.00    -0.206 F 
ATOM     67  C   UNL A   1      51.254  26.634  24.336  1.00  0.00     0.059 A 
ATOM     68  C   UNL A   1      51.814  25.830  26.559  1.00  0.00     0.059 A 
ATOM     69  F   UNL A   1      50.213  25.927  28.269  1.00  0.00    -0.206 F 
ATOM     70  C   UNL A   1      52.158  26.048  25.225  1.00  0.00     0.060 A 
BRANCH  70  71
ATOM     71  S   UNL A   1      53.790  25.577  24.616  1.00  0.00     0.124 S 
ATOM     72  O   UNL A   1      54.660  26.171  25.627  1.00  0.00    -0.237 OA
ATOM     73  O   UNL A   1      53.719  24.120  24.619  1.00  0.00    -0.237 OA
ATOM     74  O   UNL A   1      53.851  26.196  23.295  1.00  0.00    -0.744 OA
ENDBRANCH  70  71
ENDBRANCH  49  63
BRANCH  50  75
ATOM     75  C   UNL A   1      40.598  29.706  29.275  1.00  0.00     0.058 A 
ATOM     76  C   UNL A   1      39.550  29.898  28.365  1.00  0.00     0.135 A 
ATOM     77  C   UNL A   1      40.335  29.936  30.634  1.00  0.00     0.135 A 
ATOM     78  F   UNL A   1      39.756  29.700  27.054  1.00  0.00    -0.206 F 
ATOM     79  C   UNL A   1      38.291  30.318  28.781  1.00  0.00     0.059 A 
ATOM     80  C   UNL A   1      39.079  30.335  31.079  1.00  0.00     0.059 A 
ATOM     81  F   UNL A   1      41.305  29.759  31.545  1.00  0.00    -0.206 F 
ATOM     82  C   UNL A   1      38.065  30.534  30.143  1.00  0.00     0.060 A 
BRANCH  82  83
ATOM     83  S   UNL A   1      36.415  31.039  30.677  1.00  0.00     0.124 S 
ATOM     84  O   UNL A   1      36.720  32.189  31.522  1.00  0.00    -0.237 OA
ATOM     85  O   UNL A   1      35.757  31.335  29.409  1.00  0.00    -0.237 OA
ATOM     86  O   UNL A   1      35.911  29.860  31.374  1.00  0.00    -0.744 OA
ENDBRANCH  82  83
ENDBRANCH  50  75
BRANCH  62  87
ATOM     87  C   UNL A   1      43.182  23.605  27.105  1.00  0.00     0.058 A 
ATOM     88  C   UNL A   1      43.016  22.753  28.208  1.00  0.00     0.135 A 
ATOM     89  C   UNL A   1      42.724  23.157  25.855  1.00  0.00     0.135 A 
ATOM     90  F   UNL A   1      43.440  23.131  29.424  1.00  0.00    -0.206 F 
ATOM     91  C   UNL A   1      42.443  21.492  28.072  1.00  0.00     0.059 A 
ATOM     92  C   UNL A   1      42.127  21.910  25.700  1.00  0.00     0.059 A 
ATOM     93  F   UNL A   1      42.847  23.938  24.771  1.00  0.00    -0.206 F 
ATOM     94  C   UNL A   1      42.005  21.078  26.812  1.00  0.00     0.060 A 
BRANCH  94  95
ATOM     95  S   UNL A   1      41.246  19.447  26.646  1.00  0.00     0.124 S 
ATOM     96  O   UNL A   1      40.204  19.708  25.658  1.00  0.00    -0.237 OA
ATOM     97  O   UNL A   1      42.362  18.624  26.189  1.00  0.00    -0.237 OA
ATOM     98  O   UNL A   1      40.773  19.155  27.996  1.00  0.00    -0.744 OA
ENDBRANCH  94  95
ENDBRANCH  62  87
ENDBRANCH  36  37
ENDBRANCH  29  31
ENDBRANCH  28  29
ENDBRANCH  27  28
ENDBRANCH  26  27
ENDBRANCH  25  26
ENDBRANCH  24  25
ENDBRANCH   1  24
TORSDOF 23
ENDMDL
MODEL 2
REMARK VINA RESULT:      -9.0      6.268     13.116
REMARK SMILES O=C(C[NH+]1CC(c2nc(-c3cccs3)no2)C1)OCCOCCOCCOC(=O)c1ccc(-c2c3nc(c(-c4c(F)cc(S(=O)(=O)[O-])cc4F)c4ccc([nH]4)c(-c4c(F)cc(S(=O)(=O)[O-])cc4F)c4nc(c(-c5c(F)cc(S(=O)(=O)[O-])cc5F)c5ccc2[nH]5)C=C4)C=C3)cc1
REMARK SMILES IDX 22 1 21 2 20 3 19 4 18 5 2 6 1 7 3 8 4 9 5 10 17 11 6 13
REMARK SMILES IDX 7 14 8 15 16 16 9 17 15 18 10 19 11 20 14 21 12 22 13 23
REMARK SMILES IDX 23 24 24 25 25 26 26 27 27 28 28 29 29 30 30 31 31 32 95 33
REMARK SMILES IDX 32 34 94 35 33 36 34 37 35 38 88 39 36 40 93 41 87 42 89 43
REMARK SMILES IDX 37 44 92 45 86 46 85 47 38 49 72 50 51 51 71 52 52 53 55 54
REMARK SMILES IDX 70 55 90 56 53 57 54 58 69 60 91 61 56 62 39 63 40 64 49 65
REMARK SMILES IDX 41 66 42 67 48 68 50 69 43 70 44 71 45 72 46 73 47 74 73 75
REMARK SMILES IDX 74 76 83 77 75 78 76 79 82 80 84 81 77 82 78 83 79 84 80 85
REMARK SMILES IDX 81 86 57 87 58 88 67 89 59 90 60 91 66 92 68 93 61 94 62 95
REMARK SMILES IDX 63 96 64 97 65 98
REMARK H PARENT 4 12 89 48 55 59
REMARK Flexibility Score: inf
ROOT
ATOM      1  C   UNL A   1      33.098  35.883  32.291  1.00  0.00     0.188 C 
ENDROOT
BRANCH   1   2
ATOM      2  O   UNL A   1      32.811  34.992  31.219  1.00  0.00    -0.376 OA
BRANCH   2   3
ATOM      3  C   UNL A   1      33.146  35.421  29.906  1.00  0.00     0.202 C 
BRANCH   3   4
ATOM      4  C   UNL A   1      34.140  34.588  29.104  1.00  0.00     0.261 C 
BRANCH   4   5
ATOM      5  O   UNL A   1      33.553  33.664  28.181  1.00  0.00    -0.459 OA
BRANCH   5   6
ATOM      6  C   UNL A   1      34.125  32.483  27.829  1.00  0.00     0.361 C 
ATOM      7  O   UNL A   1      35.313  32.466  27.506  1.00  0.00    -0.245 OA
BRANCH   6   8
ATOM      8  C   UNL A   1      33.254  31.235  27.702  1.00  0.00     0.386 C 
BRANCH   8   9
ATOM      9  N   UNL A   1      33.818  30.292  26.727  1.00  0.00    -0.324 N 
ATOM     10  C   UNL A   1      34.249  29.017  27.393  1.00  0.00     0.282 C 
ATOM     11  C   UNL A   1      32.741  29.485  26.086  1.00  0.00     0.282 C 
ATOM     12  H   UNL A   1      34.462  30.879  26.197  1.00  0.00     0.348 HD
ATOM     13  C   UNL A   1      33.732  28.289  26.136  1.00  0.00     0.188 C 
BRANCH  13  14
ATOM     14  C   UNL A   1      33.007  26.989  26.331  1.00  0.00     0.241 A 
ATOM     15  N   UNL A   1      33.587  25.834  26.102  1.00  0.00    -0.190 NA
ATOM     16  O   UNL A   1      31.676  26.874  26.607  1.00  0.00    -0.338 OA
ATOM     17  C   UNL A   1      32.518  24.970  26.085  1.00  0.00     0.212 A 
ATOM     18  N   UNL A   1      31.361  25.523  26.476  1.00  0.00    -0.056 NA
BRANCH  17  19
ATOM     19  C   UNL A   1      32.653  23.594  25.530  1.00  0.00     0.075 A 
ATOM     20  C   UNL A   1      32.167  23.235  24.289  1.00  0.00     0.024 A 
ATOM     21  S   UNL A   1      33.314  22.266  26.368  1.00  0.00    -0.140 S 
ATOM     22  C   UNL A   1      32.267  21.833  24.062  1.00  0.00     0.012 A 
ATOM     23  C   UNL A   1      32.849  21.182  25.128  1.00  0.00     0.065 A 
ENDBRANCH  17  19
ENDBRANCH  13  14
ENDBRANCH   8   9
ENDBRANCH   6   8
ENDBRANCH   5   6
ENDBRANCH   4   5
ENDBRANCH   3   4
ENDBRANCH   2   3
ENDBRANCH   1   2
BRANCH   1  24
ATOM     24  C   UNL A   1      34.550  36.239  32.655  1.00  0.00     0.188 C 
BRANCH  24  25
ATOM     25  O   UNL A   1      35.255  35.451  33.597  1.00  0.00    -0.376 OA
BRANCH  25  26
ATOM     26  C   UNL A   1      35.920  34.275  33.139  1.00  0.00     0.202 C 
BRANCH  26  27
ATOM     27  C   UNL A   1      35.084  33.233  32.401  1.00  0.00     0.261 C 
BRANCH  27  28
ATOM     28  O   UNL A   1      35.598  31.904  32.616  1.00  0.00    -0.460 OA
BRANCH  28  29
ATOM     29  C   UNL A   1      36.887  31.864  33.027  1.00  0.00     0.338 C 
ATOM     30  O   UNL A   1      37.340  32.322  34.063  1.00  0.00    -0.246 OA
BRANCH  29  31
ATOM     31  C   UNL A   1      37.710  31.062  32.107  1.00  0.00     0.060 A 
ATOM     32  C   UNL A   1      38.580  30.123  32.672  1.00  0.00     0.016 A 
ATOM     33  C   UNL A   1      37.768  31.362  30.745  1.00  0.00     0.016 A 
ATOM     34  C   UNL A   1      39.573  29.539  31.889  1.00  0.00     0.010 A 
ATOM     35  C   UNL A   1      38.774  30.783  29.962  1.00  0.00     0.010 A 
ATOM     36  C   UNL A   1      39.716  29.917  30.547  1.00  0.00    -0.014 A 
BRANCH  36  37
ATOM     37  C   UNL A   1      40.977  29.583  29.840  1.00  0.00     0.031 A 
ATOM     38  C   UNL A   1      42.046  30.642  29.735  1.00  0.00     0.074 A 
ATOM     39  C   UNL A   1      41.198  28.351  29.349  1.00  0.00     0.049 A 
ATOM     40  N   UNL A   1      43.237  30.569  29.202  1.00  0.00    -0.248 NA
ATOM     41  C   UNL A   1      41.725  31.958  30.311  1.00  0.00     0.031 C 
ATOM     42  C   UNL A   1      40.260  27.233  29.416  1.00  0.00     0.029 A 
ATOM     43  N   UNL A   1      42.291  27.837  28.698  1.00  0.00    -0.354 N 
ATOM     44  C   UNL A   1      43.807  31.826  29.373  1.00  0.00     0.074 A 
ATOM     45  C   UNL A   1      42.820  32.651  30.036  1.00  0.00     0.031 C 
ATOM     46  C   UNL A   1      40.818  26.161  28.826  1.00  0.00     0.029 A 
ATOM     47  C   UNL A   1      42.144  26.523  28.325  1.00  0.00     0.049 A 
ATOM     48  H   UNL A   1      43.105  28.361  28.515  1.00  0.00     0.167 HD
ATOM     49  C   UNL A   1      45.042  32.254  29.021  1.00  0.00     0.037 A 
ATOM     50  C   UNL A   1      42.983  25.709  27.654  1.00  0.00     0.037 A 
ATOM     51  C   UNL A   1      46.028  31.435  28.367  1.00  0.00     0.049 A 
ATOM     52  C   UNL A   1      44.336  26.223  27.231  1.00  0.00     0.074 A 
ATOM     53  C   UNL A   1      47.318  31.771  27.994  1.00  0.00     0.029 A 
ATOM     54  N   UNL A   1      45.830  30.117  27.983  1.00  0.00    -0.354 N 
ATOM     55  N   UNL A   1      44.874  27.402  27.434  1.00  0.00    -0.248 NA
ATOM     56  C   UNL A   1      45.200  25.288  26.494  1.00  0.00     0.031 C 
ATOM     57  C   UNL A   1      47.886  30.668  27.346  1.00  0.00     0.029 A 
ATOM     58  C   UNL A   1      46.966  29.631  27.356  1.00  0.00     0.049 A 
ATOM     59  H   UNL A   1      45.004  29.603  28.133  1.00  0.00     0.167 HD
ATOM     60  C   UNL A   1      46.150  27.339  26.880  1.00  0.00     0.074 A 
ATOM     61  C   UNL A   1      46.304  26.006  26.337  1.00  0.00     0.031 C 
ATOM     62  C   UNL A   1      47.110  28.297  26.832  1.00  0.00     0.037 A 
BRANCH  49  63
ATOM     63  C   UNL A   1      45.386  33.688  29.316  1.00  0.00     0.058 A 
ATOM     64  C   UNL A   1      45.142  34.712  28.387  1.00  0.00     0.135 A 
ATOM     65  C   UNL A   1      45.958  34.042  30.547  1.00  0.00     0.135 A 
ATOM     66  F   UNL A   1      44.614  34.424  27.186  1.00  0.00    -0.206 F 
ATOM     67  C   UNL A   1      45.479  36.035  28.658  1.00  0.00     0.059 A 
ATOM     68  C   UNL A   1      46.281  35.361  30.850  1.00  0.00     0.059 A 
ATOM     69  F   UNL A   1      46.214  33.101  31.469  1.00  0.00    -0.206 F 
ATOM     70  C   UNL A   1      46.054  36.349  29.891  1.00  0.00     0.060 A 
BRANCH  70  71
ATOM     71  S   UNL A   1      46.498  38.065  30.229  1.00  0.00     0.124 S 
ATOM     72  O   UNL A   1      46.732  38.027  31.669  1.00  0.00    -0.237 OA
ATOM     73  O   UNL A   1      47.683  38.252  29.400  1.00  0.00    -0.237 OA
ATOM     74  O   UNL A   1      45.316  38.810  29.806  1.00  0.00    -0.744 OA
ENDBRANCH  70  71
ENDBRANCH  49  63
BRANCH  50  75
ATOM     75  C   UNL A   1      42.578  24.312  27.350  1.00  0.00     0.058 A 
ATOM     76  C   UNL A   1      42.677  23.304  28.318  1.00  0.00     0.135 A 
ATOM     77  C   UNL A   1      42.092  23.957  26.082  1.00  0.00     0.135 A 
ATOM     78  F   UNL A   1      43.145  23.593  29.542  1.00  0.00    -0.206 F 
ATOM     79  C   UNL A   1      42.323  21.988  28.038  1.00  0.00     0.059 A 
ATOM     80  C   UNL A   1      41.711  22.653  25.783  1.00  0.00     0.059 A 
ATOM     81  F   UNL A   1      41.973  24.889  25.123  1.00  0.00    -0.206 F 
ATOM     82  C   UNL A   1      41.840  21.672  26.766  1.00  0.00     0.060 A 
BRANCH  82  83
ATOM     83  S   UNL A   1      41.345  19.969  26.426  1.00  0.00     0.124 S 
ATOM     84  O   UNL A   1      39.917  20.123  26.174  1.00  0.00    -0.237 OA
ATOM     85  O   UNL A   1      42.166  19.634  25.267  1.00  0.00    -0.237 OA
ATOM     86  O   UNL A   1      41.697  19.264  27.656  1.00  0.00    -0.744 OA
ENDBRANCH  82  83
ENDBRANCH  50  75
BRANCH  62  87
ATOM     87  C   UNL A   1      48.430  27.926  26.211  1.00  0.00     0.058 A 
ATOM     88  C   UNL A   1      48.567  27.721  24.830  1.00  0.00     0.135 A 
ATOM     89  C   UNL A   1      49.581  27.815  27.008  1.00  0.00     0.135 A 
ATOM     90  F   UNL A   1      47.497  27.811  24.024  1.00  0.00    -0.206 F 
ATOM     91  C   UNL A   1      49.793  27.388  24.263  1.00  0.00     0.059 A 
ATOM     92  C   UNL A   1      50.822  27.507  26.460  1.00  0.00     0.059 A 
ATOM     93  F   UNL A   1      49.508  28.015  28.334  1.00  0.00    -0.206 F 
ATOM     94  C   UNL A   1      50.915  27.280  25.088  1.00  0.00     0.060 A 
BRANCH  94  95
ATOM     95  S   UNL A   1      52.508  26.867  24.342  1.00  0.00     0.124 S 
ATOM     96  O   UNL A   1      52.184  26.905  22.920  1.00  0.00    -0.237 OA
ATOM     97  O   UNL A   1      53.371  27.940  24.824  1.00  0.00    -0.237 OA
ATOM     98  O   UNL A   1      52.802  25.544  24.884  1.00  0.00    -0.744 OA
ENDBRANCH  94  95
ENDBRANCH  62  87
ENDBRANCH  36  37
ENDBRANCH  29  31
ENDBRANCH  28  29
ENDBRANCH  27  28
ENDBRANCH  26  27
ENDBRANCH  25  26
ENDBRANCH  24  25
ENDBRANCH   1  24
TORSDOF 23
ENDMDL
MODEL 3
REMARK VINA RESULT:      -8.7      7.164     13.362
REMARK SMILES O=C(C[NH+]1CC(c2nc(-c3cccs3)no2)C1)OCCOCCOCCOC(=O)c1ccc(-c2c3nc(c(-c4c(F)cc(S(=O)(=O)[O-])cc4F)c4ccc([nH]4)c(-c4c(F)cc(S(=O)(=O)[O-])cc4F)c4nc(c(-c5c(F)cc(S(=O)(=O)[O-])cc5F)c5ccc2[nH]5)C=C4)C=C3)cc1
REMARK SMILES IDX 22 1 21 2 20 3 19 4 18 5 2 6 1 7 3 8 4 9 5 10 17 11 6 13
REMARK SMILES IDX 7 14 8 15 16 16 9 17 15 18 10 19 11 20 14 21 12 22 13 23
REMARK SMILES IDX 23 24 24 25 25 26 26 27 27 28 28 29 29 30 30 31 31 32 95 33
REMARK SMILES IDX 32 34 94 35 33 36 34 37 35 38 88 39 36 40 93 41 87 42 89 43
REMARK SMILES IDX 37 44 92 45 86 46 85 47 38 49 72 50 51 51 71 52 52 53 55 54
REMARK SMILES IDX 70 55 90 56 53 57 54 58 69 60 91 61 56 62 39 63 40 64 49 65
REMARK SMILES IDX 41 66 42 67 48 68 50 69 43 70 44 71 45 72 46 73 47 74 73 75
REMARK SMILES IDX 74 76 83 77 75 78 76 79 82 80 84 81 77 82 78 83 79 84 80 85
REMARK SMILES IDX 81 86 57 87 58 88 67 89 59 90 60 91 66 92 68 93 61 94 62 95
REMARK SMILES IDX 63 96 64 97 65 98
REMARK H PARENT 4 12 89 48 55 59
REMARK Flexibility Score: inf
ROOT
ATOM      1  C   UNL A   1      32.581  36.526  31.698  1.00  0.00     0.188 C 
ENDROOT
BRANCH   1   2
ATOM      2  O   UNL A   1      32.607  35.494  30.718  1.00  0.00    -0.376 OA
BRANCH   2   3
ATOM      3  C   UNL A   1      33.282  35.768  29.499  1.00  0.00     0.202 C 
BRANCH   3   4
ATOM      4  C   UNL A   1      34.352  34.787  29.028  1.00  0.00     0.261 C 
BRANCH   4   5
ATOM      5  O   UNL A   1      33.913  33.832  28.057  1.00  0.00    -0.459 OA
BRANCH   5   6
ATOM      6  C   UNL A   1      34.525  32.638  27.844  1.00  0.00     0.361 C 
ATOM      7  O   UNL A   1      35.722  32.622  27.556  1.00  0.00    -0.245 OA
BRANCH   6   8
ATOM      8  C   UNL A   1      33.690  31.358  27.823  1.00  0.00     0.386 C 
BRANCH   8   9
ATOM      9  N   UNL A   1      34.166  30.432  26.787  1.00  0.00    -0.324 N 
ATOM     10  C   UNL A   1      34.461  29.078  27.365  1.00  0.00     0.282 C 
ATOM     11  C   UNL A   1      33.018  29.783  26.091  1.00  0.00     0.282 C 
ATOM     12  H   UNL A   1      34.869  30.986  26.299  1.00  0.00     0.348 HD
ATOM     13  C   UNL A   1      33.884  28.493  26.060  1.00  0.00     0.188 C 
BRANCH  13  14
ATOM     14  C   UNL A   1      33.031  27.261  26.164  1.00  0.00     0.241 A 
ATOM     15  N   UNL A   1      33.540  26.058  26.046  1.00  0.00    -0.190 NA
ATOM     16  O   UNL A   1      31.669  27.263  26.237  1.00  0.00    -0.338 OA
ATOM     17  C   UNL A   1      32.416  25.283  25.882  1.00  0.00     0.212 A 
ATOM     18  N   UNL A   1      31.264  25.939  26.082  1.00  0.00    -0.056 NA
BRANCH  17  19
ATOM     19  C   UNL A   1      32.517  23.884  25.377  1.00  0.00     0.075 A 
ATOM     20  C   UNL A   1      31.558  22.924  25.633  1.00  0.00     0.024 A 
ATOM     21  S   UNL A   1      33.848  23.250  24.525  1.00  0.00    -0.140 S 
ATOM     22  C   UNL A   1      31.965  21.633  25.193  1.00  0.00     0.012 A 
ATOM     23  C   UNL A   1      33.207  21.664  24.595  1.00  0.00     0.065 A 
ENDBRANCH  17  19
ENDBRANCH  13  14
ENDBRANCH   8   9
ENDBRANCH   6   8
ENDBRANCH   5   6
ENDBRANCH   4   5
ENDBRANCH   3   4
ENDBRANCH   2   3
ENDBRANCH   1   2
BRANCH   1  24
ATOM     24  C   UNL A   1      33.886  37.071  32.305  1.00  0.00     0.188 C 
BRANCH  24  25
ATOM     25  O   UNL A   1      34.331  36.597  33.563  1.00  0.00    -0.376 OA
BRANCH  25  26
ATOM     26  C   UNL A   1      34.993  35.335  33.620  1.00  0.00     0.202 C 
BRANCH  26  27
ATOM     27  C   UNL A   1      34.203  34.103  33.185  1.00  0.00     0.261 C 
BRANCH  27  28
ATOM     28  O   UNL A   1      34.706  32.911  33.819  1.00  0.00    -0.460 OA
BRANCH  28  29
ATOM     29  C   UNL A   1      35.983  33.008  34.260  1.00  0.00     0.338 C 
ATOM     30  O   UNL A   1      36.367  33.577  35.269  1.00  0.00    -0.246 OA
BRANCH  29  31
ATOM     31  C   UNL A   1      36.894  32.213  33.421  1.00  0.00     0.060 A 
ATOM     32  C   UNL A   1      37.744  31.309  34.069  1.00  0.00     0.016 A 
ATOM     33  C   UNL A   1      37.047  32.489  32.061  1.00  0.00     0.016 A 
ATOM     34  C   UNL A   1      38.808  30.739  33.375  1.00  0.00     0.010 A 
ATOM     35  C   UNL A   1      38.124  31.925  31.368  1.00  0.00     0.010 A 
ATOM     36  C   UNL A   1      39.042  31.096  32.040  1.00  0.00    -0.014 A 
BRANCH  36  37
ATOM     37  C   UNL A   1      40.362  30.785  31.437  1.00  0.00     0.031 A 
ATOM     38  C   UNL A   1      41.488  31.772  31.619  1.00  0.00     0.074 A 
ATOM     39  C   UNL A   1      40.578  29.627  30.789  1.00  0.00     0.049 A 
ATOM     40  N   UNL A   1      42.729  31.698  31.219  1.00  0.00    -0.248 NA
ATOM     41  C   UNL A   1      41.165  33.008  32.352  1.00  0.00     0.031 C 
ATOM     42  C   UNL A   1      39.584  28.578  30.576  1.00  0.00     0.029 A 
ATOM     43  N   UNL A   1      41.715  29.142  30.194  1.00  0.00    -0.354 N 
ATOM     44  C   UNL A   1      43.337  32.874  31.645  1.00  0.00     0.074 A 
ATOM     45  C   UNL A   1      42.319  33.657  32.312  1.00  0.00     0.031 C 
ATOM     46  C   UNL A   1      40.156  27.570  29.894  1.00  0.00     0.029 A 
ATOM     47  C   UNL A   1      41.549  27.911  29.609  1.00  0.00     0.049 A 
ATOM     48  H   UNL A   1      42.571  29.630  30.187  1.00  0.00     0.167 HD
ATOM     49  C   UNL A   1      44.626  33.264  31.506  1.00  0.00     0.037 A 
ATOM     50  C   UNL A   1      42.421  27.149  28.919  1.00  0.00     0.037 A 
ATOM     51  C   UNL A   1      45.641  32.485  30.849  1.00  0.00     0.049 A 
ATOM     52  C   UNL A   1      43.840  27.626  28.735  1.00  0.00     0.074 A 
ATOM     53  C   UNL A   1      46.983  32.783  30.679  1.00  0.00     0.029 A 
ATOM     54  N   UNL A   1      45.426  31.255  30.245  1.00  0.00    -0.354 N 
ATOM     55  N   UNL A   1      44.408  28.722  29.177  1.00  0.00    -0.248 NA
ATOM     56  C   UNL A   1      44.739  26.753  27.965  1.00  0.00     0.031 C 
ATOM     57  C   UNL A   1      47.570  31.752  29.937  1.00  0.00     0.029 A 
ATOM     58  C   UNL A   1      46.604  30.790  29.683  1.00  0.00     0.049 A 
ATOM     59  H   UNL A   1      44.563  30.782  30.219  1.00  0.00     0.167 HD
ATOM     60  C   UNL A   1      45.738  28.655  28.769  1.00  0.00     0.074 A 
ATOM     61  C   UNL A   1      45.889  27.409  28.047  1.00  0.00     0.031 C 
ATOM     62  C   UNL A   1      46.743  29.542  28.978  1.00  0.00     0.037 A 
BRANCH  49  63
ATOM     63  C   UNL A   1      45.003  34.611  32.056  1.00  0.00     0.058 A 
ATOM     64  C   UNL A   1      45.472  34.769  33.370  1.00  0.00     0.135 A 
ATOM     65  C   UNL A   1      44.904  35.758  31.253  1.00  0.00     0.135 A 
ATOM     66  F   UNL A   1      45.567  33.707  34.185  1.00  0.00    -0.206 F 
ATOM     67  C   UNL A   1      45.801  36.022  33.878  1.00  0.00     0.059 A 
ATOM     68  C   UNL A   1      45.251  37.017  31.732  1.00  0.00     0.059 A 
ATOM     69  F   UNL A   1      44.460  35.663  29.990  1.00  0.00    -0.206 F 
ATOM     70  C   UNL A   1      45.683  37.141  33.052  1.00  0.00     0.060 A 
BRANCH  70  71
ATOM     71  S   UNL A   1      46.103  38.763  33.725  1.00  0.00     0.124 S 
ATOM     72  O   UNL A   1      47.172  38.421  34.659  1.00  0.00    -0.237 OA
ATOM     73  O   UNL A   1      46.514  39.500  32.535  1.00  0.00    -0.237 OA
ATOM     74  O   UNL A   1      44.855  39.210  34.336  1.00  0.00    -0.744 OA
ENDBRANCH  70  71
ENDBRANCH  49  63
BRANCH  50  75
ATOM     75  C   UNL A   1      41.986  25.844  28.358  1.00  0.00     0.058 A 
ATOM     76  C   UNL A   1      41.163  25.782  27.225  1.00  0.00     0.135 A 
ATOM     77  C   UNL A   1      42.379  24.632  28.948  1.00  0.00     0.135 A 
ATOM     78  F   UNL A   1      40.753  26.914  26.632  1.00  0.00    -0.206 F 
ATOM     79  C   UNL A   1      40.729  24.567  26.705  1.00  0.00     0.059 A 
ATOM     80  C   UNL A   1      41.977  23.404  28.434  1.00  0.00     0.059 A 
ATOM     81  F   UNL A   1      43.173  24.640  30.031  1.00  0.00    -0.206 F 
ATOM     82  C   UNL A   1      41.143  23.382  27.317  1.00  0.00     0.060 A 
BRANCH  82  83
ATOM     83  S   UNL A   1      40.608  21.809  26.608  1.00  0.00     0.124 S 
ATOM     84  O   UNL A   1      40.653  20.931  27.773  1.00  0.00    -0.237 OA
ATOM     85  O   UNL A   1      39.278  22.134  26.104  1.00  0.00    -0.237 OA
ATOM     86  O   UNL A   1      41.611  21.545  25.580  1.00  0.00    -0.744 OA
ENDBRANCH  82  83
ENDBRANCH  50  75
BRANCH  62  87
ATOM     87  C   UNL A   1      48.108  29.177  28.461  1.00  0.00     0.058 A 
ATOM     88  C   UNL A   1      49.011  28.420  29.223  1.00  0.00     0.135 A 
ATOM     89  C   UNL A   1      48.502  29.559  27.167  1.00  0.00     0.135 A 
ATOM     90  F   UNL A   1      48.686  28.033  30.467  1.00  0.00    -0.206 F 
ATOM     91  C   UNL A   1      50.267  28.078  28.733  1.00  0.00     0.059 A 
ATOM     92  C   UNL A   1      49.744  29.208  26.648  1.00  0.00     0.059 A 
ATOM     93  F   UNL A   1      47.671  30.273  26.391  1.00  0.00    -0.206 F 
ATOM     94  C   UNL A   1      50.626  28.480  27.445  1.00  0.00     0.060 A 
BRANCH  94  95
ATOM     95  S   UNL A   1      52.252  28.017  26.809  1.00  0.00     0.124 S 
ATOM     96  O   UNL A   1      52.041  28.114  25.368  1.00  0.00    -0.237 OA
ATOM     97  O   UNL A   1      53.122  29.034  27.392  1.00  0.00    -0.237 OA
ATOM     98  O   UNL A   1      52.445  26.665  27.325  1.00  0.00    -0.744 OA
ENDBRANCH  94  95
ENDBRANCH  62  87
ENDBRANCH  36  37
ENDBRANCH  29  31
ENDBRANCH  28  29
ENDBRANCH  27  28
ENDBRANCH  26  27
ENDBRANCH  25  26
ENDBRANCH  24  25
ENDBRANCH   1  24
TORSDOF 23
ENDMDL
