MODEL 1
REMARK VINA RESULT:     -10.2      0.000      0.000
REMARK SMILES O=C(CN1C(=O)S/C(=C\c2cccc(F)c2)C1=O)NCC(=O)OCCOCCOCCOC(=O)c1ccc(-c2c3nc(c(-c4c(F)cc(S(=O)(=O)[O-])cc4F)c4ccc([nH]4)c(-c4c(F)cc(S(=O)(=O)[O-])cc4F)c4nc(c(-c5c(F)cc(S(=O)(=O)[O-])cc5F)c5ccc2[nH]5)C=C4)C=C3)cc1
REMARK SMILES IDX 27 1 26 2 25 3 24 4 23 5 21 6 22 7 20 8 19 9 1 10 2 11 3 13
REMARK SMILES IDX 4 14 5 15 17 16 6 17 7 18 8 19 18 20 9 21 10 22 11 23 16 24
REMARK SMILES IDX 12 25 14 26 13 27 15 28 28 29 29 30 30 31 31 32 32 33 33 34
REMARK SMILES IDX 34 35 35 36 36 37 100 38 37 39 99 40 38 41 39 42 40 43 93 44
REMARK SMILES IDX 41 45 98 46 92 47 94 48 42 49 97 50 91 51 90 52 43 54 77 55
REMARK SMILES IDX 56 56 76 57 57 58 60 59 75 60 95 61 58 62 59 63 74 65 96 66
REMARK SMILES IDX 61 67 44 68 45 69 54 70 46 71 47 72 53 73 55 74 48 75 49 76
REMARK SMILES IDX 50 77 51 78 52 79 78 80 79 81 88 82 80 83 81 84 87 85 89 86
REMARK SMILES IDX 82 87 83 88 84 89 85 90 86 91 62 92 63 93 72 94 64 95 65 96
REMARK SMILES IDX 71 97 73 98 66 99 67 100 68 101 69 102 70 103
REMARK H PARENT 19 12 94 53 60 64
REMARK Flexibility Score: inf
ROOT
ATOM      1  C   UNL A   1      38.678  21.841  25.997  1.00  0.00     0.188 C 
ENDROOT
BRANCH   1   2
ATOM      2  O   UNL A   1      37.570  22.507  25.405  1.00  0.00    -0.376 OA
BRANCH   2   3
ATOM      3  C   UNL A   1      36.625  21.728  24.675  1.00  0.00     0.202 C 
BRANCH   3   4
ATOM      4  C   UNL A   1      35.726  20.733  25.439  1.00  0.00     0.261 C 
BRANCH   4   5
ATOM      5  O   UNL A   1      34.798  19.977  24.620  1.00  0.00    -0.462 OA
BRANCH   5   6
ATOM      6  C   UNL A   1      33.475  20.173  24.873  1.00  0.00     0.325 C 
ATOM      7  O   UNL A   1      33.015  20.324  26.003  1.00  0.00    -0.250 OA
BRANCH   6   8
ATOM      8  C   UNL A   1      32.590  20.360  23.621  1.00  0.00     0.238 C 
BRANCH   8   9
ATOM      9  N   UNL A   1      31.933  21.620  23.278  1.00  0.00    -0.344 N 
ATOM     10  O   UNL A   1      33.804  22.759  22.631  1.00  0.00    -0.273 OA
ATOM     11  C   UNL A   1      32.585  22.718  22.771  1.00  0.00     0.240 C 
ATOM     12  H   UNL A   1      30.960  21.686  23.419  1.00  0.00     0.164 HD
BRANCH  11  13
ATOM     13  C   UNL A   1      31.681  23.928  22.479  1.00  0.00     0.229 C 
BRANCH  13  14
ATOM     14  N   UNL A   1      32.142  25.163  23.101  1.00  0.00    -0.259 N 
ATOM     15  C   UNL A   1      32.929  26.055  22.420  1.00  0.00     0.294 C 
ATOM     16  C   UNL A   1      31.865  25.463  24.411  1.00  0.00     0.268 C 
ATOM     17  O   UNL A   1      33.327  25.960  21.275  1.00  0.00    -0.261 OA
ATOM     18  S   UNL A   1      33.363  27.398  23.466  1.00  0.00    -0.022 SA
ATOM     19  C   UNL A   1      32.512  26.746  24.810  1.00  0.00     0.083 C 
ATOM     20  O   UNL A   1      31.132  24.802  25.135  1.00  0.00    -0.268 OA
ATOM     21  C   UNL A   1      32.398  27.252  26.047  1.00  0.00     0.029 C 
BRANCH  21  22
ATOM     22  C   UNL A   1      32.929  28.532  26.540  1.00  0.00    -0.021 A 
ATOM     23  C   UNL A   1      32.098  29.650  26.703  1.00  0.00     0.008 A 
ATOM     24  C   UNL A   1      34.268  28.622  26.935  1.00  0.00     0.047 A 
ATOM     25  C   UNL A   1      32.603  30.847  27.221  1.00  0.00     0.004 A 
ATOM     26  C   UNL A   1      34.761  29.820  27.447  1.00  0.00     0.123 A 
ATOM     27  C   UNL A   1      33.942  30.934  27.592  1.00  0.00     0.039 A 
ATOM     28  F   UNL A   1      36.050  29.902  27.801  1.00  0.00    -0.207 F 
ENDBRANCH  21  22
ENDBRANCH  13  14
ENDBRANCH  11  13
ENDBRANCH   8   9
ENDBRANCH   6   8
ENDBRANCH   5   6
ENDBRANCH   4   5
ENDBRANCH   3   4
ENDBRANCH   2   3
ENDBRANCH   1   2
BRANCH   1  29
ATOM     29  C   UNL A   1      39.738  22.692  26.713  1.00  0.00     0.188 C 
BRANCH  29  30
ATOM     30  O   UNL A   1      40.875  21.986  27.149  1.00  0.00    -0.376 OA
BRANCH  30  31
ATOM     31  C   UNL A   1      41.925  21.761  26.230  1.00  0.00     0.202 C 
BRANCH  31  32
ATOM     32  C   UNL A   1      42.867  22.910  25.823  1.00  0.00     0.261 C 
BRANCH  32  33
ATOM     33  O   UNL A   1      42.268  24.185  25.540  1.00  0.00    -0.460 OA
BRANCH  33  34
ATOM     34  C   UNL A   1      43.053  25.277  25.697  1.00  0.00     0.338 C 
ATOM     35  O   UNL A   1      44.013  25.589  25.014  1.00  0.00    -0.246 OA
BRANCH  34  36
ATOM     36  C   UNL A   1      42.411  26.162  26.697  1.00  0.00     0.060 A 
ATOM     37  C   UNL A   1      42.831  27.496  26.779  1.00  0.00     0.016 A 
ATOM     38  C   UNL A   1      41.420  25.686  27.556  1.00  0.00     0.016 A 
ATOM     39  C   UNL A   1      42.304  28.347  27.749  1.00  0.00     0.010 A 
ATOM     40  C   UNL A   1      40.904  26.535  28.545  1.00  0.00     0.010 A 
ATOM     41  C   UNL A   1      41.375  27.856  28.673  1.00  0.00    -0.014 A 
BRANCH  41  42
ATOM     42  C   UNL A   1      41.067  28.654  29.887  1.00  0.00     0.031 A 
ATOM     43  C   UNL A   1      41.915  28.440  31.113  1.00  0.00     0.074 A 
ATOM     44  C   UNL A   1      40.099  29.588  29.890  1.00  0.00     0.049 A 
ATOM     45  N   UNL A   1      41.820  28.992  32.295  1.00  0.00    -0.248 NA
ATOM     46  C   UNL A   1      43.021  27.475  30.989  1.00  0.00     0.031 C 
ATOM     47  C   UNL A   1      39.249  29.931  28.752  1.00  0.00     0.029 A 
ATOM     48  N   UNL A   1      39.668  30.422  30.894  1.00  0.00    -0.354 N 
ATOM     49  C   UNL A   1      42.843  28.435  33.055  1.00  0.00     0.074 A 
ATOM     50  C   UNL A   1      43.527  27.480  32.213  1.00  0.00     0.031 C 
ATOM     51  C   UNL A   1      38.394  30.900  29.123  1.00  0.00     0.029 A 
ATOM     52  C   UNL A   1      38.611  31.223  30.531  1.00  0.00     0.049 A 
ATOM     53  H   UNL A   1      40.079  30.444  31.789  1.00  0.00     0.167 HD
ATOM     54  C   UNL A   1      43.188  28.705  34.335  1.00  0.00     0.037 A 
ATOM     55  C   UNL A   1      37.892  32.102  31.260  1.00  0.00     0.037 A 
ATOM     56  C   UNL A   1      42.510  29.663  35.168  1.00  0.00     0.049 A 
ATOM     57  C   UNL A   1      38.253  32.338  32.705  1.00  0.00     0.074 A 
ATOM     58  C   UNL A   1      42.789  30.009  36.479  1.00  0.00     0.029 A 
ATOM     59  N   UNL A   1      41.421  30.428  34.777  1.00  0.00    -0.354 N 
ATOM     60  N   UNL A   1      39.218  31.800  33.415  1.00  0.00    -0.248 NA
ATOM     61  C   UNL A   1      37.433  33.305  33.449  1.00  0.00     0.031 C 
ATOM     62  C   UNL A   1      41.835  30.940  36.897  1.00  0.00     0.029 A 
ATOM     63  C   UNL A   1      41.005  31.230  35.826  1.00  0.00     0.049 A 
ATOM     64  H   UNL A   1      41.005  30.404  33.884  1.00  0.00     0.167 HD
ATOM     65  C   UNL A   1      39.141  32.390  34.674  1.00  0.00     0.074 A 
ATOM     66  C   UNL A   1      38.043  33.330  34.626  1.00  0.00     0.031 C 
ATOM     67  C   UNL A   1      39.916  32.173  35.768  1.00  0.00     0.037 A 
BRANCH  54  68
ATOM     68  C   UNL A   1      44.341  27.943  34.929  1.00  0.00     0.058 A 
ATOM     69  C   UNL A   1      44.123  26.710  35.567  1.00  0.00     0.135 A 
ATOM     70  C   UNL A   1      45.646  28.459  34.931  1.00  0.00     0.135 A 
ATOM     71  F   UNL A   1      42.897  26.165  35.585  1.00  0.00    -0.206 F 
ATOM     72  C   UNL A   1      45.152  26.032  36.209  1.00  0.00     0.059 A 
ATOM     73  C   UNL A   1      46.699  27.781  35.540  1.00  0.00     0.059 A 
ATOM     74  F   UNL A   1      45.914  29.620  34.312  1.00  0.00    -0.206 F 
ATOM     75  C   UNL A   1      46.437  26.576  36.193  1.00  0.00     0.060 A 
BRANCH  75  76
ATOM     76  S   UNL A   1      47.761  25.673  37.024  1.00  0.00     0.124 S 
ATOM     77  O   UNL A   1      48.949  26.224  36.381  1.00  0.00    -0.237 OA
ATOM     78  O   UNL A   1      47.559  26.054  38.419  1.00  0.00    -0.237 OA
ATOM     79  O   UNL A   1      47.467  24.277  36.715  1.00  0.00    -0.744 OA
ENDBRANCH  75  76
ENDBRANCH  54  68
BRANCH  55  80
ATOM     80  C   UNL A   1      36.756  32.832  30.631  1.00  0.00     0.058 A 
ATOM     81  C   UNL A   1      36.979  33.872  29.714  1.00  0.00     0.135 A 
ATOM     82  C   UNL A   1      35.426  32.513  30.941  1.00  0.00     0.135 A 
ATOM     83  F   UNL A   1      38.232  34.221  29.382  1.00  0.00    -0.206 F 
ATOM     84  C   UNL A   1      35.926  34.586  29.151  1.00  0.00     0.059 A 
ATOM     85  C   UNL A   1      34.354  33.193  30.367  1.00  0.00     0.059 A 
ATOM     86  F   UNL A   1      35.159  31.513  31.797  1.00  0.00    -0.206 F 
ATOM     87  C   UNL A   1      34.617  34.241  29.486  1.00  0.00     0.060 A 
BRANCH  87  88
ATOM     88  S   UNL A   1      33.267  35.191  28.753  1.00  0.00     0.124 S 
ATOM     89  O   UNL A   1      34.001  36.204  28.002  1.00  0.00    -0.237 OA
ATOM     90  O   UNL A   1      32.581  34.180  27.956  1.00  0.00    -0.237 OA
ATOM     91  O   UNL A   1      32.530  35.679  29.913  1.00  0.00    -0.744 OA
ENDBRANCH  87  88
ENDBRANCH  55  80
BRANCH  67  92
ATOM     92  C   UNL A   1      39.644  32.999  36.998  1.00  0.00     0.058 A 
ATOM     93  C   UNL A   1      40.424  34.136  37.272  1.00  0.00     0.135 A 
ATOM     94  C   UNL A   1      38.660  32.643  37.935  1.00  0.00     0.135 A 
ATOM     95  F   UNL A   1      41.387  34.519  36.420  1.00  0.00    -0.206 F 
ATOM     96  C   UNL A   1      40.243  34.883  38.431  1.00  0.00     0.059 A 
ATOM     97  C   UNL A   1      38.439  33.397  39.085  1.00  0.00     0.059 A 
ATOM     98  F   UNL A   1      37.883  31.569  37.721  1.00  0.00    -0.206 F 
ATOM     99  C   UNL A   1      39.244  34.509  39.330  1.00  0.00     0.060 A 
BRANCH  99 100
ATOM    100  S   UNL A   1      38.990  35.523  40.802  1.00  0.00     0.124 S 
ATOM    101  O   UNL A   1      38.978  36.869  40.240  1.00  0.00    -0.237 OA
ATOM    102  O   UNL A   1      37.708  35.031  41.298  1.00  0.00    -0.237 OA
ATOM    103  O   UNL A   1      40.143  35.202  41.638  1.00  0.00    -0.744 OA
ENDBRANCH  99 100
ENDBRANCH  67  92
ENDBRANCH  41  42
ENDBRANCH  34  36
ENDBRANCH  33  34
ENDBRANCH  32  33
ENDBRANCH  31  32
ENDBRANCH  30  31
ENDBRANCH  29  30
ENDBRANCH   1  29
TORSDOF 24
ENDMDL
MODEL 2
REMARK VINA RESULT:      -9.5      5.354      7.536
REMARK SMILES O=C(CN1C(=O)S/C(=C\c2cccc(F)c2)C1=O)NCC(=O)OCCOCCOCCOC(=O)c1ccc(-c2c3nc(c(-c4c(F)cc(S(=O)(=O)[O-])cc4F)c4ccc([nH]4)c(-c4c(F)cc(S(=O)(=O)[O-])cc4F)c4nc(c(-c5c(F)cc(S(=O)(=O)[O-])cc5F)c5ccc2[nH]5)C=C4)C=C3)cc1
REMARK SMILES IDX 27 1 26 2 25 3 24 4 23 5 21 6 22 7 20 8 19 9 1 10 2 11 3 13
REMARK SMILES IDX 4 14 5 15 17 16 6 17 7 18 8 19 18 20 9 21 10 22 11 23 16 24
REMARK SMILES IDX 12 25 14 26 13 27 15 28 28 29 29 30 30 31 31 32 32 33 33 34
REMARK SMILES IDX 34 35 35 36 36 37 100 38 37 39 99 40 38 41 39 42 40 43 93 44
REMARK SMILES IDX 41 45 98 46 92 47 94 48 42 49 97 50 91 51 90 52 43 54 77 55
REMARK SMILES IDX 56 56 76 57 57 58 60 59 75 60 95 61 58 62 59 63 74 65 96 66
REMARK SMILES IDX 61 67 44 68 45 69 54 70 46 71 47 72 53 73 55 74 48 75 49 76
REMARK SMILES IDX 50 77 51 78 52 79 78 80 79 81 88 82 80 83 81 84 87 85 89 86
REMARK SMILES IDX 82 87 83 88 84 89 85 90 86 91 62 92 63 93 72 94 64 95 65 96
REMARK SMILES IDX 71 97 73 98 66 99 67 100 68 101 69 102 70 103
REMARK H PARENT 19 12 94 53 60 64
REMARK Flexibility Score: inf
ROOT
ATOM      1  C   UNL A   1      36.649  22.955  25.406  1.00  0.00     0.188 C 
ENDROOT
BRANCH   1   2
ATOM      2  O   UNL A   1      35.811  23.299  26.502  1.00  0.00    -0.376 OA
BRANCH   2   3
ATOM      3  C   UNL A   1      34.414  23.038  26.392  1.00  0.00     0.202 C 
BRANCH   3   4
ATOM      4  C   UNL A   1      33.890  21.620  26.706  1.00  0.00     0.261 C 
BRANCH   4   5
ATOM      5  O   UNL A   1      34.080  20.640  25.655  1.00  0.00    -0.462 OA
BRANCH   5   6
ATOM      6  C   UNL A   1      33.007  20.408  24.848  1.00  0.00     0.325 C 
ATOM      7  O   UNL A   1      32.055  19.702  25.171  1.00  0.00    -0.250 OA
BRANCH   6   8
ATOM      8  C   UNL A   1      32.982  21.233  23.542  1.00  0.00     0.238 C 
BRANCH   8   9
ATOM      9  N   UNL A   1      32.322  22.531  23.419  1.00  0.00    -0.344 N 
ATOM     10  O   UNL A   1      34.148  23.722  22.734  1.00  0.00    -0.273 OA
ATOM     11  C   UNL A   1      32.947  23.676  22.987  1.00  0.00     0.240 C 
ATOM     12  H   UNL A   1      31.370  22.588  23.661  1.00  0.00     0.164 HD
BRANCH  11  13
ATOM     13  C   UNL A   1      32.044  24.921  22.933  1.00  0.00     0.229 C 
BRANCH  13  14
ATOM     14  N   UNL A   1      32.631  26.094  23.569  1.00  0.00    -0.259 N 
ATOM     15  C   UNL A   1      33.339  27.020  22.847  1.00  0.00     0.294 C 
ATOM     16  C   UNL A   1      32.559  26.296  24.924  1.00  0.00     0.268 C 
ATOM     17  O   UNL A   1      33.561  27.006  21.652  1.00  0.00    -0.261 OA
ATOM     18  S   UNL A   1      33.965  28.268  23.914  1.00  0.00    -0.022 SA
ATOM     19  C   UNL A   1      33.299  27.529  25.317  1.00  0.00     0.083 C 
ATOM     20  O   UNL A   1      31.919  25.595  25.698  1.00  0.00    -0.268 OA
ATOM     21  C   UNL A   1      33.383  27.939  26.592  1.00  0.00     0.029 C 
BRANCH  21  22
ATOM     22  C   UNL A   1      34.022  29.165  27.094  1.00  0.00    -0.021 A 
ATOM     23  C   UNL A   1      35.386  29.193  27.421  1.00  0.00     0.008 A 
ATOM     24  C   UNL A   1      33.284  30.351  27.172  1.00  0.00     0.047 A 
ATOM     25  C   UNL A   1      35.994  30.378  27.851  1.00  0.00     0.004 A 
ATOM     26  C   UNL A   1      33.899  31.525  27.603  1.00  0.00     0.123 A 
ATOM     27  C   UNL A   1      35.247  31.548  27.945  1.00  0.00     0.039 A 
ATOM     28  F   UNL A   1      33.178  32.649  27.695  1.00  0.00    -0.207 F 
ENDBRANCH  21  22
ENDBRANCH  13  14
ENDBRANCH  11  13
ENDBRANCH   8   9
ENDBRANCH   6   8
ENDBRANCH   5   6
ENDBRANCH   4   5
ENDBRANCH   3   4
ENDBRANCH   2   3
ENDBRANCH   1   2
BRANCH   1  29
ATOM     29  C   UNL A   1      37.438  21.639  25.482  1.00  0.00     0.188 C 
BRANCH  29  30
ATOM     30  O   UNL A   1      38.836  21.777  25.393  1.00  0.00    -0.376 OA
BRANCH  30  31
ATOM     31  C   UNL A   1      39.639  21.197  26.403  1.00  0.00     0.202 C 
BRANCH  31  32
ATOM     32  C   UNL A   1      40.403  19.886  26.138  1.00  0.00     0.261 C 
BRANCH  32  33
ATOM     33  O   UNL A   1      41.563  19.959  25.294  1.00  0.00    -0.460 OA
BRANCH  33  34
ATOM     34  C   UNL A   1      42.765  20.043  25.913  1.00  0.00     0.338 C 
ATOM     35  O   UNL A   1      43.661  19.217  25.882  1.00  0.00    -0.246 OA
BRANCH  34  36
ATOM     36  C   UNL A   1      42.908  21.417  26.448  1.00  0.00     0.060 A 
ATOM     37  C   UNL A   1      42.919  22.490  25.547  1.00  0.00     0.016 A 
ATOM     38  C   UNL A   1      43.048  21.651  27.816  1.00  0.00     0.016 A 
ATOM     39  C   UNL A   1      43.120  23.793  25.999  1.00  0.00     0.010 A 
ATOM     40  C   UNL A   1      43.270  22.958  28.269  1.00  0.00     0.010 A 
ATOM     41  C   UNL A   1      43.349  24.029  27.358  1.00  0.00    -0.014 A 
BRANCH  41  42
ATOM     42  C   UNL A   1      43.880  25.348  27.787  1.00  0.00     0.031 A 
ATOM     43  C   UNL A   1      45.329  25.655  27.513  1.00  0.00     0.074 A 
ATOM     44  C   UNL A   1      43.088  26.279  28.351  1.00  0.00     0.049 A 
ATOM     45  N   UNL A   1      46.025  26.719  27.819  1.00  0.00    -0.248 NA
ATOM     46  C   UNL A   1      46.097  24.622  26.796  1.00  0.00     0.031 C 
ATOM     47  C   UNL A   1      41.659  26.126  28.615  1.00  0.00     0.029 A 
ATOM     48  N   UNL A   1      43.381  27.541  28.806  1.00  0.00    -0.354 N 
ATOM     49  C   UNL A   1      47.309  26.481  27.343  1.00  0.00     0.074 A 
ATOM     50  C   UNL A   1      47.307  25.160  26.756  1.00  0.00     0.031 C 
ATOM     51  C   UNL A   1      41.200  27.251  29.191  1.00  0.00     0.029 A 
ATOM     52  C   UNL A   1      42.307  28.189  29.369  1.00  0.00     0.049 A 
ATOM     53  H   UNL A   1      44.277  27.945  28.735  1.00  0.00     0.167 HD
ATOM     54  C   UNL A   1      48.390  27.294  27.381  1.00  0.00     0.037 A 
ATOM     55  C   UNL A   1      42.232  29.393  29.973  1.00  0.00     0.037 A 
ATOM     56  C   UNL A   1      48.387  28.613  27.959  1.00  0.00     0.049 A 
ATOM     57  C   UNL A   1      43.467  30.256  30.063  1.00  0.00     0.074 A 
ATOM     58  C   UNL A   1      49.434  29.515  28.041  1.00  0.00     0.029 A 
ATOM     59  N   UNL A   1      47.289  29.218  28.552  1.00  0.00    -0.354 N 
ATOM     60  N   UNL A   1      44.677  30.016  29.615  1.00  0.00    -0.248 NA
ATOM     61  C   UNL A   1      43.325  31.556  30.735  1.00  0.00     0.031 C 
ATOM     62  C   UNL A   1      48.984  30.642  28.733  1.00  0.00     0.029 A 
ATOM     63  C   UNL A   1      47.638  30.475  29.019  1.00  0.00     0.049 A 
ATOM     64  H   UNL A   1      46.394  28.815  28.628  1.00  0.00     0.167 HD
ATOM     65  C   UNL A   1      45.429  31.148  29.919  1.00  0.00     0.074 A 
ATOM     66  C   UNL A   1      44.536  32.075  30.580  1.00  0.00     0.031 C 
ATOM     67  C   UNL A   1      46.739  31.397  29.667  1.00  0.00     0.037 A 
BRANCH  54  68
ATOM     68  C   UNL A   1      49.678  26.781  26.798  1.00  0.00     0.058 A 
ATOM     69  C   UNL A   1      50.005  27.048  25.457  1.00  0.00     0.135 A 
ATOM     70  C   UNL A   1      50.554  25.969  27.535  1.00  0.00     0.135 A 
ATOM     71  F   UNL A   1      49.209  27.827  24.709  1.00  0.00    -0.206 F 
ATOM     72  C   UNL A   1      51.139  26.506  24.863  1.00  0.00     0.059 A 
ATOM     73  C   UNL A   1      51.712  25.441  26.970  1.00  0.00     0.059 A 
ATOM     74  F   UNL A   1      50.302  25.706  28.827  1.00  0.00    -0.206 F 
ATOM     75  C   UNL A   1      51.985  25.701  25.626  1.00  0.00     0.060 A 
BRANCH  75  76
ATOM     76  S   UNL A   1      53.457  25.016  24.838  1.00  0.00     0.124 S 
ATOM     77  O   UNL A   1      53.366  23.607  25.205  1.00  0.00    -0.237 OA
ATOM     78  O   UNL A   1      53.219  25.322  23.431  1.00  0.00    -0.237 OA
ATOM     79  O   UNL A   1      54.551  25.759  25.457  1.00  0.00    -0.744 OA
ENDBRANCH  75  76
ENDBRANCH  54  68
BRANCH  55  80
ATOM     80  C   UNL A   1      40.936  29.860  30.539  1.00  0.00     0.058 A 
ATOM     81  C   UNL A   1      40.700  29.847  31.923  1.00  0.00     0.135 A 
ATOM     82  C   UNL A   1      39.902  30.317  29.707  1.00  0.00     0.135 A 
ATOM     83  F   UNL A   1      41.653  29.418  32.765  1.00  0.00    -0.206 F 
ATOM     84  C   UNL A   1      39.479  30.243  32.458  1.00  0.00     0.059 A 
ATOM     85  C   UNL A   1      38.682  30.748  30.222  1.00  0.00     0.059 A 
ATOM     86  F   UNL A   1      40.085  30.367  28.378  1.00  0.00    -0.206 F 
ATOM     87  C   UNL A   1      38.474  30.690  31.599  1.00  0.00     0.060 A 
BRANCH  87  88
ATOM     88  S   UNL A   1      36.893  31.186  32.316  1.00  0.00     0.124 S 
ATOM     89  O   UNL A   1      36.079  30.001  32.069  1.00  0.00    -0.237 OA
ATOM     90  O   UNL A   1      37.254  31.431  33.708  1.00  0.00    -0.237 OA
ATOM     91  O   UNL A   1      36.530  32.371  31.546  1.00  0.00    -0.744 OA
ENDBRANCH  87  88
ENDBRANCH  55  80
BRANCH  67  92
ATOM     92  C   UNL A   1      47.289  32.744  30.060  1.00  0.00     0.058 A 
ATOM     93  C   UNL A   1      47.269  33.809  29.143  1.00  0.00     0.135 A 
ATOM     94  C   UNL A   1      47.885  32.972  31.310  1.00  0.00     0.135 A 
ATOM     95  F   UNL A   1      46.723  33.648  27.928  1.00  0.00    -0.206 F 
ATOM     96  C   UNL A   1      47.826  35.046  29.449  1.00  0.00     0.059 A 
ATOM     97  C   UNL A   1      48.419  34.213  31.651  1.00  0.00     0.059 A 
ATOM     98  F   UNL A   1      47.927  31.990  32.226  1.00  0.00    -0.206 F 
ATOM     99  C   UNL A   1      48.394  35.240  30.708  1.00  0.00     0.060 A 
BRANCH  99 100
ATOM    100  S   UNL A   1      49.064  36.870  31.105  1.00  0.00     0.124 S 
ATOM    101  O   UNL A   1      50.251  36.921  30.258  1.00  0.00    -0.237 OA
ATOM    102  O   UNL A   1      47.970  37.755  30.718  1.00  0.00    -0.237 OA
ATOM    103  O   UNL A   1      49.320  36.791  32.540  1.00  0.00    -0.744 OA
ENDBRANCH  99 100
ENDBRANCH  67  92
ENDBRANCH  41  42
ENDBRANCH  34  36
ENDBRANCH  33  34
ENDBRANCH  32  33
ENDBRANCH  31  32
ENDBRANCH  30  31
ENDBRANCH  29  30
ENDBRANCH   1  29
TORSDOF 24
ENDMDL
MODEL 3
REMARK VINA RESULT:      -9.5      2.105      8.358
REMARK SMILES O=C(CN1C(=O)S/C(=C\c2cccc(F)c2)C1=O)NCC(=O)OCCOCCOCCOC(=O)c1ccc(-c2c3nc(c(-c4c(F)cc(S(=O)(=O)[O-])cc4F)c4ccc([nH]4)c(-c4c(F)cc(S(=O)(=O)[O-])cc4F)c4nc(c(-c5c(F)cc(S(=O)(=O)[O-])cc5F)c5ccc2[nH]5)C=C4)C=C3)cc1
REMARK SMILES IDX 27 1 26 2 25 3 24 4 23 5 21 6 22 7 20 8 19 9 1 10 2 11 3 13
REMARK SMILES IDX 4 14 5 15 17 16 6 17 7 18 8 19 18 20 9 21 10 22 11 23 16 24
REMARK SMILES IDX 12 25 14 26 13 27 15 28 28 29 29 30 30 31 31 32 32 33 33 34
REMARK SMILES IDX 34 35 35 36 36 37 100 38 37 39 99 40 38 41 39 42 40 43 93 44
REMARK SMILES IDX 41 45 98 46 92 47 94 48 42 49 97 50 91 51 90 52 43 54 77 55
REMARK SMILES IDX 56 56 76 57 57 58 60 59 75 60 95 61 58 62 59 63 74 65 96 66
REMARK SMILES IDX 61 67 44 68 45 69 54 70 46 71 47 72 53 73 55 74 48 75 49 76
REMARK SMILES IDX 50 77 51 78 52 79 78 80 79 81 88 82 80 83 81 84 87 85 89 86
REMARK SMILES IDX 82 87 83 88 84 89 85 90 86 91 62 92 63 93 72 94 64 95 65 96
REMARK SMILES IDX 71 97 73 98 66 99 67 100 68 101 69 102 70 103
REMARK H PARENT 19 12 94 53 60 64
REMARK Flexibility Score: inf
ROOT
ATOM      1  C   UNL A   1      41.488  21.303  27.364  1.00  0.00     0.188 C 
ENDROOT
BRANCH   1   2
ATOM      2  O   UNL A   1      40.076  21.157  27.283  1.00  0.00    -0.376 OA
BRANCH   2   3
ATOM      3  C   UNL A   1      39.394  21.782  26.198  1.00  0.00     0.202 C 
BRANCH   3   4
ATOM      4  C   UNL A   1      38.842  23.212  26.383  1.00  0.00     0.261 C 
BRANCH   4   5
ATOM      5  O   UNL A   1      37.398  23.331  26.343  1.00  0.00    -0.462 OA
BRANCH   5   6
ATOM      6  C   UNL A   1      36.793  22.927  25.191  1.00  0.00     0.325 C 
ATOM      7  O   UNL A   1      37.078  23.373  24.083  1.00  0.00    -0.250 OA
BRANCH   6   8
ATOM      8  C   UNL A   1      35.824  21.734  25.346  1.00  0.00     0.238 C 
BRANCH   8   9
ATOM      9  N   UNL A   1      34.465  21.723  24.808  1.00  0.00    -0.344 N 
ATOM     10  O   UNL A   1      33.499  20.503  26.480  1.00  0.00    -0.273 OA
ATOM     11  C   UNL A   1      33.391  21.138  25.435  1.00  0.00     0.240 C 
ATOM     12  H   UNL A   1      34.310  22.162  23.940  1.00  0.00     0.164 HD
BRANCH  11  13
ATOM     13  C   UNL A   1      32.057  21.261  24.678  1.00  0.00     0.229 C 
BRANCH  13  14
ATOM     14  N   UNL A   1      31.762  22.618  24.234  1.00  0.00    -0.259 N 
ATOM     15  C   UNL A   1      32.272  23.113  23.062  1.00  0.00     0.294 C 
ATOM     16  C   UNL A   1      31.015  23.483  24.993  1.00  0.00     0.268 C 
ATOM     17  O   UNL A   1      32.991  22.534  22.270  1.00  0.00    -0.261 OA
ATOM     18  S   UNL A   1      31.785  24.788  22.852  1.00  0.00    -0.022 SA
ATOM     19  C   UNL A   1      30.926  24.820  24.341  1.00  0.00     0.083 C 
ATOM     20  O   UNL A   1      30.444  23.178  26.033  1.00  0.00    -0.268 OA
ATOM     21  C   UNL A   1      30.256  25.843  24.892  1.00  0.00     0.029 C 
BRANCH  21  22
ATOM     22  C   UNL A   1      30.040  27.180  24.319  1.00  0.00    -0.021 A 
ATOM     23  C   UNL A   1      30.981  28.206  24.491  1.00  0.00     0.008 A 
ATOM     24  C   UNL A   1      28.920  27.419  23.516  1.00  0.00     0.047 A 
ATOM     25  C   UNL A   1      30.790  29.459  23.900  1.00  0.00     0.004 A 
ATOM     26  C   UNL A   1      28.738  28.672  22.933  1.00  0.00     0.123 A 
ATOM     27  C   UNL A   1      29.662  29.694  23.119  1.00  0.00     0.039 A 
ATOM     28  F   UNL A   1      27.651  28.897  22.185  1.00  0.00    -0.207 F 
ENDBRANCH  21  22
ENDBRANCH  13  14
ENDBRANCH  11  13
ENDBRANCH   8   9
ENDBRANCH   6   8
ENDBRANCH   5   6
ENDBRANCH   4   5
ENDBRANCH   3   4
ENDBRANCH   2   3
ENDBRANCH   1   2
BRANCH   1  29
ATOM     29  C   UNL A   1      42.353  20.574  26.324  1.00  0.00     0.188 C 
BRANCH  29  30
ATOM     30  O   UNL A   1      43.349  21.363  25.718  1.00  0.00    -0.376 OA
BRANCH  30  31
ATOM     31  C   UNL A   1      43.001  22.652  25.254  1.00  0.00     0.202 C 
BRANCH  31  32
ATOM     32  C   UNL A   1      42.656  23.776  26.250  1.00  0.00     0.261 C 
BRANCH  32  33
ATOM     33  O   UNL A   1      43.723  24.282  27.068  1.00  0.00    -0.460 OA
BRANCH  33  34
ATOM     34  C   UNL A   1      44.177  25.525  26.778  1.00  0.00     0.338 C 
ATOM     35  O   UNL A   1      44.833  25.853  25.805  1.00  0.00    -0.246 OA
BRANCH  34  36
ATOM     36  C   UNL A   1      43.543  26.475  27.723  1.00  0.00     0.060 A 
ATOM     37  C   UNL A   1      43.855  27.836  27.614  1.00  0.00     0.016 A 
ATOM     38  C   UNL A   1      42.667  26.035  28.716  1.00  0.00     0.016 A 
ATOM     39  C   UNL A   1      43.337  28.757  28.523  1.00  0.00     0.010 A 
ATOM     40  C   UNL A   1      42.162  26.957  29.642  1.00  0.00     0.010 A 
ATOM     41  C   UNL A   1      42.528  28.315  29.575  1.00  0.00    -0.014 A 
BRANCH  41  42
ATOM     42  C   UNL A   1      42.251  29.229  30.712  1.00  0.00     0.031 A 
ATOM     43  C   UNL A   1      41.007  30.077  30.656  1.00  0.00     0.074 A 
ATOM     44  C   UNL A   1      43.044  29.267  31.798  1.00  0.00     0.049 A 
ATOM     45  N   UNL A   1      40.570  30.968  31.506  1.00  0.00    -0.248 NA
ATOM     46  C   UNL A   1      40.139  29.894  29.480  1.00  0.00     0.031 C 
ATOM     47  C   UNL A   1      44.242  28.455  32.000  1.00  0.00     0.029 A 
ATOM     48  N   UNL A   1      42.958  30.028  32.939  1.00  0.00    -0.354 N 
ATOM     49  C   UNL A   1      39.386  31.458  30.967  1.00  0.00     0.074 A 
ATOM     50  C   UNL A   1      39.188  30.790  29.700  1.00  0.00     0.031 C 
ATOM     51  C   UNL A   1      44.784  28.765  33.191  1.00  0.00     0.029 A 
ATOM     52  C   UNL A   1      43.992  29.820  33.821  1.00  0.00     0.049 A 
ATOM     53  H   UNL A   1      42.225  30.662  33.108  1.00  0.00     0.167 HD
ATOM     54  C   UNL A   1      38.535  32.373  31.485  1.00  0.00     0.037 A 
ATOM     55  C   UNL A   1      44.275  30.426  34.993  1.00  0.00     0.037 A 
ATOM     56  C   UNL A   1      38.731  33.030  32.751  1.00  0.00     0.049 A 
ATOM     57  C   UNL A   1      43.347  31.491  35.520  1.00  0.00     0.074 A 
ATOM     58  C   UNL A   1      37.920  33.971  33.364  1.00  0.00     0.029 A 
ATOM     59  N   UNL A   1      39.809  32.820  33.598  1.00  0.00    -0.354 N 
ATOM     60  N   UNL A   1      42.234  31.950  34.997  1.00  0.00    -0.248 NA
ATOM     61  C   UNL A   1      43.707  32.118  36.800  1.00  0.00     0.031 C 
ATOM     62  C   UNL A   1      38.536  34.369  34.553  1.00  0.00     0.029 A 
ATOM     63  C   UNL A   1      39.694  33.626  34.718  1.00  0.00     0.049 A 
ATOM     64  H   UNL A   1      40.547  32.190  33.428  1.00  0.00     0.167 HD
ATOM     65  C   UNL A   1      41.745  32.891  35.900  1.00  0.00     0.074 A 
ATOM     66  C   UNL A   1      42.678  32.928  37.006  1.00  0.00     0.031 C 
ATOM     67  C   UNL A   1      40.623  33.650  35.821  1.00  0.00     0.037 A 
BRANCH  54  68
ATOM     68  C   UNL A   1      37.317  32.737  30.681  1.00  0.00     0.058 A 
ATOM     69  C   UNL A   1      37.374  33.780  29.741  1.00  0.00     0.135 A 
ATOM     70  C   UNL A   1      36.079  32.108  30.885  1.00  0.00     0.135 A 
ATOM     71  F   UNL A   1      38.535  34.409  29.498  1.00  0.00    -0.206 F 
ATOM     72  C   UNL A   1      36.242  34.203  29.054  1.00  0.00     0.059 A 
ATOM     73  C   UNL A   1      34.939  32.494  30.186  1.00  0.00     0.059 A 
ATOM     74  F   UNL A   1      35.976  31.088  31.752  1.00  0.00    -0.206 F 
ATOM     75  C   UNL A   1      35.028  33.557  29.285  1.00  0.00     0.060 A 
BRANCH  75  76
ATOM     76  S   UNL A   1      33.573  34.115  28.375  1.00  0.00     0.124 S 
ATOM     77  O   UNL A   1      33.106  32.874  27.765  1.00  0.00    -0.237 OA
ATOM     78  O   UNL A   1      32.734  34.652  29.443  1.00  0.00    -0.237 OA
ATOM     79  O   UNL A   1      34.110  35.109  27.450  1.00  0.00    -0.744 OA
ENDBRANCH  75  76
ENDBRANCH  54  68
BRANCH  55  80
ATOM     80  C   UNL A   1      45.494  30.034  35.755  1.00  0.00     0.058 A 
ATOM     81  C   UNL A   1      45.468  28.972  36.673  1.00  0.00     0.135 A 
ATOM     82  C   UNL A   1      46.707  30.720  35.588  1.00  0.00     0.135 A 
ATOM     83  F   UNL A   1      44.334  28.283  36.873  1.00  0.00    -0.206 F 
ATOM     84  C   UNL A   1      46.589  28.625  37.418  1.00  0.00     0.059 A 
ATOM     85  C   UNL A   1      47.852  30.371  36.300  1.00  0.00     0.059 A 
ATOM     86  F   UNL A   1      46.789  31.731  34.708  1.00  0.00    -0.206 F 
ATOM     87  C   UNL A   1      47.777  29.332  37.226  1.00  0.00     0.060 A 
BRANCH  87  88
ATOM     88  S   UNL A   1      49.216  28.871  38.215  1.00  0.00     0.124 S 
ATOM     89  O   UNL A   1      49.440  27.498  37.778  1.00  0.00    -0.237 OA
ATOM     90  O   UNL A   1      50.209  29.847  37.780  1.00  0.00    -0.237 OA
ATOM     91  O   UNL A   1      48.746  29.025  39.587  1.00  0.00    -0.744 OA
ENDBRANCH  87  88
ENDBRANCH  55  80
BRANCH  67  92
ATOM     92  C   UNL A   1      40.302  34.557  36.981  1.00  0.00     0.058 A 
ATOM     93  C   UNL A   1      39.438  34.121  38.000  1.00  0.00     0.135 A 
ATOM     94  C   UNL A   1      40.794  35.869  37.062  1.00  0.00     0.135 A 
ATOM     95  F   UNL A   1      38.927  32.880  37.972  1.00  0.00    -0.206 F 
ATOM     96  C   UNL A   1      39.069  34.954  39.051  1.00  0.00     0.059 A 
ATOM     97  C   UNL A   1      40.465  36.709  38.123  1.00  0.00     0.059 A 
ATOM     98  F   UNL A   1      41.627  36.336  36.117  1.00  0.00    -0.206 F 
ATOM     99  C   UNL A   1      39.593  36.246  39.107  1.00  0.00     0.060 A 
BRANCH  99 100
ATOM    100  S   UNL A   1      39.144  37.294  40.507  1.00  0.00     0.124 S 
ATOM    101  O   UNL A   1      38.574  36.325  41.437  1.00  0.00    -0.237 OA
ATOM    102  O   UNL A   1      40.433  37.861  40.893  1.00  0.00    -0.237 OA
ATOM    103  O   UNL A   1      38.197  38.243  39.931  1.00  0.00    -0.744 OA
ENDBRANCH  99 100
ENDBRANCH  67  92
ENDBRANCH  41  42
ENDBRANCH  34  36
ENDBRANCH  33  34
ENDBRANCH  32  33
ENDBRANCH  31  32
ENDBRANCH  30  31
ENDBRANCH  29  30
ENDBRANCH   1  29
TORSDOF 24
ENDMDL
