MODEL 1
REMARK VINA RESULT:     -12.0      0.000      0.000
REMARK SMILES CCC(=O)N1CCC[C@](C[C@H]2CC(c3ccc(C)cc3)=NO2)(C(=O)OCCOCCOCCOC(=O)c2ccc(-c3c4nc(c(-c5c(F)cc(S(=O)(=O)[O-])cc5F)c5ccc([nH]5)c(-c5c(F)cc(S(=O)(=O)[O-])cc5F)c5nc(c(-c6c(F)cc(S(=O)(=O)[O-])cc6F)c6ccc3[nH]6)C=C5)C=C4)cc2)C1
REMARK SMILES IDX 29 1 28 2 27 3 26 4 25 5 23 6 24 7 9 8 5 9 6 10 103 11 7 12
REMARK SMILES IDX 8 13 3 14 4 15 2 16 1 17 10 18 11 19 12 20 22 21 13 22 21 23
REMARK SMILES IDX 14 24 15 25 20 26 16 27 19 28 17 29 18 30 30 31 31 32 32 33
REMARK SMILES IDX 33 34 34 35 35 36 36 37 37 38 38 39 102 40 39 41 101 42
REMARK SMILES IDX 40 43 41 44 42 45 95 46 43 47 100 48 94 49 96 50 44 51 99 52
REMARK SMILES IDX 93 53 92 54 45 56 79 57 58 58 78 59 59 60 62 61 77 62 97 63
REMARK SMILES IDX 60 64 61 65 76 67 98 68 63 69 46 70 47 71 56 72 48 73 49 74
REMARK SMILES IDX 55 75 57 76 50 77 51 78 52 79 53 80 54 81 80 82 81 83 90 84
REMARK SMILES IDX 82 85 83 86 89 87 91 88 84 89 85 90 86 91 87 92 88 93 64 94
REMARK SMILES IDX 65 95 74 96 66 97 67 98 73 99 75 100 68 101 69 102 70 103
REMARK SMILES IDX 71 104 72 105
REMARK H PARENT 96 55 62 66
REMARK Flexibility Score: inf
ROOT
ATOM      1  C   UNL A   1      31.828  29.174  25.567  1.00  0.00     0.188 C 
ENDROOT
BRANCH   1   2
ATOM      2  O   UNL A   1      31.457  29.099  24.196  1.00  0.00    -0.376 OA
BRANCH   2   3
ATOM      3  C   UNL A   1      32.205  28.693  23.025  1.00  0.00     0.202 C 
BRANCH   3   4
ATOM      4  C   UNL A   1      33.025  27.279  22.426  1.00  0.00     0.261 C 
BRANCH   4   5
ATOM      5  O   UNL A   1      32.728  25.442  22.429  1.00  0.00    -0.463 OA
BRANCH   5   6
ATOM      6  C   UNL A   1      32.067  24.236  23.079  1.00  0.00     0.314 C 
ATOM      7  O   UNL A   1      30.968  23.745  22.809  1.00  0.00    -0.252 OA
BRANCH   6   8
ATOM      8  C   UNL A   1      32.823  23.424  24.166  1.00  0.00     0.089 C 
ATOM      9  N   UNL A   1      31.520  24.732  25.820  1.00  0.00    -0.342 N 
ATOM     10  C   UNL A   1      32.646  25.613  26.091  1.00  0.00     0.119 C 
ATOM     11  C   UNL A   1      31.898  23.412  25.416  1.00  0.00     0.138 C 
ATOM     12  C   UNL A   1      33.849  25.500  25.123  1.00  0.00     0.023 C 
ATOM     13  C   UNL A   1      34.103  24.160  24.412  1.00  0.00     0.022 C 
BRANCH   9  14
ATOM     14  C   UNL A   1      30.225  25.105  26.162  1.00  0.00     0.222 C 
ATOM     15  O   UNL A   1      29.556  24.402  26.931  1.00  0.00    -0.275 OA
BRANCH  14  16
ATOM     16  C   UNL A   1      29.509  26.262  25.442  1.00  0.00     0.097 C 
ATOM     17  C   UNL A   1      29.370  26.304  23.931  1.00  0.00     0.014 C 
ENDBRANCH  14  16
ENDBRANCH   9  14
BRANCH   8  18
ATOM     18  C   UNL A   1      32.984  21.884  23.808  1.00  0.00     0.069 C 
BRANCH  18  19
ATOM     19  C   UNL A   1      33.871  20.893  24.670  1.00  0.00     0.212 C 
ATOM     20  C   UNL A   1      35.380  20.953  24.514  1.00  0.00     0.108 C 
ATOM     21  O   UNL A   1      33.666  20.948  26.098  1.00  0.00    -0.392 OA
ATOM     22  C   UNL A   1      35.738  21.596  25.814  1.00  0.00     0.091 C 
ATOM     23  N   UNL A   1      34.825  21.507  26.722  1.00  0.00    -0.090 NA
BRANCH  22  24
ATOM     24  C   UNL A   1      36.986  22.373  25.980  1.00  0.00    -0.001 A 
ATOM     25  C   UNL A   1      38.173  21.669  25.812  1.00  0.00     0.010 A 
ATOM     26  C   UNL A   1      37.065  23.724  26.280  1.00  0.00     0.010 A 
ATOM     27  C   UNL A   1      39.412  22.188  26.152  1.00  0.00     0.004 A 
ATOM     28  C   UNL A   1      38.332  24.300  26.521  1.00  0.00     0.004 A 
ATOM     29  C   UNL A   1      39.504  23.520  26.522  1.00  0.00    -0.051 A 
ATOM     30  C   UNL A   1      40.856  24.093  26.822  1.00  0.00     0.044 C 
ENDBRANCH  22  24
ENDBRANCH  18  19
ENDBRANCH   8  18
ENDBRANCH   6   8
ENDBRANCH   5   6
ENDBRANCH   4   5
ENDBRANCH   3   4
ENDBRANCH   2   3
ENDBRANCH   1   2
BRANCH   1  31
ATOM     31  C   UNL A   1      33.082  29.900  25.945  1.00  0.00     0.188 C 
BRANCH  31  32
ATOM     32  O   UNL A   1      33.965  28.926  26.457  1.00  0.00    -0.376 OA
BRANCH  32  33
ATOM     33  C   UNL A   1      35.032  29.450  27.202  1.00  0.00     0.202 C 
BRANCH  33  34
ATOM     34  C   UNL A   1      34.671  30.803  27.802  1.00  0.00     0.261 C 
BRANCH  34  35
ATOM     35  O   UNL A   1      35.810  31.467  28.406  1.00  0.00    -0.460 OA
BRANCH  35  36
ATOM     36  C   UNL A   1      35.737  31.895  29.722  1.00  0.00     0.338 C 
ATOM     37  O   UNL A   1      34.708  32.278  30.221  1.00  0.00    -0.246 OA
BRANCH  36  38
ATOM     38  C   UNL A   1      36.945  31.480  30.494  1.00  0.00     0.060 A 
ATOM     39  C   UNL A   1      38.015  32.239  30.979  1.00  0.00     0.016 A 
ATOM     40  C   UNL A   1      36.999  30.179  30.808  1.00  0.00     0.016 A 
ATOM     41  C   UNL A   1      39.321  31.665  31.343  1.00  0.00     0.010 A 
ATOM     42  C   UNL A   1      38.231  29.698  31.236  1.00  0.00     0.010 A 
ATOM     43  C   UNL A   1      39.592  30.307  31.226  1.00  0.00    -0.014 A 
BRANCH  43  44
ATOM     44  C   UNL A   1      41.280  29.540  31.093  1.00  0.00     0.031 A 
ATOM     45  C   UNL A   1      41.966  28.177  30.048  1.00  0.00     0.074 A 
ATOM     46  C   UNL A   1      42.287  30.010  31.877  1.00  0.00     0.049 A 
ATOM     47  N   UNL A   1      43.168  27.621  30.121  1.00  0.00    -0.248 NA
ATOM     48  C   UNL A   1      41.360  27.475  28.826  1.00  0.00     0.031 C 
ATOM     49  C   UNL A   1      43.730  29.729  31.812  1.00  0.00     0.029 A 
ATOM     50  N   UNL A   1      42.195  30.854  32.984  1.00  0.00    -0.354 N 
ATOM     51  C   UNL A   1      43.332  26.666  29.083  1.00  0.00     0.074 A 
ATOM     52  C   UNL A   1      42.315  26.881  28.151  1.00  0.00     0.031 C 
ATOM     53  C   UNL A   1      44.289  30.053  32.990  1.00  0.00     0.029 A 
ATOM     54  C   UNL A   1      43.194  30.422  33.860  1.00  0.00     0.049 A 
ATOM     55  H   UNL A   1      41.562  31.595  33.119  1.00  0.00     0.167 HD
ATOM     56  C   UNL A   1      44.176  25.597  29.025  1.00  0.00     0.037 A 
ATOM     57  C   UNL A   1      42.844  29.840  35.032  1.00  0.00     0.037 A 
ATOM     58  C   UNL A   1      45.046  25.644  30.154  1.00  0.00     0.049 A 
ATOM     59  C   UNL A   1      43.486  28.474  35.135  1.00  0.00     0.074 A 
ATOM     60  C   UNL A   1      46.178  26.396  30.393  1.00  0.00     0.029 A 
ATOM     61  N   UNL A   1      44.512  25.283  31.380  1.00  0.00    -0.354 N 
ATOM     62  N   UNL A   1      43.826  27.712  34.119  1.00  0.00    -0.248 NA
ATOM     63  C   UNL A   1      43.948  27.944  36.410  1.00  0.00     0.031 C 
ATOM     64  C   UNL A   1      46.242  26.606  31.796  1.00  0.00     0.029 A 
ATOM     65  C   UNL A   1      45.221  25.885  32.402  1.00  0.00     0.049 A 
ATOM     66  H   UNL A   1      43.741  24.684  31.506  1.00  0.00     0.167 HD
ATOM     67  C   UNL A   1      44.502  26.609  34.582  1.00  0.00     0.074 A 
ATOM     68  C   UNL A   1      44.591  26.835  36.012  1.00  0.00     0.031 C 
ATOM     69  C   UNL A   1      44.932  25.575  33.793  1.00  0.00     0.037 A 
BRANCH  56  70
ATOM     70  C   UNL A   1      44.174  24.588  27.860  1.00  0.00     0.058 A 
ATOM     71  C   UNL A   1      43.724  23.266  28.028  1.00  0.00     0.135 A 
ATOM     72  C   UNL A   1      44.721  24.852  26.573  1.00  0.00     0.135 A 
ATOM     73  F   UNL A   1      43.113  22.898  29.164  1.00  0.00    -0.206 F 
ATOM     74  C   UNL A   1      43.937  22.258  27.064  1.00  0.00     0.059 A 
ATOM     75  C   UNL A   1      44.999  23.854  25.621  1.00  0.00     0.059 A 
ATOM     76  F   UNL A   1      45.081  26.095  26.216  1.00  0.00    -0.206 F 
ATOM     77  C   UNL A   1      44.629  22.546  25.889  1.00  0.00     0.060 A 
BRANCH  77  78
ATOM     78  S   UNL A   1      45.124  21.198  24.779  1.00  0.00     0.124 S 
ATOM     79  O   UNL A   1      44.636  21.668  23.485  1.00  0.00    -0.237 OA
ATOM     80  O   UNL A   1      46.574  21.172  24.936  1.00  0.00    -0.237 OA
ATOM     81  O   UNL A   1      44.416  20.034  25.310  1.00  0.00    -0.744 OA
ENDBRANCH  77  78
ENDBRANCH  56  70
BRANCH  57  82
ATOM     82  C   UNL A   1      41.549  30.380  35.588  1.00  0.00     0.058 A 
ATOM     83  C   UNL A   1      41.631  31.511  36.451  1.00  0.00     0.135 A 
ATOM     84  C   UNL A   1      40.271  30.091  35.091  1.00  0.00     0.135 A 
ATOM     85  F   UNL A   1      42.819  31.883  36.960  1.00  0.00    -0.206 F 
ATOM     86  C   UNL A   1      40.554  32.361  36.708  1.00  0.00     0.059 A 
ATOM     87  C   UNL A   1      39.158  30.919  35.366  1.00  0.00     0.059 A 
ATOM     88  F   UNL A   1      40.085  29.046  34.273  1.00  0.00    -0.206 F 
ATOM     89  C   UNL A   1      39.313  32.063  36.160  1.00  0.00     0.060 A 
BRANCH  89  90
ATOM     90  S   UNL A   1      37.980  33.286  36.352  1.00  0.00     0.124 S 
ATOM     91  O   UNL A   1      36.973  32.531  37.086  1.00  0.00    -0.237 OA
ATOM     92  O   UNL A   1      38.629  34.349  37.119  1.00  0.00    -0.237 OA
ATOM     93  O   UNL A   1      37.648  33.630  34.973  1.00  0.00    -0.744 OA
ENDBRANCH  89  90
ENDBRANCH  57  82
BRANCH  69  94
ATOM     94  C   UNL A   1      45.194  24.154  34.283  1.00  0.00     0.058 A 
ATOM     95  C   UNL A   1      44.188  23.186  34.450  1.00  0.00     0.135 A 
ATOM     96  C   UNL A   1      46.519  23.656  34.421  1.00  0.00     0.135 A 
ATOM     97  F   UNL A   1      42.896  23.452  34.225  1.00  0.00    -0.206 F 
ATOM     98  C   UNL A   1      44.456  21.865  34.801  1.00  0.00     0.059 A 
ATOM     99  C   UNL A   1      46.812  22.318  34.687  1.00  0.00     0.059 A 
ATOM    100  F   UNL A   1      47.595  24.445  34.289  1.00  0.00    -0.206 F 
ATOM    101  C   UNL A   1      45.770  21.436  34.910  1.00  0.00     0.060 A 
BRANCH 101 102
ATOM    102  S   UNL A   1      46.090  19.713  35.304  1.00  0.00     0.124 S 
ATOM    103  O   UNL A   1      44.782  19.113  35.058  1.00  0.00    -0.237 OA
ATOM    104  O   UNL A   1      47.135  19.355  34.349  1.00  0.00    -0.237 OA
ATOM    105  O   UNL A   1      46.513  19.753  36.700  1.00  0.00    -0.744 OA
ENDBRANCH 101 102
ENDBRANCH  69  94
ENDBRANCH  43  44
ENDBRANCH  36  38
ENDBRANCH  35  36
ENDBRANCH  34  35
ENDBRANCH  33  34
ENDBRANCH  32  33
ENDBRANCH  31  32
ENDBRANCH   1  31
TORSDOF 25
ENDMDL
MODEL 2
REMARK VINA RESULT:     -10.3      1.896      3.397
REMARK SMILES CCC(=O)N1CCC[C@](C[C@H]2CC(c3ccc(C)cc3)=NO2)(C(=O)OCCOCCOCCOC(=O)c2ccc(-c3c4nc(c(-c5c(F)cc(S(=O)(=O)[O-])cc5F)c5ccc([nH]5)c(-c5c(F)cc(S(=O)(=O)[O-])cc5F)c5nc(c(-c6c(F)cc(S(=O)(=O)[O-])cc6F)c6ccc3[nH]6)C=C5)C=C4)cc2)C1
REMARK SMILES IDX 29 1 28 2 27 3 26 4 25 5 23 6 24 7 9 8 5 9 6 10 103 11 7 12
REMARK SMILES IDX 8 13 3 14 4 15 2 16 1 17 10 18 11 19 12 20 22 21 13 22 21 23
REMARK SMILES IDX 14 24 15 25 20 26 16 27 19 28 17 29 18 30 30 31 31 32 32 33
REMARK SMILES IDX 33 34 34 35 35 36 36 37 37 38 38 39 102 40 39 41 101 42
REMARK SMILES IDX 40 43 41 44 42 45 95 46 43 47 100 48 94 49 96 50 44 51 99 52
REMARK SMILES IDX 93 53 92 54 45 56 79 57 58 58 78 59 59 60 62 61 77 62 97 63
REMARK SMILES IDX 60 64 61 65 76 67 98 68 63 69 46 70 47 71 56 72 48 73 49 74
REMARK SMILES IDX 55 75 57 76 50 77 51 78 52 79 53 80 54 81 80 82 81 83 90 84
REMARK SMILES IDX 82 85 83 86 89 87 91 88 84 89 85 90 86 91 87 92 88 93 64 94
REMARK SMILES IDX 65 95 74 96 66 97 67 98 73 99 75 100 68 101 69 102 70 103
REMARK SMILES IDX 71 104 72 105
REMARK H PARENT 96 55 62 66
REMARK Flexibility Score: inf
ROOT
ATOM      1  C   UNL A   1      36.320  29.751  28.256  1.00  0.00     0.188 C 
ENDROOT
BRANCH   1   2
ATOM      2  O   UNL A   1      35.366  30.511  27.525  1.00  0.00    -0.376 OA
BRANCH   2   3
ATOM      3  C   UNL A   1      33.947  30.317  27.317  1.00  0.00     0.202 C 
BRANCH   3   4
ATOM      4  C   UNL A   1      32.803  29.006  27.272  1.00  0.00     0.261 C 
BRANCH   4   5
ATOM      5  O   UNL A   1      31.992  27.964  25.960  1.00  0.00    -0.463 OA
BRANCH   5   6
ATOM      6  C   UNL A   1      31.078  26.799  25.610  1.00  0.00     0.314 C 
ATOM      7  O   UNL A   1      30.228  26.269  26.329  1.00  0.00    -0.252 OA
BRANCH   6   8
ATOM      8  C   UNL A   1      31.098  26.195  24.179  1.00  0.00     0.089 C 
ATOM      9  N   UNL A   1      29.918  28.256  23.469  1.00  0.00    -0.342 N 
ATOM     10  C   UNL A   1      28.633  27.575  23.438  1.00  0.00     0.119 C 
ATOM     11  C   UNL A   1      31.035  27.403  23.202  1.00  0.00     0.138 C 
ATOM     12  C   UNL A   1      28.595  26.162  24.068  1.00  0.00     0.023 C 
ATOM     13  C   UNL A   1      29.885  25.324  24.084  1.00  0.00     0.022 C 
BRANCH   9  14
ATOM     14  C   UNL A   1      29.987  29.644  23.521  1.00  0.00     0.222 C 
ATOM     15  O   UNL A   1      30.572  30.204  24.457  1.00  0.00    -0.275 OA
BRANCH  14  16
ATOM     16  C   UNL A   1      29.170  30.524  22.557  1.00  0.00     0.097 C 
ATOM     17  C   UNL A   1      28.925  31.997  22.828  1.00  0.00     0.014 C 
ENDBRANCH  14  16
ENDBRANCH   9  14
BRANCH   8  18
ATOM     18  C   UNL A   1      32.471  25.488  23.809  1.00  0.00     0.069 C 
BRANCH  18  19
ATOM     19  C   UNL A   1      33.421  24.839  24.898  1.00  0.00     0.212 C 
ATOM     20  C   UNL A   1      33.011  23.517  25.520  1.00  0.00     0.108 C 
ATOM     21  O   UNL A   1      34.789  24.624  24.489  1.00  0.00    -0.392 OA
ATOM     22  C   UNL A   1      34.000  22.614  24.855  1.00  0.00     0.091 C 
ATOM     23  N   UNL A   1      35.032  23.219  24.371  1.00  0.00    -0.090 NA
BRANCH  22  24
ATOM     24  C   UNL A   1      33.732  21.171  24.669  1.00  0.00    -0.001 A 
ATOM     25  C   UNL A   1      34.801  20.315  24.905  1.00  0.00     0.010 A 
ATOM     26  C   UNL A   1      32.522  20.614  24.289  1.00  0.00     0.010 A 
ATOM     27  C   UNL A   1      34.782  18.973  24.561  1.00  0.00     0.004 A 
ATOM     28  C   UNL A   1      32.453  19.226  24.041  1.00  0.00     0.004 A 
ATOM     29  C   UNL A   1      33.598  18.410  24.113  1.00  0.00    -0.051 A 
ATOM     30  C   UNL A   1      33.567  16.943  23.808  1.00  0.00     0.044 C 
ENDBRANCH  22  24
ENDBRANCH  18  19
ENDBRANCH   8  18
ENDBRANCH   6   8
ENDBRANCH   5   6
ENDBRANCH   4   5
ENDBRANCH   3   4
ENDBRANCH   2   3
ENDBRANCH   1   2
BRANCH   1  31
ATOM     31  C   UNL A   1      37.736  30.234  28.329  1.00  0.00     0.188 C 
BRANCH  31  32
ATOM     32  O   UNL A   1      37.672  31.641  28.400  1.00  0.00    -0.376 OA
BRANCH  32  33
ATOM     33  C   UNL A   1      37.585  32.150  29.705  1.00  0.00     0.202 C 
BRANCH  33  34
ATOM     34  C   UNL A   1      37.150  33.610  29.697  1.00  0.00     0.261 C 
BRANCH  34  35
ATOM     35  O   UNL A   1      37.002  34.155  31.033  1.00  0.00    -0.460 OA
BRANCH  35  36
ATOM     36  C   UNL A   1      36.858  33.298  32.112  1.00  0.00     0.338 C 
ATOM     37  O   UNL A   1      35.799  32.795  32.401  1.00  0.00    -0.246 OA
BRANCH  36  38
ATOM     38  C   UNL A   1      38.182  32.814  32.602  1.00  0.00     0.060 A 
ATOM     39  C   UNL A   1      39.423  33.458  32.644  1.00  0.00     0.016 A 
ATOM     40  C   UNL A   1      38.179  31.579  33.120  1.00  0.00     0.016 A 
ATOM     41  C   UNL A   1      40.706  32.745  32.749  1.00  0.00     0.010 A 
ATOM     42  C   UNL A   1      39.420  30.977  33.288  1.00  0.00     0.010 A 
ATOM     43  C   UNL A   1      40.781  31.359  32.812  1.00  0.00    -0.014 A 
BRANCH  43  44
ATOM     44  C   UNL A   1      42.265  30.327  32.382  1.00  0.00     0.031 A 
ATOM     45  C   UNL A   1      42.531  28.935  31.194  1.00  0.00     0.074 A 
ATOM     46  C   UNL A   1      43.448  30.570  33.008  1.00  0.00     0.049 A 
ATOM     47  N   UNL A   1      43.612  28.180  31.052  1.00  0.00    -0.248 NA
ATOM     48  C   UNL A   1      41.631  28.423  30.062  1.00  0.00     0.031 C 
ATOM     49  C   UNL A   1      44.792  30.054  32.701  1.00  0.00     0.029 A 
ATOM     50  N   UNL A   1      43.678  31.347  34.143  1.00  0.00    -0.354 N 
ATOM     51  C   UNL A   1      43.444  27.277  29.969  1.00  0.00     0.074 A 
ATOM     52  C   UNL A   1      42.350  27.718  29.221  1.00  0.00     0.031 C 
ATOM     53  C   UNL A   1      45.573  30.205  33.783  1.00  0.00     0.029 A 
ATOM     54  C   UNL A   1      44.707  30.699  34.831  1.00  0.00     0.049 A 
ATOM     55  H   UNL A   1      43.214  32.175  34.404  1.00  0.00     0.167 HD
ATOM     56  C   UNL A   1      44.066  26.087  29.738  1.00  0.00     0.037 A 
ATOM     57  C   UNL A   1      44.443  30.113  36.024  1.00  0.00     0.037 A 
ATOM     58  C   UNL A   1      45.094  25.916  30.712  1.00  0.00     0.049 A 
ATOM     59  C   UNL A   1      44.841  28.654  35.974  1.00  0.00     0.074 A 
ATOM     60  C   UNL A   1      46.364  26.449  30.790  1.00  0.00     0.029 A 
ATOM     61  N   UNL A   1      44.699  25.575  31.996  1.00  0.00    -0.354 N 
ATOM     62  N   UNL A   1      44.882  27.911  34.891  1.00  0.00    -0.248 NA
ATOM     63  C   UNL A   1      45.393  27.976  37.139  1.00  0.00     0.031 C 
ATOM     64  C   UNL A   1      46.678  26.558  32.171  1.00  0.00     0.029 A 
ATOM     65  C   UNL A   1      45.651  25.984  32.909  1.00  0.00     0.049 A 
ATOM     66  H   UNL A   1      43.862  25.108  32.224  1.00  0.00     0.167 HD
ATOM     67  C   UNL A   1      45.414  26.682  35.200  1.00  0.00     0.074 A 
ATOM     68  C   UNL A   1      45.761  26.801  36.604  1.00  0.00     0.031 C 
ATOM     69  C   UNL A   1      45.528  25.641  34.317  1.00  0.00     0.037 A 
BRANCH  56  70
ATOM     70  C   UNL A   1      43.707  25.167  28.555  1.00  0.00     0.058 A 
ATOM     71  C   UNL A   1      43.180  23.878  28.755  1.00  0.00     0.135 A 
ATOM     72  C   UNL A   1      43.976  25.475  27.192  1.00  0.00     0.135 A 
ATOM     73  F   UNL A   1      42.805  23.482  29.980  1.00  0.00    -0.206 F 
ATOM     74  C   UNL A   1      43.074  22.927  27.717  1.00  0.00     0.059 A 
ATOM     75  C   UNL A   1      43.937  24.528  26.153  1.00  0.00     0.059 A 
ATOM     76  F   UNL A   1      44.366  26.707  26.826  1.00  0.00    -0.206 F 
ATOM     77  C   UNL A   1      43.512  23.239  26.431  1.00  0.00     0.060 A 
BRANCH  77  78
ATOM     78  S   UNL A   1      43.613  21.937  25.171  1.00  0.00     0.124 S 
ATOM     79  O   UNL A   1      42.588  20.997  25.614  1.00  0.00    -0.237 OA
ATOM     80  O   UNL A   1      43.317  22.662  23.940  1.00  0.00    -0.237 OA
ATOM     81  O   UNL A   1      44.984  21.444  25.291  1.00  0.00    -0.744 OA
ENDBRANCH  77  78
ENDBRANCH  56  70
BRANCH  57  82
ATOM     82  C   UNL A   1      43.365  30.829  36.800  1.00  0.00     0.058 A 
ATOM     83  C   UNL A   1      43.758  31.961  37.570  1.00  0.00     0.135 A 
ATOM     84  C   UNL A   1      41.987  30.694  36.586  1.00  0.00     0.135 A 
ATOM     85  F   UNL A   1      45.062  32.191  37.809  1.00  0.00    -0.206 F 
ATOM     86  C   UNL A   1      42.868  32.950  37.994  1.00  0.00     0.059 A 
ATOM     87  C   UNL A   1      41.062  31.665  37.036  1.00  0.00     0.059 A 
ATOM     88  F   UNL A   1      41.512  29.661  35.876  1.00  0.00    -0.206 F 
ATOM     89  C   UNL A   1      41.515  32.800  37.722  1.00  0.00     0.060 A 
BRANCH  89  90
ATOM     90  S   UNL A   1      40.407  34.188  38.115  1.00  0.00     0.124 S 
ATOM     91  O   UNL A   1      39.458  33.574  39.035  1.00  0.00    -0.237 OA
ATOM     92  O   UNL A   1      41.314  35.157  38.729  1.00  0.00    -0.237 OA
ATOM     93  O   UNL A   1      39.881  34.570  36.808  1.00  0.00    -0.744 OA
ENDBRANCH  89  90
ENDBRANCH  57  82
BRANCH  69  94
ATOM     94  C   UNL A   1      45.607  24.169  34.709  1.00  0.00     0.058 A 
ATOM     95  C   UNL A   1      44.532  23.270  34.593  1.00  0.00     0.135 A 
ATOM     96  C   UNL A   1      46.849  23.561  35.043  1.00  0.00     0.135 A 
ATOM     97  F   UNL A   1      43.325  23.652  34.158  1.00  0.00    -0.206 F 
ATOM     98  C   UNL A   1      44.649  21.908  34.860  1.00  0.00     0.059 A 
ATOM     99  C   UNL A   1      47.005  22.188  35.231  1.00  0.00     0.059 A 
ATOM    100  F   UNL A   1      47.975  24.274  35.190  1.00  0.00    -0.206 F 
ATOM    101  C   UNL A   1      45.890  21.372  35.170  1.00  0.00     0.060 A 
BRANCH 101 102
ATOM    102  S   UNL A   1      46.026  19.603  35.450  1.00  0.00     0.124 S 
ATOM    103  O   UNL A   1      47.171  19.265  34.610  1.00  0.00    -0.237 OA
ATOM    104  O   UNL A   1      46.257  19.524  36.890  1.00  0.00    -0.237 OA
ATOM    105  O   UNL A   1      44.738  19.085  35.000  1.00  0.00    -0.744 OA
ENDBRANCH 101 102
ENDBRANCH  69  94
ENDBRANCH  43  44
ENDBRANCH  36  38
ENDBRANCH  35  36
ENDBRANCH  34  35
ENDBRANCH  33  34
ENDBRANCH  32  33
ENDBRANCH  31  32
ENDBRANCH   1  31
TORSDOF 25
ENDMDL
MODEL 3
REMARK VINA RESULT:     -10.1      1.885      3.604
REMARK SMILES CCC(=O)N1CCC[C@](C[C@H]2CC(c3ccc(C)cc3)=NO2)(C(=O)OCCOCCOCCOC(=O)c2ccc(-c3c4nc(c(-c5c(F)cc(S(=O)(=O)[O-])cc5F)c5ccc([nH]5)c(-c5c(F)cc(S(=O)(=O)[O-])cc5F)c5nc(c(-c6c(F)cc(S(=O)(=O)[O-])cc6F)c6ccc3[nH]6)C=C5)C=C4)cc2)C1
REMARK SMILES IDX 29 1 28 2 27 3 26 4 25 5 23 6 24 7 9 8 5 9 6 10 103 11 7 12
REMARK SMILES IDX 8 13 3 14 4 15 2 16 1 17 10 18 11 19 12 20 22 21 13 22 21 23
REMARK SMILES IDX 14 24 15 25 20 26 16 27 19 28 17 29 18 30 30 31 31 32 32 33
REMARK SMILES IDX 33 34 34 35 35 36 36 37 37 38 38 39 102 40 39 41 101 42
REMARK SMILES IDX 40 43 41 44 42 45 95 46 43 47 100 48 94 49 96 50 44 51 99 52
REMARK SMILES IDX 93 53 92 54 45 56 79 57 58 58 78 59 59 60 62 61 77 62 97 63
REMARK SMILES IDX 60 64 61 65 76 67 98 68 63 69 46 70 47 71 56 72 48 73 49 74
REMARK SMILES IDX 55 75 57 76 50 77 51 78 52 79 53 80 54 81 80 82 81 83 90 84
REMARK SMILES IDX 82 85 83 86 89 87 91 88 84 89 85 90 86 91 87 92 88 93 64 94
REMARK SMILES IDX 65 95 74 96 66 97 67 98 73 99 75 100 68 101 69 102 70 103
REMARK SMILES IDX 71 104 72 105
REMARK H PARENT 96 55 62 66
REMARK Flexibility Score: inf
ROOT
ATOM      1  C   UNL A   1      35.070  32.044  27.654  1.00  0.00     0.188 C 
ENDROOT
BRANCH   1   2
ATOM      2  O   UNL A   1      35.718  30.797  27.435  1.00  0.00    -0.376 OA
BRANCH   2   3
ATOM      3  C   UNL A   1      35.259  29.437  27.622  1.00  0.00     0.202 C 
BRANCH   3   4
ATOM      4  C   UNL A   1      33.824  28.494  27.339  1.00  0.00     0.261 C 
BRANCH   4   5
ATOM      5  O   UNL A   1      32.789  28.015  25.868  1.00  0.00    -0.463 OA
BRANCH   5   6
ATOM      6  C   UNL A   1      31.496  28.179  25.084  1.00  0.00     0.314 C 
ATOM      7  O   UNL A   1      31.046  29.213  24.584  1.00  0.00    -0.252 OA
BRANCH   6   8
ATOM      8  C   UNL A   1      30.616  26.939  24.763  1.00  0.00     0.089 C 
ATOM      9  N   UNL A   1      32.165  26.531  22.872  1.00  0.00    -0.342 N 
ATOM     10  C   UNL A   1      31.230  27.097  21.913  1.00  0.00     0.119 C 
ATOM     11  C   UNL A   1      31.540  25.939  24.014  1.00  0.00     0.138 C 
ATOM     12  C   UNL A   1      30.013  27.847  22.507  1.00  0.00     0.023 C 
ATOM     13  C   UNL A   1      29.501  27.440  23.899  1.00  0.00     0.022 C 
BRANCH   9  14
ATOM     14  C   UNL A   1      33.512  26.392  22.557  1.00  0.00     0.222 C 
ATOM     15  O   UNL A   1      34.011  27.060  21.641  1.00  0.00    -0.275 OA
BRANCH  14  16
ATOM     16  C   UNL A   1      34.367  25.268  23.171  1.00  0.00     0.097 C 
ATOM     17  C   UNL A   1      34.084  23.803  22.895  1.00  0.00     0.014 C 
ENDBRANCH  14  16
ENDBRANCH   9  14
BRANCH   8  18
ATOM     18  C   UNL A   1      30.163  26.133  26.055  1.00  0.00     0.069 C 
BRANCH  18  19
ATOM     19  C   UNL A   1      29.852  24.579  26.029  1.00  0.00     0.212 C 
ATOM     20  C   UNL A   1      30.756  23.675  25.211  1.00  0.00     0.108 C 
ATOM     21  O   UNL A   1      29.785  23.932  27.318  1.00  0.00    -0.392 OA
ATOM     22  C   UNL A   1      31.493  22.994  26.319  1.00  0.00     0.091 C 
ATOM     23  N   UNL A   1      30.904  23.054  27.465  1.00  0.00    -0.090 NA
BRANCH  22  24
ATOM     24  C   UNL A   1      32.841  22.419  26.117  1.00  0.00    -0.001 A 
ATOM     25  C   UNL A   1      33.902  23.146  26.644  1.00  0.00     0.010 A 
ATOM     26  C   UNL A   1      33.125  21.232  25.461  1.00  0.00     0.010 A 
ATOM     27  C   UNL A   1      35.227  22.866  26.349  1.00  0.00     0.004 A 
ATOM     28  C   UNL A   1      34.473  20.871  25.248  1.00  0.00     0.004 A 
ATOM     29  C   UNL A   1      35.529  21.719  25.633  1.00  0.00    -0.051 A 
ATOM     30  C   UNL A   1      36.968  21.387  25.377  1.00  0.00     0.044 C 
ENDBRANCH  22  24
ENDBRANCH  18  19
ENDBRANCH   8  18
ENDBRANCH   6   8
ENDBRANCH   5   6
ENDBRANCH   4   5
ENDBRANCH   3   4
ENDBRANCH   2   3
ENDBRANCH   1   2
BRANCH   1  31
ATOM     31  C   UNL A   1      34.276  32.244  28.907  1.00  0.00     0.188 C 
BRANCH  31  32
ATOM     32  O   UNL A   1      35.131  32.899  29.818  1.00  0.00    -0.376 OA
BRANCH  32  33
ATOM     33  C   UNL A   1      34.597  33.044  31.108  1.00  0.00     0.202 C 
BRANCH  33  34
ATOM     34  C   UNL A   1      35.307  32.131  32.100  1.00  0.00     0.261 C 
BRANCH  34  35
ATOM     35  O   UNL A   1      36.731  32.394  32.179  1.00  0.00    -0.460 OA
BRANCH  35  36
ATOM     36  C   UNL A   1      37.331  32.559  33.417  1.00  0.00     0.338 C 
ATOM     37  O   UNL A   1      36.714  32.472  34.451  1.00  0.00    -0.246 OA
BRANCH  36  38
ATOM     38  C   UNL A   1      38.818  32.483  33.314  1.00  0.00     0.060 A 
ATOM     39  C   UNL A   1      39.685  32.981  32.336  1.00  0.00     0.016 A 
ATOM     40  C   UNL A   1      39.428  31.874  34.340  1.00  0.00     0.016 A 
ATOM     41  C   UNL A   1      41.055  32.483  32.134  1.00  0.00     0.010 A 
ATOM     42  C   UNL A   1      40.752  31.503  34.138  1.00  0.00     0.010 A 
ATOM     43  C   UNL A   1      41.595  31.463  32.908  1.00  0.00    -0.014 A 
BRANCH  43  44
ATOM     44  C   UNL A   1      43.023  30.372  32.434  1.00  0.00     0.031 A 
ATOM     45  C   UNL A   1      43.186  28.948  31.266  1.00  0.00     0.074 A 
ATOM     46  C   UNL A   1      44.241  30.588  32.999  1.00  0.00     0.049 A 
ATOM     47  N   UNL A   1      44.233  28.153  31.092  1.00  0.00    -0.248 NA
ATOM     48  C   UNL A   1      42.217  28.443  30.189  1.00  0.00     0.031 C 
ATOM     49  C   UNL A   1      45.550  30.019  32.642  1.00  0.00     0.029 A 
ATOM     50  N   UNL A   1      44.549  31.379  34.105  1.00  0.00    -0.354 N 
ATOM     51  C   UNL A   1      43.984  27.234  30.038  1.00  0.00     0.074 A 
ATOM     52  C   UNL A   1      42.873  27.697  29.332  1.00  0.00     0.031 C 
ATOM     53  C   UNL A   1      46.386  30.166  33.683  1.00  0.00     0.029 A 
ATOM     54  C   UNL A   1      45.587  30.712  34.759  1.00  0.00     0.049 A 
ATOM     55  H   UNL A   1      44.126  32.228  34.368  1.00  0.00     0.167 HD
ATOM     56  C   UNL A   1      44.555  26.019  29.806  1.00  0.00     0.037 A 
ATOM     57  C   UNL A   1      45.360  30.159  35.975  1.00  0.00     0.037 A 
ATOM     58  C   UNL A   1      45.621  25.833  30.735  1.00  0.00     0.049 A 
ATOM     59  C   UNL A   1      45.707  28.687  35.941  1.00  0.00     0.074 A 
ATOM     60  C   UNL A   1      46.910  26.323  30.743  1.00  0.00     0.029 A 
ATOM     61  N   UNL A   1      45.275  25.532  32.043  1.00  0.00    -0.354 N 
ATOM     62  N   UNL A   1      45.671  27.920  34.874  1.00  0.00    -0.248 NA
ATOM     63  C   UNL A   1      46.289  28.015  37.093  1.00  0.00     0.031 C 
ATOM     64  C   UNL A   1      47.293  26.450  32.104  1.00  0.00     0.029 A 
ATOM     65  C   UNL A   1      46.282  25.928  32.902  1.00  0.00     0.049 A 
ATOM     66  H   UNL A   1      44.435  25.100  32.319  1.00  0.00     0.167 HD
ATOM     67  C   UNL A   1      46.176  26.681  35.185  1.00  0.00     0.074 A 
ATOM     68  C   UNL A   1      46.592  26.817  36.569  1.00  0.00     0.031 C 
ATOM     69  C   UNL A   1      46.214  25.618  34.322  1.00  0.00     0.037 A 
BRANCH  56  70
ATOM     70  C   UNL A   1      44.110  25.087  28.662  1.00  0.00     0.058 A 
ATOM     71  C   UNL A   1      43.611  23.796  28.911  1.00  0.00     0.135 A 
ATOM     72  C   UNL A   1      44.269  25.386  27.279  1.00  0.00     0.135 A 
ATOM     73  F   UNL A   1      43.337  23.407  30.165  1.00  0.00    -0.206 F 
ATOM     74  C   UNL A   1      43.430  22.836  27.892  1.00  0.00     0.059 A 
ATOM     75  C   UNL A   1      44.155  24.431  26.253  1.00  0.00     0.059 A 
ATOM     76  F   UNL A   1      44.620  26.618  26.874  1.00  0.00    -0.206 F 
ATOM     77  C   UNL A   1      43.763  23.142  26.574  1.00  0.00     0.060 A 
BRANCH  77  78
ATOM     78  S   UNL A   1      43.774  21.830  25.318  1.00  0.00     0.124 S 
ATOM     79  O   UNL A   1      43.597  22.586  24.081  1.00  0.00    -0.237 OA
ATOM     80  O   UNL A   1      45.087  21.223  25.505  1.00  0.00    -0.237 OA
ATOM     81  O   UNL A   1      42.637  20.989  25.686  1.00  0.00    -0.744 OA
ENDBRANCH  77  78
ENDBRANCH  56  70
BRANCH  57  82
ATOM     82  C   UNL A   1      44.344  30.929  36.784  1.00  0.00     0.058 A 
ATOM     83  C   UNL A   1      44.737  32.204  37.283  1.00  0.00     0.135 A 
ATOM     84  C   UNL A   1      42.968  30.664  36.819  1.00  0.00     0.135 A 
ATOM     85  F   UNL A   1      46.034  32.560  37.269  1.00  0.00    -0.206 F 
ATOM     86  C   UNL A   1      43.828  33.189  37.674  1.00  0.00     0.059 A 
ATOM     87  C   UNL A   1      42.032  31.635  37.243  1.00  0.00     0.059 A 
ATOM     88  F   UNL A   1      42.494  29.491  36.375  1.00  0.00    -0.206 F 
ATOM     89  C   UNL A   1      42.470  32.902  37.650  1.00  0.00     0.060 A 
BRANCH  89  90
ATOM     90  S   UNL A   1      41.306  34.260  37.980  1.00  0.00     0.124 S 
ATOM     91  O   UNL A   1      41.443  34.441  39.419  1.00  0.00    -0.237 OA
ATOM     92  O   UNL A   1      41.849  35.351  37.171  1.00  0.00    -0.237 OA
ATOM     93  O   UNL A   1      40.031  33.720  37.518  1.00  0.00    -0.744 OA
ENDBRANCH  89  90
ENDBRANCH  57  82
BRANCH  69  94
ATOM     94  C   UNL A   1      46.262  24.153  34.742  1.00  0.00     0.058 A 
ATOM     95  C   UNL A   1      47.445  23.396  34.810  1.00  0.00     0.135 A 
ATOM     96  C   UNL A   1      45.117  23.505  35.283  1.00  0.00     0.135 A 
ATOM     97  F   UNL A   1      48.636  23.902  34.469  1.00  0.00    -0.206 F 
ATOM     98  C   UNL A   1      47.484  22.091  35.292  1.00  0.00     0.059 A 
ATOM     99  C   UNL A   1      45.152  22.230  35.848  1.00  0.00     0.059 A 
ATOM    100  F   UNL A   1      43.909  24.087  35.299  1.00  0.00    -0.206 F 
ATOM    101  C   UNL A   1      46.336  21.516  35.817  1.00  0.00     0.060 A 
BRANCH 101 102
ATOM    102  S   UNL A   1      46.427  19.852  36.487  1.00  0.00     0.124 S 
ATOM    103  O   UNL A   1      47.871  19.670  36.611  1.00  0.00    -0.237 OA
ATOM    104  O   UNL A   1      45.699  19.975  37.747  1.00  0.00    -0.237 OA
ATOM    105  O   UNL A   1      45.773  19.036  35.470  1.00  0.00    -0.744 OA
ENDBRANCH 101 102
ENDBRANCH  69  94
ENDBRANCH  43  44
ENDBRANCH  36  38
ENDBRANCH  35  36
ENDBRANCH  34  35
ENDBRANCH  33  34
ENDBRANCH  32  33
ENDBRANCH  31  32
ENDBRANCH   1  31
TORSDOF 25
ENDMDL
