MODEL 1
REMARK VINA RESULT:     -10.3      0.000      0.000
REMARK SMILES C[C@H](Nc1cccc(F)c1C(=O)OCCOCCOCCOC(=O)c1ccc(-c2c3nc(c(-c4c(F)cc(S(=O)(=O)[O-])cc4F)c4ccc([nH]4)c(-c4c(F)cc(S(=O)(=O)[O-])cc4F)c4nc(c(-c5c(F)cc(S(=O)(=O)[O-])cc5F)c5ccc2[nH]5)C=C4)C=C3)cc1)c1cccc(Cl)c1
REMARK SMILES IDX 17 1 16 2 15 3 14 4 13 5 11 6 12 7 10 8 4 9 5 10 6 11 8 12
REMARK SMILES IDX 7 13 9 14 3 15 2 17 1 18 91 19 92 20 97 21 93 22 95 23 94 24
REMARK SMILES IDX 96 25 18 26 19 27 20 28 21 29 22 30 23 31 24 32 25 33 26 34
REMARK SMILES IDX 90 35 27 36 89 37 28 38 29 39 30 40 83 41 31 42 88 43 82 44
REMARK SMILES IDX 84 45 32 46 87 47 81 48 80 49 33 51 67 52 46 53 66 54 47 55
REMARK SMILES IDX 50 56 65 57 85 58 48 59 49 60 64 62 86 63 51 64 34 65 35 66
REMARK SMILES IDX 44 67 36 68 37 69 43 70 45 71 38 72 39 73 40 74 41 75 42 76
REMARK SMILES IDX 68 77 69 78 78 79 70 80 71 81 77 82 79 83 72 84 73 85 74 86
REMARK SMILES IDX 75 87 76 88 52 89 53 90 62 91 54 92 55 93 61 94 63 95 56 96
REMARK SMILES IDX 57 97 58 98 59 99 60 100
REMARK H PARENT 3 16 84 50 50 61
REMARK Flexibility Score: inf
ROOT
ATOM      1  C   UNL A   1      32.624  26.057  23.681  1.00  0.00     0.188 C 
ENDROOT
BRANCH   1   2
ATOM      2  O   UNL A   1      32.112  24.784  23.351  1.00  0.00    -0.376 OA
BRANCH   2   3
ATOM      3  C   UNL A   1      30.975  24.304  24.043  1.00  0.00     0.202 C 
BRANCH   3   4
ATOM      4  C   UNL A   1      31.079  23.509  25.361  1.00  0.00     0.261 C 
BRANCH   4   5
ATOM      5  O   UNL A   1      31.878  24.073  26.407  1.00  0.00    -0.460 OA
BRANCH   5   6
ATOM      6  C   UNL A   1      32.755  23.233  27.016  1.00  0.00     0.343 C 
ATOM      7  O   UNL A   1      32.529  22.537  27.978  1.00  0.00    -0.246 OA
BRANCH   6   8
ATOM      8  C   UNL A   1      33.963  23.093  26.170  1.00  0.00     0.118 A 
ATOM      9  C   UNL A   1      34.353  21.806  25.733  1.00  0.00     0.052 A 
ATOM     10  C   UNL A   1      35.480  21.711  24.902  1.00  0.00     0.027 A 
ATOM     11  C   UNL A   1      36.222  22.849  24.559  1.00  0.00     0.005 A 
ATOM     12  C   UNL A   1      34.701  24.221  25.825  1.00  0.00     0.139 A 
ATOM     13  C   UNL A   1      35.835  24.104  25.026  1.00  0.00     0.040 A 
ATOM     14  F   UNL A   1      34.348  25.436  26.267  1.00  0.00    -0.206 F 
BRANCH   9  15
ATOM     15  N   UNL A   1      33.608  20.691  26.099  1.00  0.00    -0.378 N 
ATOM     16  H   UNL A   1      33.732  20.346  27.012  1.00  0.00     0.161 HD
BRANCH  15  17
ATOM     17  C   UNL A   1      32.651  19.986  25.239  1.00  0.00     0.106 C 
ATOM     18  C   UNL A   1      32.568  20.751  23.905  1.00  0.00     0.036 C 
BRANCH  17  19
ATOM     19  C   UNL A   1      33.167  18.547  25.084  1.00  0.00    -0.025 A 
ATOM     20  C   UNL A   1      34.330  18.276  24.331  1.00  0.00     0.006 A 
ATOM     21  C   UNL A   1      32.515  17.453  25.672  1.00  0.00     0.026 A 
ATOM     22  C   UNL A   1      34.796  16.970  24.140  1.00  0.00     0.002 A 
ATOM     23  C   UNL A   1      32.972  16.151  25.463  1.00  0.00     0.041 A 
ATOM     24  C   UNL A   1      34.110  15.902  24.705  1.00  0.00     0.020 A 
ATOM     25  Cl  UNL A   1      32.098  14.845  26.144  1.00  0.00    -0.084 Cl
ENDBRANCH  17  19
ENDBRANCH  15  17
ENDBRANCH   9  15
ENDBRANCH   6   8
ENDBRANCH   5   6
ENDBRANCH   4   5
ENDBRANCH   3   4
ENDBRANCH   2   3
ENDBRANCH   1   2
BRANCH   1  26
ATOM     26  C   UNL A   1      31.530  27.049  24.131  1.00  0.00     0.188 C 
BRANCH  26  27
ATOM     27  O   UNL A   1      31.148  27.123  25.500  1.00  0.00    -0.376 OA
BRANCH  27  28
ATOM     28  C   UNL A   1      31.729  28.118  26.330  1.00  0.00     0.202 C 
BRANCH  28  29
ATOM     29  C   UNL A   1      33.166  28.590  26.058  1.00  0.00     0.261 C 
BRANCH  29  30
ATOM     30  O   UNL A   1      34.045  28.618  27.194  1.00  0.00    -0.460 OA
BRANCH  30  31
ATOM     31  C   UNL A   1      34.390  29.855  27.631  1.00  0.00     0.338 C 
ATOM     32  O   UNL A   1      33.659  30.828  27.743  1.00  0.00    -0.246 OA
BRANCH  31  33
ATOM     33  C   UNL A   1      35.786  29.851  28.115  1.00  0.00     0.060 A 
ATOM     34  C   UNL A   1      36.821  30.086  27.197  1.00  0.00     0.016 A 
ATOM     35  C   UNL A   1      36.079  29.527  29.438  1.00  0.00     0.016 A 
ATOM     36  C   UNL A   1      38.155  29.971  27.597  1.00  0.00     0.010 A 
ATOM     37  C   UNL A   1      37.415  29.390  29.830  1.00  0.00     0.010 A 
ATOM     38  C   UNL A   1      38.459  29.581  28.906  1.00  0.00    -0.014 A 
BRANCH  38  39
ATOM     39  C   UNL A   1      39.850  29.216  29.286  1.00  0.00     0.031 A 
ATOM     40  C   UNL A   1      40.701  30.244  29.971  1.00  0.00     0.074 A 
ATOM     41  C   UNL A   1      40.352  27.994  29.037  1.00  0.00     0.049 A 
ATOM     42  N   UNL A   1      41.972  30.194  30.262  1.00  0.00    -0.248 NA
ATOM     43  C   UNL A   1      40.030  31.486  30.391  1.00  0.00     0.031 C 
ATOM     44  C   UNL A   1      39.591  26.890  28.472  1.00  0.00     0.029 A 
ATOM     45  N   UNL A   1      41.609  27.469  29.212  1.00  0.00    -0.354 N 
ATOM     46  C   UNL A   1      42.256  31.390  30.906  1.00  0.00     0.074 A 
ATOM     47  C   UNL A   1      41.034  32.162  30.934  1.00  0.00     0.031 C 
ATOM     48  C   UNL A   1      40.392  25.822  28.328  1.00  0.00     0.029 A 
ATOM     49  C   UNL A   1      41.740  26.180  28.744  1.00  0.00     0.049 A 
ATOM     50  H   UNL A   1      42.347  27.967  29.633  1.00  0.00     0.167 HD
ATOM     51  C   UNL A   1      43.431  31.794  31.437  1.00  0.00     0.037 A 
ATOM     52  C   UNL A   1      42.826  25.387  28.632  1.00  0.00     0.037 A 
ATOM     53  C   UNL A   1      44.642  31.018  31.399  1.00  0.00     0.049 A 
ATOM     54  C   UNL A   1      44.157  25.926  29.091  1.00  0.00     0.074 A 
ATOM     55  C   UNL A   1      45.892  31.359  31.885  1.00  0.00     0.029 A 
ATOM     56  N   UNL A   1      44.756  29.749  30.851  1.00  0.00    -0.354 N 
ATOM     57  N   UNL A   1      44.420  27.076  29.667  1.00  0.00    -0.248 NA
ATOM     58  C   UNL A   1      45.337  25.075  28.885  1.00  0.00     0.031 C 
ATOM     59  C   UNL A   1      46.772  30.314  31.594  1.00  0.00     0.029 A 
ATOM     60  C   UNL A   1      46.059  29.299  30.973  1.00  0.00     0.049 A 
ATOM     61  H   UNL A   1      44.019  29.243  30.439  1.00  0.00     0.167 HD
ATOM     62  C   UNL A   1      45.786  27.067  29.926  1.00  0.00     0.074 A 
ATOM     63  C   UNL A   1      46.297  25.801  29.444  1.00  0.00     0.031 C 
ATOM     64  C   UNL A   1      46.546  28.022  30.513  1.00  0.00     0.037 A 
BRANCH  51  65
ATOM     65  C   UNL A   1      43.475  33.134  32.108  1.00  0.00     0.058 A 
ATOM     66  C   UNL A   1      43.232  33.251  33.485  1.00  0.00     0.135 A 
ATOM     67  C   UNL A   1      43.662  34.312  31.369  1.00  0.00     0.135 A 
ATOM     68  F   UNL A   1      43.062  32.153  34.238  1.00  0.00    -0.206 F 
ATOM     69  C   UNL A   1      43.136  34.494  34.100  1.00  0.00     0.059 A 
ATOM     70  C   UNL A   1      43.593  35.566  31.968  1.00  0.00     0.059 A 
ATOM     71  F   UNL A   1      43.928  34.249  30.054  1.00  0.00    -0.206 F 
ATOM     72  C   UNL A   1      43.308  35.646  33.331  1.00  0.00     0.060 A 
BRANCH  72  73
ATOM     73  S   UNL A   1      43.157  37.250  34.142  1.00  0.00     0.124 S 
ATOM     74  O   UNL A   1      43.312  38.170  33.021  1.00  0.00    -0.237 OA
ATOM     75  O   UNL A   1      41.819  37.173  34.723  1.00  0.00    -0.237 OA
ATOM     76  O   UNL A   1      44.252  37.246  35.109  1.00  0.00    -0.744 OA
ENDBRANCH  72  73
ENDBRANCH  51  65
BRANCH  52  77
ATOM     77  C   UNL A   1      42.725  24.018  28.049  1.00  0.00     0.058 A 
ATOM     78  C   UNL A   1      42.615  22.875  28.857  1.00  0.00     0.135 A 
ATOM     79  C   UNL A   1      42.681  23.831  26.658  1.00  0.00     0.135 A 
ATOM     80  F   UNL A   1      42.665  22.988  30.194  1.00  0.00    -0.206 F 
ATOM     81  C   UNL A   1      42.443  21.603  28.312  1.00  0.00     0.059 A 
ATOM     82  C   UNL A   1      42.491  22.572  26.089  1.00  0.00     0.059 A 
ATOM     83  F   UNL A   1      42.772  24.890  25.838  1.00  0.00    -0.206 F 
ATOM     84  C   UNL A   1      42.368  21.463  26.924  1.00  0.00     0.060 A 
BRANCH  84  85
ATOM     85  S   UNL A   1      42.006  19.828  26.233  1.00  0.00     0.124 S 
ATOM     86  O   UNL A   1      42.860  19.788  25.054  1.00  0.00    -0.237 OA
ATOM     87  O   UNL A   1      42.399  18.945  27.327  1.00  0.00    -0.237 OA
ATOM     88  O   UNL A   1      40.572  19.888  25.966  1.00  0.00    -0.744 OA
ENDBRANCH  84  85
ENDBRANCH  52  77
BRANCH  64  89
ATOM     89  C   UNL A   1      48.005  27.736  30.722  1.00  0.00     0.058 A 
ATOM     90  C   UNL A   1      48.916  27.905  29.665  1.00  0.00     0.135 A 
ATOM     91  C   UNL A   1      48.480  27.174  31.917  1.00  0.00     0.135 A 
ATOM     92  F   UNL A   1      48.510  28.435  28.501  1.00  0.00    -0.206 F 
ATOM     93  C   UNL A   1      50.237  27.487  29.773  1.00  0.00     0.059 A 
ATOM     94  C   UNL A   1      49.805  26.774  32.055  1.00  0.00     0.059 A 
ATOM     95  F   UNL A   1      47.650  27.005  32.959  1.00  0.00    -0.206 F 
ATOM     96  C   UNL A   1      50.669  26.911  30.968  1.00  0.00     0.060 A 
BRANCH  96  97
ATOM     97  S   UNL A   1      52.376  26.332  31.072  1.00  0.00     0.124 S 
ATOM     98  O   UNL A   1      52.207  25.011  31.667  1.00  0.00    -0.237 OA
ATOM     99  O   UNL A   1      52.793  26.351  29.673  1.00  0.00    -0.237 OA
ATOM    100  O   UNL A   1      53.020  27.327  31.925  1.00  0.00    -0.744 OA
ENDBRANCH  96  97
ENDBRANCH  64  89
ENDBRANCH  38  39
ENDBRANCH  31  33
ENDBRANCH  30  31
ENDBRANCH  29  30
ENDBRANCH  28  29
ENDBRANCH  27  28
ENDBRANCH  26  27
ENDBRANCH   1  26
TORSDOF 23
ENDMDL
MODEL 2
REMARK VINA RESULT:     -10.2      4.494     10.021
REMARK SMILES C[C@H](Nc1cccc(F)c1C(=O)OCCOCCOCCOC(=O)c1ccc(-c2c3nc(c(-c4c(F)cc(S(=O)(=O)[O-])cc4F)c4ccc([nH]4)c(-c4c(F)cc(S(=O)(=O)[O-])cc4F)c4nc(c(-c5c(F)cc(S(=O)(=O)[O-])cc5F)c5ccc2[nH]5)C=C4)C=C3)cc1)c1cccc(Cl)c1
REMARK SMILES IDX 17 1 16 2 15 3 14 4 13 5 11 6 12 7 10 8 4 9 5 10 6 11 8 12
REMARK SMILES IDX 7 13 9 14 3 15 2 17 1 18 91 19 92 20 97 21 93 22 95 23 94 24
REMARK SMILES IDX 96 25 18 26 19 27 20 28 21 29 22 30 23 31 24 32 25 33 26 34
REMARK SMILES IDX 90 35 27 36 89 37 28 38 29 39 30 40 83 41 31 42 88 43 82 44
REMARK SMILES IDX 84 45 32 46 87 47 81 48 80 49 33 51 67 52 46 53 66 54 47 55
REMARK SMILES IDX 50 56 65 57 85 58 48 59 49 60 64 62 86 63 51 64 34 65 35 66
REMARK SMILES IDX 44 67 36 68 37 69 43 70 45 71 38 72 39 73 40 74 41 75 42 76
REMARK SMILES IDX 68 77 69 78 78 79 70 80 71 81 77 82 79 83 72 84 73 85 74 86
REMARK SMILES IDX 75 87 76 88 52 89 53 90 62 91 54 92 55 93 61 94 63 95 56 96
REMARK SMILES IDX 57 97 58 98 59 99 60 100
REMARK H PARENT 3 16 84 50 50 61
REMARK Flexibility Score: inf
ROOT
ATOM      1  C   UNL A   1      34.501  24.722  25.604  1.00  0.00     0.188 C 
ENDROOT
BRANCH   1   2
ATOM      2  O   UNL A   1      34.183  25.986  25.065  1.00  0.00    -0.376 OA
BRANCH   2   3
ATOM      3  C   UNL A   1      33.922  27.060  25.948  1.00  0.00     0.202 C 
BRANCH   3   4
ATOM      4  C   UNL A   1      34.016  28.536  25.511  1.00  0.00     0.261 C 
BRANCH   4   5
ATOM      5  O   UNL A   1      32.956  29.049  24.695  1.00  0.00    -0.460 OA
BRANCH   5   6
ATOM      6  C   UNL A   1      31.772  29.281  25.320  1.00  0.00     0.343 C 
ATOM      7  O   UNL A   1      31.625  29.617  26.473  1.00  0.00    -0.246 OA
BRANCH   6   8
ATOM      8  C   UNL A   1      30.688  29.317  24.313  1.00  0.00     0.118 A 
ATOM      9  C   UNL A   1      30.436  28.167  23.529  1.00  0.00     0.052 A 
ATOM     10  C   UNL A   1      29.377  28.221  22.610  1.00  0.00     0.027 A 
ATOM     11  C   UNL A   1      28.627  29.392  22.441  1.00  0.00     0.005 A 
ATOM     12  C   UNL A   1      29.938  30.477  24.144  1.00  0.00     0.139 A 
ATOM     13  C   UNL A   1      28.912  30.522  23.204  1.00  0.00     0.040 A 
ATOM     14  F   UNL A   1      30.199  31.577  24.865  1.00  0.00    -0.206 F 
BRANCH   9  15
ATOM     15  N   UNL A   1      31.204  27.023  23.707  1.00  0.00    -0.378 N 
ATOM     16  H   UNL A   1      31.674  26.925  24.566  1.00  0.00     0.161 HD
BRANCH  15  17
ATOM     17  C   UNL A   1      31.374  25.948  22.723  1.00  0.00     0.106 C 
ATOM     18  C   UNL A   1      32.631  26.267  21.894  1.00  0.00     0.036 C 
BRANCH  17  19
ATOM     19  C   UNL A   1      31.481  24.633  23.511  1.00  0.00    -0.025 A 
ATOM     20  C   UNL A   1      32.215  23.543  22.995  1.00  0.00     0.006 A 
ATOM     21  C   UNL A   1      30.865  24.458  24.758  1.00  0.00     0.026 A 
ATOM     22  C   UNL A   1      32.293  22.321  23.674  1.00  0.00     0.002 A 
ATOM     23  C   UNL A   1      30.930  23.232  25.422  1.00  0.00     0.041 A 
ATOM     24  C   UNL A   1      31.642  22.164  24.892  1.00  0.00     0.020 A 
ATOM     25  Cl  UNL A   1      30.098  23.048  26.909  1.00  0.00    -0.084 Cl
ENDBRANCH  17  19
ENDBRANCH  15  17
ENDBRANCH   9  15
ENDBRANCH   6   8
ENDBRANCH   5   6
ENDBRANCH   4   5
ENDBRANCH   3   4
ENDBRANCH   2   3
ENDBRANCH   1   2
BRANCH   1  26
ATOM     26  C   UNL A   1      35.663  24.025  24.865  1.00  0.00     0.188 C 
BRANCH  26  27
ATOM     27  O   UNL A   1      36.977  24.045  25.413  1.00  0.00    -0.376 OA
BRANCH  27  28
ATOM     28  C   UNL A   1      37.462  22.898  26.095  1.00  0.00     0.202 C 
BRANCH  28  29
ATOM     29  C   UNL A   1      38.972  22.613  26.121  1.00  0.00     0.261 C 
BRANCH  29  30
ATOM     30  O   UNL A   1      39.680  23.073  27.284  1.00  0.00    -0.460 OA
BRANCH  30  31
ATOM     31  C   UNL A   1      40.712  23.919  27.038  1.00  0.00     0.338 C 
ATOM     32  O   UNL A   1      41.626  23.756  26.243  1.00  0.00    -0.246 OA
BRANCH  31  33
ATOM     33  C   UNL A   1      40.517  25.184  27.775  1.00  0.00     0.060 A 
ATOM     34  C   UNL A   1      41.528  26.156  27.731  1.00  0.00     0.016 A 
ATOM     35  C   UNL A   1      39.394  25.373  28.578  1.00  0.00     0.016 A 
ATOM     36  C   UNL A   1      41.428  27.310  28.512  1.00  0.00     0.010 A 
ATOM     37  C   UNL A   1      39.307  26.518  29.377  1.00  0.00     0.010 A 
ATOM     38  C   UNL A   1      40.336  27.479  29.371  1.00  0.00    -0.014 A 
BRANCH  38  39
ATOM     39  C   UNL A   1      40.327  28.568  30.384  1.00  0.00     0.031 A 
ATOM     40  C   UNL A   1      41.301  28.499  31.522  1.00  0.00     0.074 A 
ATOM     41  C   UNL A   1      39.477  29.607  30.296  1.00  0.00     0.049 A 
ATOM     42  N   UNL A   1      41.376  29.253  32.584  1.00  0.00    -0.248 NA
ATOM     43  C   UNL A   1      42.331  27.448  31.450  1.00  0.00     0.031 C 
ATOM     44  C   UNL A   1      38.562  29.830  29.188  1.00  0.00     0.029 A 
ATOM     45  N   UNL A   1      39.231  30.659  31.143  1.00  0.00    -0.354 N 
ATOM     46  C   UNL A   1      42.462  28.778  33.306  1.00  0.00     0.074 A 
ATOM     47  C   UNL A   1      42.997  27.648  32.578  1.00  0.00     0.031 C 
ATOM     48  C   UNL A   1      37.838  30.938  29.422  1.00  0.00     0.029 A 
ATOM     49  C   UNL A   1      38.203  31.476  30.724  1.00  0.00     0.049 A 
ATOM     50  H   UNL A   1      39.740  30.816  31.971  1.00  0.00     0.167 HD
ATOM     51  C   UNL A   1      42.970  29.256  34.463  1.00  0.00     0.037 A 
ATOM     52  C   UNL A   1      37.601  32.520  31.331  1.00  0.00     0.037 A 
ATOM     53  C   UNL A   1      42.426  30.379  35.179  1.00  0.00     0.049 A 
ATOM     54  C   UNL A   1      38.091  32.935  32.695  1.00  0.00     0.074 A 
ATOM     55  C   UNL A   1      42.856  30.919  36.378  1.00  0.00     0.029 A 
ATOM     56  N   UNL A   1      41.341  31.136  34.763  1.00  0.00    -0.354 N 
ATOM     57  N   UNL A   1      39.098  32.453  33.385  1.00  0.00    -0.248 NA
ATOM     58  C   UNL A   1      37.367  34.022  33.370  1.00  0.00     0.031 C 
ATOM     59  C   UNL A   1      42.005  31.976  36.709  1.00  0.00     0.029 A 
ATOM     60  C   UNL A   1      41.076  32.129  35.691  1.00  0.00     0.049 A 
ATOM     61  H   UNL A   1      40.834  30.990  33.932  1.00  0.00     0.167 HD
ATOM     62  C   UNL A   1      39.152  33.204  34.554  1.00  0.00     0.074 A 
ATOM     63  C   UNL A   1      38.077  34.171  34.482  1.00  0.00     0.031 C 
ATOM     64  C   UNL A   1      40.018  33.103  35.590  1.00  0.00     0.037 A 
BRANCH  51  65
ATOM     65  C   UNL A   1      44.178  28.576  35.034  1.00  0.00     0.058 A 
ATOM     66  C   UNL A   1      44.038  27.533  35.963  1.00  0.00     0.135 A 
ATOM     67  C   UNL A   1      45.473  29.022  34.734  1.00  0.00     0.135 A 
ATOM     68  F   UNL A   1      42.820  27.062  36.272  1.00  0.00    -0.206 F 
ATOM     69  C   UNL A   1      45.141  26.982  36.603  1.00  0.00     0.059 A 
ATOM     70  C   UNL A   1      46.594  28.469  35.345  1.00  0.00     0.059 A 
ATOM     71  F   UNL A   1      45.660  29.997  33.828  1.00  0.00    -0.206 F 
ATOM     72  C   UNL A   1      46.414  27.463  36.295  1.00  0.00     0.060 A 
BRANCH  72  73
ATOM     73  S   UNL A   1      47.833  26.750  37.153  1.00  0.00     0.124 S 
ATOM     74  O   UNL A   1      48.629  27.933  37.453  1.00  0.00    -0.237 OA
ATOM     75  O   UNL A   1      47.200  26.099  38.297  1.00  0.00    -0.237 OA
ATOM     76  O   UNL A   1      48.405  25.840  36.163  1.00  0.00    -0.744 OA
ENDBRANCH  72  73
ENDBRANCH  51  65
BRANCH  52  77
ATOM     77  C   UNL A   1      36.465  33.238  30.685  1.00  0.00     0.058 A 
ATOM     78  C   UNL A   1      35.144  33.100  31.143  1.00  0.00     0.135 A 
ATOM     79  C   UNL A   1      36.688  34.127  29.621  1.00  0.00     0.135 A 
ATOM     80  F   UNL A   1      34.866  32.254  32.148  1.00  0.00    -0.206 F 
ATOM     81  C   UNL A   1      34.094  33.830  30.589  1.00  0.00     0.059 A 
ATOM     82  C   UNL A   1      35.657  34.882  29.063  1.00  0.00     0.059 A 
ATOM     83  F   UNL A   1      37.932  34.305  29.150  1.00  0.00    -0.206 F 
ATOM     84  C   UNL A   1      34.362  34.731  29.557  1.00  0.00     0.060 A 
BRANCH  84  85
ATOM     85  S   UNL A   1      33.017  35.774  28.940  1.00  0.00     0.124 S 
ATOM     86  O   UNL A   1      33.734  36.874  28.309  1.00  0.00    -0.237 OA
ATOM     87  O   UNL A   1      32.326  34.866  28.028  1.00  0.00    -0.237 OA
ATOM     88  O   UNL A   1      32.279  36.120  30.151  1.00  0.00    -0.744 OA
ENDBRANCH  84  85
ENDBRANCH  52  77
BRANCH  64  89
ATOM     89  C   UNL A   1      39.888  34.083  36.720  1.00  0.00     0.058 A 
ATOM     90  C   UNL A   1      40.602  35.293  36.692  1.00  0.00     0.135 A 
ATOM     91  C   UNL A   1      39.167  33.771  37.883  1.00  0.00     0.135 A 
ATOM     92  F   UNL A   1      41.310  35.635  35.605  1.00  0.00    -0.206 F 
ATOM     93  C   UNL A   1      40.639  36.139  37.794  1.00  0.00     0.059 A 
ATOM     94  C   UNL A   1      39.169  34.617  38.988  1.00  0.00     0.059 A 
ATOM     95  F   UNL A   1      38.458  32.633  37.952  1.00  0.00    -0.206 F 
ATOM     96  C   UNL A   1      39.929  35.786  38.942  1.00  0.00     0.060 A 
BRANCH  96  97
ATOM     97  S   UNL A   1      40.027  36.875  40.379  1.00  0.00     0.124 S 
ATOM     98  O   UNL A   1      41.173  36.324  41.093  1.00  0.00    -0.237 OA
ATOM     99  O   UNL A   1      40.232  38.181  39.761  1.00  0.00    -0.237 OA
ATOM    100  O   UNL A   1      38.734  36.692  41.032  1.00  0.00    -0.744 OA
ENDBRANCH  96  97
ENDBRANCH  64  89
ENDBRANCH  38  39
ENDBRANCH  31  33
ENDBRANCH  30  31
ENDBRANCH  29  30
ENDBRANCH  28  29
ENDBRANCH  27  28
ENDBRANCH  26  27
ENDBRANCH   1  26
TORSDOF 23
ENDMDL
MODEL 3
REMARK VINA RESULT:     -10.0      4.543      9.709
REMARK SMILES C[C@H](Nc1cccc(F)c1C(=O)OCCOCCOCCOC(=O)c1ccc(-c2c3nc(c(-c4c(F)cc(S(=O)(=O)[O-])cc4F)c4ccc([nH]4)c(-c4c(F)cc(S(=O)(=O)[O-])cc4F)c4nc(c(-c5c(F)cc(S(=O)(=O)[O-])cc5F)c5ccc2[nH]5)C=C4)C=C3)cc1)c1cccc(Cl)c1
REMARK SMILES IDX 17 1 16 2 15 3 14 4 13 5 11 6 12 7 10 8 4 9 5 10 6 11 8 12
REMARK SMILES IDX 7 13 9 14 3 15 2 17 1 18 91 19 92 20 97 21 93 22 95 23 94 24
REMARK SMILES IDX 96 25 18 26 19 27 20 28 21 29 22 30 23 31 24 32 25 33 26 34
REMARK SMILES IDX 90 35 27 36 89 37 28 38 29 39 30 40 83 41 31 42 88 43 82 44
REMARK SMILES IDX 84 45 32 46 87 47 81 48 80 49 33 51 67 52 46 53 66 54 47 55
REMARK SMILES IDX 50 56 65 57 85 58 48 59 49 60 64 62 86 63 51 64 34 65 35 66
REMARK SMILES IDX 44 67 36 68 37 69 43 70 45 71 38 72 39 73 40 74 41 75 42 76
REMARK SMILES IDX 68 77 69 78 78 79 70 80 71 81 77 82 79 83 72 84 73 85 74 86
REMARK SMILES IDX 75 87 76 88 52 89 53 90 62 91 54 92 55 93 61 94 63 95 56 96
REMARK SMILES IDX 57 97 58 98 59 99 60 100
REMARK H PARENT 3 16 84 50 50 61
REMARK Flexibility Score: inf
ROOT
ATOM      1  C   UNL A   1      40.524  20.706  26.677  1.00  0.00     0.188 C 
ENDROOT
BRANCH   1   2
ATOM      2  O   UNL A   1      39.641  20.908  25.595  1.00  0.00    -0.376 OA
BRANCH   2   3
ATOM      3  C   UNL A   1      38.574  21.825  25.745  1.00  0.00     0.202 C 
BRANCH   3   4
ATOM      4  C   UNL A   1      37.338  21.818  24.823  1.00  0.00     0.261 C 
BRANCH   4   5
ATOM      5  O   UNL A   1      36.083  22.188  25.405  1.00  0.00    -0.460 OA
BRANCH   5   6
ATOM      6  C   UNL A   1      35.149  22.691  24.555  1.00  0.00     0.343 C 
ATOM      7  O   UNL A   1      35.165  22.614  23.348  1.00  0.00    -0.246 OA
BRANCH   6   8
ATOM      8  C   UNL A   1      33.966  23.126  25.331  1.00  0.00     0.118 A 
ATOM      9  C   UNL A   1      32.991  22.168  25.697  1.00  0.00     0.052 A 
ATOM     10  C   UNL A   1      31.901  22.605  26.465  1.00  0.00     0.027 A 
ATOM     11  C   UNL A   1      31.759  23.954  26.815  1.00  0.00     0.005 A 
ATOM     12  C   UNL A   1      33.822  24.464  25.684  1.00  0.00     0.139 A 
ATOM     13  C   UNL A   1      32.718  24.885  26.419  1.00  0.00     0.040 A 
ATOM     14  F   UNL A   1      34.731  25.376  25.308  1.00  0.00    -0.206 F 
BRANCH   9  15
ATOM     15  N   UNL A   1      33.149  20.838  25.325  1.00  0.00    -0.378 N 
ATOM     16  H   UNL A   1      33.943  20.367  25.664  1.00  0.00     0.161 HD
BRANCH  15  17
ATOM     17  C   UNL A   1      32.231  20.077  24.470  1.00  0.00     0.106 C 
ATOM     18  C   UNL A   1      32.189  20.771  23.096  1.00  0.00     0.036 C 
BRANCH  17  19
ATOM     19  C   UNL A   1      32.766  18.638  24.410  1.00  0.00    -0.025 A 
ATOM     20  C   UNL A   1      33.721  18.266  23.439  1.00  0.00     0.006 A 
ATOM     21  C   UNL A   1      32.338  17.645  25.301  1.00  0.00     0.026 A 
ATOM     22  C   UNL A   1      34.192  16.952  23.336  1.00  0.00     0.002 A 
ATOM     23  C   UNL A   1      32.796  16.331  25.183  1.00  0.00     0.041 A 
ATOM     24  C   UNL A   1      33.724  15.979  24.210  1.00  0.00     0.020 A 
ATOM     25  Cl  UNL A   1      32.186  15.140  26.251  1.00  0.00    -0.084 Cl
ENDBRANCH  17  19
ENDBRANCH  15  17
ENDBRANCH   9  15
ENDBRANCH   6   8
ENDBRANCH   5   6
ENDBRANCH   4   5
ENDBRANCH   3   4
ENDBRANCH   2   3
ENDBRANCH   1   2
BRANCH   1  26
ATOM     26  C   UNL A   1      41.685  21.723  26.707  1.00  0.00     0.188 C 
BRANCH  26  27
ATOM     27  O   UNL A   1      42.803  21.560  25.841  1.00  0.00    -0.376 OA
BRANCH  27  28
ATOM     28  C   UNL A   1      43.300  22.684  25.129  1.00  0.00     0.202 C 
BRANCH  28  29
ATOM     29  C   UNL A   1      42.570  24.032  25.234  1.00  0.00     0.261 C 
BRANCH  29  30
ATOM     30  O   UNL A   1      43.100  24.963  26.192  1.00  0.00    -0.460 OA
BRANCH  30  31
ATOM     31  C   UNL A   1      42.637  26.233  26.086  1.00  0.00     0.338 C 
ATOM     32  O   UNL A   1      42.219  26.784  25.078  1.00  0.00    -0.246 OA
BRANCH  31  33
ATOM     33  C   UNL A   1      42.559  26.858  27.422  1.00  0.00     0.060 A 
ATOM     34  C   UNL A   1      41.872  26.187  28.445  1.00  0.00     0.016 A 
ATOM     35  C   UNL A   1      43.076  28.134  27.641  1.00  0.00     0.016 A 
ATOM     36  C   UNL A   1      41.676  26.804  29.683  1.00  0.00     0.010 A 
ATOM     37  C   UNL A   1      42.860  28.758  28.874  1.00  0.00     0.010 A 
ATOM     38  C   UNL A   1      42.134  28.110  29.892  1.00  0.00    -0.014 A 
BRANCH  38  39
ATOM     39  C   UNL A   1      41.730  28.872  31.103  1.00  0.00     0.031 A 
ATOM     40  C   UNL A   1      40.574  29.823  31.000  1.00  0.00     0.074 A 
ATOM     41  C   UNL A   1      42.369  28.723  32.277  1.00  0.00     0.049 A 
ATOM     42  N   UNL A   1      40.142  30.686  31.879  1.00  0.00    -0.248 NA
ATOM     43  C   UNL A   1      39.798  29.789  29.749  1.00  0.00     0.031 C 
ATOM     44  C   UNL A   1      43.433  27.762  32.519  1.00  0.00     0.029 A 
ATOM     45  N   UNL A   1      42.233  29.372  33.479  1.00  0.00    -0.354 N 
ATOM     46  C   UNL A   1      39.041  31.295  31.295  1.00  0.00     0.074 A 
ATOM     47  C   UNL A   1      38.889  30.728  29.973  1.00  0.00     0.031 C 
ATOM     48  C   UNL A   1      43.871  27.889  33.782  1.00  0.00     0.029 A 
ATOM     49  C   UNL A   1      43.152  28.977  34.427  1.00  0.00     0.049 A 
ATOM     50  H   UNL A   1      41.544  30.056  33.649  1.00  0.00     0.167 HD
ATOM     51  C   UNL A   1      38.225  32.232  31.827  1.00  0.00     0.037 A 
ATOM     52  C   UNL A   1      43.409  29.457  35.662  1.00  0.00     0.037 A 
ATOM     53  C   UNL A   1      38.389  32.791  33.142  1.00  0.00     0.049 A 
ATOM     54  C   UNL A   1      42.580  30.610  36.169  1.00  0.00     0.074 A 
ATOM     55  C   UNL A   1      37.628  33.770  33.757  1.00  0.00     0.029 A 
ATOM     56  N   UNL A   1      39.374  32.421  34.046  1.00  0.00    -0.354 N 
ATOM     57  N   UNL A   1      41.562  31.203  35.592  1.00  0.00    -0.248 NA
ATOM     58  C   UNL A   1      42.932  31.166  37.484  1.00  0.00     0.031 C 
ATOM     59  C   UNL A   1      38.178  34.021  35.016  1.00  0.00     0.029 A 
ATOM     60  C   UNL A   1      39.250  33.163  35.207  1.00  0.00     0.049 A 
ATOM     61  H   UNL A   1      40.058  31.731  33.885  1.00  0.00     0.167 HD
ATOM     62  C   UNL A   1      41.128  32.173  36.489  1.00  0.00     0.074 A 
ATOM     63  C   UNL A   1      41.994  32.091  37.646  1.00  0.00     0.031 C 
ATOM     64  C   UNL A   1      40.103  33.049  36.364  1.00  0.00     0.037 A 
BRANCH  51  65
ATOM     65  C   UNL A   1      37.076  32.717  30.994  1.00  0.00     0.058 A 
ATOM     66  C   UNL A   1      35.818  32.102  31.085  1.00  0.00     0.135 A 
ATOM     67  C   UNL A   1      37.248  33.728  30.036  1.00  0.00     0.135 A 
ATOM     68  F   UNL A   1      35.599  31.141  31.996  1.00  0.00    -0.206 F 
ATOM     69  C   UNL A   1      34.779  32.449  30.228  1.00  0.00     0.059 A 
ATOM     70  C   UNL A   1      36.217  34.106  29.184  1.00  0.00     0.059 A 
ATOM     71  F   UNL A   1      38.426  34.366  29.932  1.00  0.00    -0.206 F 
ATOM     72  C   UNL A   1      34.992  33.445  29.274  1.00  0.00     0.060 A 
BRANCH  72  73
ATOM     73  S   UNL A   1      33.640  33.865  28.156  1.00  0.00     0.124 S 
ATOM     74  O   UNL A   1      34.308  34.721  27.183  1.00  0.00    -0.237 OA
ATOM     75  O   UNL A   1      33.227  32.550  27.671  1.00  0.00    -0.237 OA
ATOM     76  O   UNL A   1      32.675  34.533  29.026  1.00  0.00    -0.744 OA
ENDBRANCH  72  73
ENDBRANCH  51  65
BRANCH  52  77
ATOM     77  C   UNL A   1      44.497  28.880  36.503  1.00  0.00     0.058 A 
ATOM     78  C   UNL A   1      45.759  29.490  36.602  1.00  0.00     0.135 A 
ATOM     79  C   UNL A   1      44.276  27.727  37.273  1.00  0.00     0.135 A 
ATOM     80  F   UNL A   1      46.035  30.586  35.879  1.00  0.00    -0.206 F 
ATOM     81  C   UNL A   1      46.750  28.994  37.447  1.00  0.00     0.059 A 
ATOM     82  C   UNL A   1      45.245  27.223  38.140  1.00  0.00     0.059 A 
ATOM     83  F   UNL A   1      43.086  27.109  37.224  1.00  0.00    -0.206 F 
ATOM     84  C   UNL A   1      46.479  27.866  38.224  1.00  0.00     0.060 A 
BRANCH  84  85
ATOM     85  S   UNL A   1      47.722  27.313  39.420  1.00  0.00     0.124 S 
ATOM     86  O   UNL A   1      46.966  27.270  40.664  1.00  0.00    -0.237 OA
ATOM     87  O   UNL A   1      48.111  26.017  38.872  1.00  0.00    -0.237 OA
ATOM     88  O   UNL A   1      48.744  28.353  39.344  1.00  0.00    -0.744 OA
ENDBRANCH  84  85
ENDBRANCH  52  77
BRANCH  64  89
ATOM     89  C   UNL A   1      39.812  33.967  37.516  1.00  0.00     0.058 A 
ATOM     90  C   UNL A   1      40.404  35.240  37.572  1.00  0.00     0.135 A 
ATOM     91  C   UNL A   1      39.060  33.542  38.622  1.00  0.00     0.135 A 
ATOM     92  F   UNL A   1      41.135  35.691  36.541  1.00  0.00    -0.206 F 
ATOM     93  C   UNL A   1      40.294  36.042  38.701  1.00  0.00     0.059 A 
ATOM     94  C   UNL A   1      38.914  34.340  39.752  1.00  0.00     0.059 A 
ATOM     95  F   UNL A   1      38.464  32.338  38.610  1.00  0.00    -0.206 F 
ATOM     96  C   UNL A   1      39.557  35.578  39.791  1.00  0.00     0.060 A 
BRANCH  96  97
ATOM     97  S   UNL A   1      39.465  36.614  41.266  1.00  0.00     0.124 S 
ATOM     98  O   UNL A   1      38.579  35.835  42.124  1.00  0.00    -0.237 OA
ATOM     99  O   UNL A   1      40.861  36.677  41.686  1.00  0.00    -0.237 OA
ATOM    100  O   UNL A   1      38.909  37.868  40.766  1.00  0.00    -0.744 OA
ENDBRANCH  96  97
ENDBRANCH  64  89
ENDBRANCH  38  39
ENDBRANCH  31  33
ENDBRANCH  30  31
ENDBRANCH  29  30
ENDBRANCH  28  29
ENDBRANCH  27  28
ENDBRANCH  26  27
ENDBRANCH   1  26
TORSDOF 23
ENDMDL
