MODEL 1
REMARK VINA RESULT:     -11.5      0.000      0.000
REMARK SMILES O=C(OCCOCCOCCOC(=O)c1ccccc1C(=O)Nc1ccc(N2C(=O)[C@H]3[C@@H]4CC[C@@H](C4)[C@@H]3C2=O)cc1)c1ccc(-c2c3nc(c(-c4c(F)cc(S(=O)(=O)[O-])cc4F)c4ccc([nH]4)c(-c4c(F)cc(S(=O)(=O)[O-])cc4F)c4nc(c(-c5c(F)cc(S(=O)(=O)[O-])cc5F)c5ccc2[nH]5)C=C4)C=C3)cc1
REMARK SMILES IDX 7 1 6 2 5 3 4 4 3 5 2 6 1 7 42 8 43 9 107 10 44 11 106 12
REMARK SMILES IDX 45 13 46 14 47 15 100 16 48 17 105 18 99 19 101 20 49 21
REMARK SMILES IDX 104 22 98 23 97 24 50 26 84 27 63 28 83 29 64 30 67 31 82 32
REMARK SMILES IDX 102 33 65 34 66 35 81 37 103 38 68 39 51 40 52 41 61 42
REMARK SMILES IDX 53 43 54 44 60 45 62 46 55 47 56 48 57 49 58 50 59 51 85 52
REMARK SMILES IDX 86 53 95 54 87 55 88 56 94 57 96 58 89 59 90 60 91 61 92 62
REMARK SMILES IDX 93 63 69 64 70 65 79 66 71 67 72 68 78 69 80 70 73 71 74 72
REMARK SMILES IDX 75 73 76 74 77 75 8 76 9 77 10 78 11 79 12 80 13 81 14 82
REMARK SMILES IDX 15 83 16 84 20 85 17 86 19 87 18 88 21 89 22 90 23 91 24 93
REMARK SMILES IDX 25 94 41 95 26 96 40 97 27 98 28 99 29 100 38 101 30 102
REMARK SMILES IDX 31 103 37 104 39 105 32 106 35 107 33 108 36 109 34 110
REMARK H PARENT 101 25 67 36 23 92
REMARK Flexibility Score: inf
ROOT
ATOM      1  C   UNL A   1      36.836  22.896  25.711  1.00  0.00     0.188 C 
ENDROOT
BRANCH   1   2
ATOM      2  O   UNL A   1      37.344  21.562  25.637  1.00  0.00    -0.376 OA
BRANCH   2   3
ATOM      3  C   UNL A   1      38.755  21.338  25.772  1.00  0.00     0.202 C 
BRANCH   3   4
ATOM      4  C   UNL A   1      39.255  19.897  25.773  1.00  0.00     0.261 C 
BRANCH   4   5
ATOM      5  O   UNL A   1      40.486  19.664  26.465  1.00  0.00    -0.460 OA
BRANCH   5   6
ATOM      6  C   UNL A   1      41.758  19.875  26.048  1.00  0.00     0.338 C 
ATOM      7  O   UNL A   1      42.292  18.993  25.376  1.00  0.00    -0.246 OA
BRANCH   6   8
ATOM      8  C   UNL A   1      42.591  21.054  26.457  1.00  0.00     0.060 A 
ATOM      9  C   UNL A   1      42.537  21.666  27.710  1.00  0.00     0.016 A 
ATOM     10  C   UNL A   1      43.518  21.549  25.517  1.00  0.00     0.016 A 
ATOM     11  C   UNL A   1      43.400  22.677  28.062  1.00  0.00     0.010 A 
ATOM     12  C   UNL A   1      44.300  22.669  25.808  1.00  0.00     0.010 A 
ATOM     13  C   UNL A   1      44.192  23.246  27.074  1.00  0.00    -0.014 A 
BRANCH  13  14
ATOM     14  C   UNL A   1      44.478  24.659  27.333  1.00  0.00     0.031 A 
ATOM     15  C   UNL A   1      45.892  25.093  27.056  1.00  0.00     0.074 A 
ATOM     16  C   UNL A   1      43.457  25.520  27.445  1.00  0.00     0.049 A 
ATOM     17  N   UNL A   1      46.412  26.285  27.066  1.00  0.00    -0.248 NA
ATOM     18  C   UNL A   1      46.837  24.037  26.626  1.00  0.00     0.031 C 
ATOM     19  C   UNL A   1      42.038  25.151  27.416  1.00  0.00     0.029 A 
ATOM     20  N   UNL A   1      43.450  26.878  27.549  1.00  0.00    -0.354 N 
ATOM     21  C   UNL A   1      47.730  26.119  26.655  1.00  0.00     0.074 A 
ATOM     22  C   UNL A   1      47.934  24.725  26.366  1.00  0.00     0.031 C 
ATOM     23  C   UNL A   1      41.298  26.265  27.533  1.00  0.00     0.029 A 
ATOM     24  C   UNL A   1      42.191  27.399  27.717  1.00  0.00     0.049 A 
ATOM     25  H   UNL A   1      44.264  27.429  27.507  1.00  0.00     0.167 HD
ATOM     26  C   UNL A   1      48.693  27.061  26.572  1.00  0.00     0.037 A 
ATOM     27  C   UNL A   1      41.836  28.651  28.055  1.00  0.00     0.037 A 
ATOM     28  C   UNL A   1      48.442  28.419  26.956  1.00  0.00     0.049 A 
ATOM     29  C   UNL A   1      42.958  29.649  28.184  1.00  0.00     0.074 A 
ATOM     30  C   UNL A   1      49.329  29.464  27.102  1.00  0.00     0.029 A 
ATOM     31  N   UNL A   1      47.179  28.901  27.289  1.00  0.00    -0.354 N 
ATOM     32  N   UNL A   1      44.237  29.479  27.929  1.00  0.00    -0.248 NA
ATOM     33  C   UNL A   1      42.608  30.990  28.655  1.00  0.00     0.031 C 
ATOM     34  C   UNL A   1      48.609  30.559  27.593  1.00  0.00     0.029 A 
ATOM     35  C   UNL A   1      47.263  30.219  27.679  1.00  0.00     0.049 A 
ATOM     36  H   UNL A   1      46.346  28.376  27.252  1.00  0.00     0.167 HD
ATOM     37  C   UNL A   1      44.847  30.697  28.184  1.00  0.00     0.074 A 
ATOM     38  C   UNL A   1      43.787  31.598  28.607  1.00  0.00     0.031 C 
ATOM     39  C   UNL A   1      46.153  31.053  28.082  1.00  0.00     0.037 A 
BRANCH  26  40
ATOM     40  C   UNL A   1      50.075  26.587  26.225  1.00  0.00     0.058 A 
ATOM     41  C   UNL A   1      51.000  26.179  27.202  1.00  0.00     0.135 A 
ATOM     42  C   UNL A   1      50.520  26.655  24.895  1.00  0.00     0.135 A 
ATOM     43  F   UNL A   1      50.651  26.154  28.497  1.00  0.00    -0.206 F 
ATOM     44  C   UNL A   1      52.321  25.878  26.872  1.00  0.00     0.059 A 
ATOM     45  C   UNL A   1      51.827  26.338  24.540  1.00  0.00     0.059 A 
ATOM     46  F   UNL A   1      49.690  27.078  23.928  1.00  0.00    -0.206 F 
ATOM     47  C   UNL A   1      52.725  25.964  25.538  1.00  0.00     0.060 A 
BRANCH  47  48
ATOM     48  S   UNL A   1      54.443  25.591  25.125  1.00  0.00     0.124 S 
ATOM     49  O   UNL A   1      54.406  24.136  25.000  1.00  0.00    -0.237 OA
ATOM     50  O   UNL A   1      54.630  26.329  23.880  1.00  0.00    -0.237 OA
ATOM     51  O   UNL A   1      55.187  26.102  26.271  1.00  0.00    -0.744 OA
ENDBRANCH  47  48
ENDBRANCH  26  40
BRANCH  27  52
ATOM     52  C   UNL A   1      40.423  28.971  28.396  1.00  0.00     0.058 A 
ATOM     53  C   UNL A   1      39.476  29.302  27.416  1.00  0.00     0.135 A 
ATOM     54  C   UNL A   1      39.989  28.961  29.735  1.00  0.00     0.135 A 
ATOM     55  F   UNL A   1      39.832  29.330  26.123  1.00  0.00    -0.206 F 
ATOM     56  C   UNL A   1      38.163  29.631  27.751  1.00  0.00     0.059 A 
ATOM     57  C   UNL A   1      38.678  29.261  30.090  1.00  0.00     0.059 A 
ATOM     58  F   UNL A   1      40.843  28.640  30.721  1.00  0.00    -0.206 F 
ATOM     59  C   UNL A   1      37.775  29.612  29.092  1.00  0.00     0.060 A 
BRANCH  59  60
ATOM     60  S   UNL A   1      36.073  30.045  29.519  1.00  0.00     0.124 S 
ATOM     61  O   UNL A   1      35.931  29.415  30.826  1.00  0.00    -0.237 OA
ATOM     62  O   UNL A   1      36.116  31.503  29.513  1.00  0.00    -0.237 OA
ATOM     63  O   UNL A   1      35.294  29.443  28.440  1.00  0.00    -0.744 OA
ENDBRANCH  59  60
ENDBRANCH  27  52
BRANCH  39  64
ATOM     64  C   UNL A   1      46.484  32.478  28.390  1.00  0.00     0.058 A 
ATOM     65  C   UNL A   1      46.914  32.874  29.665  1.00  0.00     0.135 A 
ATOM     66  C   UNL A   1      46.460  33.434  27.363  1.00  0.00     0.135 A 
ATOM     67  F   UNL A   1      46.947  31.990  30.674  1.00  0.00    -0.206 F 
ATOM     68  C   UNL A   1      47.296  34.184  29.915  1.00  0.00     0.059 A 
ATOM     69  C   UNL A   1      46.870  34.739  27.583  1.00  0.00     0.059 A 
ATOM     70  F   UNL A   1      46.070  33.088  26.125  1.00  0.00    -0.206 F 
ATOM     71  C   UNL A   1      47.277  35.106  28.865  1.00  0.00     0.060 A 
BRANCH  71  72
ATOM     72  S   UNL A   1      47.831  36.789  29.190  1.00  0.00     0.124 S 
ATOM     73  O   UNL A   1      46.589  37.428  29.613  1.00  0.00    -0.237 OA
ATOM     74  O   UNL A   1      48.832  36.591  30.234  1.00  0.00    -0.237 OA
ATOM     75  O   UNL A   1      48.357  37.228  27.901  1.00  0.00    -0.744 OA
ENDBRANCH  71  72
ENDBRANCH  39  64
ENDBRANCH  13  14
ENDBRANCH   6   8
ENDBRANCH   5   6
ENDBRANCH   4   5
ENDBRANCH   3   4
ENDBRANCH   2   3
ENDBRANCH   1   2
BRANCH   1  76
ATOM     76  C   UNL A   1      36.647  23.590  24.360  1.00  0.00     0.188 C 
BRANCH  76  77
ATOM     77  O   UNL A   1      35.574  23.117  23.583  1.00  0.00    -0.376 OA
BRANCH  77  78
ATOM     78  C   UNL A   1      34.470  23.981  23.517  1.00  0.00     0.202 C 
BRANCH  78  79
ATOM     79  C   UNL A   1      34.381  25.267  24.311  1.00  0.00     0.261 C 
BRANCH  79  80
ATOM     80  O   UNL A   1      33.669  26.334  23.749  1.00  0.00    -0.460 OA
BRANCH  80  81
ATOM     81  C   UNL A   1      33.632  27.427  24.545  1.00  0.00     0.339 C 
ATOM     82  O   UNL A   1      34.397  27.870  25.351  1.00  0.00    -0.246 OA
BRANCH  81  83
ATOM     83  C   UNL A   1      32.403  28.063  24.184  1.00  0.00     0.072 A 
ATOM     84  C   UNL A   1      32.432  28.664  22.900  1.00  0.00     0.016 A 
ATOM     85  C   UNL A   1      31.274  27.944  24.985  1.00  0.00     0.054 A 
ATOM     86  C   UNL A   1      31.276  29.181  22.351  1.00  0.00     0.001 A 
ATOM     87  C   UNL A   1      30.116  28.514  24.389  1.00  0.00     0.015 A 
ATOM     88  C   UNL A   1      30.114  29.115  23.105  1.00  0.00     0.001 A 
BRANCH  85  89
ATOM     89  C   UNL A   1      31.053  27.105  26.243  1.00  0.00     0.256 C 
ATOM     90  O   UNL A   1      31.028  27.781  27.288  1.00  0.00    -0.269 OA
ATOM     91  N   UNL A   1      30.685  25.781  26.499  1.00  0.00    -0.322 N 
ATOM     92  H   UNL A   1      30.235  25.759  27.374  1.00  0.00     0.170 HD
BRANCH  91  93
ATOM     93  C   UNL A   1      30.707  24.452  25.989  1.00  0.00     0.041 A 
ATOM     94  C   UNL A   1      30.820  24.298  24.583  1.00  0.00     0.028 A 
ATOM     95  C   UNL A   1      30.724  23.281  26.723  1.00  0.00     0.028 A 
ATOM     96  C   UNL A   1      31.280  23.078  23.993  1.00  0.00     0.029 A 
ATOM     97  C   UNL A   1      31.108  22.034  26.121  1.00  0.00     0.029 A 
ATOM     98  C   UNL A   1      31.533  21.936  24.774  1.00  0.00     0.052 A 
BRANCH  98  99
ATOM     99  N   UNL A   1      32.513  20.903  24.384  1.00  0.00    -0.250 N 
ATOM    100  C   UNL A   1      32.327  20.013  23.309  1.00  0.00     0.237 C 
ATOM    101  C   UNL A   1      33.515  20.396  25.254  1.00  0.00     0.237 C 
ATOM    102  O   UNL A   1      31.790  20.198  22.232  1.00  0.00    -0.274 OA
ATOM    103  C   UNL A   1      32.818  18.685  23.827  1.00  0.00     0.095 C 
ATOM    104  C   UNL A   1      34.027  19.118  24.619  1.00  0.00     0.095 C 
ATOM    105  O   UNL A   1      33.957  20.860  26.296  1.00  0.00    -0.274 OA
ATOM    106  C   UNL A   1      33.282  17.326  23.257  1.00  0.00     0.002 C 
ATOM    107  C   UNL A   1      34.553  17.740  25.086  1.00  0.00     0.002 C 
ATOM    108  C   UNL A   1      32.737  16.277  24.254  1.00  0.00     0.005 C 
ATOM    109  C   UNL A   1      34.778  17.183  23.661  1.00  0.00     0.009 C 
ATOM    110  C   UNL A   1      33.501  16.680  25.549  1.00  0.00     0.005 C 
ENDBRANCH  98  99
ENDBRANCH  91  93
ENDBRANCH  85  89
ENDBRANCH  81  83
ENDBRANCH  80  81
ENDBRANCH  79  80
ENDBRANCH  78  79
ENDBRANCH  77  78
ENDBRANCH  76  77
ENDBRANCH   1  76
TORSDOF 23
ENDMDL
MODEL 2
REMARK VINA RESULT:     -11.3      4.451      9.354
REMARK SMILES O=C(OCCOCCOCCOC(=O)c1ccccc1C(=O)Nc1ccc(N2C(=O)[C@H]3[C@@H]4CC[C@@H](C4)[C@@H]3C2=O)cc1)c1ccc(-c2c3nc(c(-c4c(F)cc(S(=O)(=O)[O-])cc4F)c4ccc([nH]4)c(-c4c(F)cc(S(=O)(=O)[O-])cc4F)c4nc(c(-c5c(F)cc(S(=O)(=O)[O-])cc5F)c5ccc2[nH]5)C=C4)C=C3)cc1
REMARK SMILES IDX 7 1 6 2 5 3 4 4 3 5 2 6 1 7 42 8 43 9 107 10 44 11 106 12
REMARK SMILES IDX 45 13 46 14 47 15 100 16 48 17 105 18 99 19 101 20 49 21
REMARK SMILES IDX 104 22 98 23 97 24 50 26 84 27 63 28 83 29 64 30 67 31 82 32
REMARK SMILES IDX 102 33 65 34 66 35 81 37 103 38 68 39 51 40 52 41 61 42
REMARK SMILES IDX 53 43 54 44 60 45 62 46 55 47 56 48 57 49 58 50 59 51 85 52
REMARK SMILES IDX 86 53 95 54 87 55 88 56 94 57 96 58 89 59 90 60 91 61 92 62
REMARK SMILES IDX 93 63 69 64 70 65 79 66 71 67 72 68 78 69 80 70 73 71 74 72
REMARK SMILES IDX 75 73 76 74 77 75 8 76 9 77 10 78 11 79 12 80 13 81 14 82
REMARK SMILES IDX 15 83 16 84 20 85 17 86 19 87 18 88 21 89 22 90 23 91 24 93
REMARK SMILES IDX 25 94 41 95 26 96 40 97 27 98 28 99 29 100 38 101 30 102
REMARK SMILES IDX 31 103 37 104 39 105 32 106 35 107 33 108 36 109 34 110
REMARK H PARENT 101 25 67 36 23 92
REMARK Flexibility Score: inf
ROOT
ATOM      1  C   UNL A   1      34.599  23.335  27.093  1.00  0.00     0.188 C 
ENDROOT
BRANCH   1   2
ATOM      2  O   UNL A   1      35.893  22.754  26.916  1.00  0.00    -0.376 OA
BRANCH   2   3
ATOM      3  C   UNL A   1      36.930  23.522  26.287  1.00  0.00     0.202 C 
BRANCH   3   4
ATOM      4  C   UNL A   1      38.104  22.770  25.669  1.00  0.00     0.261 C 
BRANCH   4   5
ATOM      5  O   UNL A   1      39.260  22.626  26.500  1.00  0.00    -0.460 OA
BRANCH   5   6
ATOM      6  C   UNL A   1      40.364  23.407  26.576  1.00  0.00     0.338 C 
ATOM      7  O   UNL A   1      41.433  22.922  26.207  1.00  0.00    -0.246 OA
BRANCH   6   8
ATOM      8  C   UNL A   1      40.385  24.774  27.195  1.00  0.00     0.060 A 
ATOM      9  C   UNL A   1      41.167  25.837  26.743  1.00  0.00     0.016 A 
ATOM     10  C   UNL A   1      39.521  25.004  28.286  1.00  0.00     0.016 A 
ATOM     11  C   UNL A   1      41.065  27.096  27.286  1.00  0.00     0.010 A 
ATOM     12  C   UNL A   1      39.514  26.236  28.942  1.00  0.00     0.010 A 
ATOM     13  C   UNL A   1      40.329  27.258  28.451  1.00  0.00    -0.014 A 
BRANCH  13  14
ATOM     14  C   UNL A   1      40.845  28.339  29.293  1.00  0.00     0.031 A 
ATOM     15  C   UNL A   1      39.892  29.479  29.537  1.00  0.00     0.074 A 
ATOM     16  C   UNL A   1      41.926  28.114  30.052  1.00  0.00     0.049 A 
ATOM     17  N   UNL A   1      40.009  30.503  30.328  1.00  0.00    -0.248 NA
ATOM     18  C   UNL A   1      38.584  29.408  28.847  1.00  0.00     0.031 C 
ATOM     19  C   UNL A   1      42.711  26.874  30.053  1.00  0.00     0.029 A 
ATOM     20  N   UNL A   1      42.517  28.888  31.005  1.00  0.00    -0.354 N 
ATOM     21  C   UNL A   1      38.806  31.191  30.226  1.00  0.00     0.074 A 
ATOM     22  C   UNL A   1      37.950  30.461  29.328  1.00  0.00     0.031 C 
ATOM     23  C   UNL A   1      43.704  26.992  30.948  1.00  0.00     0.029 A 
ATOM     24  C   UNL A   1      43.662  28.330  31.518  1.00  0.00     0.049 A 
ATOM     25  H   UNL A   1      42.160  29.757  31.297  1.00  0.00     0.167 HD
ATOM     26  C   UNL A   1      38.472  32.362  30.810  1.00  0.00     0.037 A 
ATOM     27  C   UNL A   1      44.594  28.895  32.305  1.00  0.00     0.037 A 
ATOM     28  C   UNL A   1      39.405  33.079  31.628  1.00  0.00     0.049 A 
ATOM     29  C   UNL A   1      44.313  30.302  32.766  1.00  0.00     0.074 A 
ATOM     30  C   UNL A   1      39.308  34.349  32.155  1.00  0.00     0.029 A 
ATOM     31  N   UNL A   1      40.643  32.569  32.007  1.00  0.00    -0.354 N 
ATOM     32  N   UNL A   1      43.232  31.026  32.568  1.00  0.00    -0.248 NA
ATOM     33  C   UNL A   1      45.360  30.976  33.535  1.00  0.00     0.031 C 
ATOM     34  C   UNL A   1      40.521  34.630  32.795  1.00  0.00     0.029 A 
ATOM     35  C   UNL A   1      41.342  33.509  32.731  1.00  0.00     0.049 A 
ATOM     36  H   UNL A   1      40.973  31.667  31.789  1.00  0.00     0.167 HD
ATOM     37  C   UNL A   1      43.456  32.235  33.207  1.00  0.00     0.074 A 
ATOM     38  C   UNL A   1      44.778  32.137  33.806  1.00  0.00     0.031 C 
ATOM     39  C   UNL A   1      42.658  33.330  33.300  1.00  0.00     0.037 A 
BRANCH  26  40
ATOM     40  C   UNL A   1      37.149  32.958  30.423  1.00  0.00     0.058 A 
ATOM     41  C   UNL A   1      36.951  33.634  29.207  1.00  0.00     0.135 A 
ATOM     42  C   UNL A   1      36.088  32.951  31.344  1.00  0.00     0.135 A 
ATOM     43  F   UNL A   1      37.949  33.728  28.314  1.00  0.00    -0.206 F 
ATOM     44  C   UNL A   1      35.758  34.300  28.930  1.00  0.00     0.059 A 
ATOM     45  C   UNL A   1      34.881  33.590  31.079  1.00  0.00     0.059 A 
ATOM     46  F   UNL A   1      36.237  32.354  32.537  1.00  0.00    -0.206 F 
ATOM     47  C   UNL A   1      34.730  34.274  29.876  1.00  0.00     0.060 A 
BRANCH  47  48
ATOM     48  S   UNL A   1      33.196  35.158  29.515  1.00  0.00     0.124 S 
ATOM     49  O   UNL A   1      32.534  35.139  30.817  1.00  0.00    -0.237 OA
ATOM     50  O   UNL A   1      33.685  36.460  29.072  1.00  0.00    -0.237 OA
ATOM     51  O   UNL A   1      32.569  34.342  28.481  1.00  0.00    -0.744 OA
ENDBRANCH  47  48
ENDBRANCH  26  40
BRANCH  27  52
ATOM     52  C   UNL A   1      45.875  28.191  32.585  1.00  0.00     0.058 A 
ATOM     53  C   UNL A   1      46.054  27.392  33.723  1.00  0.00     0.135 A 
ATOM     54  C   UNL A   1      46.969  28.317  31.707  1.00  0.00     0.135 A 
ATOM     55  F   UNL A   1      45.048  27.236  34.597  1.00  0.00    -0.206 F 
ATOM     56  C   UNL A   1      47.270  26.763  33.991  1.00  0.00     0.059 A 
ATOM     57  C   UNL A   1      48.183  27.680  31.941  1.00  0.00     0.059 A 
ATOM     58  F   UNL A   1      46.860  29.058  30.593  1.00  0.00    -0.206 F 
ATOM     59  C   UNL A   1      48.330  26.917  33.095  1.00  0.00     0.060 A 
BRANCH  59  60
ATOM     60  S   UNL A   1      49.904  26.105  33.452  1.00  0.00     0.124 S 
ATOM     61  O   UNL A   1      49.689  24.784  32.871  1.00  0.00    -0.237 OA
ATOM     62  O   UNL A   1      50.858  26.961  32.756  1.00  0.00    -0.237 OA
ATOM     63  O   UNL A   1      49.980  26.148  34.909  1.00  0.00    -0.744 OA
ENDBRANCH  59  60
ENDBRANCH  27  52
BRANCH  39  64
ATOM     64  C   UNL A   1      43.180  34.472  34.112  1.00  0.00     0.058 A 
ATOM     65  C   UNL A   1      43.950  35.492  33.535  1.00  0.00     0.135 A 
ATOM     66  C   UNL A   1      42.819  34.586  35.462  1.00  0.00     0.135 A 
ATOM     67  F   UNL A   1      44.319  35.416  32.246  1.00  0.00    -0.206 F 
ATOM     68  C   UNL A   1      44.359  36.587  34.281  1.00  0.00     0.059 A 
ATOM     69  C   UNL A   1      43.188  35.689  36.217  1.00  0.00     0.059 A 
ATOM     70  F   UNL A   1      42.068  33.637  36.046  1.00  0.00    -0.206 F 
ATOM     71  C   UNL A   1      43.966  36.679  35.618  1.00  0.00     0.060 A 
BRANCH  71  72
ATOM     72  S   UNL A   1      44.456  38.134  36.560  1.00  0.00     0.124 S 
ATOM     73  O   UNL A   1      44.200  39.203  35.600  1.00  0.00    -0.237 OA
ATOM     74  O   UNL A   1      43.554  38.080  37.707  1.00  0.00    -0.237 OA
ATOM     75  O   UNL A   1      45.862  37.885  36.864  1.00  0.00    -0.744 OA
ENDBRANCH  71  72
ENDBRANCH  39  64
ENDBRANCH  13  14
ENDBRANCH   6   8
ENDBRANCH   5   6
ENDBRANCH   4   5
ENDBRANCH   3   4
ENDBRANCH   2   3
ENDBRANCH   1   2
BRANCH   1  76
ATOM     76  C   UNL A   1      33.513  22.361  27.555  1.00  0.00     0.188 C 
BRANCH  76  77
ATOM     77  O   UNL A   1      32.313  22.955  27.987  1.00  0.00    -0.376 OA
BRANCH  77  78
ATOM     78  C   UNL A   1      31.318  23.054  27.001  1.00  0.00     0.202 C 
BRANCH  78  79
ATOM     79  C   UNL A   1      31.238  24.206  26.023  1.00  0.00     0.261 C 
BRANCH  79  80
ATOM     80  O   UNL A   1      30.925  25.474  26.531  1.00  0.00    -0.460 OA
BRANCH  80  81
ATOM     81  C   UNL A   1      30.433  26.316  25.594  1.00  0.00     0.339 C 
ATOM     82  O   UNL A   1      29.524  26.229  24.822  1.00  0.00    -0.246 OA
BRANCH  81  83
ATOM     83  C   UNL A   1      31.249  27.483  25.731  1.00  0.00     0.072 A 
ATOM     84  C   UNL A   1      31.491  27.850  27.080  1.00  0.00     0.016 A 
ATOM     85  C   UNL A   1      31.845  28.074  24.624  1.00  0.00     0.054 A 
ATOM     86  C   UNL A   1      32.384  28.860  27.373  1.00  0.00     0.001 A 
ATOM     87  C   UNL A   1      32.735  29.125  24.975  1.00  0.00     0.015 A 
ATOM     88  C   UNL A   1      33.001  29.508  26.314  1.00  0.00     0.001 A 
BRANCH  85  89
ATOM     89  C   UNL A   1      31.875  27.611  23.168  1.00  0.00     0.256 C 
ATOM     90  O   UNL A   1      31.300  28.394  22.390  1.00  0.00    -0.269 OA
ATOM     91  N   UNL A   1      32.550  26.613  22.458  1.00  0.00    -0.322 N 
ATOM     92  H   UNL A   1      32.641  26.917  21.527  1.00  0.00     0.170 HD
BRANCH  91  93
ATOM     93  C   UNL A   1      33.158  25.329  22.557  1.00  0.00     0.041 A 
ATOM     94  C   UNL A   1      34.120  25.143  23.582  1.00  0.00     0.028 A 
ATOM     95  C   UNL A   1      32.844  24.203  21.818  1.00  0.00     0.028 A 
ATOM     96  C   UNL A   1      34.471  23.840  24.060  1.00  0.00     0.029 A 
ATOM     97  C   UNL A   1      33.259  22.896  22.247  1.00  0.00     0.029 A 
ATOM     98  C   UNL A   1      33.960  22.677  23.457  1.00  0.00     0.052 A 
BRANCH  98  99
ATOM     99  N   UNL A   1      33.784  21.409  24.192  1.00  0.00    -0.250 N 
ATOM    100  C   UNL A   1      34.829  20.501  24.450  1.00  0.00     0.237 C 
ATOM    101  C   UNL A   1      32.533  20.752  24.344  1.00  0.00     0.237 C 
ATOM    102  O   UNL A   1      36.001  20.717  24.702  1.00  0.00    -0.274 OA
ATOM    103  C   UNL A   1      34.221  19.143  24.208  1.00  0.00     0.095 C 
ATOM    104  C   UNL A   1      32.846  19.338  24.796  1.00  0.00     0.095 C 
ATOM    105  O   UNL A   1      31.398  21.183  24.199  1.00  0.00    -0.274 OA
ATOM    106  C   UNL A   1      34.513  17.669  24.565  1.00  0.00     0.002 C 
ATOM    107  C   UNL A   1      32.261  17.919  24.598  1.00  0.00     0.002 C 
ATOM    108  C   UNL A   1      34.097  16.872  23.307  1.00  0.00     0.005 C 
ATOM    109  C   UNL A   1      33.328  17.205  25.461  1.00  0.00     0.009 C 
ATOM    110  C   UNL A   1      32.573  17.187  23.251  1.00  0.00     0.005 C 
ENDBRANCH  98  99
ENDBRANCH  91  93
ENDBRANCH  85  89
ENDBRANCH  81  83
ENDBRANCH  80  81
ENDBRANCH  79  80
ENDBRANCH  78  79
ENDBRANCH  77  78
ENDBRANCH  76  77
ENDBRANCH   1  76
TORSDOF 23
ENDMDL
MODEL 3
REMARK VINA RESULT:     -10.7      6.124     10.326
REMARK SMILES O=C(OCCOCCOCCOC(=O)c1ccccc1C(=O)Nc1ccc(N2C(=O)[C@H]3[C@@H]4CC[C@@H](C4)[C@@H]3C2=O)cc1)c1ccc(-c2c3nc(c(-c4c(F)cc(S(=O)(=O)[O-])cc4F)c4ccc([nH]4)c(-c4c(F)cc(S(=O)(=O)[O-])cc4F)c4nc(c(-c5c(F)cc(S(=O)(=O)[O-])cc5F)c5ccc2[nH]5)C=C4)C=C3)cc1
REMARK SMILES IDX 7 1 6 2 5 3 4 4 3 5 2 6 1 7 42 8 43 9 107 10 44 11 106 12
REMARK SMILES IDX 45 13 46 14 47 15 100 16 48 17 105 18 99 19 101 20 49 21
REMARK SMILES IDX 104 22 98 23 97 24 50 26 84 27 63 28 83 29 64 30 67 31 82 32
REMARK SMILES IDX 102 33 65 34 66 35 81 37 103 38 68 39 51 40 52 41 61 42
REMARK SMILES IDX 53 43 54 44 60 45 62 46 55 47 56 48 57 49 58 50 59 51 85 52
REMARK SMILES IDX 86 53 95 54 87 55 88 56 94 57 96 58 89 59 90 60 91 61 92 62
REMARK SMILES IDX 93 63 69 64 70 65 79 66 71 67 72 68 78 69 80 70 73 71 74 72
REMARK SMILES IDX 75 73 76 74 77 75 8 76 9 77 10 78 11 79 12 80 13 81 14 82
REMARK SMILES IDX 15 83 16 84 20 85 17 86 19 87 18 88 21 89 22 90 23 91 24 93
REMARK SMILES IDX 25 94 41 95 26 96 40 97 27 98 28 99 29 100 38 101 30 102
REMARK SMILES IDX 31 103 37 104 39 105 32 106 35 107 33 108 36 109 34 110
REMARK H PARENT 101 25 67 36 23 92
REMARK Flexibility Score: inf
ROOT
ATOM      1  C   UNL A   1      36.735  23.122  25.897  1.00  0.00     0.188 C 
ENDROOT
BRANCH   1   2
ATOM      2  O   UNL A   1      38.063  22.852  25.442  1.00  0.00    -0.376 OA
BRANCH   2   3
ATOM      3  C   UNL A   1      38.924  22.020  26.234  1.00  0.00     0.202 C 
BRANCH   3   4
ATOM      4  C   UNL A   1      40.353  22.492  26.476  1.00  0.00     0.261 C 
BRANCH   4   5
ATOM      5  O   UNL A   1      40.528  23.435  27.538  1.00  0.00    -0.460 OA
BRANCH   5   6
ATOM      6  C   UNL A   1      41.443  24.427  27.663  1.00  0.00     0.338 C 
ATOM      7  O   UNL A   1      42.579  24.213  27.242  1.00  0.00    -0.246 OA
BRANCH   6   8
ATOM      8  C   UNL A   1      41.189  25.716  28.388  1.00  0.00     0.060 A 
ATOM      9  C   UNL A   1      42.150  26.703  28.609  1.00  0.00     0.016 A 
ATOM     10  C   UNL A   1      39.876  25.956  28.842  1.00  0.00     0.016 A 
ATOM     11  C   UNL A   1      41.833  27.909  29.189  1.00  0.00     0.010 A 
ATOM     12  C   UNL A   1      39.571  27.113  29.563  1.00  0.00     0.010 A 
ATOM     13  C   UNL A   1      40.578  28.059  29.763  1.00  0.00    -0.014 A 
BRANCH  13  14
ATOM     14  C   UNL A   1      40.591  28.980  30.901  1.00  0.00     0.031 A 
ATOM     15  C   UNL A   1      39.534  30.051  30.878  1.00  0.00     0.074 A 
ATOM     16  C   UNL A   1      41.257  28.633  32.011  1.00  0.00     0.049 A 
ATOM     17  N   UNL A   1      39.214  30.921  31.789  1.00  0.00    -0.248 NA
ATOM     18  C   UNL A   1      38.659  30.091  29.685  1.00  0.00     0.031 C 
ATOM     19  C   UNL A   1      42.067  27.419  32.164  1.00  0.00     0.029 A 
ATOM     20  N   UNL A   1      41.316  29.232  33.234  1.00  0.00    -0.354 N 
ATOM     21  C   UNL A   1      38.117  31.607  31.279  1.00  0.00     0.074 A 
ATOM     22  C   UNL A   1      37.794  31.039  29.998  1.00  0.00     0.031 C 
ATOM     23  C   UNL A   1      42.567  27.386  33.409  1.00  0.00     0.029 A 
ATOM     24  C   UNL A   1      42.173  28.602  34.102  1.00  0.00     0.049 A 
ATOM     25  H   UNL A   1      40.796  30.034  33.471  1.00  0.00     0.167 HD
ATOM     26  C   UNL A   1      37.468  32.654  31.832  1.00  0.00     0.037 A 
ATOM     27  C   UNL A   1      42.627  29.028  35.294  1.00  0.00     0.037 A 
ATOM     28  C   UNL A   1      37.897  33.223  33.075  1.00  0.00     0.049 A 
ATOM     29  C   UNL A   1      42.058  30.329  35.797  1.00  0.00     0.074 A 
ATOM     30  C   UNL A   1      37.478  34.380  33.697  1.00  0.00     0.029 A 
ATOM     31  N   UNL A   1      38.892  32.665  33.873  1.00  0.00    -0.354 N 
ATOM     32  N   UNL A   1      41.110  31.069  35.262  1.00  0.00    -0.248 NA
ATOM     33  C   UNL A   1      42.614  30.866  37.040  1.00  0.00     0.031 C 
ATOM     34  C   UNL A   1      38.271  34.555  34.836  1.00  0.00     0.029 A 
ATOM     35  C   UNL A   1      39.131  33.469  34.965  1.00  0.00     0.049 A 
ATOM     36  H   UNL A   1      39.357  31.817  33.684  1.00  0.00     0.167 HD
ATOM     37  C   UNL A   1      40.936  32.149  36.113  1.00  0.00     0.074 A 
ATOM     38  C   UNL A   1      41.877  31.957  37.205  1.00  0.00     0.031 C 
ATOM     39  C   UNL A   1      40.086  33.203  36.017  1.00  0.00     0.037 A 
BRANCH  26  40
ATOM     40  C   UNL A   1      36.394  33.297  31.004  1.00  0.00     0.058 A 
ATOM     41  C   UNL A   1      36.681  34.139  29.915  1.00  0.00     0.135 A 
ATOM     42  C   UNL A   1      35.049  33.159  31.383  1.00  0.00     0.135 A 
ATOM     43  F   UNL A   1      37.952  34.359  29.546  1.00  0.00    -0.206 F 
ATOM     44  C   UNL A   1      35.674  34.837  29.249  1.00  0.00     0.059 A 
ATOM     45  C   UNL A   1      34.026  33.829  30.719  1.00  0.00     0.059 A 
ATOM     46  F   UNL A   1      34.722  32.400  32.440  1.00  0.00    -0.206 F 
ATOM     47  C   UNL A   1      34.349  34.677  29.662  1.00  0.00     0.060 A 
BRANCH  47  48
ATOM     48  S   UNL A   1      33.056  35.601  28.805  1.00  0.00     0.124 S 
ATOM     49  O   UNL A   1      33.840  36.588  28.067  1.00  0.00    -0.237 OA
ATOM     50  O   UNL A   1      32.418  34.567  27.998  1.00  0.00    -0.237 OA
ATOM     51  O   UNL A   1      32.242  36.134  29.892  1.00  0.00    -0.744 OA
ENDBRANCH  47  48
ENDBRANCH  26  40
BRANCH  27  52
ATOM     52  C   UNL A   1      43.718  28.296  35.993  1.00  0.00     0.058 A 
ATOM     53  C   UNL A   1      43.459  27.279  36.922  1.00  0.00     0.135 A 
ATOM     54  C   UNL A   1      45.068  28.616  35.746  1.00  0.00     0.135 A 
ATOM     55  F   UNL A   1      42.193  26.932  37.199  1.00  0.00    -0.206 F 
ATOM     56  C   UNL A   1      44.490  26.622  37.594  1.00  0.00     0.059 A 
ATOM     57  C   UNL A   1      46.113  27.958  36.386  1.00  0.00     0.059 A 
ATOM     58  F   UNL A   1      45.385  29.573  34.859  1.00  0.00    -0.206 F 
ATOM     59  C   UNL A   1      45.814  26.973  37.322  1.00  0.00     0.060 A 
BRANCH  59  60
ATOM     60  S   UNL A   1      47.144  26.122  38.201  1.00  0.00     0.124 S 
ATOM     61  O   UNL A   1      48.305  26.487  37.396  1.00  0.00    -0.237 OA
ATOM     62  O   UNL A   1      47.071  26.725  39.527  1.00  0.00    -0.237 OA
ATOM     63  O   UNL A   1      46.746  24.719  38.133  1.00  0.00    -0.744 OA
ENDBRANCH  59  60
ENDBRANCH  27  52
BRANCH  39  64
ATOM     64  C   UNL A   1      40.113  34.189  37.140  1.00  0.00     0.058 A 
ATOM     65  C   UNL A   1      40.918  35.335  37.093  1.00  0.00     0.135 A 
ATOM     66  C   UNL A   1      39.245  34.023  38.230  1.00  0.00     0.135 A 
ATOM     67  F   UNL A   1      41.764  35.528  36.069  1.00  0.00    -0.206 F 
ATOM     68  C   UNL A   1      40.872  36.283  38.105  1.00  0.00     0.059 A 
ATOM     69  C   UNL A   1      39.158  34.974  39.234  1.00  0.00     0.059 A 
ATOM     70  F   UNL A   1      38.446  32.945  38.302  1.00  0.00    -0.206 F 
ATOM     71  C   UNL A   1      39.983  36.096  39.166  1.00  0.00     0.060 A 
BRANCH  71  72
ATOM     72  S   UNL A   1      39.892  37.362  40.445  1.00  0.00     0.124 S 
ATOM     73  O   UNL A   1      39.346  36.605  41.567  1.00  0.00    -0.237 OA
ATOM     74  O   UNL A   1      41.287  37.774  40.573  1.00  0.00    -0.237 OA
ATOM     75  O   UNL A   1      39.000  38.363  39.867  1.00  0.00    -0.744 OA
ENDBRANCH  71  72
ENDBRANCH  39  64
ENDBRANCH  13  14
ENDBRANCH   6   8
ENDBRANCH   5   6
ENDBRANCH   4   5
ENDBRANCH   3   4
ENDBRANCH   2   3
ENDBRANCH   1   2
BRANCH   1  76
ATOM     76  C   UNL A   1      35.938  24.090  25.021  1.00  0.00     0.188 C 
BRANCH  76  77
ATOM     77  O   UNL A   1      34.669  24.444  25.514  1.00  0.00    -0.376 OA
BRANCH  77  78
ATOM     78  C   UNL A   1      34.593  25.730  26.072  1.00  0.00     0.202 C 
BRANCH  78  79
ATOM     79  C   UNL A   1      33.611  26.779  25.594  1.00  0.00     0.261 C 
BRANCH  79  80
ATOM     80  O   UNL A   1      32.309  26.363  25.287  1.00  0.00    -0.460 OA
BRANCH  80  81
ATOM     81  C   UNL A   1      31.358  27.054  25.957  1.00  0.00     0.339 C 
ATOM     82  O   UNL A   1      31.034  27.079  27.108  1.00  0.00    -0.246 OA
BRANCH  81  83
ATOM     83  C   UNL A   1      30.770  27.879  24.948  1.00  0.00     0.072 A 
ATOM     84  C   UNL A   1      31.370  29.161  24.844  1.00  0.00     0.016 A 
ATOM     85  C   UNL A   1      29.809  27.375  24.081  1.00  0.00     0.054 A 
ATOM     86  C   UNL A   1      31.014  30.011  23.816  1.00  0.00     0.001 A 
ATOM     87  C   UNL A   1      29.457  28.295  23.057  1.00  0.00     0.015 A 
ATOM     88  C   UNL A   1      30.045  29.579  22.924  1.00  0.00     0.001 A 
BRANCH  85  89
ATOM     89  C   UNL A   1      29.287  25.947  23.926  1.00  0.00     0.256 C 
ATOM     90  O   UNL A   1      28.052  25.887  23.784  1.00  0.00    -0.269 OA
ATOM     91  N   UNL A   1      29.873  24.695  23.718  1.00  0.00    -0.322 N 
ATOM     92  H   UNL A   1      29.217  24.132  23.246  1.00  0.00     0.170 HD
BRANCH  91  93
ATOM     93  C   UNL A   1      31.047  23.915  23.921  1.00  0.00     0.041 A 
ATOM     94  C   UNL A   1      31.081  23.082  25.068  1.00  0.00     0.028 A 
ATOM     95  C   UNL A   1      32.129  23.807  23.068  1.00  0.00     0.028 A 
ATOM     96  C   UNL A   1      31.969  21.963  25.160  1.00  0.00     0.029 A 
ATOM     97  C   UNL A   1      33.072  22.731  23.201  1.00  0.00     0.029 A 
ATOM     98  C   UNL A   1      32.927  21.704  24.165  1.00  0.00     0.052 A 
BRANCH  98  99
ATOM     99  N   UNL A   1      33.433  20.347  23.877  1.00  0.00    -0.250 N 
ATOM    100  C   UNL A   1      32.695  19.365  23.190  1.00  0.00     0.237 C 
ATOM    101  C   UNL A   1      34.492  19.730  24.596  1.00  0.00     0.237 C 
ATOM    102  O   UNL A   1      31.913  19.488  22.264  1.00  0.00    -0.274 OA
ATOM    103  C   UNL A   1      32.964  18.089  23.945  1.00  0.00     0.095 C 
ATOM    104  C   UNL A   1      34.429  18.251  24.265  1.00  0.00     0.095 C 
ATOM    105  O   UNL A   1      35.343  20.228  25.319  1.00  0.00    -0.274 OA
ATOM    106  C   UNL A   1      32.857  16.566  23.710  1.00  0.00     0.002 C 
ATOM    107  C   UNL A   1      34.702  16.907  24.981  1.00  0.00     0.002 C 
ATOM    108  C   UNL A   1      32.404  15.990  25.072  1.00  0.00     0.005 C 
ATOM    109  C   UNL A   1      34.315  16.022  23.773  1.00  0.00     0.009 C 
ATOM    110  C   UNL A   1      33.614  16.378  25.971  1.00  0.00     0.005 C 
ENDBRANCH  98  99
ENDBRANCH  91  93
ENDBRANCH  85  89
ENDBRANCH  81  83
ENDBRANCH  80  81
ENDBRANCH  79  80
ENDBRANCH  78  79
ENDBRANCH  77  78
ENDBRANCH  76  77
ENDBRANCH   1  76
TORSDOF 23
ENDMDL
