MODEL 1
REMARK VINA RESULT:     -10.7      0.000      0.000
REMARK SMILES Cc1ccc(F)c(C(=O)N[C@@H]2C=C[C@@H](C(=O)OCCOCCOCCOC(=O)c3ccc(-c4c5nc(c(-c6c(F)cc(S(=O)(=O)[O-])cc6F)c6ccc([nH]6)c(-c6c(F)cc(S(=O)(=O)[O-])cc6F)c6nc(c(-c7c(F)cc(S(=O)(=O)[O-])cc7F)c7ccc4[nH]7)C=C6)C=C5)cc3)C2)c1
REMARK SMILES IDX 22 1 21 2 20 3 19 4 18 5 17 6 15 7 16 8 14 9 11 10 12 11
REMARK SMILES IDX 95 12 13 13 10 14 8 15 9 16 7 18 1 19 2 20 3 21 96 22 4 23
REMARK SMILES IDX 5 24 6 25 23 26 24 27 25 28 26 29 27 30 28 31 29 32 30 33
REMARK SMILES IDX 94 34 31 35 93 36 32 37 33 38 34 39 87 40 35 41 92 42 86 43
REMARK SMILES IDX 88 44 36 45 91 46 85 47 84 48 37 50 71 51 50 52 70 53 51 54
REMARK SMILES IDX 54 55 69 56 89 57 52 58 53 59 68 61 90 62 55 63 38 64 39 65
REMARK SMILES IDX 48 66 40 67 41 68 47 69 49 70 42 71 43 72 44 73 45 74 46 75
REMARK SMILES IDX 72 76 73 77 82 78 74 79 75 80 81 81 83 82 76 83 77 84 78 85
REMARK SMILES IDX 79 86 80 87 56 88 57 89 66 90 58 91 59 92 65 93 67 94 60 95
REMARK SMILES IDX 61 96 62 97 63 98 64 99
REMARK H PARENT 10 17 88 49 54 60
REMARK Flexibility Score: inf
ROOT
ATOM      1  C   UNL A   1      33.752  34.675  29.373  1.00  0.00     0.188 C 
ENDROOT
BRANCH   1   2
ATOM      2  C   UNL A   1      33.825  33.930  28.026  1.00  0.00     0.188 C 
BRANCH   2   3
ATOM      3  O   UNL A   1      35.033  33.257  27.677  1.00  0.00    -0.376 OA
BRANCH   3   4
ATOM      4  C   UNL A   1      35.079  31.837  27.741  1.00  0.00     0.202 C 
BRANCH   4   5
ATOM      5  C   UNL A   1      33.741  31.095  27.732  1.00  0.00     0.261 C 
BRANCH   5   6
ATOM      6  O   UNL A   1      33.701  30.009  26.787  1.00  0.00    -0.463 OA
BRANCH   6   7
ATOM      7  C   UNL A   1      32.545  29.899  26.080  1.00  0.00     0.312 C 
ATOM      8  O   UNL A   1      31.666  30.757  26.080  1.00  0.00    -0.252 OA
BRANCH   7   9
ATOM      9  C   UNL A   1      32.480  28.633  25.216  1.00  0.00     0.124 C 
ATOM     10  C   UNL A   1      33.967  26.703  24.713  1.00  0.00     0.106 C 
ATOM     11  C   UNL A   1      33.052  26.434  25.862  1.00  0.00    -0.006 C 
ATOM     12  C   UNL A   1      33.755  28.202  24.469  1.00  0.00     0.048 C 
ATOM     13  C   UNL A   1      32.228  27.456  26.112  1.00  0.00    -0.014 C 
BRANCH  10  14
ATOM     14  N   UNL A   1      33.581  25.797  23.650  1.00  0.00    -0.346 N 
ATOM     15  C   UNL A   1      32.535  25.752  22.766  1.00  0.00     0.254 C 
ATOM     16  O   UNL A   1      32.652  25.003  21.797  1.00  0.00    -0.269 OA
ATOM     17  H   UNL A   1      34.209  25.049  23.539  1.00  0.00     0.164 HD
BRANCH  15  18
ATOM     18  C   UNL A   1      31.284  26.523  22.935  1.00  0.00     0.075 A 
ATOM     19  C   UNL A   1      29.628  29.815  21.985  1.00  0.00     0.044 C 
ATOM     20  C   UNL A   1      29.858  28.458  22.576  1.00  0.00    -0.050 A 
ATOM     21  C   UNL A   1      28.840  27.846  23.317  1.00  0.00     0.006 A 
ATOM     22  C   UNL A   1      31.065  27.775  22.354  1.00  0.00     0.020 A 
ATOM     23  C   UNL A   1      29.035  26.583  23.862  1.00  0.00     0.040 A 
ATOM     24  C   UNL A   1      30.253  25.934  23.679  1.00  0.00     0.135 A 
ATOM     25  F   UNL A   1      30.413  24.739  24.264  1.00  0.00    -0.206 F 
ENDBRANCH  15  18
ENDBRANCH  10  14
ENDBRANCH   7   9
ENDBRANCH   6   7
ENDBRANCH   5   6
ENDBRANCH   4   5
ENDBRANCH   3   4
ENDBRANCH   2   3
ENDBRANCH   1   2
BRANCH   1  26
ATOM     26  O   UNL A   1      33.744  33.823  30.504  1.00  0.00    -0.376 OA
BRANCH  26  27
ATOM     27  C   UNL A   1      34.972  33.655  31.185  1.00  0.00     0.202 C 
BRANCH  27  28
ATOM     28  C   UNL A   1      35.363  32.215  31.525  1.00  0.00     0.261 C 
BRANCH  28  29
ATOM     29  O   UNL A   1      36.529  31.721  30.839  1.00  0.00    -0.460 OA
BRANCH  29  30
ATOM     30  C   UNL A   1      37.012  30.519  31.208  1.00  0.00     0.338 C 
ATOM     31  O   UNL A   1      36.441  29.669  31.883  1.00  0.00    -0.246 OA
BRANCH  30  32
ATOM     32  C   UNL A   1      38.321  30.339  30.553  1.00  0.00     0.060 A 
ATOM     33  C   UNL A   1      38.416  30.357  29.155  1.00  0.00     0.016 A 
ATOM     34  C   UNL A   1      39.462  30.155  31.332  1.00  0.00     0.016 A 
ATOM     35  C   UNL A   1      39.651  30.161  28.530  1.00  0.00     0.010 A 
ATOM     36  C   UNL A   1      40.697  29.960  30.707  1.00  0.00     0.010 A 
ATOM     37  C   UNL A   1      40.798  29.942  29.303  1.00  0.00    -0.014 A 
BRANCH  37  38
ATOM     38  C   UNL A   1      42.094  29.582  28.674  1.00  0.00     0.031 A 
ATOM     39  C   UNL A   1      42.302  28.168  28.202  1.00  0.00     0.074 A 
ATOM     40  C   UNL A   1      43.094  30.479  28.583  1.00  0.00     0.049 A 
ATOM     41  N   UNL A   1      43.400  27.577  27.813  1.00  0.00    -0.248 NA
ATOM     42  C   UNL A   1      41.110  27.303  28.181  1.00  0.00     0.031 C 
ATOM     43  C   UNL A   1      43.009  31.886  28.975  1.00  0.00     0.029 A 
ATOM     44  N   UNL A   1      44.393  30.327  28.162  1.00  0.00    -0.354 N 
ATOM     45  C   UNL A   1      43.043  26.263  27.535  1.00  0.00     0.074 A 
ATOM     46  C   UNL A   1      41.626  26.142  27.798  1.00  0.00     0.031 C 
ATOM     47  C   UNL A   1      44.216  32.458  28.813  1.00  0.00     0.029 A 
ATOM     48  C   UNL A   1      45.166  31.450  28.348  1.00  0.00     0.049 A 
ATOM     49  H   UNL A   1      44.738  29.495  27.766  1.00  0.00     0.167 HD
ATOM     50  C   UNL A   1      43.830  25.250  27.104  1.00  0.00     0.037 A 
ATOM     51  C   UNL A   1      46.495  31.629  28.207  1.00  0.00     0.037 A 
ATOM     52  C   UNL A   1      45.233  25.383  26.813  1.00  0.00     0.049 A 
ATOM     53  C   UNL A   1      47.355  30.475  27.756  1.00  0.00     0.074 A 
ATOM     54  C   UNL A   1      46.103  24.426  26.320  1.00  0.00     0.029 A 
ATOM     55  N   UNL A   1      45.973  26.543  26.988  1.00  0.00    -0.354 N 
ATOM     56  N   UNL A   1      47.002  29.244  27.471  1.00  0.00    -0.248 NA
ATOM     57  C   UNL A   1      48.797  30.731  27.611  1.00  0.00     0.031 C 
ATOM     58  C   UNL A   1      47.378  24.992  26.242  1.00  0.00     0.029 A 
ATOM     59  C   UNL A   1      47.293  26.317  26.639  1.00  0.00     0.049 A 
ATOM     60  H   UNL A   1      45.613  27.399  27.313  1.00  0.00     0.167 HD
ATOM     61  C   UNL A   1      48.169  28.591  27.086  1.00  0.00     0.074 A 
ATOM     62  C   UNL A   1      49.239  29.563  27.166  1.00  0.00     0.031 C 
ATOM     63  C   UNL A   1      48.342  27.301  26.703  1.00  0.00     0.037 A 
BRANCH  50  64
ATOM     64  C   UNL A   1      43.211  23.890  26.944  1.00  0.00     0.058 A 
ATOM     65  C   UNL A   1      42.774  23.418  25.698  1.00  0.00     0.135 A 
ATOM     66  C   UNL A   1      43.134  23.019  28.043  1.00  0.00     0.135 A 
ATOM     67  F   UNL A   1      42.805  24.218  24.621  1.00  0.00    -0.206 F 
ATOM     68  C   UNL A   1      42.282  22.125  25.546  1.00  0.00     0.059 A 
ATOM     69  C   UNL A   1      42.667  21.716  27.910  1.00  0.00     0.059 A 
ATOM     70  F   UNL A   1      43.533  23.427  29.257  1.00  0.00    -0.206 F 
ATOM     71  C   UNL A   1      42.239  21.279  26.656  1.00  0.00     0.060 A 
BRANCH  71  72
ATOM     72  S   UNL A   1      41.644  19.589  26.434  1.00  0.00     0.124 S 
ATOM     73  O   UNL A   1      40.221  19.809  26.199  1.00  0.00    -0.237 OA
ATOM     74  O   UNL A   1      42.414  19.137  25.279  1.00  0.00    -0.237 OA
ATOM     75  O   UNL A   1      41.978  18.940  27.698  1.00  0.00    -0.744 OA
ENDBRANCH  71  72
ENDBRANCH  50  64
BRANCH  51  76
ATOM     76  C   UNL A   1      47.119  32.938  28.545  1.00  0.00     0.058 A 
ATOM     77  C   UNL A   1      47.311  33.927  27.568  1.00  0.00     0.135 A 
ATOM     78  C   UNL A   1      47.578  33.208  29.843  1.00  0.00     0.135 A 
ATOM     79  F   UNL A   1      46.902  33.713  26.309  1.00  0.00    -0.206 F 
ATOM     80  C   UNL A   1      47.965  35.122  27.857  1.00  0.00     0.059 A 
ATOM     81  C   UNL A   1      48.210  34.405  30.165  1.00  0.00     0.059 A 
ATOM     82  F   UNL A   1      47.411  32.300  30.818  1.00  0.00    -0.206 F 
ATOM     83  C   UNL A   1      48.416  35.349  29.159  1.00  0.00     0.060 A 
BRANCH  83  84
ATOM     84  S   UNL A   1      49.257  36.903  29.530  1.00  0.00     0.124 S 
ATOM     85  O   UNL A   1      48.285  37.882  29.054  1.00  0.00    -0.237 OA
ATOM     86  O   UNL A   1      49.428  36.825  30.977  1.00  0.00    -0.237 OA
ATOM     87  O   UNL A   1      50.491  36.809  28.755  1.00  0.00    -0.744 OA
ENDBRANCH  83  84
ENDBRANCH  51  76
BRANCH  63  88
ATOM     88  C   UNL A   1      49.724  26.874  26.291  1.00  0.00     0.058 A 
ATOM     89  C   UNL A   1      50.589  26.216  27.177  1.00  0.00     0.135 A 
ATOM     90  C   UNL A   1      50.162  27.074  24.971  1.00  0.00     0.135 A 
ATOM     91  F   UNL A   1      50.221  26.006  28.450  1.00  0.00    -0.206 F 
ATOM     92  C   UNL A   1      51.851  25.787  26.775  1.00  0.00     0.059 A 
ATOM     93  C   UNL A   1      51.409  26.630  24.541  1.00  0.00     0.059 A 
ATOM     94  F   UNL A   1      49.368  27.687  24.080  1.00  0.00    -0.206 F 
ATOM     95  C   UNL A   1      52.251  25.997  25.454  1.00  0.00     0.060 A 
BRANCH  95  96
ATOM     96  S   UNL A   1      53.875  25.403  24.933  1.00  0.00     0.124 S 
ATOM     97  O   UNL A   1      54.721  25.862  26.031  1.00  0.00    -0.237 OA
ATOM     98  O   UNL A   1      53.670  23.960  24.850  1.00  0.00    -0.237 OA
ATOM     99  O   UNL A   1      54.087  26.074  23.653  1.00  0.00    -0.744 OA
ENDBRANCH  95  96
ENDBRANCH  63  88
ENDBRANCH  37  38
ENDBRANCH  30  32
ENDBRANCH  29  30
ENDBRANCH  28  29
ENDBRANCH  27  28
ENDBRANCH  26  27
ENDBRANCH   1  26
TORSDOF 22
ENDMDL
MODEL 2
REMARK VINA RESULT:     -10.6      6.580     11.832
REMARK SMILES Cc1ccc(F)c(C(=O)N[C@@H]2C=C[C@@H](C(=O)OCCOCCOCCOC(=O)c3ccc(-c4c5nc(c(-c6c(F)cc(S(=O)(=O)[O-])cc6F)c6ccc([nH]6)c(-c6c(F)cc(S(=O)(=O)[O-])cc6F)c6nc(c(-c7c(F)cc(S(=O)(=O)[O-])cc7F)c7ccc4[nH]7)C=C6)C=C5)cc3)C2)c1
REMARK SMILES IDX 22 1 21 2 20 3 19 4 18 5 17 6 15 7 16 8 14 9 11 10 12 11
REMARK SMILES IDX 95 12 13 13 10 14 8 15 9 16 7 18 1 19 2 20 3 21 96 22 4 23
REMARK SMILES IDX 5 24 6 25 23 26 24 27 25 28 26 29 27 30 28 31 29 32 30 33
REMARK SMILES IDX 94 34 31 35 93 36 32 37 33 38 34 39 87 40 35 41 92 42 86 43
REMARK SMILES IDX 88 44 36 45 91 46 85 47 84 48 37 50 71 51 50 52 70 53 51 54
REMARK SMILES IDX 54 55 69 56 89 57 52 58 53 59 68 61 90 62 55 63 38 64 39 65
REMARK SMILES IDX 48 66 40 67 41 68 47 69 49 70 42 71 43 72 44 73 45 74 46 75
REMARK SMILES IDX 72 76 73 77 82 78 74 79 75 80 81 81 83 82 76 83 77 84 78 85
REMARK SMILES IDX 79 86 80 87 56 88 57 89 66 90 58 91 59 92 65 93 67 94 60 95
REMARK SMILES IDX 61 96 62 97 63 98 64 99
REMARK H PARENT 10 17 88 49 54 60
REMARK Flexibility Score: inf
ROOT
ATOM      1  C   UNL A   1      36.419  23.100  25.776  1.00  0.00     0.188 C 
ENDROOT
BRANCH   1   2
ATOM      2  C   UNL A   1      35.733  21.720  25.823  1.00  0.00     0.188 C 
BRANCH   2   3
ATOM      3  O   UNL A   1      34.831  21.436  26.891  1.00  0.00    -0.376 OA
BRANCH   3   4
ATOM      4  C   UNL A   1      33.435  21.611  26.684  1.00  0.00     0.202 C 
BRANCH   4   5
ATOM      5  C   UNL A   1      32.855  22.997  26.977  1.00  0.00     0.261 C 
BRANCH   5   6
ATOM      6  O   UNL A   1      31.520  22.951  27.514  1.00  0.00    -0.463 OA
BRANCH   6   7
ATOM      7  C   UNL A   1      30.596  23.678  26.832  1.00  0.00     0.312 C 
ATOM      8  O   UNL A   1      29.444  23.848  27.221  1.00  0.00    -0.252 OA
BRANCH   7   9
ATOM      9  C   UNL A   1      31.158  24.335  25.564  1.00  0.00     0.124 C 
ATOM     10  C   UNL A   1      30.585  24.392  23.144  1.00  0.00     0.106 C 
ATOM     11  C   UNL A   1      29.948  25.507  23.907  1.00  0.00    -0.006 C 
ATOM     12  C   UNL A   1      31.157  23.513  24.263  1.00  0.00     0.048 C 
ATOM     13  C   UNL A   1      30.282  25.499  25.201  1.00  0.00    -0.014 C 
BRANCH  10  14
ATOM     14  N   UNL A   1      31.529  24.998  22.228  1.00  0.00    -0.346 N 
ATOM     15  C   UNL A   1      32.632  25.797  22.383  1.00  0.00     0.254 C 
ATOM     16  O   UNL A   1      33.385  25.906  21.417  1.00  0.00    -0.269 OA
ATOM     17  H   UNL A   1      31.336  24.790  21.286  1.00  0.00     0.164 HD
BRANCH  15  18
ATOM     18  C   UNL A   1      32.936  26.544  23.622  1.00  0.00     0.075 A 
ATOM     19  C   UNL A   1      32.130  29.777  25.462  1.00  0.00     0.044 C 
ATOM     20  C   UNL A   1      32.715  28.438  25.129  1.00  0.00    -0.050 A 
ATOM     21  C   UNL A   1      33.586  27.821  26.035  1.00  0.00     0.006 A 
ATOM     22  C   UNL A   1      32.361  27.778  23.941  1.00  0.00     0.020 A 
ATOM     23  C   UNL A   1      34.128  26.574  25.744  1.00  0.00     0.040 A 
ATOM     24  C   UNL A   1      33.810  25.948  24.542  1.00  0.00     0.135 A 
ATOM     25  F   UNL A   1      34.395  24.771  24.283  1.00  0.00    -0.206 F 
ENDBRANCH  15  18
ENDBRANCH  10  14
ENDBRANCH   7   9
ENDBRANCH   6   7
ENDBRANCH   5   6
ENDBRANCH   4   5
ENDBRANCH   3   4
ENDBRANCH   2   3
ENDBRANCH   1   2
BRANCH   1  26
ATOM     26  O   UNL A   1      37.759  23.063  25.324  1.00  0.00    -0.376 OA
BRANCH  26  27
ATOM     27  C   UNL A   1      38.558  21.986  25.774  1.00  0.00     0.202 C 
BRANCH  27  28
ATOM     28  C   UNL A   1      39.848  22.362  26.504  1.00  0.00     0.261 C 
BRANCH  28  29
ATOM     29  O   UNL A   1      39.821  23.635  27.176  1.00  0.00    -0.460 OA
BRANCH  29  30
ATOM     30  C   UNL A   1      40.818  24.503  26.917  1.00  0.00     0.338 C 
ATOM     31  O   UNL A   1      41.549  24.516  25.933  1.00  0.00    -0.246 OA
BRANCH  30  32
ATOM     32  C   UNL A   1      40.809  25.528  27.978  1.00  0.00     0.060 A 
ATOM     33  C   UNL A   1      39.664  25.716  28.763  1.00  0.00     0.016 A 
ATOM     34  C   UNL A   1      41.945  26.307  28.194  1.00  0.00     0.016 A 
ATOM     35  C   UNL A   1      39.642  26.705  29.752  1.00  0.00     0.010 A 
ATOM     36  C   UNL A   1      41.923  27.294  29.184  1.00  0.00     0.010 A 
ATOM     37  C   UNL A   1      40.766  27.514  29.955  1.00  0.00    -0.014 A 
BRANCH  37  38
ATOM     38  C   UNL A   1      40.727  28.668  30.889  1.00  0.00     0.031 A 
ATOM     39  C   UNL A   1      41.605  28.641  32.110  1.00  0.00     0.074 A 
ATOM     40  C   UNL A   1      39.879  29.694  30.689  1.00  0.00     0.049 A 
ATOM     41  N   UNL A   1      41.597  29.425  33.155  1.00  0.00    -0.248 NA
ATOM     42  C   UNL A   1      42.620  27.574  32.164  1.00  0.00     0.031 C 
ATOM     43  C   UNL A   1      38.999  29.854  29.531  1.00  0.00     0.029 A 
ATOM     44  N   UNL A   1      39.592  30.781  31.479  1.00  0.00    -0.354 N 
ATOM     45  C   UNL A   1      42.577  28.929  34.007  1.00  0.00     0.074 A 
ATOM     46  C   UNL A   1      43.162  27.776  33.358  1.00  0.00     0.031 C 
ATOM     47  C   UNL A   1      38.243  30.953  29.705  1.00  0.00     0.029 A 
ATOM     48  C   UNL A   1      38.554  31.549  31.002  1.00  0.00     0.049 A 
ATOM     49  H   UNL A   1      40.082  30.992  32.306  1.00  0.00     0.167 HD
ATOM     50  C   UNL A   1      42.948  29.392  35.224  1.00  0.00     0.037 A 
ATOM     51  C   UNL A   1      37.898  32.582  31.570  1.00  0.00     0.037 A 
ATOM     52  C   UNL A   1      42.385  30.559  35.851  1.00  0.00     0.049 A 
ATOM     53  C   UNL A   1      38.311  33.059  32.941  1.00  0.00     0.074 A 
ATOM     54  C   UNL A   1      42.734  31.137  37.059  1.00  0.00     0.029 A 
ATOM     55  N   UNL A   1      41.356  31.323  35.325  1.00  0.00    -0.354 N 
ATOM     56  N   UNL A   1      39.256  32.598  33.725  1.00  0.00    -0.248 NA
ATOM     57  C   UNL A   1      37.566  34.194  33.507  1.00  0.00     0.031 C 
ATOM     58  C   UNL A   1      41.885  32.223  37.286  1.00  0.00     0.029 A 
ATOM     59  C   UNL A   1      41.039  32.351  36.196  1.00  0.00     0.049 A 
ATOM     60  H   UNL A   1      40.914  31.160  34.461  1.00  0.00     0.167 HD
ATOM     61  C   UNL A   1      39.237  33.404  34.860  1.00  0.00     0.074 A 
ATOM     62  C   UNL A   1      38.194  34.386  34.658  1.00  0.00     0.031 C 
ATOM     63  C   UNL A   1      40.012  33.336  35.971  1.00  0.00     0.037 A 
BRANCH  50  64
ATOM     64  C   UNL A   1      43.996  28.629  35.983  1.00  0.00     0.058 A 
ATOM     65  C   UNL A   1      43.671  27.535  36.798  1.00  0.00     0.135 A 
ATOM     66  C   UNL A   1      45.353  28.949  35.822  1.00  0.00     0.135 A 
ATOM     67  F   UNL A   1      42.387  27.201  37.003  1.00  0.00    -0.206 F 
ATOM     68  C   UNL A   1      44.657  26.782  37.428  1.00  0.00     0.059 A 
ATOM     69  C   UNL A   1      46.357  28.198  36.424  1.00  0.00     0.059 A 
ATOM     70  F   UNL A   1      45.715  29.992  35.058  1.00  0.00    -0.206 F 
ATOM     71  C   UNL A   1      45.999  27.117  37.229  1.00  0.00     0.060 A 
BRANCH  71  72
ATOM     72  S   UNL A   1      47.269  26.102  38.013  1.00  0.00     0.124 S 
ATOM     73  O   UNL A   1      46.638  25.779  39.288  1.00  0.00    -0.237 OA
ATOM     74  O   UNL A   1      47.405  24.993  37.074  1.00  0.00    -0.237 OA
ATOM     75  O   UNL A   1      48.420  26.997  38.092  1.00  0.00    -0.744 OA
ENDBRANCH  71  72
ENDBRANCH  50  64
BRANCH  51  76
ATOM     76  C   UNL A   1      36.741  33.212  30.877  1.00  0.00     0.058 A 
ATOM     77  C   UNL A   1      36.930  34.116  29.821  1.00  0.00     0.135 A 
ATOM     78  C   UNL A   1      35.424  32.957  31.289  1.00  0.00     0.135 A 
ATOM     79  F   UNL A   1      38.170  34.403  29.398  1.00  0.00    -0.206 F 
ATOM     80  C   UNL A   1      35.858  34.770  29.220  1.00  0.00     0.059 A 
ATOM     81  C   UNL A   1      34.334  33.577  30.686  1.00  0.00     0.059 A 
ATOM     82  F   UNL A   1      35.187  32.093  32.289  1.00  0.00    -0.206 F 
ATOM     83  C   UNL A   1      34.563  34.498  29.664  1.00  0.00     0.060 A 
BRANCH  83  84
ATOM     84  S   UNL A   1      33.176  35.344  28.876  1.00  0.00     0.124 S 
ATOM     85  O   UNL A   1      32.579  34.264  28.099  1.00  0.00    -0.237 OA
ATOM     86  O   UNL A   1      32.403  35.808  30.024  1.00  0.00    -0.237 OA
ATOM     87  O   UNL A   1      33.824  36.397  28.100  1.00  0.00    -0.744 OA
ENDBRANCH  83  84
ENDBRANCH  51  76
BRANCH  63  88
ATOM     88  C   UNL A   1      39.802  34.378  37.034  1.00  0.00     0.058 A 
ATOM     89  C   UNL A   1      38.926  34.171  38.110  1.00  0.00     0.135 A 
ATOM     90  C   UNL A   1      40.535  35.576  37.006  1.00  0.00     0.135 A 
ATOM     91  F   UNL A   1      38.198  33.046  38.181  1.00  0.00    -0.206 F 
ATOM     92  C   UNL A   1      38.768  35.124  39.112  1.00  0.00     0.059 A 
ATOM     93  C   UNL A   1      40.413  36.531  38.010  1.00  0.00     0.059 A 
ATOM     94  F   UNL A   1      41.396  35.819  36.005  1.00  0.00    -0.206 F 
ATOM     95  C   UNL A   1      39.518  36.301  39.054  1.00  0.00     0.060 A 
BRANCH  95  96
ATOM     96  S   UNL A   1      39.333  37.514  40.379  1.00  0.00     0.124 S 
ATOM     97  O   UNL A   1      40.623  38.197  40.334  1.00  0.00    -0.237 OA
ATOM     98  O   UNL A   1      38.185  38.296  39.931  1.00  0.00    -0.237 OA
ATOM     99  O   UNL A   1      39.099  36.691  41.562  1.00  0.00    -0.744 OA
ENDBRANCH  95  96
ENDBRANCH  63  88
ENDBRANCH  37  38
ENDBRANCH  30  32
ENDBRANCH  29  30
ENDBRANCH  28  29
ENDBRANCH  27  28
ENDBRANCH  26  27
ENDBRANCH   1  26
TORSDOF 22
ENDMDL
MODEL 3
REMARK VINA RESULT:     -10.4      6.600     11.930
REMARK SMILES Cc1ccc(F)c(C(=O)N[C@@H]2C=C[C@@H](C(=O)OCCOCCOCCOC(=O)c3ccc(-c4c5nc(c(-c6c(F)cc(S(=O)(=O)[O-])cc6F)c6ccc([nH]6)c(-c6c(F)cc(S(=O)(=O)[O-])cc6F)c6nc(c(-c7c(F)cc(S(=O)(=O)[O-])cc7F)c7ccc4[nH]7)C=C6)C=C5)cc3)C2)c1
REMARK SMILES IDX 22 1 21 2 20 3 19 4 18 5 17 6 15 7 16 8 14 9 11 10 12 11
REMARK SMILES IDX 95 12 13 13 10 14 8 15 9 16 7 18 1 19 2 20 3 21 96 22 4 23
REMARK SMILES IDX 5 24 6 25 23 26 24 27 25 28 26 29 27 30 28 31 29 32 30 33
REMARK SMILES IDX 94 34 31 35 93 36 32 37 33 38 34 39 87 40 35 41 92 42 86 43
REMARK SMILES IDX 88 44 36 45 91 46 85 47 84 48 37 50 71 51 50 52 70 53 51 54
REMARK SMILES IDX 54 55 69 56 89 57 52 58 53 59 68 61 90 62 55 63 38 64 39 65
REMARK SMILES IDX 48 66 40 67 41 68 47 69 49 70 42 71 43 72 44 73 45 74 46 75
REMARK SMILES IDX 72 76 73 77 82 78 74 79 75 80 81 81 83 82 76 83 77 84 78 85
REMARK SMILES IDX 79 86 80 87 56 88 57 89 66 90 58 91 59 92 65 93 67 94 60 95
REMARK SMILES IDX 61 96 62 97 63 98 64 99
REMARK H PARENT 10 17 88 49 54 60
REMARK Flexibility Score: inf
ROOT
ATOM      1  C   UNL A   1      35.932  21.798  24.523  1.00  0.00     0.188 C 
ENDROOT
BRANCH   1   2
ATOM      2  C   UNL A   1      35.357  20.618  25.331  1.00  0.00     0.188 C 
BRANCH   2   3
ATOM      3  O   UNL A   1      34.928  19.451  24.632  1.00  0.00    -0.376 OA
BRANCH   3   4
ATOM      4  C   UNL A   1      33.652  18.896  24.927  1.00  0.00     0.202 C 
BRANCH   4   5
ATOM      5  C   UNL A   1      32.551  19.083  23.880  1.00  0.00     0.261 C 
BRANCH   5   6
ATOM      6  O   UNL A   1      32.500  20.418  23.343  1.00  0.00    -0.463 OA
BRANCH   6   7
ATOM      7  C   UNL A   1      31.999  21.361  24.183  1.00  0.00     0.312 C 
ATOM      8  O   UNL A   1      31.682  21.133  25.347  1.00  0.00    -0.252 OA
BRANCH   7   9
ATOM      9  C   UNL A   1      31.943  22.761  23.558  1.00  0.00     0.124 C 
ATOM     10  C   UNL A   1      33.330  24.826  23.605  1.00  0.00     0.106 C 
ATOM     11  C   UNL A   1      33.701  23.915  22.480  1.00  0.00    -0.006 C 
ATOM     12  C   UNL A   1      32.369  23.958  24.427  1.00  0.00     0.048 C 
ATOM     13  C   UNL A   1      32.934  22.822  22.432  1.00  0.00    -0.014 C 
BRANCH  10  14
ATOM     14  N   UNL A   1      32.791  26.030  23.007  1.00  0.00    -0.346 N 
ATOM     15  C   UNL A   1      32.626  27.319  23.440  1.00  0.00     0.254 C 
ATOM     16  O   UNL A   1      32.395  28.172  22.584  1.00  0.00    -0.269 OA
ATOM     17  H   UNL A   1      32.472  25.890  22.087  1.00  0.00     0.164 HD
BRANCH  15  18
ATOM     18  C   UNL A   1      32.680  27.721  24.862  1.00  0.00     0.075 A 
ATOM     19  C   UNL A   1      34.968  29.315  27.452  1.00  0.00     0.044 C 
ATOM     20  C   UNL A   1      33.774  28.678  26.810  1.00  0.00    -0.050 A 
ATOM     21  C   UNL A   1      32.617  28.460  27.568  1.00  0.00     0.006 A 
ATOM     22  C   UNL A   1      33.787  28.344  25.446  1.00  0.00     0.020 A 
ATOM     23  C   UNL A   1      31.497  27.879  26.982  1.00  0.00     0.040 A 
ATOM     24  C   UNL A   1      31.536  27.506  25.642  1.00  0.00     0.135 A 
ATOM     25  F   UNL A   1      30.451  26.906  25.134  1.00  0.00    -0.206 F 
ENDBRANCH  15  18
ENDBRANCH  10  14
ENDBRANCH   7   9
ENDBRANCH   6   7
ENDBRANCH   5   6
ENDBRANCH   4   5
ENDBRANCH   3   4
ENDBRANCH   2   3
ENDBRANCH   1   2
BRANCH   1  26
ATOM     26  O   UNL A   1      37.332  21.960  24.655  1.00  0.00    -0.376 OA
BRANCH  26  27
ATOM     27  C   UNL A   1      37.858  21.933  25.968  1.00  0.00     0.202 C 
BRANCH  27  28
ATOM     28  C   UNL A   1      39.306  22.404  26.124  1.00  0.00     0.261 C 
BRANCH  28  29
ATOM     29  O   UNL A   1      39.469  23.655  26.818  1.00  0.00    -0.460 OA
BRANCH  29  30
ATOM     30  C   UNL A   1      40.714  24.162  26.914  1.00  0.00     0.338 C 
ATOM     31  O   UNL A   1      41.715  23.779  26.319  1.00  0.00    -0.246 OA
BRANCH  30  32
ATOM     32  C   UNL A   1      40.649  25.353  27.782  1.00  0.00     0.060 A 
ATOM     33  C   UNL A   1      41.695  26.285  27.775  1.00  0.00     0.016 A 
ATOM     34  C   UNL A   1      39.542  25.545  28.606  1.00  0.00     0.016 A 
ATOM     35  C   UNL A   1      41.649  27.402  28.615  1.00  0.00     0.010 A 
ATOM     36  C   UNL A   1      39.496  26.663  29.445  1.00  0.00     0.010 A 
ATOM     37  C   UNL A   1      40.557  27.588  29.471  1.00  0.00    -0.014 A 
BRANCH  37  38
ATOM     38  C   UNL A   1      40.544  28.676  30.481  1.00  0.00     0.031 A 
ATOM     39  C   UNL A   1      41.424  28.547  31.695  1.00  0.00     0.074 A 
ATOM     40  C   UNL A   1      39.718  29.732  30.353  1.00  0.00     0.049 A 
ATOM     41  N   UNL A   1      41.435  29.259  32.790  1.00  0.00    -0.248 NA
ATOM     42  C   UNL A   1      42.415  27.458  31.673  1.00  0.00     0.031 C 
ATOM     43  C   UNL A   1      38.841  29.989  29.211  1.00  0.00     0.029 A 
ATOM     44  N   UNL A   1      39.457  30.769  31.215  1.00  0.00    -0.354 N 
ATOM     45  C   UNL A   1      42.404  28.685  33.604  1.00  0.00     0.074 A 
ATOM     46  C   UNL A   1      42.963  27.566  32.876  1.00  0.00     0.031 C 
ATOM     47  C   UNL A   1      38.109  31.089  29.461  1.00  0.00     0.029 A 
ATOM     48  C   UNL A   1      38.435  31.589  30.795  1.00  0.00     0.049 A 
ATOM     49  H   UNL A   1      39.953  30.912  32.054  1.00  0.00     0.167 HD
ATOM     50  C   UNL A   1      42.787  29.056  34.847  1.00  0.00     0.037 A 
ATOM     51  C   UNL A   1      37.803  32.595  31.434  1.00  0.00     0.037 A 
ATOM     52  C   UNL A   1      42.251  30.190  35.554  1.00  0.00     0.049 A 
ATOM     53  C   UNL A   1      38.228  32.969  32.832  1.00  0.00     0.074 A 
ATOM     54  C   UNL A   1      42.615  30.677  36.798  1.00  0.00     0.029 A 
ATOM     55  N   UNL A   1      41.238  31.010  35.084  1.00  0.00    -0.354 N 
ATOM     56  N   UNL A   1      39.164  32.435  33.581  1.00  0.00    -0.248 NA
ATOM     57  C   UNL A   1      37.509  34.079  33.476  1.00  0.00     0.031 C 
ATOM     58  C   UNL A   1      41.789  31.763  37.100  1.00  0.00     0.029 A 
ATOM     59  C   UNL A   1      40.945  31.984  36.024  1.00  0.00     0.049 A 
ATOM     60  H   UNL A   1      40.792  30.915  34.212  1.00  0.00     0.167 HD
ATOM     61  C   UNL A   1      39.165  33.163  34.768  1.00  0.00     0.074 A 
ATOM     62  C   UNL A   1      38.143  34.179  34.636  1.00  0.00     0.031 C 
ATOM     63  C   UNL A   1      39.939  33.003  35.869  1.00  0.00     0.037 A 
BRANCH  50  64
ATOM     64  C   UNL A   1      43.819  28.221  35.550  1.00  0.00     0.058 A 
ATOM     65  C   UNL A   1      43.463  27.188  36.429  1.00  0.00     0.135 A 
ATOM     66  C   UNL A   1      45.183  28.406  35.270  1.00  0.00     0.135 A 
ATOM     67  F   UNL A   1      42.175  26.982  36.747  1.00  0.00    -0.206 F 
ATOM     68  C   UNL A   1      44.425  26.365  37.007  1.00  0.00     0.059 A 
ATOM     69  C   UNL A   1      46.160  27.582  35.819  1.00  0.00     0.059 A 
ATOM     70  F   UNL A   1      45.575  29.387  34.441  1.00  0.00    -0.206 F 
ATOM     71  C   UNL A   1      45.771  26.565  36.691  1.00  0.00     0.060 A 
BRANCH  71  72
ATOM     72  S   UNL A   1      47.002  25.459  37.410  1.00  0.00     0.124 S 
ATOM     73  O   UNL A   1      48.243  26.162  37.098  1.00  0.00    -0.237 OA
ATOM     74  O   UNL A   1      46.620  25.440  38.818  1.00  0.00    -0.237 OA
ATOM     75  O   UNL A   1      46.795  24.205  36.691  1.00  0.00    -0.744 OA
ENDBRANCH  71  72
ENDBRANCH  50  64
BRANCH  51  76
ATOM     76  C   UNL A   1      36.659  33.296  30.788  1.00  0.00     0.058 A 
ATOM     77  C   UNL A   1      35.332  32.983  31.121  1.00  0.00     0.135 A 
ATOM     78  C   UNL A   1      36.870  34.259  29.790  1.00  0.00     0.135 A 
ATOM     79  F   UNL A   1      35.076  32.060  32.060  1.00  0.00    -0.206 F 
ATOM     80  C   UNL A   1      34.256  33.576  30.466  1.00  0.00     0.059 A 
ATOM     81  C   UNL A   1      35.812  34.886  29.140  1.00  0.00     0.059 A 
ATOM     82  F   UNL A   1      38.120  34.603  29.440  1.00  0.00    -0.206 F 
ATOM     83  C   UNL A   1      34.507  34.523  29.472  1.00  0.00     0.060 A 
BRANCH  83  84
ATOM     84  S   UNL A   1      33.107  35.294  28.631  1.00  0.00     0.124 S 
ATOM     85  O   UNL A   1      32.346  35.825  29.756  1.00  0.00    -0.237 OA
ATOM     86  O   UNL A   1      33.764  36.282  27.780  1.00  0.00    -0.237 OA
ATOM     87  O   UNL A   1      32.489  34.178  27.920  1.00  0.00    -0.744 OA
ENDBRANCH  83  84
ENDBRANCH  51  76
BRANCH  63  88
ATOM     88  C   UNL A   1      39.754  33.975  37.001  1.00  0.00     0.058 A 
ATOM     89  C   UNL A   1      38.941  33.678  38.105  1.00  0.00     0.135 A 
ATOM     90  C   UNL A   1      40.448  35.196  37.007  1.00  0.00     0.135 A 
ATOM     91  F   UNL A   1      38.252  32.527  38.147  1.00  0.00    -0.206 F 
ATOM     92  C   UNL A   1      38.807  34.566  39.169  1.00  0.00     0.059 A 
ATOM     93  C   UNL A   1      40.350  36.087  38.071  1.00  0.00     0.059 A 
ATOM     94  F   UNL A   1      41.249  35.524  35.980  1.00  0.00    -0.206 F 
ATOM     95  C   UNL A   1      39.518  35.769  39.143  1.00  0.00     0.060 A 
BRANCH  95  96
ATOM     96  S   UNL A   1      39.366  36.897  40.544  1.00  0.00     0.124 S 
ATOM     97  O   UNL A   1      38.547  37.963  39.976  1.00  0.00    -0.237 OA
ATOM     98  O   UNL A   1      38.714  36.063  41.550  1.00  0.00    -0.237 OA
ATOM     99  O   UNL A   1      40.750  37.257  40.841  1.00  0.00    -0.744 OA
ENDBRANCH  95  96
ENDBRANCH  63  88
ENDBRANCH  37  38
ENDBRANCH  30  32
ENDBRANCH  29  30
ENDBRANCH  28  29
ENDBRANCH  27  28
ENDBRANCH  26  27
ENDBRANCH   1  26
TORSDOF 22
ENDMDL
