MODEL 1
REMARK VINA RESULT:     -10.1      0.000      0.000
REMARK SMILES Cc1cc(C)c(C(N)=O)c(N[C@H]2C=C[C@H](C(=O)OCCOCCOCCOC(=O)c3ccc(-c4c5nc(c(-c6c(F)cc(S(=O)(=O)[O-])cc6F)c6ccc([nH]6)c(-c6c(F)cc(S(=O)(=O)[O-])cc6F)c6nc(c(-c7c(F)cc(S(=O)(=O)[O-])cc7F)c7ccc4[nH]7)C=C6)C=C5)cc3)C2)n1
REMARK SMILES IDX 22 1 21 2 20 3 19 4 18 5 16 6 17 7 15 8 12 9 13 10 96 11
REMARK SMILES IDX 14 12 11 13 10 15 1 16 2 17 3 18 97 19 4 20 5 21 6 22 7 23
REMARK SMILES IDX 8 24 9 25 23 28 24 29 25 30 26 31 27 32 28 33 29 34 30 35
REMARK SMILES IDX 31 36 95 37 32 38 94 39 33 40 34 41 35 42 88 43 36 44 93 45
REMARK SMILES IDX 87 46 89 47 37 48 92 49 86 50 85 51 38 53 72 54 51 55 71 56
REMARK SMILES IDX 52 57 55 58 70 59 90 60 53 61 54 62 69 64 91 65 56 66 39 67
REMARK SMILES IDX 40 68 49 69 41 70 42 71 48 72 50 73 43 74 44 75 45 76 46 77
REMARK SMILES IDX 47 78 73 79 74 80 83 81 75 82 76 83 82 84 84 85 77 86 78 87
REMARK SMILES IDX 79 88 80 89 81 90 57 91 58 92 67 93 59 94 60 95 66 96 68 97
REMARK SMILES IDX 61 98 62 99 63 100 64 101 65 102
REMARK H PARENT 11 14 8 26 8 27 89 52 55 63
REMARK Flexibility Score: inf
ROOT
ATOM      1  C   UNL A   1      33.961  31.803  27.935  1.00  0.00     0.188 C 
ENDROOT
BRANCH   1   2
ATOM      2  O   UNL A   1      33.826  30.474  27.481  1.00  0.00    -0.376 OA
BRANCH   2   3
ATOM      3  C   UNL A   1      32.665  30.077  26.766  1.00  0.00     0.202 C 
BRANCH   3   4
ATOM      4  C   UNL A   1      32.681  29.494  25.341  1.00  0.00     0.261 C 
BRANCH   4   5
ATOM      5  O   UNL A   1      31.474  29.665  24.590  1.00  0.00    -0.463 OA
BRANCH   5   6
ATOM      6  C   UNL A   1      31.060  28.579  23.871  1.00  0.00     0.312 C 
ATOM      7  O   UNL A   1      30.867  28.572  22.662  1.00  0.00    -0.252 OA
BRANCH   6   8
ATOM      8  C   UNL A   1      30.986  27.344  24.760  1.00  0.00     0.124 C 
ATOM      9  C   UNL A   1      31.179  25.299  23.450  1.00  0.00     0.104 C 
ATOM     10  C   UNL A   1      29.775  25.519  23.912  1.00  0.00    -0.006 C 
ATOM     11  C   UNL A   1      32.000  26.289  24.278  1.00  0.00     0.048 C 
ATOM     12  C   UNL A   1      29.667  26.648  24.622  1.00  0.00    -0.014 C 
BRANCH   9  13
ATOM     13  N   UNL A   1      31.616  23.921  23.564  1.00  0.00    -0.363 N 
ATOM     14  H   UNL A   1      31.110  23.240  23.065  1.00  0.00     0.162 HD
BRANCH  13  15
ATOM     15  C   UNL A   1      32.698  23.488  24.323  1.00  0.00     0.139 A 
ATOM     16  C   UNL A   1      36.229  22.768  23.561  1.00  0.00     0.067 C 
ATOM     17  C   UNL A   1      34.966  22.930  24.348  1.00  0.00     0.040 A 
ATOM     18  C   UNL A   1      34.921  22.606  25.691  1.00  0.00     0.028 A 
ATOM     19  N   UNL A   1      33.887  23.385  23.685  1.00  0.00    -0.236 NA
ATOM     20  C   UNL A   1      33.718  22.745  26.398  1.00  0.00    -0.033 A 
ATOM     21  C   UNL A   1      33.768  22.390  27.860  1.00  0.00     0.045 C 
ATOM     22  C   UNL A   1      32.567  23.176  25.696  1.00  0.00     0.084 A 
BRANCH  22  23
ATOM     23  C   UNL A   1      31.240  23.267  26.389  1.00  0.00     0.252 C 
ATOM     24  N   UNL A   1      30.330  22.269  26.173  1.00  0.00    -0.365 N 
ATOM     25  O   UNL A   1      30.947  24.190  27.138  1.00  0.00    -0.269 OA
ATOM     26  H   UNL A   1      30.553  21.520  25.572  1.00  0.00     0.159 HD
ATOM     27  H   UNL A   1      29.452  22.297  26.617  1.00  0.00     0.159 HD
ENDBRANCH  22  23
ENDBRANCH  13  15
ENDBRANCH   9  13
ENDBRANCH   6   8
ENDBRANCH   5   6
ENDBRANCH   4   5
ENDBRANCH   3   4
ENDBRANCH   2   3
ENDBRANCH   1   2
BRANCH   1  28
ATOM     28  C   UNL A   1      35.373  32.419  28.001  1.00  0.00     0.188 C 
BRANCH  28  29
ATOM     29  O   UNL A   1      35.897  32.855  29.236  1.00  0.00    -0.376 OA
BRANCH  29  30
ATOM     30  C   UNL A   1      35.079  32.838  30.395  1.00  0.00     0.202 C 
BRANCH  30  31
ATOM     31  C   UNL A   1      35.399  32.068  31.692  1.00  0.00     0.261 C 
BRANCH  31  32
ATOM     32  O   UNL A   1      36.740  31.604  31.878  1.00  0.00    -0.460 OA
BRANCH  32  33
ATOM     33  C   UNL A   1      37.004  30.379  31.370  1.00  0.00     0.338 C 
ATOM     34  O   UNL A   1      36.209  29.457  31.210  1.00  0.00    -0.246 OA
BRANCH  33  35
ATOM     35  C   UNL A   1      38.379  30.357  30.847  1.00  0.00     0.060 A 
ATOM     36  C   UNL A   1      38.579  30.466  29.462  1.00  0.00     0.016 A 
ATOM     37  C   UNL A   1      39.459  30.177  31.709  1.00  0.00     0.016 A 
ATOM     38  C   UNL A   1      39.866  30.374  28.932  1.00  0.00     0.010 A 
ATOM     39  C   UNL A   1      40.744  30.058  31.174  1.00  0.00     0.010 A 
ATOM     40  C   UNL A   1      40.949  30.123  29.783  1.00  0.00    -0.014 A 
BRANCH  40  41
ATOM     41  C   UNL A   1      42.259  29.715  29.222  1.00  0.00     0.031 A 
ATOM     42  C   UNL A   1      42.406  28.300  28.732  1.00  0.00     0.074 A 
ATOM     43  C   UNL A   1      43.298  30.567  29.166  1.00  0.00     0.049 A 
ATOM     44  N   UNL A   1      43.477  27.666  28.334  1.00  0.00    -0.248 NA
ATOM     45  C   UNL A   1      41.176  27.490  28.694  1.00  0.00     0.031 C 
ATOM     46  C   UNL A   1      43.263  31.973  29.560  1.00  0.00     0.029 A 
ATOM     47  N   UNL A   1      44.597  30.358  28.773  1.00  0.00    -0.354 N 
ATOM     48  C   UNL A   1      43.055  26.379  28.016  1.00  0.00     0.074 A 
ATOM     49  C   UNL A   1      41.636  26.316  28.289  1.00  0.00     0.031 C 
ATOM     50  C   UNL A   1      44.493  32.496  29.412  1.00  0.00     0.029 A 
ATOM     51  C   UNL A   1      45.409  31.452  28.955  1.00  0.00     0.049 A 
ATOM     52  H   UNL A   1      44.915  29.506  28.398  1.00  0.00     0.167 HD
ATOM     53  C   UNL A   1      43.785  25.346  27.537  1.00  0.00     0.037 A 
ATOM     54  C   UNL A   1      46.743  31.581  28.802  1.00  0.00     0.037 A 
ATOM     55  C   UNL A   1      45.198  25.418  27.271  1.00  0.00     0.049 A 
ATOM     56  C   UNL A   1      47.553  30.392  28.341  1.00  0.00     0.074 A 
ATOM     57  C   UNL A   1      46.031  24.428  26.782  1.00  0.00     0.029 A 
ATOM     58  N   UNL A   1      45.986  26.540  27.474  1.00  0.00    -0.354 N 
ATOM     59  N   UNL A   1      47.146  29.181  28.043  1.00  0.00    -0.248 NA
ATOM     60  C   UNL A   1      49.003  30.587  28.196  1.00  0.00     0.031 C 
ATOM     61  C   UNL A   1      47.333  24.935  26.739  1.00  0.00     0.029 A 
ATOM     62  C   UNL A   1      47.300  26.262  27.138  1.00  0.00     0.049 A 
ATOM     63  H   UNL A   1      45.659  27.408  27.807  1.00  0.00     0.167 HD
ATOM     64  C   UNL A   1      48.281  28.486  27.632  1.00  0.00     0.074 A 
ATOM     65  C   UNL A   1      49.391  29.409  27.725  1.00  0.00     0.031 C 
ATOM     66  C   UNL A   1      48.391  27.202  27.208  1.00  0.00     0.037 A 
BRANCH  53  67
ATOM     67  C   UNL A   1      43.078  24.040  27.301  1.00  0.00     0.058 A 
ATOM     68  C   UNL A   1      42.463  23.742  26.075  1.00  0.00     0.135 A 
ATOM     69  C   UNL A   1      43.046  23.060  28.306  1.00  0.00     0.135 A 
ATOM     70  F   UNL A   1      42.445  24.652  25.088  1.00  0.00    -0.206 F 
ATOM     71  C   UNL A   1      41.823  22.525  25.860  1.00  0.00     0.059 A 
ATOM     72  C   UNL A   1      42.437  21.825  28.102  1.00  0.00     0.059 A 
ATOM     73  F   UNL A   1      43.614  23.295  29.499  1.00  0.00    -0.206 F 
ATOM     74  C   UNL A   1      41.817  21.572  26.880  1.00  0.00     0.060 A 
BRANCH  74  75
ATOM     75  S   UNL A   1      40.992  19.995  26.581  1.00  0.00     0.124 S 
ATOM     76  O   UNL A   1      39.755  20.430  25.941  1.00  0.00    -0.237 OA
ATOM     77  O   UNL A   1      41.944  19.306  25.715  1.00  0.00    -0.237 OA
ATOM     78  O   UNL A   1      40.841  19.430  27.917  1.00  0.00    -0.744 OA
ENDBRANCH  74  75
ENDBRANCH  53  67
BRANCH  54  79
ATOM     79  C   UNL A   1      47.409  32.877  29.106  1.00  0.00     0.058 A 
ATOM     80  C   UNL A   1      47.644  33.824  28.098  1.00  0.00     0.135 A 
ATOM     81  C   UNL A   1      47.840  33.189  30.404  1.00  0.00     0.135 A 
ATOM     82  F   UNL A   1      47.266  33.569  26.836  1.00  0.00    -0.206 F 
ATOM     83  C   UNL A   1      48.297  35.025  28.361  1.00  0.00     0.059 A 
ATOM     84  C   UNL A   1      48.469  34.396  30.699  1.00  0.00     0.059 A 
ATOM     85  F   UNL A   1      47.635  32.323  31.408  1.00  0.00    -0.206 F 
ATOM     86  C   UNL A   1      48.703  35.303  29.666  1.00  0.00     0.060 A 
BRANCH  86  87
ATOM     87  S   UNL A   1      49.512  36.882  30.005  1.00  0.00     0.124 S 
ATOM     88  O   UNL A   1      50.879  36.460  30.283  1.00  0.00    -0.237 OA
ATOM     89  O   UNL A   1      49.307  37.603  28.752  1.00  0.00    -0.237 OA
ATOM     90  O   UNL A   1      48.767  37.403  31.147  1.00  0.00    -0.744 OA
ENDBRANCH  86  87
ENDBRANCH  54  79
BRANCH  66  91
ATOM     91  C   UNL A   1      49.739  26.725  26.739  1.00  0.00     0.058 A 
ATOM     92  C   UNL A   1      50.653  26.103  27.604  1.00  0.00     0.135 A 
ATOM     93  C   UNL A   1      50.080  26.810  25.378  1.00  0.00     0.135 A 
ATOM     94  F   UNL A   1      50.381  26.000  28.914  1.00  0.00    -0.206 F 
ATOM     95  C   UNL A   1      51.862  25.593  27.137  1.00  0.00     0.059 A 
ATOM     96  C   UNL A   1      51.268  26.281  24.886  1.00  0.00     0.059 A 
ATOM     97  F   UNL A   1      49.236  27.384  24.506  1.00  0.00    -0.206 F 
ATOM     98  C   UNL A   1      52.156  25.680  25.775  1.00  0.00     0.060 A 
BRANCH  98  99
ATOM     99  S   UNL A   1      53.699  24.958  25.174  1.00  0.00     0.124 S 
ATOM    100  O   UNL A   1      53.904  25.692  23.930  1.00  0.00    -0.237 OA
ATOM    101  O   UNL A   1      54.629  25.268  26.254  1.00  0.00    -0.237 OA
ATOM    102  O   UNL A   1      53.376  23.542  25.020  1.00  0.00    -0.744 OA
ENDBRANCH  98  99
ENDBRANCH  66  91
ENDBRANCH  40  41
ENDBRANCH  33  35
ENDBRANCH  32  33
ENDBRANCH  31  32
ENDBRANCH  30  31
ENDBRANCH  29  30
ENDBRANCH  28  29
ENDBRANCH   1  28
TORSDOF 23
ENDMDL
MODEL 2
REMARK VINA RESULT:      -9.7      5.932     11.629
REMARK SMILES Cc1cc(C)c(C(N)=O)c(N[C@H]2C=C[C@H](C(=O)OCCOCCOCCOC(=O)c3ccc(-c4c5nc(c(-c6c(F)cc(S(=O)(=O)[O-])cc6F)c6ccc([nH]6)c(-c6c(F)cc(S(=O)(=O)[O-])cc6F)c6nc(c(-c7c(F)cc(S(=O)(=O)[O-])cc7F)c7ccc4[nH]7)C=C6)C=C5)cc3)C2)n1
REMARK SMILES IDX 22 1 21 2 20 3 19 4 18 5 16 6 17 7 15 8 12 9 13 10 96 11
REMARK SMILES IDX 14 12 11 13 10 15 1 16 2 17 3 18 97 19 4 20 5 21 6 22 7 23
REMARK SMILES IDX 8 24 9 25 23 28 24 29 25 30 26 31 27 32 28 33 29 34 30 35
REMARK SMILES IDX 31 36 95 37 32 38 94 39 33 40 34 41 35 42 88 43 36 44 93 45
REMARK SMILES IDX 87 46 89 47 37 48 92 49 86 50 85 51 38 53 72 54 51 55 71 56
REMARK SMILES IDX 52 57 55 58 70 59 90 60 53 61 54 62 69 64 91 65 56 66 39 67
REMARK SMILES IDX 40 68 49 69 41 70 42 71 48 72 50 73 43 74 44 75 45 76 46 77
REMARK SMILES IDX 47 78 73 79 74 80 83 81 75 82 76 83 82 84 84 85 77 86 78 87
REMARK SMILES IDX 79 88 80 89 81 90 57 91 58 92 67 93 59 94 60 95 66 96 68 97
REMARK SMILES IDX 61 98 62 99 63 100 64 101 65 102
REMARK H PARENT 11 14 8 26 8 27 89 52 55 63
REMARK Flexibility Score: inf
ROOT
ATOM      1  C   UNL A   1      39.757  22.151  26.888  1.00  0.00     0.188 C 
ENDROOT
BRANCH   1   2
ATOM      2  O   UNL A   1      39.104  22.488  25.683  1.00  0.00    -0.376 OA
BRANCH   2   3
ATOM      3  C   UNL A   1      37.686  22.567  25.637  1.00  0.00     0.202 C 
BRANCH   3   4
ATOM      4  C   UNL A   1      36.823  21.998  24.496  1.00  0.00     0.261 C 
BRANCH   4   5
ATOM      5  O   UNL A   1      35.434  22.337  24.544  1.00  0.00    -0.463 OA
BRANCH   5   6
ATOM      6  C   UNL A   1      34.606  21.389  25.077  1.00  0.00     0.312 C 
ATOM      7  O   UNL A   1      34.789  20.823  26.148  1.00  0.00    -0.252 OA
BRANCH   6   8
ATOM      8  C   UNL A   1      33.362  21.218  24.216  1.00  0.00     0.124 C 
ATOM      9  C   UNL A   1      32.254  23.353  23.827  1.00  0.00     0.104 C 
ATOM     10  C   UNL A   1      31.496  22.516  24.807  1.00  0.00    -0.006 C 
ATOM     11  C   UNL A   1      33.258  22.378  23.208  1.00  0.00     0.048 C 
ATOM     12  C   UNL A   1      32.111  21.349  25.029  1.00  0.00    -0.014 C 
BRANCH   9  13
ATOM     13  N   UNL A   1      31.405  24.026  22.863  1.00  0.00    -0.363 N 
ATOM     14  H   UNL A   1      31.165  23.533  22.047  1.00  0.00     0.162 HD
BRANCH  13  15
ATOM     15  C   UNL A   1      30.904  25.316  23.006  1.00  0.00     0.139 A 
ATOM     16  C   UNL A   1      27.667  26.692  24.099  1.00  0.00     0.067 C 
ATOM     17  C   UNL A   1      29.085  26.646  23.622  1.00  0.00     0.040 A 
ATOM     18  C   UNL A   1      29.765  27.807  23.308  1.00  0.00     0.028 A 
ATOM     19  N   UNL A   1      29.649  25.430  23.499  1.00  0.00    -0.236 NA
ATOM     20  C   UNL A   1      31.086  27.732  22.840  1.00  0.00    -0.033 A 
ATOM     21  C   UNL A   1      31.755  29.047  22.545  1.00  0.00     0.045 C 
ATOM     22  C   UNL A   1      31.668  26.455  22.662  1.00  0.00     0.084 A 
BRANCH  22  23
ATOM     23  C   UNL A   1      33.049  26.318  22.091  1.00  0.00     0.252 C 
ATOM     24  N   UNL A   1      34.114  26.543  22.919  1.00  0.00    -0.365 N 
ATOM     25  O   UNL A   1      33.254  26.008  20.925  1.00  0.00    -0.269 OA
ATOM     26  H   UNL A   1      33.962  26.794  23.860  1.00  0.00     0.159 HD
ATOM     27  H   UNL A   1      35.033  26.457  22.575  1.00  0.00     0.159 HD
ENDBRANCH  22  23
ENDBRANCH  13  15
ENDBRANCH   9  13
ENDBRANCH   6   8
ENDBRANCH   5   6
ENDBRANCH   4   5
ENDBRANCH   3   4
ENDBRANCH   2   3
ENDBRANCH   1   2
BRANCH   1  28
ATOM     28  C   UNL A   1      40.483  20.794  26.977  1.00  0.00     0.188 C 
BRANCH  28  29
ATOM     29  O   UNL A   1      41.872  20.751  27.223  1.00  0.00    -0.376 OA
BRANCH  29  30
ATOM     30  C   UNL A   1      42.783  21.044  26.176  1.00  0.00     0.202 C 
BRANCH  30  31
ATOM     31  C   UNL A   1      43.380  22.437  25.887  1.00  0.00     0.261 C 
BRANCH  31  32
ATOM     32  O   UNL A   1      42.938  23.532  26.694  1.00  0.00    -0.460 OA
BRANCH  32  33
ATOM     33  C   UNL A   1      42.885  24.729  26.067  1.00  0.00     0.338 C 
ATOM     34  O   UNL A   1      43.094  24.952  24.878  1.00  0.00    -0.246 OA
BRANCH  33  35
ATOM     35  C   UNL A   1      42.346  25.738  26.993  1.00  0.00     0.060 A 
ATOM     36  C   UNL A   1      42.772  27.070  26.869  1.00  0.00     0.016 A 
ATOM     37  C   UNL A   1      41.466  25.364  28.008  1.00  0.00     0.016 A 
ATOM     38  C   UNL A   1      42.334  28.032  27.780  1.00  0.00     0.010 A 
ATOM     39  C   UNL A   1      41.051  26.324  28.935  1.00  0.00     0.010 A 
ATOM     40  C   UNL A   1      41.507  27.652  28.843  1.00  0.00    -0.014 A 
BRANCH  40  41
ATOM     41  C   UNL A   1      41.287  28.575  29.982  1.00  0.00     0.031 A 
ATOM     42  C   UNL A   1      42.153  28.410  31.202  1.00  0.00     0.074 A 
ATOM     43  C   UNL A   1      40.334  29.523  29.948  1.00  0.00     0.049 A 
ATOM     44  N   UNL A   1      42.065  28.991  32.369  1.00  0.00    -0.248 NA
ATOM     45  C   UNL A   1      43.264  27.449  31.089  1.00  0.00     0.031 C 
ATOM     46  C   UNL A   1      39.471  29.815  28.805  1.00  0.00     0.029 A 
ATOM     47  N   UNL A   1      39.920  30.402  30.918  1.00  0.00    -0.354 N 
ATOM     48  C   UNL A   1      43.095  28.456  33.134  1.00  0.00     0.074 A 
ATOM     49  C   UNL A   1      43.781  27.487  32.308  1.00  0.00     0.031 C 
ATOM     50  C   UNL A   1      38.610  30.790  29.150  1.00  0.00     0.029 A 
ATOM     51  C   UNL A   1      38.834  31.159  30.547  1.00  0.00     0.049 A 
ATOM     52  H   UNL A   1      40.359  30.481  31.795  1.00  0.00     0.167 HD
ATOM     53  C   UNL A   1      43.439  28.749  34.409  1.00  0.00     0.037 A 
ATOM     54  C   UNL A   1      38.089  32.023  31.266  1.00  0.00     0.037 A 
ATOM     55  C   UNL A   1      42.749  29.713  35.225  1.00  0.00     0.049 A 
ATOM     56  C   UNL A   1      38.442  32.278  32.712  1.00  0.00     0.074 A 
ATOM     57  C   UNL A   1      43.019  30.085  36.529  1.00  0.00     0.029 A 
ATOM     58  N   UNL A   1      41.650  30.454  34.816  1.00  0.00    -0.354 N 
ATOM     59  N   UNL A   1      39.417  31.768  33.427  1.00  0.00    -0.248 NA
ATOM     60  C   UNL A   1      37.593  33.225  33.451  1.00  0.00     0.031 C 
ATOM     61  C   UNL A   1      42.052  31.013  36.927  1.00  0.00     0.029 A 
ATOM     62  C   UNL A   1      41.219  31.269  35.849  1.00  0.00     0.049 A 
ATOM     63  H   UNL A   1      41.239  30.408  33.922  1.00  0.00     0.167 HD
ATOM     64  C   UNL A   1      39.326  32.366  34.681  1.00  0.00     0.074 A 
ATOM     65  C   UNL A   1      38.198  33.272  34.630  1.00  0.00     0.031 C 
ATOM     66  C   UNL A   1      40.111  32.188  35.773  1.00  0.00     0.037 A 
BRANCH  53  67
ATOM     67  C   UNL A   1      44.592  27.996  35.013  1.00  0.00     0.058 A 
ATOM     68  C   UNL A   1      45.906  28.488  34.964  1.00  0.00     0.135 A 
ATOM     69  C   UNL A   1      44.373  26.780  35.681  1.00  0.00     0.135 A 
ATOM     70  F   UNL A   1      46.175  29.634  34.318  1.00  0.00    -0.206 F 
ATOM     71  C   UNL A   1      46.965  27.792  35.537  1.00  0.00     0.059 A 
ATOM     72  C   UNL A   1      45.413  26.082  36.288  1.00  0.00     0.059 A 
ATOM     73  F   UNL A   1      43.137  26.261  35.754  1.00  0.00    -0.206 F 
ATOM     74  C   UNL A   1      46.708  26.590  36.199  1.00  0.00     0.060 A 
BRANCH  74  75
ATOM     75  S   UNL A   1      48.091  25.705  36.948  1.00  0.00     0.124 S 
ATOM     76  O   UNL A   1      47.728  25.739  38.361  1.00  0.00    -0.237 OA
ATOM     77  O   UNL A   1      48.009  24.398  36.305  1.00  0.00    -0.237 OA
ATOM     78  O   UNL A   1      49.251  26.511  36.580  1.00  0.00    -0.744 OA
ENDBRANCH  74  75
ENDBRANCH  53  67
BRANCH  54  79
ATOM     79  C   UNL A   1      36.919  32.701  30.643  1.00  0.00     0.058 A 
ATOM     80  C   UNL A   1      35.610  32.262  30.891  1.00  0.00     0.135 A 
ATOM     81  C   UNL A   1      37.086  33.790  29.773  1.00  0.00     0.135 A 
ATOM     82  F   UNL A   1      35.396  31.215  31.703  1.00  0.00    -0.206 F 
ATOM     83  C   UNL A   1      34.510  32.864  30.288  1.00  0.00     0.059 A 
ATOM     84  C   UNL A   1      36.001  34.429  29.180  1.00  0.00     0.059 A 
ATOM     85  F   UNL A   1      38.315  34.256  29.506  1.00  0.00    -0.206 F 
ATOM     86  C   UNL A   1      34.716  33.950  29.435  1.00  0.00     0.060 A 
BRANCH  86  87
ATOM     87  S   UNL A   1      33.278  34.752  28.691  1.00  0.00     0.124 S 
ATOM     88  O   UNL A   1      33.884  35.924  28.070  1.00  0.00    -0.237 OA
ATOM     89  O   UNL A   1      32.795  33.722  27.777  1.00  0.00    -0.237 OA
ATOM     90  O   UNL A   1      32.413  35.020  29.836  1.00  0.00    -0.744 OA
ENDBRANCH  86  87
ENDBRANCH  54  79
BRANCH  66  91
ATOM     91  C   UNL A   1      39.837  33.035  36.987  1.00  0.00     0.058 A 
ATOM     92  C   UNL A   1      38.851  32.694  37.926  1.00  0.00     0.135 A 
ATOM     93  C   UNL A   1      40.642  34.154  37.260  1.00  0.00     0.135 A 
ATOM     94  F   UNL A   1      38.050  31.638  37.714  1.00  0.00    -0.206 F 
ATOM     95  C   UNL A   1      38.666  33.442  39.087  1.00  0.00     0.059 A 
ATOM     96  C   UNL A   1      40.494  34.896  38.426  1.00  0.00     0.059 A 
ATOM     97  F   UNL A   1      41.608  34.515  36.400  1.00  0.00    -0.206 F 
ATOM     98  C   UNL A   1      39.498  34.536  39.331  1.00  0.00     0.060 A 
BRANCH  98  99
ATOM     99  S   UNL A   1      39.288  35.458  40.870  1.00  0.00     0.124 S 
ATOM    100  O   UNL A   1      40.588  35.272  41.506  1.00  0.00    -0.237 OA
ATOM    101  O   UNL A   1      39.004  36.806  40.390  1.00  0.00    -0.237 OA
ATOM    102  O   UNL A   1      38.169  34.783  41.522  1.00  0.00    -0.744 OA
ENDBRANCH  98  99
ENDBRANCH  66  91
ENDBRANCH  40  41
ENDBRANCH  33  35
ENDBRANCH  32  33
ENDBRANCH  31  32
ENDBRANCH  30  31
ENDBRANCH  29  30
ENDBRANCH  28  29
ENDBRANCH   1  28
TORSDOF 23
ENDMDL
MODEL 3
REMARK VINA RESULT:      -9.6      4.388     10.614
REMARK SMILES Cc1cc(C)c(C(N)=O)c(N[C@H]2C=C[C@H](C(=O)OCCOCCOCCOC(=O)c3ccc(-c4c5nc(c(-c6c(F)cc(S(=O)(=O)[O-])cc6F)c6ccc([nH]6)c(-c6c(F)cc(S(=O)(=O)[O-])cc6F)c6nc(c(-c7c(F)cc(S(=O)(=O)[O-])cc7F)c7ccc4[nH]7)C=C6)C=C5)cc3)C2)n1
REMARK SMILES IDX 22 1 21 2 20 3 19 4 18 5 16 6 17 7 15 8 12 9 13 10 96 11
REMARK SMILES IDX 14 12 11 13 10 15 1 16 2 17 3 18 97 19 4 20 5 21 6 22 7 23
REMARK SMILES IDX 8 24 9 25 23 28 24 29 25 30 26 31 27 32 28 33 29 34 30 35
REMARK SMILES IDX 31 36 95 37 32 38 94 39 33 40 34 41 35 42 88 43 36 44 93 45
REMARK SMILES IDX 87 46 89 47 37 48 92 49 86 50 85 51 38 53 72 54 51 55 71 56
REMARK SMILES IDX 52 57 55 58 70 59 90 60 53 61 54 62 69 64 91 65 56 66 39 67
REMARK SMILES IDX 40 68 49 69 41 70 42 71 48 72 50 73 43 74 44 75 45 76 46 77
REMARK SMILES IDX 47 78 73 79 74 80 83 81 75 82 76 83 82 84 84 85 77 86 78 87
REMARK SMILES IDX 79 88 80 89 81 90 57 91 58 92 67 93 59 94 60 95 66 96 68 97
REMARK SMILES IDX 61 98 62 99 63 100 64 101 65 102
REMARK H PARENT 11 14 8 26 8 27 89 52 55 63
REMARK Flexibility Score: inf
ROOT
ATOM      1  C   UNL A   1      32.510  36.375  30.302  1.00  0.00     0.188 C 
ENDROOT
BRANCH   1   2
ATOM      2  O   UNL A   1      33.482  36.492  31.318  1.00  0.00    -0.376 OA
BRANCH   2   3
ATOM      3  C   UNL A   1      33.431  35.646  32.458  1.00  0.00     0.202 C 
BRANCH   3   4
ATOM      4  C   UNL A   1      34.382  35.755  33.663  1.00  0.00     0.261 C 
BRANCH   4   5
ATOM      5  O   UNL A   1      35.730  35.338  33.427  1.00  0.00    -0.463 OA
BRANCH   5   6
ATOM      6  C   UNL A   1      36.112  34.179  34.042  1.00  0.00     0.312 C 
ATOM      7  O   UNL A   1      35.349  33.286  34.390  1.00  0.00    -0.252 OA
BRANCH   6   8
ATOM      8  C   UNL A   1      37.630  34.093  34.130  1.00  0.00     0.124 C 
ATOM      9  C   UNL A   1      38.370  31.791  34.434  1.00  0.00     0.104 C 
ATOM     10  C   UNL A   1      38.501  32.577  35.699  1.00  0.00    -0.006 C 
ATOM     11  C   UNL A   1      38.131  32.857  33.361  1.00  0.00     0.048 C 
ATOM     12  C   UNL A   1      38.084  33.838  35.535  1.00  0.00    -0.014 C 
BRANCH   9  13
ATOM     13  N   UNL A   1      39.503  30.925  34.171  1.00  0.00    -0.363 N 
ATOM     14  H   UNL A   1      39.315  29.983  33.958  1.00  0.00     0.162 HD
BRANCH  13  15
ATOM     15  C   UNL A   1      40.835  31.324  34.195  1.00  0.00     0.139 A 
ATOM     16  C   UNL A   1      42.659  34.218  32.828  1.00  0.00     0.067 C 
ATOM     17  C   UNL A   1      42.400  32.937  33.558  1.00  0.00     0.040 A 
ATOM     18  C   UNL A   1      43.438  32.227  34.132  1.00  0.00     0.028 A 
ATOM     19  N   UNL A   1      41.125  32.510  33.610  1.00  0.00    -0.236 NA
ATOM     20  C   UNL A   1      43.169  31.016  34.789  1.00  0.00    -0.033 A 
ATOM     21  C   UNL A   1      44.356  30.323  35.403  1.00  0.00     0.045 C 
ATOM     22  C   UNL A   1      41.838  30.537  34.806  1.00  0.00     0.084 A 
BRANCH  22  23
ATOM     23  C   UNL A   1      41.512  29.211  35.427  1.00  0.00     0.252 C 
ATOM     24  N   UNL A   1      41.215  28.166  34.598  1.00  0.00    -0.365 N 
ATOM     25  O   UNL A   1      41.509  29.032  36.638  1.00  0.00    -0.269 OA
ATOM     26  H   UNL A   1      41.213  28.297  33.621  1.00  0.00     0.159 HD
ATOM     27  H   UNL A   1      41.001  27.282  34.975  1.00  0.00     0.159 HD
ENDBRANCH  22  23
ENDBRANCH  13  15
ENDBRANCH   9  13
ENDBRANCH   6   8
ENDBRANCH   5   6
ENDBRANCH   4   5
ENDBRANCH   3   4
ENDBRANCH   2   3
ENDBRANCH   1   2
BRANCH   1  28
ATOM     28  C   UNL A   1      32.976  36.036  28.872  1.00  0.00     0.188 C 
BRANCH  28  29
ATOM     29  O   UNL A   1      32.738  34.753  28.337  1.00  0.00    -0.376 OA
BRANCH  29  30
ATOM     30  C   UNL A   1      33.802  33.819  28.243  1.00  0.00     0.202 C 
BRANCH  30  31
ATOM     31  C   UNL A   1      34.642  33.313  29.433  1.00  0.00     0.261 C 
BRANCH  31  32
ATOM     32  O   UNL A   1      35.256  32.026  29.316  1.00  0.00    -0.460 OA
BRANCH  32  33
ATOM     33  C   UNL A   1      35.807  31.541  30.453  1.00  0.00     0.338 C 
ATOM     34  O   UNL A   1      35.321  31.568  31.580  1.00  0.00    -0.246 OA
BRANCH  33  35
ATOM     35  C   UNL A   1      37.025  30.787  30.118  1.00  0.00     0.060 A 
ATOM     36  C   UNL A   1      37.680  30.071  31.132  1.00  0.00     0.016 A 
ATOM     37  C   UNL A   1      37.547  30.827  28.826  1.00  0.00     0.016 A 
ATOM     38  C   UNL A   1      38.877  29.409  30.859  1.00  0.00     0.010 A 
ATOM     39  C   UNL A   1      38.759  30.187  28.562  1.00  0.00     0.010 A 
ATOM     40  C   UNL A   1      39.444  29.503  29.584  1.00  0.00    -0.014 A 
BRANCH  40  41
ATOM     41  C   UNL A   1      40.847  29.078  29.359  1.00  0.00     0.031 A 
ATOM     42  C   UNL A   1      41.928  30.116  29.493  1.00  0.00     0.074 A 
ATOM     43  C   UNL A   1      41.156  27.813  29.025  1.00  0.00     0.049 A 
ATOM     44  N   UNL A   1      43.201  30.031  29.212  1.00  0.00    -0.248 NA
ATOM     45  C   UNL A   1      41.510  31.432  30.008  1.00  0.00     0.031 C 
ATOM     46  C   UNL A   1      40.205  26.709  28.917  1.00  0.00     0.029 A 
ATOM     47  N   UNL A   1      42.364  27.252  28.693  1.00  0.00    -0.354 N 
ATOM     48  C   UNL A   1      43.733  31.284  29.498  1.00  0.00     0.074 A 
ATOM     49  C   UNL A   1      42.642  32.117  29.952  1.00  0.00     0.031 C 
ATOM     50  C   UNL A   1      40.863  25.606  28.519  1.00  0.00     0.029 A 
ATOM     51  C   UNL A   1      42.272  25.937  28.303  1.00  0.00     0.049 A 
ATOM     52  H   UNL A   1      43.215  27.745  28.729  1.00  0.00     0.167 HD
ATOM     53  C   UNL A   1      45.017  31.699  29.394  1.00  0.00     0.037 A 
ATOM     54  C   UNL A   1      43.210  25.110  27.798  1.00  0.00     0.037 A 
ATOM     55  C   UNL A   1      46.096  30.862  28.939  1.00  0.00     0.049 A 
ATOM     56  C   UNL A   1      44.621  25.617  27.616  1.00  0.00     0.074 A 
ATOM     57  C   UNL A   1      47.433  31.187  28.799  1.00  0.00     0.029 A 
ATOM     58  N   UNL A   1      45.961  29.539  28.547  1.00  0.00    -0.354 N 
ATOM     59  N   UNL A   1      45.114  26.802  27.888  1.00  0.00    -0.248 NA
ATOM     60  C   UNL A   1      45.603  24.676  27.057  1.00  0.00     0.031 C 
ATOM     61  C   UNL A   1      48.098  30.076  28.272  1.00  0.00     0.029 A 
ATOM     62  C   UNL A   1      47.188  29.038  28.147  1.00  0.00     0.049 A 
ATOM     63  H   UNL A   1      45.117  29.031  28.553  1.00  0.00     0.167 HD
ATOM     64  C   UNL A   1      46.471  26.733  27.578  1.00  0.00     0.074 A 
ATOM     65  C   UNL A   1      46.718  25.392  27.092  1.00  0.00     0.031 C 
ATOM     66  C   UNL A   1      47.425  27.690  27.693  1.00  0.00     0.037 A 
BRANCH  53  67
ATOM     67  C   UNL A   1      45.320  33.129  29.746  1.00  0.00     0.058 A 
ATOM     68  C   UNL A   1      45.724  33.504  31.037  1.00  0.00     0.135 A 
ATOM     69  C   UNL A   1      45.237  34.133  28.768  1.00  0.00     0.135 A 
ATOM     70  F   UNL A   1      45.798  32.588  32.016  1.00  0.00    -0.206 F 
ATOM     71  C   UNL A   1      46.016  34.828  31.351  1.00  0.00     0.059 A 
ATOM     72  C   UNL A   1      45.554  35.458  29.052  1.00  0.00     0.059 A 
ATOM     73  F   UNL A   1      44.851  33.830  27.518  1.00  0.00    -0.206 F 
ATOM     74  C   UNL A   1      45.929  35.798  30.351  1.00  0.00     0.060 A 
BRANCH  74  75
ATOM     75  S   UNL A   1      46.323  37.508  30.772  1.00  0.00     0.124 S 
ATOM     76  O   UNL A   1      47.615  37.355  31.434  1.00  0.00    -0.237 OA
ATOM     77  O   UNL A   1      46.356  38.152  29.463  1.00  0.00    -0.237 OA
ATOM     78  O   UNL A   1      45.220  37.909  31.638  1.00  0.00    -0.744 OA
ENDBRANCH  74  75
ENDBRANCH  53  67
BRANCH  54  79
ATOM     79  C   UNL A   1      42.850  23.719  27.406  1.00  0.00     0.058 A 
ATOM     80  C   UNL A   1      42.513  23.404  26.082  1.00  0.00     0.135 A 
ATOM     81  C   UNL A   1      42.819  22.682  28.351  1.00  0.00     0.135 A 
ATOM     82  F   UNL A   1      42.513  24.362  25.143  1.00  0.00    -0.206 F 
ATOM     83  C   UNL A   1      42.141  22.115  25.709  1.00  0.00     0.059 A 
ATOM     84  C   UNL A   1      42.479  21.379  27.998  1.00  0.00     0.059 A 
ATOM     85  F   UNL A   1      43.139  22.926  29.631  1.00  0.00    -0.206 F 
ATOM     86  C   UNL A   1      42.130  21.108  26.676  1.00  0.00     0.060 A 
BRANCH  86  87
ATOM     87  S   UNL A   1      41.687  19.431  26.173  1.00  0.00     0.124 S 
ATOM     88  O   UNL A   1      41.962  18.676  27.391  1.00  0.00    -0.237 OA
ATOM     89  O   UNL A   1      40.280  19.581  25.818  1.00  0.00    -0.237 OA
ATOM     90  O   UNL A   1      42.585  19.167  25.052  1.00  0.00    -0.744 OA
ENDBRANCH  86  87
ENDBRANCH  54  79
BRANCH  66  91
ATOM     91  C   UNL A   1      48.845  27.317  27.360  1.00  0.00     0.058 A 
ATOM     92  C   UNL A   1      49.765  26.930  28.347  1.00  0.00     0.135 A 
ATOM     93  C   UNL A   1      49.259  27.257  26.019  1.00  0.00     0.135 A 
ATOM     94  F   UNL A   1      49.424  26.972  29.644  1.00  0.00    -0.206 F 
ATOM     95  C   UNL A   1      51.050  26.507  28.014  1.00  0.00     0.059 A 
ATOM     96  C   UNL A   1      50.527  26.811  25.663  1.00  0.00     0.059 A 
ATOM     97  F   UNL A   1      48.413  27.605  25.035  1.00  0.00    -0.206 F 
ATOM     98  C   UNL A   1      51.418  26.444  26.668  1.00  0.00     0.060 A 
BRANCH  98  99
ATOM     99  S   UNL A   1      53.066  25.835  26.249  1.00  0.00     0.124 S 
ATOM    100  O   UNL A   1      53.740  25.892  27.542  1.00  0.00    -0.237 OA
ATOM    101  O   UNL A   1      52.783  24.497  25.740  1.00  0.00    -0.237 OA
ATOM    102  O   UNL A   1      53.540  26.791  25.252  1.00  0.00    -0.744 OA
ENDBRANCH  98  99
ENDBRANCH  66  91
ENDBRANCH  40  41
ENDBRANCH  33  35
ENDBRANCH  32  33
ENDBRANCH  31  32
ENDBRANCH  30  31
ENDBRANCH  29  30
ENDBRANCH  28  29
ENDBRANCH   1  28
TORSDOF 23
ENDMDL
