MODEL 1
REMARK VINA RESULT:      -8.8      0.000      0.000
REMARK SMILES CC[C@@H](Oc1cccc(/C=C2/SC(=O)N(c3cccc(OC)c3)C2=O)c1)C(=O)OCCOCCOCCOC(=O)c1ccc(-c2c3nc(c(-c4c(F)cc(S(=O)(=O)[O-])cc4F)c4ccc([nH]4)c(-c4c(F)cc(S(=O)(=O)[O-])cc4F)c4nc(c(-c5c(F)cc(S(=O)(=O)[O-])cc5F)c5ccc2[nH]5)C=C4)C=C3)cc1
REMARK SMILES IDX 33 1 32 2 31 3 30 4 29 5 27 6 28 7 3 8 2 9 1 10 4 11 5 12
REMARK SMILES IDX 6 13 26 14 7 15 9 16 8 17 10 18 11 19 12 20 24 21 13 22
REMARK SMILES IDX 15 23 25 24 14 25 16 26 17 27 23 28 18 29 20 30 19 31 21 32
REMARK SMILES IDX 22 33 34 34 35 35 36 36 37 37 38 38 39 39 40 40 41 41 42 42
REMARK SMILES IDX 106 43 43 44 105 45 44 46 45 47 46 48 99 49 47 50 104 51
REMARK SMILES IDX 98 52 100 53 48 54 103 55 97 56 96 57 49 59 83 60 62 61
REMARK SMILES IDX 82 62 63 63 66 64 81 65 101 66 64 67 65 68 80 70 102 71
REMARK SMILES IDX 67 72 50 73 51 74 60 75 52 76 53 77 59 78 61 79 54 80 55 81
REMARK SMILES IDX 56 82 57 83 58 84 84 85 85 86 94 87 86 88 87 89 93 90 95 91
REMARK SMILES IDX 88 92 89 93 90 94 91 95 92 96 68 97 69 98 78 99 70 100
REMARK SMILES IDX 71 101 77 102 79 103 72 104 73 105 74 106 75 107 76 108
REMARK H PARENT 100 58 66 69
REMARK Flexibility Score: inf
ROOT
ATOM      1  C   UNL A   1      38.407  28.661  29.005  1.00  0.00     0.188 C 
ENDROOT
BRANCH   1   2
ATOM      2  O   UNL A   1      38.512  27.619  29.965  1.00  0.00    -0.376 OA
BRANCH   2   3
ATOM      3  C   UNL A   1      39.150  26.414  29.551  1.00  0.00     0.202 C 
BRANCH   3   4
ATOM      4  C   UNL A   1      40.207  26.527  28.442  1.00  0.00     0.261 C 
BRANCH   4   5
ATOM      5  O   UNL A   1      40.585  25.273  27.847  1.00  0.00    -0.461 OA
BRANCH   5   6
ATOM      6  C   UNL A   1      40.186  25.073  26.555  1.00  0.00     0.347 C 
ATOM      7  O   UNL A   1      40.411  25.852  25.635  1.00  0.00    -0.248 OA
BRANCH   6   8
ATOM      8  C   UNL A   1      39.413  23.760  26.358  1.00  0.00     0.282 C 
BRANCH   8   9
ATOM      9  C   UNL A   1      39.825  22.628  27.329  1.00  0.00     0.054 C 
ATOM     10  C   UNL A   1      40.845  21.659  26.730  1.00  0.00     0.008 C 
ENDBRANCH   8   9
BRANCH   8  11
ATOM     11  O   UNL A   1      38.048  24.195  26.537  1.00  0.00    -0.479 OA
BRANCH  11  12
ATOM     12  C   UNL A   1      37.178  23.667  25.631  1.00  0.00     0.121 A 
ATOM     13  C   UNL A   1      37.534  23.494  24.301  1.00  0.00     0.046 A 
ATOM     14  C   UNL A   1      35.870  23.436  26.035  1.00  0.00     0.054 A 
ATOM     15  C   UNL A   1      36.573  23.037  23.391  1.00  0.00     0.004 A 
ATOM     16  C   UNL A   1      34.895  22.977  25.143  1.00  0.00    -0.021 A 
ATOM     17  C   UNL A   1      35.263  22.763  23.813  1.00  0.00     0.008 A 
BRANCH  16  18
ATOM     18  C   UNL A   1      33.567  22.618  25.668  1.00  0.00     0.029 C 
ATOM     19  C   UNL A   1      32.459  23.365  25.529  1.00  0.00     0.083 C 
ATOM     20  S   UNL A   1      31.068  23.191  26.518  1.00  0.00    -0.022 SA
ATOM     21  C   UNL A   1      32.289  24.564  24.655  1.00  0.00     0.272 C 
ATOM     22  C   UNL A   1      30.537  24.841  26.173  1.00  0.00     0.298 C 
ATOM     23  N   UNL A   1      31.309  25.398  25.172  1.00  0.00    -0.236 N 
ATOM     24  O   UNL A   1      32.955  24.718  23.640  1.00  0.00    -0.268 OA
ATOM     25  O   UNL A   1      29.576  25.314  26.760  1.00  0.00    -0.260 OA
BRANCH  23  26
ATOM     26  C   UNL A   1      31.101  26.734  24.680  1.00  0.00     0.057 A 
ATOM     27  C   UNL A   1      31.791  27.828  25.229  1.00  0.00     0.027 A 
ATOM     28  C   UNL A   1      30.161  27.004  23.665  1.00  0.00     0.073 A 
ATOM     29  C   UNL A   1      31.563  29.133  24.789  1.00  0.00     0.006 A 
ATOM     30  C   UNL A   1      29.909  28.316  23.236  1.00  0.00     0.120 A 
ATOM     31  C   UNL A   1      30.624  29.374  23.796  1.00  0.00     0.046 A 
BRANCH  30  32
ATOM     32  O   UNL A   1      29.000  28.696  22.287  1.00  0.00    -0.497 OA
ATOM     33  C   UNL A   1      27.670  28.937  22.727  1.00  0.00     0.278 C 
ENDBRANCH  30  32
ENDBRANCH  23  26
ENDBRANCH  16  18
ENDBRANCH  11  12
ENDBRANCH   8  11
ENDBRANCH   6   8
ENDBRANCH   5   6
ENDBRANCH   4   5
ENDBRANCH   3   4
ENDBRANCH   2   3
ENDBRANCH   1   2
BRANCH   1  34
ATOM     34  C   UNL A   1      37.326  29.716  29.239  1.00  0.00     0.188 C 
BRANCH  34  35
ATOM     35  O   UNL A   1      36.921  30.446  28.084  1.00  0.00    -0.376 OA
BRANCH  35  36
ATOM     36  C   UNL A   1      36.378  31.749  28.341  1.00  0.00     0.202 C 
BRANCH  36  37
ATOM     37  C   UNL A   1      35.712  31.952  29.717  1.00  0.00     0.261 C 
BRANCH  37  38
ATOM     38  O   UNL A   1      35.637  33.328  30.149  1.00  0.00    -0.460 OA
BRANCH  38  39
ATOM     39  C   UNL A   1      35.293  33.555  31.439  1.00  0.00     0.338 C 
ATOM     40  O   UNL A   1      34.165  33.725  31.866  1.00  0.00    -0.246 OA
BRANCH  39  41
ATOM     41  C   UNL A   1      36.483  33.287  32.293  1.00  0.00     0.060 A 
ATOM     42  C   UNL A   1      36.317  32.469  33.420  1.00  0.00     0.016 A 
ATOM     43  C   UNL A   1      37.757  33.758  31.959  1.00  0.00     0.016 A 
ATOM     44  C   UNL A   1      37.409  32.162  34.237  1.00  0.00     0.010 A 
ATOM     45  C   UNL A   1      38.848  33.457  32.781  1.00  0.00     0.010 A 
ATOM     46  C   UNL A   1      38.675  32.688  33.946  1.00  0.00    -0.014 A 
BRANCH  46  47
ATOM     47  C   UNL A   1      39.755  32.625  34.962  1.00  0.00     0.031 A 
ATOM     48  C   UNL A   1      40.641  31.405  34.977  1.00  0.00     0.074 A 
ATOM     49  C   UNL A   1      39.976  33.621  35.840  1.00  0.00     0.049 A 
ATOM     50  N   UNL A   1      41.627  31.104  35.780  1.00  0.00    -0.248 NA
ATOM     51  C   UNL A   1      40.373  30.392  33.943  1.00  0.00     0.031 C 
ATOM     52  C   UNL A   1      39.220  34.869  35.917  1.00  0.00     0.029 A 
ATOM     53  N   UNL A   1      40.906  33.728  36.846  1.00  0.00    -0.354 N 
ATOM     54  C   UNL A   1      42.099  29.870  35.349  1.00  0.00     0.074 A 
ATOM     55  C   UNL A   1      41.269  29.463  34.237  1.00  0.00     0.031 C 
ATOM     56  C   UNL A   1      39.708  35.612  36.927  1.00  0.00     0.029 A 
ATOM     57  C   UNL A   1      40.793  34.883  37.586  1.00  0.00     0.049 A 
ATOM     58  H   UNL A   1      41.590  33.043  37.022  1.00  0.00     0.167 HD
ATOM     59  C   UNL A   1      43.137  29.143  35.825  1.00  0.00     0.037 A 
ATOM     60  C   UNL A   1      41.472  35.293  38.678  1.00  0.00     0.037 A 
ATOM     61  C   UNL A   1      43.962  29.535  36.935  1.00  0.00     0.049 A 
ATOM     62  C   UNL A   1      42.578  34.431  39.240  1.00  0.00     0.074 A 
ATOM     63  C   UNL A   1      45.038  28.862  37.486  1.00  0.00     0.029 A 
ATOM     64  N   UNL A   1      43.796  30.697  37.673  1.00  0.00    -0.354 N 
ATOM     65  N   UNL A   1      43.029  33.277  38.807  1.00  0.00    -0.248 NA
ATOM     66  C   UNL A   1      43.270  34.930  40.438  1.00  0.00     0.031 C 
ATOM     67  C   UNL A   1      45.497  29.596  38.586  1.00  0.00     0.029 A 
ATOM     68  C   UNL A   1      44.738  30.750  38.687  1.00  0.00     0.049 A 
ATOM     69  H   UNL A   1      43.112  31.383  37.501  1.00  0.00     0.167 HD
ATOM     70  C   UNL A   1      44.071  32.928  39.661  1.00  0.00     0.074 A 
ATOM     71  C   UNL A   1      44.193  33.996  40.631  1.00  0.00     0.031 C 
ATOM     72  C   UNL A   1      44.860  31.824  39.642  1.00  0.00     0.037 A 
BRANCH  59  73
ATOM     73  C   UNL A   1      43.425  27.831  35.149  1.00  0.00     0.058 A 
ATOM     74  C   UNL A   1      42.837  26.634  35.587  1.00  0.00     0.135 A 
ATOM     75  C   UNL A   1      44.284  27.776  34.040  1.00  0.00     0.135 A 
ATOM     76  F   UNL A   1      42.026  26.631  36.658  1.00  0.00    -0.206 F 
ATOM     77  C   UNL A   1      43.112  25.422  34.965  1.00  0.00     0.059 A 
ATOM     78  C   UNL A   1      44.553  26.578  33.387  1.00  0.00     0.059 A 
ATOM     79  F   UNL A   1      44.875  28.892  33.587  1.00  0.00    -0.206 F 
ATOM     80  C   UNL A   1      43.973  25.404  33.866  1.00  0.00     0.060 A 
BRANCH  80  81
ATOM     81  S   UNL A   1      44.324  23.822  33.073  1.00  0.00     0.124 S 
ATOM     82  O   UNL A   1      44.331  24.201  31.663  1.00  0.00    -0.237 OA
ATOM     83  O   UNL A   1      45.622  23.469  33.640  1.00  0.00    -0.237 OA
ATOM     84  O   UNL A   1      43.210  22.977  33.490  1.00  0.00    -0.744 OA
ENDBRANCH  80  81
ENDBRANCH  59  73
BRANCH  60  85
ATOM     85  C   UNL A   1      41.118  36.580  39.338  1.00  0.00     0.058 A 
ATOM     86  C   UNL A   1      41.946  37.706  39.229  1.00  0.00     0.135 A 
ATOM     87  C   UNL A   1      39.953  36.698  40.111  1.00  0.00     0.135 A 
ATOM     88  F   UNL A   1      43.081  37.638  38.515  1.00  0.00    -0.206 F 
ATOM     89  C   UNL A   1      41.642  38.901  39.875  1.00  0.00     0.059 A 
ATOM     90  C   UNL A   1      39.614  37.890  40.746  1.00  0.00     0.059 A 
ATOM     91  F   UNL A   1      39.125  35.651  40.245  1.00  0.00    -0.206 F 
ATOM     92  C   UNL A   1      40.471  38.983  40.631  1.00  0.00     0.060 A 
BRANCH  92  93
ATOM     93  S   UNL A   1      40.062  40.550  41.430  1.00  0.00     0.124 S 
ATOM     94  O   UNL A   1      39.300  40.099  42.589  1.00  0.00    -0.237 OA
ATOM     95  O   UNL A   1      41.382  41.105  41.712  1.00  0.00    -0.237 OA
ATOM     96  O   UNL A   1      39.297  41.258  40.408  1.00  0.00    -0.744 OA
ENDBRANCH  92  93
ENDBRANCH  60  85
BRANCH  72  97
ATOM     97  C   UNL A   1      45.953  31.720  40.672  1.00  0.00     0.058 A 
ATOM     98  C   UNL A   1      45.756  31.064  41.897  1.00  0.00     0.135 A 
ATOM     99  C   UNL A   1      47.235  32.225  40.400  1.00  0.00     0.135 A 
ATOM    100  F   UNL A   1      44.550  30.564  42.210  1.00  0.00    -0.206 F 
ATOM    101  C   UNL A   1      46.786  30.931  42.825  1.00  0.00     0.059 A 
ATOM    102  C   UNL A   1      48.287  32.081  41.301  1.00  0.00     0.059 A 
ATOM    103  F   UNL A   1      47.482  32.851  39.238  1.00  0.00    -0.206 F 
ATOM    104  C   UNL A   1      48.049  31.441  42.517  1.00  0.00     0.060 A 
BRANCH 104 105
ATOM    105  S   UNL A   1      49.387  31.228  43.711  1.00  0.00     0.124 S 
ATOM    106  O   UNL A   1      48.717  30.488  44.775  1.00  0.00    -0.237 OA
ATOM    107  O   UNL A   1      50.376  30.478  42.942  1.00  0.00    -0.237 OA
ATOM    108  O   UNL A   1      49.768  32.598  44.042  1.00  0.00    -0.744 OA
ENDBRANCH 104 105
ENDBRANCH  72  97
ENDBRANCH  46  47
ENDBRANCH  39  41
ENDBRANCH  38  39
ENDBRANCH  37  38
ENDBRANCH  36  37
ENDBRANCH  35  36
ENDBRANCH  34  35
ENDBRANCH   1  34
TORSDOF 26
ENDMDL
MODEL 2
REMARK VINA RESULT:      -8.7      7.567      9.288
REMARK SMILES CC[C@@H](Oc1cccc(/C=C2/SC(=O)N(c3cccc(OC)c3)C2=O)c1)C(=O)OCCOCCOCCOC(=O)c1ccc(-c2c3nc(c(-c4c(F)cc(S(=O)(=O)[O-])cc4F)c4ccc([nH]4)c(-c4c(F)cc(S(=O)(=O)[O-])cc4F)c4nc(c(-c5c(F)cc(S(=O)(=O)[O-])cc5F)c5ccc2[nH]5)C=C4)C=C3)cc1
REMARK SMILES IDX 33 1 32 2 31 3 30 4 29 5 27 6 28 7 3 8 2 9 1 10 4 11 5 12
REMARK SMILES IDX 6 13 26 14 7 15 9 16 8 17 10 18 11 19 12 20 24 21 13 22
REMARK SMILES IDX 15 23 25 24 14 25 16 26 17 27 23 28 18 29 20 30 19 31 21 32
REMARK SMILES IDX 22 33 34 34 35 35 36 36 37 37 38 38 39 39 40 40 41 41 42 42
REMARK SMILES IDX 106 43 43 44 105 45 44 46 45 47 46 48 99 49 47 50 104 51
REMARK SMILES IDX 98 52 100 53 48 54 103 55 97 56 96 57 49 59 83 60 62 61
REMARK SMILES IDX 82 62 63 63 66 64 81 65 101 66 64 67 65 68 80 70 102 71
REMARK SMILES IDX 67 72 50 73 51 74 60 75 52 76 53 77 59 78 61 79 54 80 55 81
REMARK SMILES IDX 56 82 57 83 58 84 84 85 85 86 94 87 86 88 87 89 93 90 95 91
REMARK SMILES IDX 88 92 89 93 90 94 91 95 92 96 68 97 69 98 78 99 70 100
REMARK SMILES IDX 71 101 77 102 79 103 72 104 73 105 74 106 75 107 76 108
REMARK H PARENT 100 58 66 69
REMARK Flexibility Score: inf
ROOT
ATOM      1  C   UNL A   1      38.561  29.618  29.956  1.00  0.00     0.188 C 
ENDROOT
BRANCH   1   2
ATOM      2  O   UNL A   1      39.287  28.618  30.659  1.00  0.00    -0.376 OA
BRANCH   2   3
ATOM      3  C   UNL A   1      39.179  27.280  30.183  1.00  0.00     0.202 C 
BRANCH   3   4
ATOM      4  C   UNL A   1      39.306  27.063  28.667  1.00  0.00     0.261 C 
BRANCH   4   5
ATOM      5  O   UNL A   1      39.055  25.715  28.234  1.00  0.00    -0.461 OA
BRANCH   5   6
ATOM      6  C   UNL A   1      39.633  25.343  27.052  1.00  0.00     0.347 C 
ATOM      7  O   UNL A   1      40.510  25.983  26.481  1.00  0.00    -0.248 OA
BRANCH   6   8
ATOM      8  C   UNL A   1      39.071  24.028  26.492  1.00  0.00     0.282 C 
BRANCH   8   9
ATOM      9  C   UNL A   1      39.648  22.756  27.157  1.00  0.00     0.054 C 
ATOM     10  C   UNL A   1      40.496  21.908  26.208  1.00  0.00     0.008 C 
ENDBRANCH   8   9
BRANCH   8  11
ATOM     11  O   UNL A   1      37.655  24.195  26.717  1.00  0.00    -0.479 OA
BRANCH  11  12
ATOM     12  C   UNL A   1      36.872  23.577  25.789  1.00  0.00     0.121 A 
ATOM     13  C   UNL A   1      37.334  23.322  24.507  1.00  0.00     0.046 A 
ATOM     14  C   UNL A   1      35.544  23.332  26.110  1.00  0.00     0.054 A 
ATOM     15  C   UNL A   1      36.459  22.769  23.563  1.00  0.00     0.004 A 
ATOM     16  C   UNL A   1      34.654  22.780  25.184  1.00  0.00    -0.021 A 
ATOM     17  C   UNL A   1      35.128  22.483  23.905  1.00  0.00     0.008 A 
BRANCH  16  18
ATOM     18  C   UNL A   1      33.299  22.415  25.633  1.00  0.00     0.029 C 
ATOM     19  C   UNL A   1      32.209  23.188  25.490  1.00  0.00     0.083 C 
ATOM     20  S   UNL A   1      30.775  22.984  26.411  1.00  0.00    -0.022 SA
ATOM     21  C   UNL A   1      32.095  24.437  24.680  1.00  0.00     0.272 C 
ATOM     22  C   UNL A   1      30.285  24.659  26.138  1.00  0.00     0.298 C 
ATOM     23  N   UNL A   1      31.107  25.258  25.201  1.00  0.00    -0.236 N 
ATOM     24  O   UNL A   1      32.805  24.635  23.703  1.00  0.00    -0.268 OA
ATOM     25  O   UNL A   1      29.308  25.116  26.710  1.00  0.00    -0.260 OA
BRANCH  23  26
ATOM     26  C   UNL A   1      30.940  26.623  24.778  1.00  0.00     0.057 A 
ATOM     27  C   UNL A   1      30.104  26.953  23.698  1.00  0.00     0.027 A 
ATOM     28  C   UNL A   1      31.645  27.675  25.398  1.00  0.00     0.073 A 
ATOM     29  C   UNL A   1      29.971  28.269  23.253  1.00  0.00     0.006 A 
ATOM     30  C   UNL A   1      31.533  28.995  24.938  1.00  0.00     0.120 A 
ATOM     31  C   UNL A   1      30.684  29.286  23.872  1.00  0.00     0.046 A 
BRANCH  30  32
ATOM     32  O   UNL A   1      32.194  30.085  25.440  1.00  0.00    -0.497 OA
ATOM     33  C   UNL A   1      33.232  29.834  26.377  1.00  0.00     0.278 C 
ENDBRANCH  30  32
ENDBRANCH  23  26
ENDBRANCH  16  18
ENDBRANCH  11  12
ENDBRANCH   8  11
ENDBRANCH   6   8
ENDBRANCH   5   6
ENDBRANCH   4   5
ENDBRANCH   3   4
ENDBRANCH   2   3
ENDBRANCH   1   2
BRANCH   1  34
ATOM     34  C   UNL A   1      37.613  30.494  30.776  1.00  0.00     0.188 C 
BRANCH  34  35
ATOM     35  O   UNL A   1      36.303  30.650  30.239  1.00  0.00    -0.376 OA
BRANCH  35  36
ATOM     36  C   UNL A   1      35.528  31.713  30.810  1.00  0.00     0.202 C 
BRANCH  36  37
ATOM     37  C   UNL A   1      36.183  32.489  31.971  1.00  0.00     0.261 C 
BRANCH  37  38
ATOM     38  O   UNL A   1      36.419  33.887  31.700  1.00  0.00    -0.460 OA
BRANCH  38  39
ATOM     39  C   UNL A   1      37.378  34.507  32.428  1.00  0.00     0.338 C 
ATOM     40  O   UNL A   1      37.265  34.916  33.570  1.00  0.00    -0.246 OA
BRANCH  39  41
ATOM     41  C   UNL A   1      38.675  34.360  31.712  1.00  0.00     0.060 A 
ATOM     42  C   UNL A   1      39.811  34.027  32.464  1.00  0.00     0.016 A 
ATOM     43  C   UNL A   1      38.771  34.465  30.320  1.00  0.00     0.016 A 
ATOM     44  C   UNL A   1      41.047  33.849  31.835  1.00  0.00     0.010 A 
ATOM     45  C   UNL A   1      40.009  34.293  29.692  1.00  0.00     0.010 A 
ATOM     46  C   UNL A   1      41.162  34.020  30.450  1.00  0.00    -0.014 A 
BRANCH  46  47
ATOM     47  C   UNL A   1      42.505  34.137  29.826  1.00  0.00     0.031 A 
ATOM     48  C   UNL A   1      43.226  32.867  29.457  1.00  0.00     0.074 A 
ATOM     49  C   UNL A   1      43.076  35.328  29.566  1.00  0.00     0.049 A 
ATOM     50  N   UNL A   1      44.412  32.706  28.932  1.00  0.00    -0.248 NA
ATOM     51  C   UNL A   1      42.506  31.609  29.718  1.00  0.00     0.031 C 
ATOM     52  C   UNL A   1      42.479  36.634  29.838  1.00  0.00     0.029 A 
ATOM     53  N   UNL A   1      44.299  35.626  29.015  1.00  0.00    -0.354 N 
ATOM     54  C   UNL A   1      44.581  31.333  28.797  1.00  0.00     0.074 A 
ATOM     55  C   UNL A   1      43.391  30.705  29.328  1.00  0.00     0.031 C 
ATOM     56  C   UNL A   1      43.346  37.594  29.467  1.00  0.00     0.029 A 
ATOM     57  C   UNL A   1      44.568  36.973  28.955  1.00  0.00     0.049 A 
ATOM     58  H   UNL A   1      44.926  34.938  28.695  1.00  0.00     0.167 HD
ATOM     59  C   UNL A   1      45.625  30.652  28.269  1.00  0.00     0.037 A 
ATOM     60  C   UNL A   1      45.677  37.627  28.551  1.00  0.00     0.037 A 
ATOM     61  C   UNL A   1      46.815  31.268  27.749  1.00  0.00     0.049 A 
ATOM     62  C   UNL A   1      46.862  36.845  28.035  1.00  0.00     0.074 A 
ATOM     63  C   UNL A   1      47.925  30.656  27.191  1.00  0.00     0.029 A 
ATOM     64  N   UNL A   1      47.059  32.632  27.731  1.00  0.00    -0.354 N 
ATOM     65  N   UNL A   1      46.998  35.548  27.891  1.00  0.00    -0.248 NA
ATOM     66  C   UNL A   1      48.045  37.618  27.623  1.00  0.00     0.031 C 
ATOM     67  C   UNL A   1      48.859  31.650  26.876  1.00  0.00     0.029 A 
ATOM     68  C   UNL A   1      48.310  32.881  27.191  1.00  0.00     0.049 A 
ATOM     69  H   UNL A   1      46.435  33.322  28.053  1.00  0.00     0.167 HD
ATOM     70  C   UNL A   1      48.265  35.353  27.348  1.00  0.00     0.074 A 
ATOM     71  C   UNL A   1      48.854  36.665  27.179  1.00  0.00     0.031 C 
ATOM     72  C   UNL A   1      48.884  34.193  27.016  1.00  0.00     0.037 A 
BRANCH  59  73
ATOM     73  C   UNL A   1      45.527  29.153  28.248  1.00  0.00     0.058 A 
ATOM     74  C   UNL A   1      44.855  28.473  27.221  1.00  0.00     0.135 A 
ATOM     75  C   UNL A   1      46.130  28.387  29.259  1.00  0.00     0.135 A 
ATOM     76  F   UNL A   1      44.241  29.161  26.244  1.00  0.00    -0.206 F 
ATOM     77  C   UNL A   1      44.759  27.086  27.210  1.00  0.00     0.059 A 
ATOM     78  C   UNL A   1      46.069  26.998  29.254  1.00  0.00     0.059 A 
ATOM     79  F   UNL A   1      46.780  28.990  30.267  1.00  0.00    -0.206 F 
ATOM     80  C   UNL A   1      45.368  26.357  28.233  1.00  0.00     0.060 A 
BRANCH  80  81
ATOM     81  S   UNL A   1      45.232  24.559  28.208  1.00  0.00     0.124 S 
ATOM     82  O   UNL A   1      44.159  24.362  27.238  1.00  0.00    -0.237 OA
ATOM     83  O   UNL A   1      46.563  24.151  27.769  1.00  0.00    -0.237 OA
ATOM     84  O   UNL A   1      44.900  24.222  29.588  1.00  0.00    -0.744 OA
ENDBRANCH  80  81
ENDBRANCH  59  73
BRANCH  60  85
ATOM     85  C   UNL A   1      45.741  39.112  28.635  1.00  0.00     0.058 A 
ATOM     86  C   UNL A   1      45.383  39.919  27.545  1.00  0.00     0.135 A 
ATOM     87  C   UNL A   1      46.186  39.752  29.802  1.00  0.00     0.135 A 
ATOM     88  F   UNL A   1      44.968  39.355  26.400  1.00  0.00    -0.206 F 
ATOM     89  C   UNL A   1      45.476  41.307  27.603  1.00  0.00     0.059 A 
ATOM     90  C   UNL A   1      46.264  41.139  29.893  1.00  0.00     0.059 A 
ATOM     91  F   UNL A   1      46.538  39.027  30.874  1.00  0.00    -0.206 F 
ATOM     92  C   UNL A   1      45.918  41.908  28.783  1.00  0.00     0.060 A 
BRANCH  92  93
ATOM     93  S   UNL A   1      45.995  43.711  28.863  1.00  0.00     0.124 S 
ATOM     94  O   UNL A   1      44.879  44.091  28.004  1.00  0.00    -0.237 OA
ATOM     95  O   UNL A   1      45.815  43.963  30.289  1.00  0.00    -0.237 OA
ATOM     96  O   UNL A   1      47.325  44.012  28.343  1.00  0.00    -0.744 OA
ENDBRANCH  92  93
ENDBRANCH  60  85
BRANCH  72  97
ATOM     97  C   UNL A   1      50.255  34.276  26.400  1.00  0.00     0.058 A 
ATOM     98  C   UNL A   1      51.411  33.921  27.113  1.00  0.00     0.135 A 
ATOM     99  C   UNL A   1      50.408  34.651  25.054  1.00  0.00     0.135 A 
ATOM    100  F   UNL A   1      51.324  33.556  28.402  1.00  0.00    -0.206 F 
ATOM    101  C   UNL A   1      52.671  33.955  26.521  1.00  0.00     0.059 A 
ATOM    102  C   UNL A   1      51.654  34.667  24.434  1.00  0.00     0.059 A 
ATOM    103  F   UNL A   1      49.335  34.988  24.321  1.00  0.00    -0.206 F 
ATOM    104  C   UNL A   1      52.782  34.328  25.180  1.00  0.00     0.060 A 
BRANCH 104 105
ATOM    105  S   UNL A   1      54.417  34.332  24.412  1.00  0.00     0.124 S 
ATOM    106  O   UNL A   1      55.290  34.270  25.580  1.00  0.00    -0.237 OA
ATOM    107  O   UNL A   1      54.377  33.128  23.585  1.00  0.00    -0.237 OA
ATOM    108  O   UNL A   1      54.443  35.591  23.674  1.00  0.00    -0.744 OA
ENDBRANCH 104 105
ENDBRANCH  72  97
ENDBRANCH  46  47
ENDBRANCH  39  41
ENDBRANCH  38  39
ENDBRANCH  37  38
ENDBRANCH  36  37
ENDBRANCH  35  36
ENDBRANCH  34  35
ENDBRANCH   1  34
TORSDOF 26
ENDMDL
MODEL 3
REMARK VINA RESULT:      -8.6     10.500     16.446
REMARK SMILES CC[C@@H](Oc1cccc(/C=C2/SC(=O)N(c3cccc(OC)c3)C2=O)c1)C(=O)OCCOCCOCCOC(=O)c1ccc(-c2c3nc(c(-c4c(F)cc(S(=O)(=O)[O-])cc4F)c4ccc([nH]4)c(-c4c(F)cc(S(=O)(=O)[O-])cc4F)c4nc(c(-c5c(F)cc(S(=O)(=O)[O-])cc5F)c5ccc2[nH]5)C=C4)C=C3)cc1
REMARK SMILES IDX 33 1 32 2 31 3 30 4 29 5 27 6 28 7 3 8 2 9 1 10 4 11 5 12
REMARK SMILES IDX 6 13 26 14 7 15 9 16 8 17 10 18 11 19 12 20 24 21 13 22
REMARK SMILES IDX 15 23 25 24 14 25 16 26 17 27 23 28 18 29 20 30 19 31 21 32
REMARK SMILES IDX 22 33 34 34 35 35 36 36 37 37 38 38 39 39 40 40 41 41 42 42
REMARK SMILES IDX 106 43 43 44 105 45 44 46 45 47 46 48 99 49 47 50 104 51
REMARK SMILES IDX 98 52 100 53 48 54 103 55 97 56 96 57 49 59 83 60 62 61
REMARK SMILES IDX 82 62 63 63 66 64 81 65 101 66 64 67 65 68 80 70 102 71
REMARK SMILES IDX 67 72 50 73 51 74 60 75 52 76 53 77 59 78 61 79 54 80 55 81
REMARK SMILES IDX 56 82 57 83 58 84 84 85 85 86 94 87 86 88 87 89 93 90 95 91
REMARK SMILES IDX 88 92 89 93 90 94 91 95 92 96 68 97 69 98 78 99 70 100
REMARK SMILES IDX 71 101 77 102 79 103 72 104 73 105 74 106 75 107 76 108
REMARK H PARENT 100 58 66 69
REMARK Flexibility Score: inf
ROOT
ATOM      1  C   UNL A   1      43.375  35.417  29.647  1.00  0.00     0.188 C 
ENDROOT
BRANCH   1   2
ATOM      2  O   UNL A   1      42.377  36.185  28.989  1.00  0.00    -0.376 OA
BRANCH   2   3
ATOM      3  C   UNL A   1      42.380  36.173  27.565  1.00  0.00     0.202 C 
BRANCH   3   4
ATOM      4  C   UNL A   1      43.482  36.979  26.860  1.00  0.00     0.261 C 
BRANCH   4   5
ATOM      5  O   UNL A   1      43.564  38.357  27.264  1.00  0.00    -0.461 OA
BRANCH   5   6
ATOM      6  C   UNL A   1      42.489  39.142  26.954  1.00  0.00     0.347 C 
ATOM      7  O   UNL A   1      41.579  38.801  26.205  1.00  0.00    -0.248 OA
BRANCH   6   8
ATOM      8  C   UNL A   1      42.527  40.517  27.638  1.00  0.00     0.282 C 
BRANCH   8   9
ATOM      9  C   UNL A   1      41.889  40.543  29.047  1.00  0.00     0.054 C 
ATOM     10  C   UNL A   1      42.803  39.978  30.136  1.00  0.00     0.008 C 
ENDBRANCH   8   9
BRANCH   8  11
ATOM     11  O   UNL A   1      43.943  40.799  27.649  1.00  0.00    -0.479 OA
BRANCH  11  12
ATOM     12  C   UNL A   1      44.300  41.860  26.871  1.00  0.00     0.121 A 
ATOM     13  C   UNL A   1      45.082  42.891  27.369  1.00  0.00     0.046 A 
ATOM     14  C   UNL A   1      43.745  41.959  25.603  1.00  0.00     0.054 A 
ATOM     15  C   UNL A   1      45.343  44.002  26.559  1.00  0.00     0.004 A 
ATOM     16  C   UNL A   1      43.994  43.059  24.776  1.00  0.00    -0.021 A 
ATOM     17  C   UNL A   1      44.815  44.079  25.260  1.00  0.00     0.008 A 
BRANCH  16  18
ATOM     18  C   UNL A   1      43.491  43.034  23.392  1.00  0.00     0.029 C 
ATOM     19  C   UNL A   1      44.263  43.113  22.294  1.00  0.00     0.083 C 
ATOM     20  S   UNL A   1      43.666  43.556  20.747  1.00  0.00    -0.022 SA
ATOM     21  C   UNL A   1      45.751  43.020  22.234  1.00  0.00     0.272 C 
ATOM     22  C   UNL A   1      45.268  44.070  20.206  1.00  0.00     0.298 C 
ATOM     23  N   UNL A   1      46.231  43.706  21.128  1.00  0.00    -0.236 N 
ATOM     24  O   UNL A   1      46.391  42.405  23.077  1.00  0.00    -0.268 OA
ATOM     25  O   UNL A   1      45.406  44.621  19.124  1.00  0.00    -0.260 OA
BRANCH  23  26
ATOM     26  C   UNL A   1      47.629  43.992  20.949  1.00  0.00     0.057 A 
ATOM     27  C   UNL A   1      48.466  43.117  20.237  1.00  0.00     0.027 A 
ATOM     28  C   UNL A   1      48.224  45.136  21.521  1.00  0.00     0.073 A 
ATOM     29  C   UNL A   1      49.833  43.365  20.095  1.00  0.00     0.006 A 
ATOM     30  C   UNL A   1      49.601  45.376  21.403  1.00  0.00     0.120 A 
ATOM     31  C   UNL A   1      50.396  44.491  20.678  1.00  0.00     0.046 A 
BRANCH  30  32
ATOM     32  O   UNL A   1      50.286  46.430  21.944  1.00  0.00    -0.497 OA
ATOM     33  C   UNL A   1      49.522  47.560  22.343  1.00  0.00     0.278 C 
ENDBRANCH  30  32
ENDBRANCH  23  26
ENDBRANCH  16  18
ENDBRANCH  11  12
ENDBRANCH   8  11
ENDBRANCH   6   8
ENDBRANCH   5   6
ENDBRANCH   4   5
ENDBRANCH   3   4
ENDBRANCH   2   3
ENDBRANCH   1   2
BRANCH   1  34
ATOM     34  C   UNL A   1      43.455  35.539  31.170  1.00  0.00     0.188 C 
BRANCH  34  35
ATOM     35  O   UNL A   1      44.077  36.723  31.659  1.00  0.00    -0.376 OA
BRANCH  35  36
ATOM     36  C   UNL A   1      45.506  36.759  31.538  1.00  0.00     0.202 C 
BRANCH  36  37
ATOM     37  C   UNL A   1      46.071  37.550  30.340  1.00  0.00     0.261 C 
BRANCH  37  38
ATOM     38  O   UNL A   1      47.480  37.349  30.100  1.00  0.00    -0.460 OA
BRANCH  38  39
ATOM     39  C   UNL A   1      47.854  37.014  28.842  1.00  0.00     0.338 C 
ATOM     40  O   UNL A   1      48.519  37.693  28.082  1.00  0.00    -0.246 OA
BRANCH  39  41
ATOM     41  C   UNL A   1      47.558  35.569  28.639  1.00  0.00     0.060 A 
ATOM     42  C   UNL A   1      47.007  35.174  27.410  1.00  0.00     0.016 A 
ATOM     43  C   UNL A   1      47.886  34.602  29.595  1.00  0.00     0.016 A 
ATOM     44  C   UNL A   1      46.739  33.825  27.158  1.00  0.00     0.010 A 
ATOM     45  C   UNL A   1      47.610  33.253  29.345  1.00  0.00     0.010 A 
ATOM     46  C   UNL A   1      47.002  32.860  28.140  1.00  0.00    -0.014 A 
BRANCH  46  47
ATOM     47  C   UNL A   1      46.441  31.492  28.003  1.00  0.00     0.031 A 
ATOM     48  C   UNL A   1      47.356  30.399  27.512  1.00  0.00     0.074 A 
ATOM     49  C   UNL A   1      45.166  31.201  28.322  1.00  0.00     0.049 A 
ATOM     50  N   UNL A   1      47.097  29.139  27.282  1.00  0.00    -0.248 NA
ATOM     51  C   UNL A   1      48.751  30.787  27.246  1.00  0.00     0.031 C 
ATOM     52  C   UNL A   1      44.182  32.150  28.839  1.00  0.00     0.029 A 
ATOM     53  N   UNL A   1      44.480  30.013  28.246  1.00  0.00    -0.354 N 
ATOM     54  C   UNL A   1      48.295  28.582  26.849  1.00  0.00     0.074 A 
ATOM     55  C   UNL A   1      49.270  29.649  26.812  1.00  0.00     0.031 C 
ATOM     56  C   UNL A   1      43.013  31.509  29.020  1.00  0.00     0.029 A 
ATOM     57  C   UNL A   1      43.157  30.112  28.609  1.00  0.00     0.049 A 
ATOM     58  H   UNL A   1      44.896  29.169  27.959  1.00  0.00     0.167 HD
ATOM     59  C   UNL A   1      48.566  27.297  26.520  1.00  0.00     0.037 A 
ATOM     60  C   UNL A   1      42.173  29.188  28.592  1.00  0.00     0.037 A 
ATOM     61  C   UNL A   1      47.600  26.233  26.543  1.00  0.00     0.049 A 
ATOM     62  C   UNL A   1      42.478  27.776  28.149  1.00  0.00     0.074 A 
ATOM     63  C   UNL A   1      47.785  24.898  26.227  1.00  0.00     0.029 A 
ATOM     64  N   UNL A   1      46.266  26.381  26.890  1.00  0.00    -0.354 N 
ATOM     65  N   UNL A   1      43.621  27.259  27.764  1.00  0.00    -0.248 NA
ATOM     66  C   UNL A   1      41.359  26.821  28.143  1.00  0.00     0.031 C 
ATOM     67  C   UNL A   1      46.552  24.247  26.341  1.00  0.00     0.029 A 
ATOM     68  C   UNL A   1      45.611  25.165  26.776  1.00  0.00     0.049 A 
ATOM     69  H   UNL A   1      45.846  27.224  27.175  1.00  0.00     0.167 HD
ATOM     70  C   UNL A   1      43.364  25.917  27.496  1.00  0.00     0.074 A 
ATOM     71  C   UNL A   1      41.960  25.697  27.773  1.00  0.00     0.031 C 
ATOM     72  C   UNL A   1      44.214  24.953  27.065  1.00  0.00     0.037 A 
BRANCH  59  73
ATOM     73  C   UNL A   1      49.969  26.981  26.085  1.00  0.00     0.058 A 
ATOM     74  C   UNL A   1      50.965  26.633  27.011  1.00  0.00     0.135 A 
ATOM     75  C   UNL A   1      50.315  27.007  24.725  1.00  0.00     0.135 A 
ATOM     76  F   UNL A   1      50.691  26.617  28.326  1.00  0.00    -0.206 F 
ATOM     77  C   UNL A   1      52.264  26.350  26.606  1.00  0.00     0.059 A 
ATOM     78  C   UNL A   1      51.602  26.702  24.295  1.00  0.00     0.059 A 
ATOM     79  F   UNL A   1      49.400  27.339  23.801  1.00  0.00    -0.206 F 
ATOM     80  C   UNL A   1      52.574  26.389  25.245  1.00  0.00     0.060 A 
BRANCH  80  81
ATOM     81  S   UNL A   1      54.265  26.023  24.735  1.00  0.00     0.124 S 
ATOM     82  O   UNL A   1      55.029  26.912  25.605  1.00  0.00    -0.237 OA
ATOM     83  O   UNL A   1      54.378  24.598  25.030  1.00  0.00    -0.237 OA
ATOM     84  O   UNL A   1      54.276  26.369  23.318  1.00  0.00    -0.744 OA
ENDBRANCH  80  81
ENDBRANCH  59  73
BRANCH  60  85
ATOM     85  C   UNL A   1      40.788  29.564  28.989  1.00  0.00     0.058 A 
ATOM     86  C   UNL A   1      39.769  29.702  28.036  1.00  0.00     0.135 A 
ATOM     87  C   UNL A   1      40.464  29.815  30.332  1.00  0.00     0.135 A 
ATOM     88  F   UNL A   1      40.033  29.490  26.737  1.00  0.00    -0.206 F 
ATOM     89  C   UNL A   1      38.482  30.091  28.394  1.00  0.00     0.059 A 
ATOM     90  C   UNL A   1      39.178  30.181  30.718  1.00  0.00     0.059 A 
ATOM     91  F   UNL A   1      41.402  29.695  31.284  1.00  0.00    -0.206 F 
ATOM     92  C   UNL A   1      38.196  30.327  29.740  1.00  0.00     0.060 A 
BRANCH  92  93
ATOM     93  S   UNL A   1      36.512  30.788  30.202  1.00  0.00     0.124 S 
ATOM     94  O   UNL A   1      35.726  30.062  29.210  1.00  0.00    -0.237 OA
ATOM     95  O   UNL A   1      36.422  30.295  31.572  1.00  0.00    -0.237 OA
ATOM     96  O   UNL A   1      36.513  32.242  30.065  1.00  0.00    -0.744 OA
ENDBRANCH  92  93
ENDBRANCH  60  85
BRANCH  72  97
ATOM     97  C   UNL A   1      43.673  23.558  26.896  1.00  0.00     0.058 A 
ATOM     98  C   UNL A   1      43.395  22.734  27.998  1.00  0.00     0.135 A 
ATOM     99  C   UNL A   1      43.364  23.065  25.617  1.00  0.00     0.135 A 
ATOM    100  F   UNL A   1      43.672  23.153  29.243  1.00  0.00    -0.206 F 
ATOM    101  C   UNL A   1      42.850  21.463  27.837  1.00  0.00     0.059 A 
ATOM    102  C   UNL A   1      42.795  21.808  25.434  1.00  0.00     0.059 A 
ATOM    103  F   UNL A   1      43.598  23.816  24.530  1.00  0.00    -0.206 F 
ATOM    104  C   UNL A   1      42.551  21.009  26.550  1.00  0.00     0.060 A 
BRANCH 104 105
ATOM    105  S   UNL A   1      41.809  19.374  26.356  1.00  0.00     0.124 S 
ATOM    106  O   UNL A   1      42.498  18.878  25.169  1.00  0.00    -0.237 OA
ATOM    107  O   UNL A   1      42.159  18.720  27.613  1.00  0.00    -0.237 OA
ATOM    108  O   UNL A   1      40.388  19.665  26.182  1.00  0.00    -0.744 OA
ENDBRANCH 104 105
ENDBRANCH  72  97
ENDBRANCH  46  47
ENDBRANCH  39  41
ENDBRANCH  38  39
ENDBRANCH  37  38
ENDBRANCH  36  37
ENDBRANCH  35  36
ENDBRANCH  34  35
ENDBRANCH   1  34
TORSDOF 26
ENDMDL
