MODEL 1
REMARK VINA RESULT:     -13.5      0.000      0.000
REMARK SMILES Cc1ccccc1N[C@H](C(=O)OCCOCCOCCOC(=O)c1ccc(-c2c3nc(c(-c4c(F)cc(S(=O)(=O)[O-])cc4F)c4ccc([nH]4)c(-c4c(F)cc(S(=O)(=O)[O-])cc4F)c4nc(c(-c5c(F)cc(S(=O)(=O)[O-])cc5F)c5ccc2[nH]5)C=C4)C=C3)cc1)c1cccc(C2CC2)c1
REMARK SMILES IDX 17 1 16 2 15 3 14 4 13 5 12 6 10 7 11 8 9 9 8 10 7 12 1 13
REMARK SMILES IDX 2 14 3 15 4 16 6 17 5 18 90 19 91 20 98 21 92 22 94 23 93 24
REMARK SMILES IDX 95 25 96 26 97 27 18 28 19 29 20 30 21 31 22 32 23 33 24 34
REMARK SMILES IDX 25 35 89 36 26 37 88 38 27 39 28 40 29 41 82 42 30 43 87 44
REMARK SMILES IDX 81 45 83 46 31 47 86 48 80 49 79 50 32 52 66 53 45 54 65 55
REMARK SMILES IDX 46 56 49 57 64 58 84 59 47 60 48 61 63 63 85 64 50 65 33 66
REMARK SMILES IDX 34 67 43 68 35 69 36 70 42 71 44 72 37 73 38 74 39 75 40 76
REMARK SMILES IDX 41 77 67 78 68 79 77 80 69 81 70 82 76 83 78 84 71 85 72 86
REMARK SMILES IDX 73 87 74 88 75 89 51 90 52 91 61 92 53 93 54 94 60 95 62 96
REMARK SMILES IDX 55 97 56 98 57 99 58 100 59 101
REMARK H PARENT 8 11 83 51 49 62
REMARK Flexibility Score: inf
ROOT
ATOM      1  C   UNL A   1      39.593  20.637  25.441  1.00  0.00     0.188 C 
ENDROOT
BRANCH   1   2
ATOM      2  C   UNL A   1      38.901  21.626  26.349  1.00  0.00     0.188 C 
BRANCH   2   3
ATOM      3  O   UNL A   1      38.419  22.838  25.757  1.00  0.00    -0.376 OA
BRANCH   3   4
ATOM      4  C   UNL A   1      37.098  22.953  25.211  1.00  0.00     0.202 C 
BRANCH   4   5
ATOM      5  C   UNL A   1      36.601  22.352  23.794  1.00  0.00     0.261 C 
BRANCH   5   6
ATOM      6  O   UNL A   1      35.447  22.918  22.726  1.00  0.00    -0.461 OA
BRANCH   6   7
ATOM      7  C   UNL A   1      33.982  23.509  22.643  1.00  0.00     0.333 C 
ATOM      8  O   UNL A   1      33.583  23.590  21.468  1.00  0.00    -0.249 OA
BRANCH   7   9
ATOM      9  C   UNL A   1      33.143  24.507  23.970  1.00  0.00     0.221 C 
BRANCH   9  10
ATOM     10  N   UNL A   1      34.001  25.640  24.346  1.00  0.00    -0.368 N 
ATOM     11  H   UNL A   1      34.963  25.471  24.223  1.00  0.00     0.161 HD
BRANCH  10  12
ATOM     12  C   UNL A   1      33.716  26.877  24.833  1.00  0.00     0.038 A 
ATOM     13  C   UNL A   1      33.628  27.706  22.422  1.00  0.00     0.046 C 
ATOM     14  C   UNL A   1      33.637  27.944  23.915  1.00  0.00    -0.028 A 
ATOM     15  C   UNL A   1      33.476  29.249  24.390  1.00  0.00     0.005 A 
ATOM     16  C   UNL A   1      33.421  29.497  25.759  1.00  0.00     0.000 A 
ATOM     17  C   UNL A   1      33.554  27.128  26.195  1.00  0.00     0.026 A 
ATOM     18  C   UNL A   1      33.450  28.438  26.661  1.00  0.00     0.002 A 
ENDBRANCH  10  12
ENDBRANCH   9  10
BRANCH   9  19
ATOM     19  C   UNL A   1      31.636  24.758  24.336  1.00  0.00    -0.014 A 
ATOM     20  C   UNL A   1      31.081  24.279  25.497  1.00  0.00     0.006 A 
ATOM     21  C   UNL A   1      30.659  25.396  23.448  1.00  0.00     0.010 A 
ATOM     22  C   UNL A   1      29.985  24.968  25.941  1.00  0.00     0.001 A 
ATOM     23  C   UNL A   1      29.920  26.505  23.854  1.00  0.00    -0.045 A 
ATOM     24  C   UNL A   1      29.628  26.130  25.204  1.00  0.00     0.004 A 
BRANCH  23  25
ATOM     25  C   UNL A   1      30.105  28.221  23.438  1.00  0.00     0.019 C 
ATOM     26  C   UNL A   1      30.026  29.175  22.221  1.00  0.00     0.009 C 
ATOM     27  C   UNL A   1      29.686  29.662  23.596  1.00  0.00     0.009 C 
ENDBRANCH  23  25
ENDBRANCH   9  19
ENDBRANCH   7   9
ENDBRANCH   6   7
ENDBRANCH   5   6
ENDBRANCH   4   5
ENDBRANCH   3   4
ENDBRANCH   2   3
ENDBRANCH   1   2
BRANCH   1  28
ATOM     28  O   UNL A   1      40.363  19.785  26.273  1.00  0.00    -0.376 OA
BRANCH  28  29
ATOM     29  C   UNL A   1      41.016  20.388  27.365  1.00  0.00     0.202 C 
BRANCH  29  30
ATOM     30  C   UNL A   1      42.310  21.069  26.940  1.00  0.00     0.261 C 
BRANCH  30  31
ATOM     31  O   UNL A   1      42.366  22.477  27.276  1.00  0.00    -0.460 OA
BRANCH  31  32
ATOM     32  C   UNL A   1      42.258  23.381  26.253  1.00  0.00     0.338 C 
ATOM     33  O   UNL A   1      42.789  23.204  25.148  1.00  0.00    -0.246 OA
BRANCH  32  34
ATOM     34  C   UNL A   1      41.324  24.468  26.606  1.00  0.00     0.060 A 
ATOM     35  C   UNL A   1      41.118  25.686  25.972  1.00  0.00     0.016 A 
ATOM     36  C   UNL A   1      40.627  24.314  27.751  1.00  0.00     0.016 A 
ATOM     37  C   UNL A   1      40.664  26.858  26.703  1.00  0.00     0.010 A 
ATOM     38  C   UNL A   1      40.186  25.467  28.390  1.00  0.00     0.010 A 
ATOM     39  C   UNL A   1      40.453  26.866  28.098  1.00  0.00    -0.014 A 
BRANCH  39  40
ATOM     40  C   UNL A   1      40.357  28.346  29.188  1.00  0.00     0.031 A 
ATOM     41  C   UNL A   1      38.940  29.641  29.552  1.00  0.00     0.074 A 
ATOM     42  C   UNL A   1      41.605  28.459  29.792  1.00  0.00     0.049 A 
ATOM     43  N   UNL A   1      38.870  30.964  29.239  1.00  0.00    -0.248 NA
ATOM     44  C   UNL A   1      37.475  29.507  30.080  1.00  0.00     0.031 C 
ATOM     45  C   UNL A   1      42.032  29.059  31.040  1.00  0.00     0.029 A 
ATOM     46  N   UNL A   1      42.873  28.294  29.180  1.00  0.00    -0.354 N 
ATOM     47  C   UNL A   1      37.808  31.771  29.700  1.00  0.00     0.074 A 
ATOM     48  C   UNL A   1      36.862  30.709  29.951  1.00  0.00     0.031 C 
ATOM     49  C   UNL A   1      43.223  29.658  30.915  1.00  0.00     0.029 A 
ATOM     50  C   UNL A   1      43.711  29.329  29.625  1.00  0.00     0.049 A 
ATOM     51  H   UNL A   1      43.122  27.578  28.552  1.00  0.00     0.167 HD
ATOM     52  C   UNL A   1      37.733  33.171  30.036  1.00  0.00     0.037 A 
ATOM     53  C   UNL A   1      44.694  29.960  28.962  1.00  0.00     0.037 A 
ATOM     54  C   UNL A   1      38.998  34.055  30.396  1.00  0.00     0.049 A 
ATOM     55  C   UNL A   1      44.462  31.494  28.933  1.00  0.00     0.074 A 
ATOM     56  C   UNL A   1      39.593  34.392  31.630  1.00  0.00     0.029 A 
ATOM     57  N   UNL A   1      39.955  34.697  29.556  1.00  0.00    -0.354 N 
ATOM     58  N   UNL A   1      43.575  32.216  29.608  1.00  0.00    -0.248 NA
ATOM     59  C   UNL A   1      45.239  32.310  28.009  1.00  0.00     0.031 C 
ATOM     60  C   UNL A   1      41.009  34.683  31.440  1.00  0.00     0.029 A 
ATOM     61  C   UNL A   1      41.305  34.555  30.092  1.00  0.00     0.049 A 
ATOM     62  H   UNL A   1      39.734  35.174  28.724  1.00  0.00     0.167 HD
ATOM     63  C   UNL A   1      43.502  33.514  29.075  1.00  0.00     0.074 A 
ATOM     64  C   UNL A   1      44.628  33.500  28.116  1.00  0.00     0.031 C 
ATOM     65  C   UNL A   1      42.576  34.557  29.260  1.00  0.00     0.037 A 
BRANCH  52  66
ATOM     66  C   UNL A   1      36.353  33.734  30.526  1.00  0.00     0.058 A 
ATOM     67  C   UNL A   1      35.356  34.178  29.626  1.00  0.00     0.135 A 
ATOM     68  C   UNL A   1      35.971  33.846  31.883  1.00  0.00     0.135 A 
ATOM     69  F   UNL A   1      35.425  33.954  28.312  1.00  0.00    -0.206 F 
ATOM     70  C   UNL A   1      34.199  34.853  30.017  1.00  0.00     0.059 A 
ATOM     71  C   UNL A   1      34.822  34.545  32.307  1.00  0.00     0.059 A 
ATOM     72  F   UNL A   1      36.697  33.256  32.847  1.00  0.00    -0.206 F 
ATOM     73  C   UNL A   1      33.957  35.078  31.359  1.00  0.00     0.060 A 
BRANCH  73  74
ATOM     74  S   UNL A   1      32.486  36.026  31.799  1.00  0.00     0.124 S 
ATOM     75  O   UNL A   1      31.666  35.021  32.471  1.00  0.00    -0.237 OA
ATOM     76  O   UNL A   1      33.040  37.065  32.660  1.00  0.00    -0.237 OA
ATOM     77  O   UNL A   1      31.977  36.484  30.511  1.00  0.00    -0.744 OA
ENDBRANCH  73  74
ENDBRANCH  52  66
BRANCH  53  78
ATOM     78  C   UNL A   1      45.365  28.972  28.041  1.00  0.00     0.058 A 
ATOM     79  C   UNL A   1      46.415  28.205  28.629  1.00  0.00     0.135 A 
ATOM     80  C   UNL A   1      44.731  28.389  26.936  1.00  0.00     0.135 A 
ATOM     81  F   UNL A   1      47.066  28.677  29.706  1.00  0.00    -0.206 F 
ATOM     82  C   UNL A   1      46.689  26.885  28.263  1.00  0.00     0.059 A 
ATOM     83  C   UNL A   1      45.009  27.064  26.535  1.00  0.00     0.059 A 
ATOM     84  F   UNL A   1      43.735  29.041  26.320  1.00  0.00    -0.206 F 
ATOM     85  C   UNL A   1      45.949  26.306  27.243  1.00  0.00     0.060 A 
BRANCH  85  86
ATOM     86  S   UNL A   1      46.094  24.506  27.036  1.00  0.00     0.124 S 
ATOM     87  O   UNL A   1      45.222  23.995  28.085  1.00  0.00    -0.237 OA
ATOM     88  O   UNL A   1      45.594  24.335  25.673  1.00  0.00    -0.237 OA
ATOM     89  O   UNL A   1      47.521  24.265  27.219  1.00  0.00    -0.744 OA
ENDBRANCH  85  86
ENDBRANCH  53  78
BRANCH  65  90
ATOM     90  C   UNL A   1      42.897  35.870  28.596  1.00  0.00     0.058 A 
ATOM     91  C   UNL A   1      43.566  36.903  29.279  1.00  0.00     0.135 A 
ATOM     92  C   UNL A   1      42.412  36.166  27.312  1.00  0.00     0.135 A 
ATOM     93  F   UNL A   1      44.051  36.710  30.516  1.00  0.00    -0.206 F 
ATOM     94  C   UNL A   1      43.767  38.152  28.704  1.00  0.00     0.059 A 
ATOM     95  C   UNL A   1      42.513  37.435  26.762  1.00  0.00     0.059 A 
ATOM     96  F   UNL A   1      41.831  35.222  26.555  1.00  0.00    -0.206 F 
ATOM     97  C   UNL A   1      43.210  38.415  27.456  1.00  0.00     0.060 A 
BRANCH  97  98
ATOM     98  S   UNL A   1      43.347  40.066  26.754  1.00  0.00     0.124 S 
ATOM     99  O   UNL A   1      42.035  40.269  26.148  1.00  0.00    -0.237 OA
ATOM    100  O   UNL A   1      43.625  40.863  27.943  1.00  0.00    -0.237 OA
ATOM    101  O   UNL A   1      44.451  39.929  25.809  1.00  0.00    -0.744 OA
ENDBRANCH  97  98
ENDBRANCH  65  90
ENDBRANCH  39  40
ENDBRANCH  32  34
ENDBRANCH  31  32
ENDBRANCH  30  31
ENDBRANCH  29  30
ENDBRANCH  28  29
ENDBRANCH   1  28
TORSDOF 24
ENDMDL
MODEL 2
REMARK VINA RESULT:     -12.4      1.110      2.181
REMARK SMILES Cc1ccccc1N[C@H](C(=O)OCCOCCOCCOC(=O)c1ccc(-c2c3nc(c(-c4c(F)cc(S(=O)(=O)[O-])cc4F)c4ccc([nH]4)c(-c4c(F)cc(S(=O)(=O)[O-])cc4F)c4nc(c(-c5c(F)cc(S(=O)(=O)[O-])cc5F)c5ccc2[nH]5)C=C4)C=C3)cc1)c1cccc(C2CC2)c1
REMARK SMILES IDX 17 1 16 2 15 3 14 4 13 5 12 6 10 7 11 8 9 9 8 10 7 12 1 13
REMARK SMILES IDX 2 14 3 15 4 16 6 17 5 18 90 19 91 20 98 21 92 22 94 23 93 24
REMARK SMILES IDX 95 25 96 26 97 27 18 28 19 29 20 30 21 31 22 32 23 33 24 34
REMARK SMILES IDX 25 35 89 36 26 37 88 38 27 39 28 40 29 41 82 42 30 43 87 44
REMARK SMILES IDX 81 45 83 46 31 47 86 48 80 49 79 50 32 52 66 53 45 54 65 55
REMARK SMILES IDX 46 56 49 57 64 58 84 59 47 60 48 61 63 63 85 64 50 65 33 66
REMARK SMILES IDX 34 67 43 68 35 69 36 70 42 71 44 72 37 73 38 74 39 75 40 76
REMARK SMILES IDX 41 77 67 78 68 79 77 80 69 81 70 82 76 83 78 84 71 85 72 86
REMARK SMILES IDX 73 87 74 88 75 89 51 90 52 91 61 92 53 93 54 94 60 95 62 96
REMARK SMILES IDX 55 97 56 98 57 99 58 100 59 101
REMARK H PARENT 8 11 83 51 49 62
REMARK Flexibility Score: inf
ROOT
ATOM      1  C   UNL A   1      39.778  20.771  26.030  1.00  0.00     0.188 C 
ENDROOT
BRANCH   1   2
ATOM      2  C   UNL A   1      38.958  22.037  26.112  1.00  0.00     0.188 C 
BRANCH   2   3
ATOM      3  O   UNL A   1      37.715  22.064  25.402  1.00  0.00    -0.376 OA
BRANCH   3   4
ATOM      4  C   UNL A   1      36.569  22.778  25.886  1.00  0.00     0.202 C 
BRANCH   4   5
ATOM      5  C   UNL A   1      35.103  22.150  26.155  1.00  0.00     0.261 C 
BRANCH   5   6
ATOM      6  O   UNL A   1      33.607  22.892  26.224  1.00  0.00    -0.461 OA
BRANCH   6   7
ATOM      7  C   UNL A   1      32.892  24.271  26.519  1.00  0.00     0.333 C 
ATOM      8  O   UNL A   1      31.678  24.124  26.742  1.00  0.00    -0.249 OA
BRANCH   7   9
ATOM      9  C   UNL A   1      33.542  25.948  26.042  1.00  0.00     0.221 C 
BRANCH   9  10
ATOM     10  N   UNL A   1      34.245  25.853  24.755  1.00  0.00    -0.368 N 
ATOM     11  H   UNL A   1      35.224  25.935  24.827  1.00  0.00     0.161 HD
BRANCH  10  12
ATOM     12  C   UNL A   1      33.799  25.673  23.483  1.00  0.00     0.038 A 
ATOM     13  C   UNL A   1      34.053  28.187  23.135  1.00  0.00     0.046 C 
ATOM     14  C   UNL A   1      33.586  26.820  22.691  1.00  0.00    -0.028 A 
ATOM     15  C   UNL A   1      33.006  26.684  21.426  1.00  0.00     0.005 A 
ATOM     16  C   UNL A   1      32.617  25.429  20.962  1.00  0.00     0.000 A 
ATOM     17  C   UNL A   1      33.502  24.414  22.963  1.00  0.00     0.026 A 
ATOM     18  C   UNL A   1      32.873  24.294  21.725  1.00  0.00     0.002 A 
ENDBRANCH  10  12
ENDBRANCH   9  10
BRANCH   9  19
ATOM     19  C   UNL A   1      33.066  27.414  26.349  1.00  0.00    -0.014 A 
ATOM     20  C   UNL A   1      33.916  28.361  26.865  1.00  0.00     0.006 A 
ATOM     21  C   UNL A   1      31.678  27.877  26.246  1.00  0.00     0.010 A 
ATOM     22  C   UNL A   1      33.564  29.657  26.605  1.00  0.00     0.001 A 
ATOM     23  C   UNL A   1      31.334  28.980  25.468  1.00  0.00    -0.045 A 
ATOM     24  C   UNL A   1      32.433  29.848  25.764  1.00  0.00     0.004 A 
BRANCH  23  25
ATOM     25  C   UNL A   1      30.555  29.061  23.875  1.00  0.00     0.019 C 
ATOM     26  C   UNL A   1      29.554  28.280  22.988  1.00  0.00     0.009 C 
ATOM     27  C   UNL A   1      29.665  29.770  22.884  1.00  0.00     0.009 C 
ENDBRANCH  23  25
ENDBRANCH   9  19
ENDBRANCH   7   9
ENDBRANCH   6   7
ENDBRANCH   5   6
ENDBRANCH   4   5
ENDBRANCH   3   4
ENDBRANCH   2   3
ENDBRANCH   1   2
BRANCH   1  28
ATOM     28  O   UNL A   1      40.182  20.457  27.353  1.00  0.00    -0.376 OA
BRANCH  28  29
ATOM     29  C   UNL A   1      41.012  21.393  28.000  1.00  0.00     0.202 C 
BRANCH  29  30
ATOM     30  C   UNL A   1      42.307  21.620  27.233  1.00  0.00     0.261 C 
BRANCH  30  31
ATOM     31  O   UNL A   1      42.668  23.017  27.098  1.00  0.00    -0.460 OA
BRANCH  31  32
ATOM     32  C   UNL A   1      42.337  23.650  25.929  1.00  0.00     0.338 C 
ATOM     33  O   UNL A   1      42.623  23.188  24.817  1.00  0.00    -0.246 OA
BRANCH  32  34
ATOM     34  C   UNL A   1      41.488  24.830  26.191  1.00  0.00     0.060 A 
ATOM     35  C   UNL A   1      41.593  26.114  25.674  1.00  0.00     0.016 A 
ATOM     36  C   UNL A   1      40.527  24.685  27.125  1.00  0.00     0.016 A 
ATOM     37  C   UNL A   1      41.128  27.274  26.417  1.00  0.00     0.010 A 
ATOM     38  C   UNL A   1      40.094  25.831  27.780  1.00  0.00     0.010 A 
ATOM     39  C   UNL A   1      40.596  27.195  27.721  1.00  0.00    -0.014 A 
BRANCH  39  40
ATOM     40  C   UNL A   1      40.429  28.575  28.927  1.00  0.00     0.031 A 
ATOM     41  C   UNL A   1      38.985  29.830  29.324  1.00  0.00     0.074 A 
ATOM     42  C   UNL A   1      41.642  28.639  29.606  1.00  0.00     0.049 A 
ATOM     43  N   UNL A   1      38.922  31.174  29.123  1.00  0.00    -0.248 NA
ATOM     44  C   UNL A   1      37.494  29.646  29.757  1.00  0.00     0.031 C 
ATOM     45  C   UNL A   1      41.996  29.130  30.922  1.00  0.00     0.029 A 
ATOM     46  N   UNL A   1      42.942  28.531  29.052  1.00  0.00    -0.354 N 
ATOM     47  C   UNL A   1      37.830  31.936  29.593  1.00  0.00     0.074 A 
ATOM     48  C   UNL A   1      36.880  30.853  29.699  1.00  0.00     0.031 C 
ATOM     49  C   UNL A   1      43.188  29.740  30.915  1.00  0.00     0.029 A 
ATOM     50  C   UNL A   1      43.747  29.526  29.629  1.00  0.00     0.049 A 
ATOM     51  H   UNL A   1      43.231  27.873  28.380  1.00  0.00     0.167 HD
ATOM     52  C   UNL A   1      37.727  33.301  30.044  1.00  0.00     0.037 A 
ATOM     53  C   UNL A   1      44.760  30.215  29.078  1.00  0.00     0.037 A 
ATOM     54  C   UNL A   1      38.964  34.155  30.546  1.00  0.00     0.049 A 
ATOM     55  C   UNL A   1      44.518  31.744  29.169  1.00  0.00     0.074 A 
ATOM     56  C   UNL A   1      39.488  34.385  31.835  1.00  0.00     0.029 A 
ATOM     57  N   UNL A   1      39.960  34.869  29.818  1.00  0.00    -0.354 N 
ATOM     58  N   UNL A   1      43.591  32.404  29.854  1.00  0.00    -0.248 NA
ATOM     59  C   UNL A   1      45.338  32.639  28.363  1.00  0.00     0.031 C 
ATOM     60  C   UNL A   1      40.910  34.695  31.749  1.00  0.00     0.029 A 
ATOM     61  C   UNL A   1      41.280  34.685  30.413  1.00  0.00     0.049 A 
ATOM     62  H   UNL A   1      39.781  35.416  29.019  1.00  0.00     0.167 HD
ATOM     63  C   UNL A   1      43.537  33.742  29.432  1.00  0.00     0.074 A 
ATOM     64  C   UNL A   1      44.714  33.814  28.538  1.00  0.00     0.031 C 
ATOM     65  C   UNL A   1      42.594  34.763  29.655  1.00  0.00     0.037 A 
BRANCH  52  66
ATOM     66  C   UNL A   1      36.318  33.816  30.504  1.00  0.00     0.058 A 
ATOM     67  C   UNL A   1      35.353  34.297  29.588  1.00  0.00     0.135 A 
ATOM     68  C   UNL A   1      35.877  33.844  31.847  1.00  0.00     0.135 A 
ATOM     69  F   UNL A   1      35.482  34.151  28.267  1.00  0.00    -0.206 F 
ATOM     70  C   UNL A   1      34.170  34.933  29.966  1.00  0.00     0.059 A 
ATOM     71  C   UNL A   1      34.699  34.502  32.260  1.00  0.00     0.059 A 
ATOM     72  F   UNL A   1      36.570  33.210  32.806  1.00  0.00    -0.206 F 
ATOM     73  C   UNL A   1      33.868  35.076  31.307  1.00  0.00     0.060 A 
BRANCH  73  74
ATOM     74  S   UNL A   1      32.364  35.977  31.735  1.00  0.00     0.124 S 
ATOM     75  O   UNL A   1      32.894  37.121  32.474  1.00  0.00    -0.237 OA
ATOM     76  O   UNL A   1      31.805  36.279  30.422  1.00  0.00    -0.237 OA
ATOM     77  O   UNL A   1      31.607  35.018  32.534  1.00  0.00    -0.744 OA
ENDBRANCH  73  74
ENDBRANCH  52  66
BRANCH  53  78
ATOM     78  C   UNL A   1      45.487  29.311  28.114  1.00  0.00     0.058 A 
ATOM     79  C   UNL A   1      46.434  28.422  28.705  1.00  0.00     0.135 A 
ATOM     80  C   UNL A   1      44.955  28.904  26.883  1.00  0.00     0.135 A 
ATOM     81  F   UNL A   1      46.980  28.722  29.896  1.00  0.00    -0.206 F 
ATOM     82  C   UNL A   1      46.692  27.144  28.205  1.00  0.00     0.059 A 
ATOM     83  C   UNL A   1      45.221  27.626  26.347  1.00  0.00     0.059 A 
ATOM     84  F   UNL A   1      44.061  29.680  26.255  1.00  0.00    -0.206 F 
ATOM     85  C   UNL A   1      46.045  26.735  27.047  1.00  0.00     0.060 A 
BRANCH  85  86
ATOM     86  S   UNL A   1      46.138  24.969  26.628  1.00  0.00     0.124 S 
ATOM     87  O   UNL A   1      45.516  24.337  27.784  1.00  0.00    -0.237 OA
ATOM     88  O   UNL A   1      45.351  24.927  25.397  1.00  0.00    -0.237 OA
ATOM     89  O   UNL A   1      47.570  24.741  26.469  1.00  0.00    -0.744 OA
ENDBRANCH  85  86
ENDBRANCH  53  78
BRANCH  65  90
ATOM     90  C   UNL A   1      42.941  36.129  29.125  1.00  0.00     0.058 A 
ATOM     91  C   UNL A   1      42.592  36.528  27.820  1.00  0.00     0.135 A 
ATOM     92  C   UNL A   1      43.750  37.005  29.863  1.00  0.00     0.135 A 
ATOM     93  F   UNL A   1      41.831  35.745  27.040  1.00  0.00    -0.206 F 
ATOM     94  C   UNL A   1      43.004  37.746  27.292  1.00  0.00     0.059 A 
ATOM     95  C   UNL A   1      44.255  38.177  29.319  1.00  0.00     0.059 A 
ATOM     96  F   UNL A   1      44.068  36.747  31.141  1.00  0.00    -0.206 F 
ATOM     97  C   UNL A   1      43.860  38.549  28.040  1.00  0.00     0.060 A 
BRANCH  97  98
ATOM     98  S   UNL A   1      44.508  40.066  27.321  1.00  0.00     0.124 S 
ATOM     99  O   UNL A   1      45.795  40.217  27.993  1.00  0.00    -0.237 OA
ATOM    100  O   UNL A   1      44.569  39.711  25.908  1.00  0.00    -0.237 OA
ATOM    101  O   UNL A   1      43.500  41.057  27.685  1.00  0.00    -0.744 OA
ENDBRANCH  97  98
ENDBRANCH  65  90
ENDBRANCH  39  40
ENDBRANCH  32  34
ENDBRANCH  31  32
ENDBRANCH  30  31
ENDBRANCH  29  30
ENDBRANCH  28  29
ENDBRANCH   1  28
TORSDOF 24
ENDMDL
MODEL 3
REMARK VINA RESULT:     -10.9      2.255      3.118
REMARK SMILES Cc1ccccc1N[C@H](C(=O)OCCOCCOCCOC(=O)c1ccc(-c2c3nc(c(-c4c(F)cc(S(=O)(=O)[O-])cc4F)c4ccc([nH]4)c(-c4c(F)cc(S(=O)(=O)[O-])cc4F)c4nc(c(-c5c(F)cc(S(=O)(=O)[O-])cc5F)c5ccc2[nH]5)C=C4)C=C3)cc1)c1cccc(C2CC2)c1
REMARK SMILES IDX 17 1 16 2 15 3 14 4 13 5 12 6 10 7 11 8 9 9 8 10 7 12 1 13
REMARK SMILES IDX 2 14 3 15 4 16 6 17 5 18 90 19 91 20 98 21 92 22 94 23 93 24
REMARK SMILES IDX 95 25 96 26 97 27 18 28 19 29 20 30 21 31 22 32 23 33 24 34
REMARK SMILES IDX 25 35 89 36 26 37 88 38 27 39 28 40 29 41 82 42 30 43 87 44
REMARK SMILES IDX 81 45 83 46 31 47 86 48 80 49 79 50 32 52 66 53 45 54 65 55
REMARK SMILES IDX 46 56 49 57 64 58 84 59 47 60 48 61 63 63 85 64 50 65 33 66
REMARK SMILES IDX 34 67 43 68 35 69 36 70 42 71 44 72 37 73 38 74 39 75 40 76
REMARK SMILES IDX 41 77 67 78 68 79 77 80 69 81 70 82 76 83 78 84 71 85 72 86
REMARK SMILES IDX 73 87 74 88 75 89 51 90 52 91 61 92 53 93 54 94 60 95 62 96
REMARK SMILES IDX 55 97 56 98 57 99 58 100 59 101
REMARK H PARENT 8 11 83 51 49 62
REMARK Flexibility Score: inf
ROOT
ATOM      1  C   UNL A   1      39.675  21.013  26.261  1.00  0.00     0.188 C 
ENDROOT
BRANCH   1   2
ATOM      2  C   UNL A   1      38.823  22.252  26.117  1.00  0.00     0.188 C 
BRANCH   2   3
ATOM      3  O   UNL A   1      37.484  22.077  25.638  1.00  0.00    -0.376 OA
BRANCH   3   4
ATOM      4  C   UNL A   1      36.384  22.849  26.139  1.00  0.00     0.202 C 
BRANCH   4   5
ATOM      5  C   UNL A   1      34.945  22.267  26.591  1.00  0.00     0.261 C 
BRANCH   5   6
ATOM      6  O   UNL A   1      33.433  22.979  26.559  1.00  0.00    -0.461 OA
BRANCH   6   7
ATOM      7  C   UNL A   1      32.694  24.377  26.559  1.00  0.00     0.333 C 
ATOM      8  O   UNL A   1      31.457  24.246  26.598  1.00  0.00    -0.249 OA
BRANCH   7   9
ATOM      9  C   UNL A   1      33.429  25.988  25.990  1.00  0.00     0.221 C 
BRANCH   9  10
ATOM     10  N   UNL A   1      33.964  25.829  24.631  1.00  0.00    -0.368 N 
ATOM     11  H   UNL A   1      34.947  25.777  24.591  1.00  0.00     0.161 HD
BRANCH  10  12
ATOM     12  C   UNL A   1      33.358  25.740  23.416  1.00  0.00     0.038 A 
ATOM     13  C   UNL A   1      34.364  23.407  23.186  1.00  0.00     0.046 C 
ATOM     14  C   UNL A   1      33.627  24.602  22.628  1.00  0.00    -0.028 A 
ATOM     15  C   UNL A   1      33.127  24.537  21.323  1.00  0.00     0.005 A 
ATOM     16  C   UNL A   1      32.393  25.597  20.797  1.00  0.00     0.000 A 
ATOM     17  C   UNL A   1      32.534  26.746  22.914  1.00  0.00     0.026 A 
ATOM     18  C   UNL A   1      32.088  26.696  21.594  1.00  0.00     0.002 A 
ENDBRANCH  10  12
ENDBRANCH   9  10
BRANCH   9  19
ATOM     19  C   UNL A   1      33.124  27.491  26.334  1.00  0.00    -0.014 A 
ATOM     20  C   UNL A   1      34.106  28.353  26.756  1.00  0.00     0.006 A 
ATOM     21  C   UNL A   1      31.783  28.082  26.366  1.00  0.00     0.010 A 
ATOM     22  C   UNL A   1      33.852  29.677  26.524  1.00  0.00     0.001 A 
ATOM     23  C   UNL A   1      31.467  29.214  25.620  1.00  0.00    -0.045 A 
ATOM     24  C   UNL A   1      32.666  29.975  25.800  1.00  0.00     0.004 A 
BRANCH  23  25
ATOM     25  C   UNL A   1      30.544  29.373  24.112  1.00  0.00     0.019 C 
ATOM     26  C   UNL A   1      29.488  28.618  23.266  1.00  0.00     0.009 C 
ATOM     27  C   UNL A   1      29.547  30.114  23.255  1.00  0.00     0.009 C 
ENDBRANCH  23  25
ENDBRANCH   9  19
ENDBRANCH   7   9
ENDBRANCH   6   7
ENDBRANCH   5   6
ENDBRANCH   4   5
ENDBRANCH   3   4
ENDBRANCH   2   3
ENDBRANCH   1   2
BRANCH   1  28
ATOM     28  O   UNL A   1      40.350  21.121  27.504  1.00  0.00    -0.376 OA
BRANCH  28  29
ATOM     29  C   UNL A   1      41.285  22.167  27.627  1.00  0.00     0.202 C 
BRANCH  29  30
ATOM     30  C   UNL A   1      42.384  22.065  26.578  1.00  0.00     0.261 C 
BRANCH  30  31
ATOM     31  O   UNL A   1      43.239  23.234  26.513  1.00  0.00    -0.460 OA
BRANCH  31  32
ATOM     32  C   UNL A   1      43.173  24.008  25.385  1.00  0.00     0.338 C 
ATOM     33  O   UNL A   1      43.512  23.592  24.270  1.00  0.00    -0.246 OA
BRANCH  32  34
ATOM     34  C   UNL A   1      42.517  25.300  25.671  1.00  0.00     0.060 A 
ATOM     35  C   UNL A   1      43.089  26.554  25.833  1.00  0.00     0.016 A 
ATOM     36  C   UNL A   1      41.188  25.263  25.896  1.00  0.00     0.016 A 
ATOM     37  C   UNL A   1      42.471  27.571  26.669  1.00  0.00     0.010 A 
ATOM     38  C   UNL A   1      40.642  26.279  26.672  1.00  0.00     0.010 A 
ATOM     39  C   UNL A   1      41.291  27.349  27.412  1.00  0.00    -0.014 A 
BRANCH  39  40
ATOM     40  C   UNL A   1      40.688  28.341  28.839  1.00  0.00     0.031 A 
ATOM     41  C   UNL A   1      39.272  29.673  29.032  1.00  0.00     0.074 A 
ATOM     42  C   UNL A   1      41.495  27.992  29.917  1.00  0.00     0.049 A 
ATOM     43  N   UNL A   1      39.362  31.009  29.279  1.00  0.00    -0.248 NA
ATOM     44  C   UNL A   1      37.732  29.648  28.762  1.00  0.00     0.031 C 
ATOM     45  C   UNL A   1      41.274  28.020  31.349  1.00  0.00     0.029 A 
ATOM     46  N   UNL A   1      42.901  27.810  29.914  1.00  0.00    -0.354 N 
ATOM     47  C   UNL A   1      38.210  31.792  29.509  1.00  0.00     0.074 A 
ATOM     48  C   UNL A   1      37.258  30.913  28.871  1.00  0.00     0.031 C 
ATOM     49  C   UNL A   1      42.381  28.382  32.010  1.00  0.00     0.029 A 
ATOM     50  C   UNL A   1      43.425  28.440  31.053  1.00  0.00     0.049 A 
ATOM     51  H   UNL A   1      43.419  27.327  29.231  1.00  0.00     0.167 HD
ATOM     52  C   UNL A   1      37.986  32.971  30.308  1.00  0.00     0.037 A 
ATOM     53  C   UNL A   1      44.607  29.062  31.203  1.00  0.00     0.037 A 
ATOM     54  C   UNL A   1      38.927  33.410  31.505  1.00  0.00     0.049 A 
ATOM     55  C   UNL A   1      44.420  30.521  31.693  1.00  0.00     0.074 A 
ATOM     56  C   UNL A   1      38.859  33.170  32.893  1.00  0.00     0.029 A 
ATOM     57  N   UNL A   1      40.170  34.108  31.505  1.00  0.00    -0.354 N 
ATOM     58  N   UNL A   1      43.319  31.118  32.138  1.00  0.00    -0.248 NA
ATOM     59  C   UNL A   1      45.546  31.443  31.617  1.00  0.00     0.031 C 
ATOM     60  C   UNL A   1      40.194  33.230  33.477  1.00  0.00     0.029 A 
ATOM     61  C   UNL A   1      41.099  33.529  32.470  1.00  0.00     0.049 A 
ATOM     62  H   UNL A   1      40.375  34.880  30.930  1.00  0.00     0.167 HD
ATOM     63  C   UNL A   1      43.513  32.508  32.197  1.00  0.00     0.074 A 
ATOM     64  C   UNL A   1      44.961  32.614  31.912  1.00  0.00     0.031 C 
ATOM     65  C   UNL A   1      42.613  33.578  32.358  1.00  0.00     0.037 A 
BRANCH  52  66
ATOM     66  C   UNL A   1      36.541  33.582  30.323  1.00  0.00     0.058 A 
ATOM     67  C   UNL A   1      35.966  34.191  29.184  1.00  0.00     0.135 A 
ATOM     68  C   UNL A   1      35.684  33.579  31.448  1.00  0.00     0.135 A 
ATOM     69  F   UNL A   1      36.514  34.101  27.969  1.00  0.00    -0.206 F 
ATOM     70  C   UNL A   1      34.768  34.906  29.205  1.00  0.00     0.059 A 
ATOM     71  C   UNL A   1      34.482  34.314  31.505  1.00  0.00     0.059 A 
ATOM     72  F   UNL A   1      35.980  32.838  32.529  1.00  0.00    -0.206 F 
ATOM     73  C   UNL A   1      34.050  35.006  30.381  1.00  0.00     0.060 A 
BRANCH  73  74
ATOM     74  S   UNL A   1      32.551  36.011  30.366  1.00  0.00     0.124 S 
ATOM     75  O   UNL A   1      31.686  35.281  31.289  1.00  0.00    -0.237 OA
ATOM     76  O   UNL A   1      33.042  37.298  30.847  1.00  0.00    -0.237 OA
ATOM     77  O   UNL A   1      32.134  35.981  28.968  1.00  0.00    -0.744 OA
ENDBRANCH  73  74
ENDBRANCH  52  66
BRANCH  53  78
ATOM     78  C   UNL A   1      45.635  28.350  30.360  1.00  0.00     0.058 A 
ATOM     79  C   UNL A   1      46.082  27.094  30.871  1.00  0.00     0.135 A 
ATOM     80  C   UNL A   1      45.751  28.518  28.974  1.00  0.00     0.135 A 
ATOM     81  F   UNL A   1      45.990  26.837  32.188  1.00  0.00    -0.206 F 
ATOM     82  C   UNL A   1      46.442  26.024  30.050  1.00  0.00     0.059 A 
ATOM     83  C   UNL A   1      46.135  27.456  28.127  1.00  0.00     0.059 A 
ATOM     84  F   UNL A   1      45.358  29.667  28.408  1.00  0.00    -0.206 F 
ATOM     85  C   UNL A   1      46.422  26.199  28.674  1.00  0.00     0.060 A 
BRANCH  85  86
ATOM     86  S   UNL A   1      46.556  24.704  27.649  1.00  0.00     0.124 S 
ATOM     87  O   UNL A   1      46.080  25.166  26.352  1.00  0.00    -0.237 OA
ATOM     88  O   UNL A   1      47.992  24.435  27.725  1.00  0.00    -0.237 OA
ATOM     89  O   UNL A   1      45.699  23.749  28.341  1.00  0.00    -0.744 OA
ENDBRANCH  85  86
ENDBRANCH  53  78
BRANCH  65  90
ATOM     90  C   UNL A   1      43.215  34.952  32.490  1.00  0.00     0.058 A 
ATOM     91  C   UNL A   1      43.426  35.552  33.746  1.00  0.00     0.135 A 
ATOM     92  C   UNL A   1      43.457  35.745  31.358  1.00  0.00     0.135 A 
ATOM     93  F   UNL A   1      43.207  34.870  34.882  1.00  0.00    -0.206 F 
ATOM     94  C   UNL A   1      43.879  36.860  33.867  1.00  0.00     0.059 A 
ATOM     95  C   UNL A   1      43.812  37.081  31.457  1.00  0.00     0.059 A 
ATOM     96  F   UNL A   1      43.359  35.235  30.120  1.00  0.00    -0.206 F 
ATOM     97  C   UNL A   1      44.041  37.624  32.715  1.00  0.00     0.060 A 
BRANCH  97  98
ATOM     98  S   UNL A   1      44.501  39.358  32.859  1.00  0.00     0.124 S 
ATOM     99  O   UNL A   1      45.325  39.572  31.673  1.00  0.00    -0.237 OA
ATOM    100  O   UNL A   1      43.194  40.004  32.846  1.00  0.00    -0.237 OA
ATOM    101  O   UNL A   1      45.219  39.402  34.128  1.00  0.00    -0.744 OA
ENDBRANCH  97  98
ENDBRANCH  65  90
ENDBRANCH  39  40
ENDBRANCH  32  34
ENDBRANCH  31  32
ENDBRANCH  30  31
ENDBRANCH  29  30
ENDBRANCH  28  29
ENDBRANCH   1  28
TORSDOF 24
ENDMDL
