MODEL 1
REMARK VINA RESULT:     -10.5      0.000      0.000
REMARK SMILES COC(=O)c1cccc(-c2cnc(Cl)cc2C(=O)OCCOCCOCCOC(=O)c2ccc(-c3c4nc(c(-c5c(F)cc(S(=O)(=O)[O-])cc5F)c5ccc([nH]5)c(-c5c(F)cc(S(=O)(=O)[O-])cc5F)c5nc(c(-c6c(F)cc(S(=O)(=O)[O-])cc6F)c6ccc3[nH]6)C=C5)C=C4)cc2)c1
REMARK SMILES IDX 23 1 22 2 21 3 20 4 19 5 17 6 18 7 16 8 10 9 11 10 12 11
REMARK SMILES IDX 15 12 13 13 14 14 9 15 5 16 6 17 97 18 7 19 8 20 3 21 4 22
REMARK SMILES IDX 2 23 1 24 24 25 25 26 26 27 27 28 28 29 29 30 30 31 31 32
REMARK SMILES IDX 32 33 96 34 33 35 95 36 34 37 35 38 36 39 89 40 37 41 94 42
REMARK SMILES IDX 88 43 90 44 38 45 93 46 87 47 86 48 39 50 73 51 52 52 72 53
REMARK SMILES IDX 53 54 56 55 71 56 91 57 54 58 55 59 70 61 92 62 57 63 40 64
REMARK SMILES IDX 41 65 50 66 42 67 43 68 49 69 51 70 44 71 45 72 46 73 47 74
REMARK SMILES IDX 48 75 74 76 75 77 84 78 76 79 77 80 83 81 85 82 78 83 79 84
REMARK SMILES IDX 80 85 81 86 82 87 58 88 59 89 68 90 60 91 61 92 67 93 69 94
REMARK SMILES IDX 62 95 63 96 64 97 65 98 66 99
REMARK H PARENT 90 49 56 60
REMARK Flexibility Score: inf
ROOT
ATOM      1  C   UNL A   1      34.237  30.627  27.228  1.00  0.00     0.188 C 
ENDROOT
BRANCH   1   2
ATOM      2  O   UNL A   1      32.813  30.600  27.227  1.00  0.00    -0.376 OA
BRANCH   2   3
ATOM      3  C   UNL A   1      32.257  30.160  25.992  1.00  0.00     0.202 C 
BRANCH   3   4
ATOM      4  C   UNL A   1      31.694  28.737  26.081  1.00  0.00     0.261 C 
BRANCH   4   5
ATOM      5  O   UNL A   1      32.690  27.702  25.976  1.00  0.00    -0.460 OA
BRANCH   5   6
ATOM      6  C   UNL A   1      32.288  26.410  26.041  1.00  0.00     0.339 C 
ATOM      7  O   UNL A   1      31.564  25.930  26.889  1.00  0.00    -0.246 OA
BRANCH   6   8
ATOM      8  C   UNL A   1      32.846  25.692  24.855  1.00  0.00     0.072 A 
ATOM      9  C   UNL A   1      32.163  25.663  23.619  1.00  0.00     0.015 A 
ATOM     10  C   UNL A   1      32.780  24.949  22.594  1.00  0.00     0.122 A 
ATOM     11  N   UNL A   1      33.976  24.321  22.703  1.00  0.00    -0.244 NA
ATOM     12  C   UNL A   1      34.085  25.055  24.994  1.00  0.00     0.057 A 
ATOM     13  C   UNL A   1      34.594  24.397  23.896  1.00  0.00     0.129 A 
ATOM     14  Cl  UNL A   1      36.110  23.597  23.975  1.00  0.00    -0.062 Cl
BRANCH   9  15
ATOM     15  C   UNL A   1      30.878  26.340  23.403  1.00  0.00    -0.015 A 
ATOM     16  C   UNL A   1      29.640  28.375  22.880  1.00  0.00     0.060 A 
ATOM     17  C   UNL A   1      28.486  27.805  23.423  1.00  0.00     0.016 A 
ATOM     18  C   UNL A   1      30.816  27.614  22.814  1.00  0.00     0.024 A 
ATOM     19  C   UNL A   1      28.502  26.490  23.883  1.00  0.00     0.002 A 
ATOM     20  C   UNL A   1      29.695  25.768  23.889  1.00  0.00     0.009 A 
BRANCH  16  21
ATOM     21  C   UNL A   1      29.552  29.785  22.418  1.00  0.00     0.337 C 
ATOM     22  O   UNL A   1      29.572  30.094  21.237  1.00  0.00    -0.246 OA
BRANCH  21  23
ATOM     23  O   UNL A   1      29.474  30.658  23.455  1.00  0.00    -0.465 OA
ATOM     24  C   UNL A   1      28.461  31.647  23.246  1.00  0.00     0.282 C 
ENDBRANCH  21  23
ENDBRANCH  16  21
ENDBRANCH   9  15
ENDBRANCH   6   8
ENDBRANCH   5   6
ENDBRANCH   4   5
ENDBRANCH   3   4
ENDBRANCH   2   3
ENDBRANCH   1   2
BRANCH   1  25
ATOM     25  C   UNL A   1      34.807  31.540  28.324  1.00  0.00     0.188 C 
BRANCH  25  26
ATOM     26  O   UNL A   1      35.307  32.827  27.992  1.00  0.00    -0.376 OA
BRANCH  26  27
ATOM     27  C   UNL A   1      35.055  33.892  28.887  1.00  0.00     0.202 C 
BRANCH  27  28
ATOM     28  C   UNL A   1      35.590  33.760  30.319  1.00  0.00     0.261 C 
BRANCH  28  29
ATOM     29  O   UNL A   1      36.898  33.187  30.464  1.00  0.00    -0.460 OA
BRANCH  29  30
ATOM     30  C   UNL A   1      36.954  31.947  31.017  1.00  0.00     0.338 C 
ATOM     31  O   UNL A   1      36.091  31.387  31.669  1.00  0.00    -0.246 OA
BRANCH  30  32
ATOM     32  C   UNL A   1      38.250  31.344  30.630  1.00  0.00     0.060 A 
ATOM     33  C   UNL A   1      39.239  31.092  31.589  1.00  0.00     0.016 A 
ATOM     34  C   UNL A   1      38.473  31.008  29.296  1.00  0.00     0.016 A 
ATOM     35  C   UNL A   1      40.446  30.474  31.212  1.00  0.00     0.010 A 
ATOM     36  C   UNL A   1      39.665  30.373  28.930  1.00  0.00     0.010 A 
ATOM     37  C   UNL A   1      40.674  30.109  29.876  1.00  0.00    -0.014 A 
BRANCH  37  38
ATOM     38  C   UNL A   1      41.991  29.578  29.398  1.00  0.00     0.031 A 
ATOM     39  C   UNL A   1      43.129  30.542  29.213  1.00  0.00     0.074 A 
ATOM     40  C   UNL A   1      42.185  28.290  29.054  1.00  0.00     0.049 A 
ATOM     41  N   UNL A   1      44.314  30.333  28.702  1.00  0.00    -0.248 NA
ATOM     42  C   UNL A   1      42.888  31.928  29.641  1.00  0.00     0.031 C 
ATOM     43  C   UNL A   1      41.193  27.237  29.186  1.00  0.00     0.029 A 
ATOM     44  N   UNL A   1      43.266  27.645  28.492  1.00  0.00    -0.354 N 
ATOM     45  C   UNL A   1      44.961  31.558  28.752  1.00  0.00     0.074 A 
ATOM     46  C   UNL A   1      44.002  32.523  29.249  1.00  0.00     0.031 C 
ATOM     47  C   UNL A   1      41.674  26.093  28.672  1.00  0.00     0.029 A 
ATOM     48  C   UNL A   1      43.025  26.325  28.175  1.00  0.00     0.049 A 
ATOM     49  H   UNL A   1      44.132  28.086  28.332  1.00  0.00     0.167 HD
ATOM     50  C   UNL A   1      46.249  31.852  28.461  1.00  0.00     0.037 A 
ATOM     51  C   UNL A   1      43.791  25.400  27.559  1.00  0.00     0.037 A 
ATOM     52  C   UNL A   1      47.211  30.903  27.974  1.00  0.00     0.049 A 
ATOM     53  C   UNL A   1      45.204  25.755  27.179  1.00  0.00     0.074 A 
ATOM     54  C   UNL A   1      48.550  31.104  27.692  1.00  0.00     0.029 A 
ATOM     55  N   UNL A   1      46.939  29.573  27.688  1.00  0.00    -0.354 N 
ATOM     56  N   UNL A   1      45.824  26.903  27.312  1.00  0.00    -0.248 NA
ATOM     57  C   UNL A   1      46.033  24.688  26.598  1.00  0.00     0.031 C 
ATOM     58  C   UNL A   1      49.077  29.908  27.192  1.00  0.00     0.029 A 
ATOM     59  C   UNL A   1      48.079  28.946  27.212  1.00  0.00     0.049 A 
ATOM     60  H   UNL A   1      46.063  29.137  27.806  1.00  0.00     0.167 HD
ATOM     61  C   UNL A   1      47.126  26.685  26.873  1.00  0.00     0.074 A 
ATOM     62  C   UNL A   1      47.205  25.296  26.471  1.00  0.00     0.031 C 
ATOM     63  C   UNL A   1      48.160  27.560  26.821  1.00  0.00     0.037 A 
BRANCH  50  64
ATOM     64  C   UNL A   1      46.671  33.277  28.679  1.00  0.00     0.058 A 
ATOM     65  C   UNL A   1      47.191  33.703  29.914  1.00  0.00     0.135 A 
ATOM     66  C   UNL A   1      46.501  34.237  27.672  1.00  0.00     0.135 A 
ATOM     67  F   UNL A   1      47.355  32.826  30.919  1.00  0.00    -0.206 F 
ATOM     68  C   UNL A   1      47.464  35.041  30.164  1.00  0.00     0.059 A 
ATOM     69  C   UNL A   1      46.802  35.578  27.888  1.00  0.00     0.059 A 
ATOM     70  F   UNL A   1      46.008  33.883  26.474  1.00  0.00    -0.206 F 
ATOM     71  C   UNL A   1      47.254  35.973  29.146  1.00  0.00     0.060 A 
BRANCH  71  72
ATOM     72  S   UNL A   1      47.557  37.715  29.503  1.00  0.00     0.124 S 
ATOM     73  O   UNL A   1      46.455  38.352  28.789  1.00  0.00    -0.237 OA
ATOM     74  O   UNL A   1      47.474  37.754  30.960  1.00  0.00    -0.237 OA
ATOM     75  O   UNL A   1      48.885  37.950  28.947  1.00  0.00    -0.744 OA
ENDBRANCH  71  72
ENDBRANCH  50  64
BRANCH  51  76
ATOM     76  C   UNL A   1      43.257  24.032  27.289  1.00  0.00     0.058 A 
ATOM     77  C   UNL A   1      42.703  23.700  26.044  1.00  0.00     0.135 A 
ATOM     78  C   UNL A   1      43.282  23.032  28.275  1.00  0.00     0.135 A 
ATOM     79  F   UNL A   1      42.643  24.622  25.070  1.00  0.00    -0.206 F 
ATOM     80  C   UNL A   1      42.178  22.436  25.789  1.00  0.00     0.059 A 
ATOM     81  C   UNL A   1      42.784  21.753  28.038  1.00  0.00     0.059 A 
ATOM     82  F   UNL A   1      43.808  23.293  29.482  1.00  0.00    -0.206 F 
ATOM     83  C   UNL A   1      42.226  21.466  26.792  1.00  0.00     0.060 A 
BRANCH  83  84
ATOM     84  S   UNL A   1      41.591  19.814  26.426  1.00  0.00     0.124 S 
ATOM     85  O   UNL A   1      40.157  20.065  26.321  1.00  0.00    -0.237 OA
ATOM     86  O   UNL A   1      42.277  19.499  25.176  1.00  0.00    -0.237 OA
ATOM     87  O   UNL A   1      42.012  19.027  27.580  1.00  0.00    -0.744 OA
ENDBRANCH  83  84
ENDBRANCH  51  76
BRANCH  63  88
ATOM     88  C   UNL A   1      49.492  27.045  26.348  1.00  0.00     0.058 A 
ATOM     89  C   UNL A   1      50.381  26.388  27.212  1.00  0.00     0.135 A 
ATOM     90  C   UNL A   1      49.849  27.146  24.993  1.00  0.00     0.135 A 
ATOM     91  F   UNL A   1      50.096  26.272  28.517  1.00  0.00    -0.206 F 
ATOM     92  C   UNL A   1      51.583  25.857  26.750  1.00  0.00     0.059 A 
ATOM     93  C   UNL A   1      51.032  26.598  24.505  1.00  0.00     0.059 A 
ATOM     94  F   UNL A   1      49.033  27.760  24.122  1.00  0.00    -0.206 F 
ATOM     95  C   UNL A   1      51.896  25.960  25.393  1.00  0.00     0.060 A 
BRANCH  95  96
ATOM     96  S   UNL A   1      53.428  25.213  24.798  1.00  0.00     0.124 S 
ATOM     97  O   UNL A   1      53.323  23.859  25.332  1.00  0.00    -0.237 OA
ATOM     98  O   UNL A   1      53.292  25.337  23.350  1.00  0.00    -0.237 OA
ATOM     99  O   UNL A   1      54.467  26.045  25.397  1.00  0.00    -0.744 OA
ENDBRANCH  95  96
ENDBRANCH  63  88
ENDBRANCH  37  38
ENDBRANCH  30  32
ENDBRANCH  29  30
ENDBRANCH  28  29
ENDBRANCH  27  28
ENDBRANCH  26  27
ENDBRANCH  25  26
ENDBRANCH   1  25
TORSDOF 23
ENDMDL
MODEL 2
REMARK VINA RESULT:     -10.3      6.104     11.576
REMARK SMILES COC(=O)c1cccc(-c2cnc(Cl)cc2C(=O)OCCOCCOCCOC(=O)c2ccc(-c3c4nc(c(-c5c(F)cc(S(=O)(=O)[O-])cc5F)c5ccc([nH]5)c(-c5c(F)cc(S(=O)(=O)[O-])cc5F)c5nc(c(-c6c(F)cc(S(=O)(=O)[O-])cc6F)c6ccc3[nH]6)C=C5)C=C4)cc2)c1
REMARK SMILES IDX 23 1 22 2 21 3 20 4 19 5 17 6 18 7 16 8 10 9 11 10 12 11
REMARK SMILES IDX 15 12 13 13 14 14 9 15 5 16 6 17 97 18 7 19 8 20 3 21 4 22
REMARK SMILES IDX 2 23 1 24 24 25 25 26 26 27 27 28 28 29 29 30 30 31 31 32
REMARK SMILES IDX 32 33 96 34 33 35 95 36 34 37 35 38 36 39 89 40 37 41 94 42
REMARK SMILES IDX 88 43 90 44 38 45 93 46 87 47 86 48 39 50 73 51 52 52 72 53
REMARK SMILES IDX 53 54 56 55 71 56 91 57 54 58 55 59 70 61 92 62 57 63 40 64
REMARK SMILES IDX 41 65 50 66 42 67 43 68 49 69 51 70 44 71 45 72 46 73 47 74
REMARK SMILES IDX 48 75 74 76 75 77 84 78 76 79 77 80 83 81 85 82 78 83 79 84
REMARK SMILES IDX 80 85 81 86 82 87 58 88 59 89 68 90 60 91 61 92 67 93 69 94
REMARK SMILES IDX 62 95 63 96 64 97 65 98 66 99
REMARK H PARENT 90 49 56 60
REMARK Flexibility Score: inf
ROOT
ATOM      1  C   UNL A   1      36.930  23.447  25.751  1.00  0.00     0.188 C 
ENDROOT
BRANCH   1   2
ATOM      2  O   UNL A   1      35.844  23.067  24.912  1.00  0.00    -0.376 OA
BRANCH   2   3
ATOM      3  C   UNL A   1      34.622  23.723  25.237  1.00  0.00     0.202 C 
BRANCH   3   4
ATOM      4  C   UNL A   1      34.353  24.933  24.337  1.00  0.00     0.261 C 
BRANCH   4   5
ATOM      5  O   UNL A   1      33.794  26.068  25.026  1.00  0.00    -0.460 OA
BRANCH   5   6
ATOM      6  C   UNL A   1      33.603  27.215  24.332  1.00  0.00     0.339 C 
ATOM      7  O   UNL A   1      33.623  27.329  23.123  1.00  0.00    -0.246 OA
BRANCH   6   8
ATOM      8  C   UNL A   1      33.306  28.304  25.310  1.00  0.00     0.072 A 
ATOM      9  C   UNL A   1      32.042  28.932  25.359  1.00  0.00     0.015 A 
ATOM     10  C   UNL A   1      31.895  29.942  26.307  1.00  0.00     0.122 A 
ATOM     11  N   UNL A   1      32.859  30.329  27.178  1.00  0.00    -0.244 NA
ATOM     12  C   UNL A   1      34.319  28.681  26.202  1.00  0.00     0.057 A 
ATOM     13  C   UNL A   1      34.037  29.684  27.104  1.00  0.00     0.129 A 
ATOM     14  Cl  UNL A   1      35.216  30.203  28.238  1.00  0.00    -0.062 Cl
BRANCH   9  15
ATOM     15  C   UNL A   1      30.933  28.558  24.474  1.00  0.00    -0.015 A 
ATOM     16  C   UNL A   1      28.999  29.215  23.140  1.00  0.00     0.060 A 
ATOM     17  C   UNL A   1      28.542  27.896  23.164  1.00  0.00     0.016 A 
ATOM     18  C   UNL A   1      30.227  29.527  23.740  1.00  0.00     0.024 A 
ATOM     19  C   UNL A   1      29.304  26.899  23.770  1.00  0.00     0.002 A 
ATOM     20  C   UNL A   1      30.484  27.231  24.435  1.00  0.00     0.009 A 
BRANCH  16  21
ATOM     21  C   UNL A   1      28.129  30.227  22.485  1.00  0.00     0.337 C 
ATOM     22  O   UNL A   1      27.409  30.984  23.116  1.00  0.00    -0.246 OA
BRANCH  21  23
ATOM     23  O   UNL A   1      28.222  30.181  21.131  1.00  0.00    -0.465 OA
ATOM     24  C   UNL A   1      27.900  31.440  20.530  1.00  0.00     0.282 C 
ENDBRANCH  21  23
ENDBRANCH  16  21
ENDBRANCH   9  15
ENDBRANCH   6   8
ENDBRANCH   5   6
ENDBRANCH   4   5
ENDBRANCH   3   4
ENDBRANCH   2   3
ENDBRANCH   1   2
BRANCH   1  25
ATOM     25  C   UNL A   1      38.199  22.624  25.481  1.00  0.00     0.188 C 
BRANCH  25  26
ATOM     26  O   UNL A   1      38.667  21.696  26.448  1.00  0.00    -0.376 OA
BRANCH  26  27
ATOM     27  C   UNL A   1      40.006  21.807  26.888  1.00  0.00     0.202 C 
BRANCH  27  28
ATOM     28  C   UNL A   1      40.963  22.656  26.041  1.00  0.00     0.261 C 
BRANCH  28  29
ATOM     29  O   UNL A   1      40.801  24.080  26.123  1.00  0.00    -0.460 OA
BRANCH  29  30
ATOM     30  C   UNL A   1      41.938  24.808  26.274  1.00  0.00     0.338 C 
ATOM     31  O   UNL A   1      42.946  24.758  25.592  1.00  0.00    -0.246 OA
BRANCH  30  32
ATOM     32  C   UNL A   1      41.720  25.745  27.399  1.00  0.00     0.060 A 
ATOM     33  C   UNL A   1      40.602  25.620  28.233  1.00  0.00     0.016 A 
ATOM     34  C   UNL A   1      42.655  26.751  27.637  1.00  0.00     0.016 A 
ATOM     35  C   UNL A   1      40.436  26.489  29.326  1.00  0.00     0.010 A 
ATOM     36  C   UNL A   1      42.498  27.598  28.739  1.00  0.00     0.010 A 
ATOM     37  C   UNL A   1      41.382  27.491  29.592  1.00  0.00    -0.014 A 
BRANCH  37  38
ATOM     38  C   UNL A   1      41.183  28.528  30.655  1.00  0.00     0.031 A 
ATOM     39  C   UNL A   1      41.980  28.418  31.924  1.00  0.00     0.074 A 
ATOM     40  C   UNL A   1      40.268  29.514  30.560  1.00  0.00     0.049 A 
ATOM     41  N   UNL A   1      41.890  29.126  33.019  1.00  0.00    -0.248 NA
ATOM     42  C   UNL A   1      42.996  27.356  31.968  1.00  0.00     0.031 C 
ATOM     43  C   UNL A   1      39.432  29.761  29.398  1.00  0.00     0.029 A 
ATOM     44  N   UNL A   1      39.861  30.474  31.460  1.00  0.00    -0.354 N 
ATOM     45  C   UNL A   1      42.840  28.599  33.881  1.00  0.00     0.074 A 
ATOM     46  C   UNL A   1      43.422  27.451  33.217  1.00  0.00     0.031 C 
ATOM     47  C   UNL A   1      38.571  30.758  29.663  1.00  0.00     0.029 A 
ATOM     48  C   UNL A   1      38.797  31.235  31.021  1.00  0.00     0.049 A 
ATOM     49  H   UNL A   1      40.289  30.605  32.337  1.00  0.00     0.167 HD
ATOM     50  C   UNL A   1      43.234  29.052  35.094  1.00  0.00     0.037 A 
ATOM     51  C   UNL A   1      38.082  32.205  31.629  1.00  0.00     0.037 A 
ATOM     52  C   UNL A   1      42.670  30.194  35.759  1.00  0.00     0.049 A 
ATOM     53  C   UNL A   1      38.486  32.660  33.006  1.00  0.00     0.074 A 
ATOM     54  C   UNL A   1      43.036  30.749  36.971  1.00  0.00     0.029 A 
ATOM     55  N   UNL A   1      41.614  30.953  35.274  1.00  0.00    -0.354 N 
ATOM     56  N   UNL A   1      39.446  32.199  33.772  1.00  0.00    -0.248 NA
ATOM     57  C   UNL A   1      37.740  33.784  33.590  1.00  0.00     0.031 C 
ATOM     58  C   UNL A   1      42.172  31.816  37.242  1.00  0.00     0.029 A 
ATOM     59  C   UNL A   1      41.301  31.959  36.175  1.00  0.00     0.049 A 
ATOM     60  H   UNL A   1      41.154  30.799  34.417  1.00  0.00     0.167 HD
ATOM     61  C   UNL A   1      39.446  33.003  34.907  1.00  0.00     0.074 A 
ATOM     62  C   UNL A   1      38.392  33.980  34.728  1.00  0.00     0.031 C 
ATOM     63  C   UNL A   1      40.257  32.938  35.991  1.00  0.00     0.037 A 
BRANCH  50  64
ATOM     64  C   UNL A   1      44.344  28.290  35.759  1.00  0.00     0.058 A 
ATOM     65  C   UNL A   1      45.693  28.591  35.499  1.00  0.00     0.135 A 
ATOM     66  C   UNL A   1      44.063  27.216  36.614  1.00  0.00     0.135 A 
ATOM     67  F   UNL A   1      46.015  29.597  34.671  1.00  0.00    -0.206 F 
ATOM     68  C   UNL A   1      46.721  27.811  36.010  1.00  0.00     0.059 A 
ATOM     69  C   UNL A   1      45.079  26.443  37.167  1.00  0.00     0.059 A 
ATOM     70  F   UNL A   1      42.792  26.888  36.896  1.00  0.00    -0.206 F 
ATOM     71  C   UNL A   1      46.402  26.731  36.835  1.00  0.00     0.060 A 
BRANCH  71  72
ATOM     72  S   UNL A   1      47.744  25.691  37.445  1.00  0.00     0.124 S 
ATOM     73  O   UNL A   1      48.775  25.929  36.438  1.00  0.00    -0.237 OA
ATOM     74  O   UNL A   1      48.005  26.260  38.764  1.00  0.00    -0.237 OA
ATOM     75  O   UNL A   1      47.164  24.353  37.445  1.00  0.00    -0.744 OA
ENDBRANCH  71  72
ENDBRANCH  50  64
BRANCH  51  76
ATOM     76  C   UNL A   1      36.926  32.843  30.932  1.00  0.00     0.058 A 
ATOM     77  C   UNL A   1      37.116  33.893  30.020  1.00  0.00     0.135 A 
ATOM     78  C   UNL A   1      35.608  32.422  31.170  1.00  0.00     0.135 A 
ATOM     79  F   UNL A   1      38.354  34.342  29.764  1.00  0.00    -0.206 F 
ATOM     80  C   UNL A   1      36.044  34.513  29.383  1.00  0.00     0.059 A 
ATOM     81  C   UNL A   1      34.520  33.011  30.529  1.00  0.00     0.059 A 
ATOM     82  F   UNL A   1      35.369  31.417  32.027  1.00  0.00    -0.206 F 
ATOM     83  C   UNL A   1      34.748  34.062  29.641  1.00  0.00     0.060 A 
BRANCH  83  84
ATOM     84  S   UNL A   1      33.374  34.842  28.764  1.00  0.00     0.124 S 
ATOM     85  O   UNL A   1      32.490  35.209  29.865  1.00  0.00    -0.237 OA
ATOM     86  O   UNL A   1      34.041  35.949  28.084  1.00  0.00    -0.237 OA
ATOM     87  O   UNL A   1      32.886  33.781  27.889  1.00  0.00    -0.744 OA
ENDBRANCH  83  84
ENDBRANCH  51  76
BRANCH  63  88
ATOM     88  C   UNL A   1      40.076  33.974  37.067  1.00  0.00     0.058 A 
ATOM     89  C   UNL A   1      40.687  35.235  36.991  1.00  0.00     0.135 A 
ATOM     90  C   UNL A   1      39.217  33.726  38.151  1.00  0.00     0.135 A 
ATOM     91  F   UNL A   1      41.524  35.522  35.983  1.00  0.00    -0.206 F 
ATOM     92  C   UNL A   1      40.460  36.210  37.958  1.00  0.00     0.059 A 
ATOM     93  C   UNL A   1      38.954  34.696  39.113  1.00  0.00     0.059 A 
ATOM     94  F   UNL A   1      38.603  32.538  38.269  1.00  0.00    -0.206 F 
ATOM     95  C   UNL A   1      39.586  35.934  39.012  1.00  0.00     0.060 A 
BRANCH  95  96
ATOM     96  S   UNL A   1      39.255  37.229  40.225  1.00  0.00     0.124 S 
ATOM     97  O   UNL A   1      40.604  37.597  40.640  1.00  0.00    -0.237 OA
ATOM     98  O   UNL A   1      38.541  38.225  39.430  1.00  0.00    -0.237 OA
ATOM     99  O   UNL A   1      38.450  36.551  41.236  1.00  0.00    -0.744 OA
ENDBRANCH  95  96
ENDBRANCH  63  88
ENDBRANCH  37  38
ENDBRANCH  30  32
ENDBRANCH  29  30
ENDBRANCH  28  29
ENDBRANCH  27  28
ENDBRANCH  26  27
ENDBRANCH  25  26
ENDBRANCH   1  25
TORSDOF 23
ENDMDL
MODEL 3
REMARK VINA RESULT:     -10.2      0.702      8.031
REMARK SMILES COC(=O)c1cccc(-c2cnc(Cl)cc2C(=O)OCCOCCOCCOC(=O)c2ccc(-c3c4nc(c(-c5c(F)cc(S(=O)(=O)[O-])cc5F)c5ccc([nH]5)c(-c5c(F)cc(S(=O)(=O)[O-])cc5F)c5nc(c(-c6c(F)cc(S(=O)(=O)[O-])cc6F)c6ccc3[nH]6)C=C5)C=C4)cc2)c1
REMARK SMILES IDX 23 1 22 2 21 3 20 4 19 5 17 6 18 7 16 8 10 9 11 10 12 11
REMARK SMILES IDX 15 12 13 13 14 14 9 15 5 16 6 17 97 18 7 19 8 20 3 21 4 22
REMARK SMILES IDX 2 23 1 24 24 25 25 26 26 27 27 28 28 29 29 30 30 31 31 32
REMARK SMILES IDX 32 33 96 34 33 35 95 36 34 37 35 38 36 39 89 40 37 41 94 42
REMARK SMILES IDX 88 43 90 44 38 45 93 46 87 47 86 48 39 50 73 51 52 52 72 53
REMARK SMILES IDX 53 54 56 55 71 56 91 57 54 58 55 59 70 61 92 62 57 63 40 64
REMARK SMILES IDX 41 65 50 66 42 67 43 68 49 69 51 70 44 71 45 72 46 73 47 74
REMARK SMILES IDX 48 75 74 76 75 77 84 78 76 79 77 80 83 81 85 82 78 83 79 84
REMARK SMILES IDX 80 85 81 86 82 87 58 88 59 89 68 90 60 91 61 92 67 93 69 94
REMARK SMILES IDX 62 95 63 96 64 97 65 98 66 99
REMARK H PARENT 90 49 56 60
REMARK Flexibility Score: inf
ROOT
ATOM      1  C   UNL A   1      34.108  30.684  27.208  1.00  0.00     0.188 C 
ENDROOT
BRANCH   1   2
ATOM      2  O   UNL A   1      32.702  30.563  27.396  1.00  0.00    -0.376 OA
BRANCH   2   3
ATOM      3  C   UNL A   1      31.987  30.341  26.184  1.00  0.00     0.202 C 
BRANCH   3   4
ATOM      4  C   UNL A   1      31.481  28.901  26.061  1.00  0.00     0.261 C 
BRANCH   4   5
ATOM      5  O   UNL A   1      32.504  27.943  25.730  1.00  0.00    -0.460 OA
BRANCH   5   6
ATOM      6  C   UNL A   1      32.274  26.634  25.993  1.00  0.00     0.339 C 
ATOM      7  O   UNL A   1      31.684  26.194  26.959  1.00  0.00    -0.246 OA
BRANCH   6   8
ATOM      8  C   UNL A   1      32.823  25.830  24.859  1.00  0.00     0.072 A 
ATOM      9  C   UNL A   1      32.117  25.686  23.645  1.00  0.00     0.015 A 
ATOM     10  C   UNL A   1      32.729  24.900  22.670  1.00  0.00     0.122 A 
ATOM     11  N   UNL A   1      33.939  24.305  22.807  1.00  0.00    -0.244 NA
ATOM     12  C   UNL A   1      34.077  25.229  25.026  1.00  0.00     0.057 A 
ATOM     13  C   UNL A   1      34.578  24.492  23.975  1.00  0.00     0.129 A 
ATOM     14  Cl  UNL A   1      36.111  23.729  24.089  1.00  0.00    -0.062 Cl
BRANCH   9  15
ATOM     15  C   UNL A   1      30.815  26.318  23.400  1.00  0.00    -0.015 A 
ATOM     16  C   UNL A   1      29.521  28.307  22.837  1.00  0.00     0.060 A 
ATOM     17  C   UNL A   1      28.377  27.704  23.364  1.00  0.00     0.016 A 
ATOM     18  C   UNL A   1      30.722  27.585  22.799  1.00  0.00     0.024 A 
ATOM     19  C   UNL A   1      28.427  26.394  23.836  1.00  0.00     0.002 A 
ATOM     20  C   UNL A   1      29.642  25.711  23.870  1.00  0.00     0.009 A 
BRANCH  16  21
ATOM     21  C   UNL A   1      29.396  29.709  22.361  1.00  0.00     0.337 C 
ATOM     22  O   UNL A   1      29.180  29.992  21.194  1.00  0.00    -0.246 OA
BRANCH  21  23
ATOM     23  O   UNL A   1      29.572  30.607  23.365  1.00  0.00    -0.465 OA
ATOM     24  C   UNL A   1      28.833  31.812  23.140  1.00  0.00     0.282 C 
ENDBRANCH  21  23
ENDBRANCH  16  21
ENDBRANCH   9  15
ENDBRANCH   6   8
ENDBRANCH   5   6
ENDBRANCH   4   5
ENDBRANCH   3   4
ENDBRANCH   2   3
ENDBRANCH   1   2
BRANCH   1  25
ATOM     25  C   UNL A   1      34.848  31.029  28.509  1.00  0.00     0.188 C 
BRANCH  25  26
ATOM     26  O   UNL A   1      35.172  32.378  28.810  1.00  0.00    -0.376 OA
BRANCH  26  27
ATOM     27  C   UNL A   1      34.798  32.889  30.074  1.00  0.00     0.202 C 
BRANCH  27  28
ATOM     28  C   UNL A   1      35.310  32.152  31.319  1.00  0.00     0.261 C 
BRANCH  28  29
ATOM     29  O   UNL A   1      36.700  31.793  31.325  1.00  0.00    -0.460 OA
BRANCH  29  30
ATOM     30  C   UNL A   1      36.979  30.468  31.432  1.00  0.00     0.338 C 
ATOM     31  O   UNL A   1      36.273  29.599  31.911  1.00  0.00    -0.246 OA
BRANCH  30  32
ATOM     32  C   UNL A   1      38.294  30.237  30.793  1.00  0.00     0.060 A 
ATOM     33  C   UNL A   1      38.439  30.310  29.402  1.00  0.00     0.016 A 
ATOM     34  C   UNL A   1      39.402  29.963  31.594  1.00  0.00     0.016 A 
ATOM     35  C   UNL A   1      39.706  30.135  28.815  1.00  0.00     0.010 A 
ATOM     36  C   UNL A   1      40.663  29.813  31.007  1.00  0.00     0.010 A 
ATOM     37  C   UNL A   1      40.834  29.883  29.611  1.00  0.00    -0.014 A 
BRANCH  37  38
ATOM     38  C   UNL A   1      42.174  29.551  29.030  1.00  0.00     0.031 A 
ATOM     39  C   UNL A   1      42.429  28.144  28.569  1.00  0.00     0.074 A 
ATOM     40  C   UNL A   1      43.190  30.436  28.969  1.00  0.00     0.049 A 
ATOM     41  N   UNL A   1      43.541  27.602  28.146  1.00  0.00    -0.248 NA
ATOM     42  C   UNL A   1      41.283  27.224  28.612  1.00  0.00     0.031 C 
ATOM     43  C   UNL A   1      43.100  31.831  29.361  1.00  0.00     0.029 A 
ATOM     44  N   UNL A   1      44.506  30.293  28.587  1.00  0.00    -0.354 N 
ATOM     45  C   UNL A   1      43.228  26.280  27.869  1.00  0.00     0.074 A 
ATOM     46  C   UNL A   1      41.850  26.080  28.266  1.00  0.00     0.031 C 
ATOM     47  C   UNL A   1      44.308  32.409  29.261  1.00  0.00     0.029 A 
ATOM     48  C   UNL A   1      45.270  31.424  28.785  1.00  0.00     0.049 A 
ATOM     49  H   UNL A   1      44.869  29.460  28.208  1.00  0.00     0.167 HD
ATOM     50  C   UNL A   1      43.995  25.327  27.290  1.00  0.00     0.037 A 
ATOM     51  C   UNL A   1      46.588  31.654  28.607  1.00  0.00     0.037 A 
ATOM     52  C   UNL A   1      45.360  25.516  26.884  1.00  0.00     0.049 A 
ATOM     53  C   UNL A   1      47.449  30.566  28.022  1.00  0.00     0.074 A 
ATOM     54  C   UNL A   1      46.201  24.618  26.252  1.00  0.00     0.029 A 
ATOM     55  N   UNL A   1      46.092  26.679  27.078  1.00  0.00    -0.354 N 
ATOM     56  N   UNL A   1      47.111  29.344  27.689  1.00  0.00    -0.248 NA
ATOM     57  C   UNL A   1      48.858  30.892  27.756  1.00  0.00     0.031 C 
ATOM     58  C   UNL A   1      47.454  25.221  26.103  1.00  0.00     0.029 A 
ATOM     59  C   UNL A   1      47.381  26.514  26.597  1.00  0.00     0.049 A 
ATOM     60  H   UNL A   1      45.746  27.502  27.496  1.00  0.00     0.167 HD
ATOM     61  C   UNL A   1      48.251  28.770  27.135  1.00  0.00     0.074 A 
ATOM     62  C   UNL A   1      49.288  29.779  27.177  1.00  0.00     0.031 C 
ATOM     63  C   UNL A   1      48.412  27.523  26.630  1.00  0.00     0.037 A 
BRANCH  50  64
ATOM     64  C   UNL A   1      43.340  23.995  27.063  1.00  0.00     0.058 A 
ATOM     65  C   UNL A   1      42.695  23.696  25.850  1.00  0.00     0.135 A 
ATOM     66  C   UNL A   1      43.304  23.032  28.082  1.00  0.00     0.135 A 
ATOM     67  F   UNL A   1      42.683  24.592  24.850  1.00  0.00    -0.206 F 
ATOM     68  C   UNL A   1      41.980  22.518  25.680  1.00  0.00     0.059 A 
ATOM     69  C   UNL A   1      42.624  21.829  27.920  1.00  0.00     0.059 A 
ATOM     70  F   UNL A   1      43.905  23.267  29.259  1.00  0.00    -0.206 F 
ATOM     71  C   UNL A   1      41.942  21.595  26.727  1.00  0.00     0.060 A 
BRANCH  71  72
ATOM     72  S   UNL A   1      40.961  20.097  26.514  1.00  0.00     0.124 S 
ATOM     73  O   UNL A   1      40.947  19.564  27.873  1.00  0.00    -0.237 OA
ATOM     74  O   UNL A   1      39.689  20.623  26.026  1.00  0.00    -0.237 OA
ATOM     75  O   UNL A   1      41.729  19.323  25.544  1.00  0.00    -0.744 OA
ENDBRANCH  71  72
ENDBRANCH  50  64
BRANCH  51  76
ATOM     76  C   UNL A   1      47.179  32.980  28.954  1.00  0.00     0.058 A 
ATOM     77  C   UNL A   1      47.710  33.230  30.228  1.00  0.00     0.135 A 
ATOM     78  C   UNL A   1      47.215  34.029  28.020  1.00  0.00     0.135 A 
ATOM     79  F   UNL A   1      47.691  32.267  31.162  1.00  0.00    -0.206 F 
ATOM     80  C   UNL A   1      48.240  34.472  30.571  1.00  0.00     0.059 A 
ATOM     81  C   UNL A   1      47.759  35.273  28.331  1.00  0.00     0.059 A 
ATOM     82  F   UNL A   1      46.727  33.843  26.783  1.00  0.00    -0.206 F 
ATOM     83  C   UNL A   1      48.264  35.487  29.613  1.00  0.00     0.060 A 
BRANCH  83  84
ATOM     84  S   UNL A   1      49.005  37.074  30.058  1.00  0.00     0.124 S 
ATOM     85  O   UNL A   1      49.628  36.762  31.340  1.00  0.00    -0.237 OA
ATOM     86  O   UNL A   1      49.919  37.303  28.943  1.00  0.00    -0.237 OA
ATOM     87  O   UNL A   1      47.860  37.977  30.116  1.00  0.00    -0.744 OA
ENDBRANCH  83  84
ENDBRANCH  51  76
BRANCH  63  88
ATOM     88  C   UNL A   1      49.749  27.173  26.038  1.00  0.00     0.058 A 
ATOM     89  C   UNL A   1      50.799  26.672  26.823  1.00  0.00     0.135 A 
ATOM     90  C   UNL A   1      49.957  27.271  24.652  1.00  0.00     0.135 A 
ATOM     91  F   UNL A   1      50.659  26.568  28.153  1.00  0.00    -0.206 F 
ATOM     92  C   UNL A   1      52.011  26.289  26.255  1.00  0.00     0.059 A 
ATOM     93  C   UNL A   1      51.150  26.867  24.060  1.00  0.00     0.059 A 
ATOM     94  F   UNL A   1      48.984  27.738  23.853  1.00  0.00    -0.206 F 
ATOM     95  C   UNL A   1      52.175  26.384  24.872  1.00  0.00     0.060 A 
BRANCH  95  96
ATOM     96  S   UNL A   1      53.730  25.826  24.143  1.00  0.00     0.124 S 
ATOM     97  O   UNL A   1      53.792  24.443  24.605  1.00  0.00    -0.237 OA
ATOM     98  O   UNL A   1      53.487  26.007  22.715  1.00  0.00    -0.237 OA
ATOM     99  O   UNL A   1      54.720  26.727  24.724  1.00  0.00    -0.744 OA
ENDBRANCH  95  96
ENDBRANCH  63  88
ENDBRANCH  37  38
ENDBRANCH  30  32
ENDBRANCH  29  30
ENDBRANCH  28  29
ENDBRANCH  27  28
ENDBRANCH  26  27
ENDBRANCH  25  26
ENDBRANCH   1  25
TORSDOF 23
ENDMDL
