MODEL 1
REMARK VINA RESULT:      -9.4      0.000      0.000
REMARK SMILES [NH3+][C@@H](Cc1cccc(O)c1)C(=O)OCCOCCOCCOC(=O)c1ccc(-c2c3nc(c(-c4c(F)cc(S(=O)(=O)[O-])cc4F)c4ccc([nH]4)c(-c4c(F)cc(S(=O)(=O)[O-])cc4F)c4nc(c(-c5c(F)cc(S(=O)(=O)[O-])cc5F)c5ccc2[nH]5)C=C4)C=C3)cc1
REMARK SMILES IDX 17 1 16 2 15 3 14 4 13 5 11 6 12 7 2 8 1 9 3 13 4 14 5 15
REMARK SMILES IDX 10 16 6 17 8 18 7 19 9 20 18 22 19 23 20 24 21 25 22 26
REMARK SMILES IDX 23 27 24 28 25 29 26 30 90 31 27 32 89 33 28 34 29 35 30 36
REMARK SMILES IDX 83 37 31 38 88 39 82 40 84 41 32 42 87 43 81 44 80 45 33 47
REMARK SMILES IDX 67 48 46 49 66 50 47 51 50 52 65 53 85 54 48 55 49 56 64 58
REMARK SMILES IDX 86 59 51 60 34 61 35 62 44 63 36 64 37 65 43 66 45 67 38 68
REMARK SMILES IDX 39 69 40 70 41 71 42 72 68 73 69 74 78 75 70 76 71 77 77 78
REMARK SMILES IDX 79 79 72 80 73 81 74 82 75 83 76 84 52 85 53 86 62 87 54 88
REMARK SMILES IDX 55 89 61 90 63 91 56 92 57 93 58 94 59 95 60 96
REMARK H PARENT 1 10 1 11 1 12 9 21 84 46 50 57
REMARK Flexibility Score: inf
ROOT
ATOM      1  C   UNL A   1      35.110  31.828  27.980  1.00  0.00     0.188 C 
ENDROOT
BRANCH   1   2
ATOM      2  O   UNL A   1      34.466  30.589  27.732  1.00  0.00    -0.376 OA
BRANCH   2   3
ATOM      3  C   UNL A   1      33.081  30.585  27.416  1.00  0.00     0.202 C 
BRANCH   3   4
ATOM      4  C   UNL A   1      32.480  29.517  26.487  1.00  0.00     0.261 C 
BRANCH   4   5
ATOM      5  O   UNL A   1      33.395  28.525  25.984  1.00  0.00    -0.459 OA
BRANCH   5   6
ATOM      6  C   UNL A   1      33.013  27.874  24.846  1.00  0.00     0.365 C 
ATOM      7  O   UNL A   1      33.268  26.697  24.608  1.00  0.00    -0.245 OA
BRANCH   6   8
ATOM      8  C   UNL A   1      32.318  28.781  23.810  1.00  0.00     0.296 C 
BRANCH   8   9
ATOM      9  N   UNL A   1      33.204  29.267  22.726  1.00  0.00    -0.346 N 
ATOM     10  H   UNL A   1      33.899  28.554  22.508  1.00  0.00     0.345 HD
ATOM     11  H   UNL A   1      33.676  30.120  23.029  1.00  0.00     0.345 HD
ATOM     12  H   UNL A   1      32.647  29.465  21.894  1.00  0.00     0.345 HD
ENDBRANCH   8   9
BRANCH   8  13
ATOM     13  C   UNL A   1      31.069  28.065  23.258  1.00  0.00     0.113 C 
BRANCH  13  14
ATOM     14  C   UNL A   1      29.812  28.896  23.414  1.00  0.00    -0.038 A 
ATOM     15  C   UNL A   1      29.893  30.285  23.585  1.00  0.00     0.004 A 
ATOM     16  C   UNL A   1      28.555  28.303  23.240  1.00  0.00     0.050 A 
ATOM     17  C   UNL A   1      28.740  31.070  23.528  1.00  0.00     0.004 A 
ATOM     18  C   UNL A   1      27.421  29.097  23.140  1.00  0.00     0.115 A 
ATOM     19  C   UNL A   1      27.501  30.477  23.286  1.00  0.00     0.046 A 
BRANCH  18  20
ATOM     20  O   UNL A   1      26.240  28.478  22.850  1.00  0.00    -0.508 OA
ATOM     21  H   UNL A   1      25.487  28.988  22.626  1.00  0.00     0.293 HD
ENDBRANCH  18  20
ENDBRANCH  13  14
ENDBRANCH   8  13
ENDBRANCH   6   8
ENDBRANCH   5   6
ENDBRANCH   4   5
ENDBRANCH   3   4
ENDBRANCH   2   3
ENDBRANCH   1   2
BRANCH   1  22
ATOM     22  C   UNL A   1      34.442  32.839  28.928  1.00  0.00     0.188 C 
BRANCH  22  23
ATOM     23  O   UNL A   1      34.315  32.459  30.276  1.00  0.00    -0.376 OA
BRANCH  23  24
ATOM     24  C   UNL A   1      35.264  32.915  31.223  1.00  0.00     0.202 C 
BRANCH  24  25
ATOM     25  C   UNL A   1      36.688  32.350  31.425  1.00  0.00     0.261 C 
BRANCH  25  26
ATOM     26  O   UNL A   1      36.844  31.015  31.915  1.00  0.00    -0.460 OA
BRANCH  26  27
ATOM     27  C   UNL A   1      36.913  30.034  30.976  1.00  0.00     0.338 C 
ATOM     28  O   UNL A   1      35.985  29.417  30.494  1.00  0.00    -0.246 OA
BRANCH  27  29
ATOM     29  C   UNL A   1      38.302  29.988  30.462  1.00  0.00     0.060 A 
ATOM     30  C   UNL A   1      38.515  30.031  29.075  1.00  0.00     0.016 A 
ATOM     31  C   UNL A   1      39.382  29.910  31.339  1.00  0.00     0.016 A 
ATOM     32  C   UNL A   1      39.812  29.975  28.562  1.00  0.00     0.010 A 
ATOM     33  C   UNL A   1      40.679  29.824  30.822  1.00  0.00     0.010 A 
ATOM     34  C   UNL A   1      40.899  29.829  29.432  1.00  0.00    -0.014 A 
BRANCH  34  35
ATOM     35  C   UNL A   1      42.241  29.483  28.899  1.00  0.00     0.031 A 
ATOM     36  C   UNL A   1      42.478  28.070  28.437  1.00  0.00     0.074 A 
ATOM     37  C   UNL A   1      43.233  30.392  28.833  1.00  0.00     0.049 A 
ATOM     38  N   UNL A   1      43.584  27.500  28.038  1.00  0.00    -0.248 NA
ATOM     39  C   UNL A   1      41.305  27.179  28.431  1.00  0.00     0.031 C 
ATOM     40  C   UNL A   1      43.117  31.801  29.204  1.00  0.00     0.029 A 
ATOM     41  N   UNL A   1      44.543  30.251  28.445  1.00  0.00    -0.354 N 
ATOM     42  C   UNL A   1      43.247  26.183  27.749  1.00  0.00     0.074 A 
ATOM     43  C   UNL A   1      41.838  26.032  28.041  1.00  0.00     0.031 C 
ATOM     44  C   UNL A   1      44.316  32.391  29.048  1.00  0.00     0.029 A 
ATOM     45  C   UNL A   1      45.290  31.395  28.604  1.00  0.00     0.049 A 
ATOM     46  H   UNL A   1      44.912  29.411  28.087  1.00  0.00     0.167 HD
ATOM     47  C   UNL A   1      44.038  25.190  27.279  1.00  0.00     0.037 A 
ATOM     48  C   UNL A   1      46.613  31.603  28.440  1.00  0.00     0.037 A 
ATOM     49  C   UNL A   1      45.439  25.346  26.991  1.00  0.00     0.049 A 
ATOM     50  C   UNL A   1      47.492  30.460  27.987  1.00  0.00     0.074 A 
ATOM     51  C   UNL A   1      46.325  24.405  26.496  1.00  0.00     0.029 A 
ATOM     52  N   UNL A   1      46.164  26.515  27.180  1.00  0.00    -0.354 N 
ATOM     53  N   UNL A   1      47.159  29.224  27.698  1.00  0.00    -0.248 NA
ATOM     54  C   UNL A   1      48.927  30.742  27.834  1.00  0.00     0.031 C 
ATOM     55  C   UNL A   1      47.595  24.986  26.439  1.00  0.00     0.029 A 
ATOM     56  C   UNL A   1      47.490  26.309  26.835  1.00  0.00     0.049 A 
ATOM     57  H   UNL A   1      45.790  27.364  27.510  1.00  0.00     0.167 HD
ATOM     58  C   UNL A   1      48.334  28.594  27.296  1.00  0.00     0.074 A 
ATOM     59  C   UNL A   1      49.385  29.587  27.370  1.00  0.00     0.031 C 
ATOM     60  C   UNL A   1      48.525  27.311  26.897  1.00  0.00     0.037 A 
BRANCH  47  61
ATOM     61  C   UNL A   1      43.415  23.836  27.074  1.00  0.00     0.058 A 
ATOM     62  C   UNL A   1      43.044  23.375  25.801  1.00  0.00     0.135 A 
ATOM     63  C   UNL A   1      43.230  22.969  28.164  1.00  0.00     0.135 A 
ATOM     64  F   UNL A   1      43.179  24.170  24.728  1.00  0.00    -0.206 F 
ATOM     65  C   UNL A   1      42.495  22.110  25.618  1.00  0.00     0.059 A 
ATOM     66  C   UNL A   1      42.710  21.689  28.000  1.00  0.00     0.059 A 
ATOM     67  F   UNL A   1      43.563  23.361  29.404  1.00  0.00    -0.206 F 
ATOM     68  C   UNL A   1      42.336  21.272  26.724  1.00  0.00     0.060 A 
BRANCH  68  69
ATOM     69  S   UNL A   1      41.643  19.626  26.465  1.00  0.00     0.124 S 
ATOM     70  O   UNL A   1      42.122  18.919  27.649  1.00  0.00    -0.237 OA
ATOM     71  O   UNL A   1      40.209  19.896  26.427  1.00  0.00    -0.237 OA
ATOM     72  O   UNL A   1      42.232  19.201  25.199  1.00  0.00    -0.744 OA
ENDBRANCH  68  69
ENDBRANCH  47  61
BRANCH  48  73
ATOM     73  C   UNL A   1      47.205  32.940  28.726  1.00  0.00     0.058 A 
ATOM     74  C   UNL A   1      47.192  33.961  27.763  1.00  0.00     0.135 A 
ATOM     75  C   UNL A   1      47.816  33.217  29.959  1.00  0.00     0.135 A 
ATOM     76  F   UNL A   1      46.636  33.742  26.562  1.00  0.00    -0.206 F 
ATOM     77  C   UNL A   1      47.781  35.199  28.003  1.00  0.00     0.059 A 
ATOM     78  C   UNL A   1      48.384  34.457  30.234  1.00  0.00     0.059 A 
ATOM     79  F   UNL A   1      47.852  32.278  30.918  1.00  0.00    -0.206 F 
ATOM     80  C   UNL A   1      48.373  35.438  29.244  1.00  0.00     0.060 A 
BRANCH  80  81
ATOM     81  S   UNL A   1      49.104  37.061  29.556  1.00  0.00     0.124 S 
ATOM     82  O   UNL A   1      50.495  36.711  29.821  1.00  0.00    -0.237 OA
ATOM     83  O   UNL A   1      48.849  37.757  28.298  1.00  0.00    -0.237 OA
ATOM     84  O   UNL A   1      48.349  37.556  30.703  1.00  0.00    -0.744 OA
ENDBRANCH  80  81
ENDBRANCH  48  73
BRANCH  60  85
ATOM     85  C   UNL A   1      49.908  26.911  26.455  1.00  0.00     0.058 A 
ATOM     86  C   UNL A   1      50.878  26.452  27.360  1.00  0.00     0.135 A 
ATOM     87  C   UNL A   1      50.246  26.927  25.091  1.00  0.00     0.135 A 
ATOM     88  F   UNL A   1      50.611  26.418  28.676  1.00  0.00    -0.206 F 
ATOM     89  C   UNL A   1      52.139  26.047  26.933  1.00  0.00     0.059 A 
ATOM     90  C   UNL A   1      51.490  26.496  24.637  1.00  0.00     0.059 A 
ATOM     91  F   UNL A   1      49.353  27.344  24.178  1.00  0.00    -0.206 F 
ATOM     92  C   UNL A   1      52.434  26.070  25.568  1.00  0.00     0.060 A 
BRANCH  92  93
ATOM     93  S   UNL A   1      54.061  25.508  25.024  1.00  0.00     0.124 S 
ATOM     94  O   UNL A   1      54.312  26.386  23.886  1.00  0.00    -0.237 OA
ATOM     95  O   UNL A   1      54.885  25.750  26.205  1.00  0.00    -0.237 OA
ATOM     96  O   UNL A   1      53.846  24.102  24.696  1.00  0.00    -0.744 OA
ENDBRANCH  92  93
ENDBRANCH  60  85
ENDBRANCH  34  35
ENDBRANCH  27  29
ENDBRANCH  26  27
ENDBRANCH  25  26
ENDBRANCH  24  25
ENDBRANCH  23  24
ENDBRANCH  22  23
ENDBRANCH   1  22
TORSDOF 24
ENDMDL
MODEL 2
REMARK VINA RESULT:      -9.3      5.637     10.283
REMARK SMILES [NH3+][C@@H](Cc1cccc(O)c1)C(=O)OCCOCCOCCOC(=O)c1ccc(-c2c3nc(c(-c4c(F)cc(S(=O)(=O)[O-])cc4F)c4ccc([nH]4)c(-c4c(F)cc(S(=O)(=O)[O-])cc4F)c4nc(c(-c5c(F)cc(S(=O)(=O)[O-])cc5F)c5ccc2[nH]5)C=C4)C=C3)cc1
REMARK SMILES IDX 17 1 16 2 15 3 14 4 13 5 11 6 12 7 2 8 1 9 3 13 4 14 5 15
REMARK SMILES IDX 10 16 6 17 8 18 7 19 9 20 18 22 19 23 20 24 21 25 22 26
REMARK SMILES IDX 23 27 24 28 25 29 26 30 90 31 27 32 89 33 28 34 29 35 30 36
REMARK SMILES IDX 83 37 31 38 88 39 82 40 84 41 32 42 87 43 81 44 80 45 33 47
REMARK SMILES IDX 67 48 46 49 66 50 47 51 50 52 65 53 85 54 48 55 49 56 64 58
REMARK SMILES IDX 86 59 51 60 34 61 35 62 44 63 36 64 37 65 43 66 45 67 38 68
REMARK SMILES IDX 39 69 40 70 41 71 42 72 68 73 69 74 78 75 70 76 71 77 77 78
REMARK SMILES IDX 79 79 72 80 73 81 74 82 75 83 76 84 52 85 53 86 62 87 54 88
REMARK SMILES IDX 55 89 61 90 63 91 56 92 57 93 58 94 59 95 60 96
REMARK H PARENT 1 10 1 11 1 12 9 21 84 46 50 57
REMARK Flexibility Score: inf
ROOT
ATOM      1  C   UNL A   1      32.224  26.380  25.027  1.00  0.00     0.188 C 
ENDROOT
BRANCH   1   2
ATOM      2  O   UNL A   1      33.286  26.235  24.098  1.00  0.00    -0.376 OA
BRANCH   2   3
ATOM      3  C   UNL A   1      33.359  25.054  23.314  1.00  0.00     0.202 C 
BRANCH   3   4
ATOM      4  C   UNL A   1      34.522  24.060  23.477  1.00  0.00     0.261 C 
BRANCH   4   5
ATOM      5  O   UNL A   1      34.188  22.782  24.050  1.00  0.00    -0.459 OA
BRANCH   5   6
ATOM      6  C   UNL A   1      35.225  22.070  24.580  1.00  0.00     0.365 C 
ATOM      7  O   UNL A   1      36.361  22.056  24.114  1.00  0.00    -0.245 OA
BRANCH   6   8
ATOM      8  C   UNL A   1      34.826  21.176  25.773  1.00  0.00     0.296 C 
BRANCH   8   9
ATOM      9  N   UNL A   1      34.803  21.871  27.082  1.00  0.00    -0.346 N 
ATOM     10  H   UNL A   1      34.917  21.189  27.831  1.00  0.00     0.345 HD
ATOM     11  H   UNL A   1      33.913  22.356  27.194  1.00  0.00     0.345 HD
ATOM     12  H   UNL A   1      35.565  22.549  27.120  1.00  0.00     0.345 HD
ENDBRANCH   8   9
BRANCH   8  13
ATOM     13  C   UNL A   1      33.487  20.478  25.465  1.00  0.00     0.113 C 
BRANCH  13  14
ATOM     14  C   UNL A   1      33.653  19.297  24.531  1.00  0.00    -0.038 A 
ATOM     15  C   UNL A   1      34.683  18.367  24.735  1.00  0.00     0.004 A 
ATOM     16  C   UNL A   1      32.690  19.042  23.547  1.00  0.00     0.050 A 
ATOM     17  C   UNL A   1      34.715  17.180  24.001  1.00  0.00     0.004 A 
ATOM     18  C   UNL A   1      32.706  17.838  22.855  1.00  0.00     0.115 A 
ATOM     19  C   UNL A   1      33.713  16.904  23.071  1.00  0.00     0.046 A 
BRANCH  18  20
ATOM     20  O   UNL A   1      31.677  17.590  21.995  1.00  0.00    -0.508 OA
ATOM     21  H   UNL A   1      30.940  17.085  22.279  1.00  0.00     0.293 HD
ENDBRANCH  18  20
ENDBRANCH  13  14
ENDBRANCH   8  13
ENDBRANCH   6   8
ENDBRANCH   5   6
ENDBRANCH   4   5
ENDBRANCH   3   4
ENDBRANCH   2   3
ENDBRANCH   1   2
BRANCH   1  22
ATOM     22  C   UNL A   1      32.258  27.552  26.022  1.00  0.00     0.188 C 
BRANCH  22  23
ATOM     23  O   UNL A   1      31.391  28.629  25.766  1.00  0.00    -0.376 OA
BRANCH  23  24
ATOM     24  C   UNL A   1      31.918  29.938  25.645  1.00  0.00     0.202 C 
BRANCH  24  25
ATOM     25  C   UNL A   1      32.425  30.823  26.807  1.00  0.00     0.261 C 
BRANCH  25  26
ATOM     26  O   UNL A   1      33.650  30.478  27.460  1.00  0.00    -0.460 OA
BRANCH  26  27
ATOM     27  C   UNL A   1      34.472  31.511  27.783  1.00  0.00     0.338 C 
ATOM     28  O   UNL A   1      34.169  32.684  27.877  1.00  0.00    -0.246 OA
BRANCH  27  29
ATOM     29  C   UNL A   1      35.768  30.947  28.226  1.00  0.00     0.060 A 
ATOM     30  C   UNL A   1      35.829  29.595  28.598  1.00  0.00     0.016 A 
ATOM     31  C   UNL A   1      36.912  31.743  28.269  1.00  0.00     0.016 A 
ATOM     32  C   UNL A   1      37.034  29.040  29.034  1.00  0.00     0.010 A 
ATOM     33  C   UNL A   1      38.110  31.193  28.734  1.00  0.00     0.010 A 
ATOM     34  C   UNL A   1      38.172  29.847  29.144  1.00  0.00    -0.014 A 
BRANCH  34  35
ATOM     35  C   UNL A   1      39.371  29.354  29.867  1.00  0.00     0.031 A 
ATOM     36  C   UNL A   1      39.785  30.070  31.125  1.00  0.00     0.074 A 
ATOM     37  C   UNL A   1      40.086  28.304  29.420  1.00  0.00     0.049 A 
ATOM     38  N   UNL A   1      40.847  29.900  31.868  1.00  0.00    -0.248 NA
ATOM     39  C   UNL A   1      38.878  31.127  31.604  1.00  0.00     0.031 C 
ATOM     40  C   UNL A   1      39.763  27.498  28.244  1.00  0.00     0.029 A 
ATOM     41  N   UNL A   1      41.247  27.749  29.901  1.00  0.00    -0.354 N 
ATOM     42  C   UNL A   1      40.745  30.835  32.891  1.00  0.00     0.074 A 
ATOM     43  C   UNL A   1      39.530  31.586  32.661  1.00  0.00     0.031 C 
ATOM     44  C   UNL A   1      40.719  26.566  28.080  1.00  0.00     0.029 A 
ATOM     45  C   UNL A   1      41.739  26.733  29.115  1.00  0.00     0.049 A 
ATOM     46  H   UNL A   1      41.686  28.052  30.729  1.00  0.00     0.167 HD
ATOM     47  C   UNL A   1      41.585  31.047  33.931  1.00  0.00     0.037 A 
ATOM     48  C   UNL A   1      42.894  26.042  29.204  1.00  0.00     0.037 A 
ATOM     49  C   UNL A   1      42.793  30.297  34.155  1.00  0.00     0.049 A 
ATOM     50  C   UNL A   1      43.854  26.346  30.331  1.00  0.00     0.074 A 
ATOM     51  C   UNL A   1      43.704  30.424  35.190  1.00  0.00     0.029 A 
ATOM     52  N   UNL A   1      43.265  29.287  33.329  1.00  0.00    -0.354 N 
ATOM     53  N   UNL A   1      43.738  27.219  31.304  1.00  0.00    -0.248 NA
ATOM     54  C   UNL A   1      45.101  25.568  30.374  1.00  0.00     0.031 C 
ATOM     55  C   UNL A   1      44.755  29.532  34.959  1.00  0.00     0.029 A 
ATOM     56  C   UNL A   1      44.467  28.801  33.817  1.00  0.00     0.049 A 
ATOM     57  H   UNL A   1      42.813  28.964  32.517  1.00  0.00     0.167 HD
ATOM     58  C   UNL A   1      44.877  27.069  32.092  1.00  0.00     0.074 A 
ATOM     59  C   UNL A   1      45.665  26.016  31.487  1.00  0.00     0.031 C 
ATOM     60  C   UNL A   1      45.236  27.739  33.216  1.00  0.00     0.037 A 
BRANCH  47  61
ATOM     61  C   UNL A   1      41.245  32.152  34.893  1.00  0.00     0.058 A 
ATOM     62  C   UNL A   1      41.675  33.473  34.688  1.00  0.00     0.135 A 
ATOM     63  C   UNL A   1      40.436  31.893  36.012  1.00  0.00     0.135 A 
ATOM     64  F   UNL A   1      42.466  33.773  33.646  1.00  0.00    -0.206 F 
ATOM     65  C   UNL A   1      41.331  34.494  35.568  1.00  0.00     0.059 A 
ATOM     66  C   UNL A   1      40.055  32.904  36.889  1.00  0.00     0.059 A 
ATOM     67  F   UNL A   1      40.002  30.647  36.259  1.00  0.00    -0.206 F 
ATOM     68  C   UNL A   1      40.516  34.200  36.664  1.00  0.00     0.060 A 
BRANCH  68  69
ATOM     69  S   UNL A   1      40.061  35.541  37.783  1.00  0.00     0.124 S 
ATOM     70  O   UNL A   1      39.874  36.648  36.851  1.00  0.00    -0.237 OA
ATOM     71  O   UNL A   1      38.846  35.025  38.405  1.00  0.00    -0.237 OA
ATOM     72  O   UNL A   1      41.216  35.655  38.669  1.00  0.00    -0.744 OA
ENDBRANCH  68  69
ENDBRANCH  47  61
BRANCH  48  73
ATOM     73  C   UNL A   1      43.230  25.005  28.189  1.00  0.00     0.058 A 
ATOM     74  C   UNL A   1      43.748  25.359  26.934  1.00  0.00     0.135 A 
ATOM     75  C   UNL A   1      43.017  23.641  28.443  1.00  0.00     0.135 A 
ATOM     76  F   UNL A   1      43.954  26.650  26.633  1.00  0.00    -0.206 F 
ATOM     77  C   UNL A   1      44.023  24.401  25.961  1.00  0.00     0.059 A 
ATOM     78  C   UNL A   1      43.314  22.663  27.499  1.00  0.00     0.059 A 
ATOM     79  F   UNL A   1      42.528  23.247  29.630  1.00  0.00    -0.206 F 
ATOM     80  C   UNL A   1      43.805  23.055  26.255  1.00  0.00     0.060 A 
BRANCH  80  81
ATOM     81  S   UNL A   1      44.199  21.820  24.996  1.00  0.00     0.124 S 
ATOM     82  O   UNL A   1      44.130  22.612  23.774  1.00  0.00    -0.237 OA
ATOM     83  O   UNL A   1      45.532  21.385  25.402  1.00  0.00    -0.237 OA
ATOM     84  O   UNL A   1      43.145  20.823  25.162  1.00  0.00    -0.744 OA
ENDBRANCH  80  81
ENDBRANCH  48  73
BRANCH  60  85
ATOM     85  C   UNL A   1      46.509  27.324  33.906  1.00  0.00     0.058 A 
ATOM     86  C   UNL A   1      46.549  26.262  34.822  1.00  0.00     0.135 A 
ATOM     87  C   UNL A   1      47.721  27.963  33.595  1.00  0.00     0.135 A 
ATOM     88  F   UNL A   1      45.421  25.617  35.159  1.00  0.00    -0.206 F 
ATOM     89  C   UNL A   1      47.741  25.863  35.422  1.00  0.00     0.059 A 
ATOM     90  C   UNL A   1      48.929  27.561  34.158  1.00  0.00     0.059 A 
ATOM     91  F   UNL A   1      47.744  28.979  32.715  1.00  0.00    -0.206 F 
ATOM     92  C   UNL A   1      48.926  26.517  35.080  1.00  0.00     0.060 A 
BRANCH  92  93
ATOM     93  S   UNL A   1      50.469  25.967  35.838  1.00  0.00     0.124 S 
ATOM     94  O   UNL A   1      50.385  26.580  37.159  1.00  0.00    -0.237 OA
ATOM     95  O   UNL A   1      50.332  24.513  35.805  1.00  0.00    -0.237 OA
ATOM     96  O   UNL A   1      51.497  26.512  34.957  1.00  0.00    -0.744 OA
ENDBRANCH  92  93
ENDBRANCH  60  85
ENDBRANCH  34  35
ENDBRANCH  27  29
ENDBRANCH  26  27
ENDBRANCH  25  26
ENDBRANCH  24  25
ENDBRANCH  23  24
ENDBRANCH  22  23
ENDBRANCH   1  22
TORSDOF 24
ENDMDL
MODEL 3
REMARK VINA RESULT:      -9.2      3.743      9.484
REMARK SMILES [NH3+][C@@H](Cc1cccc(O)c1)C(=O)OCCOCCOCCOC(=O)c1ccc(-c2c3nc(c(-c4c(F)cc(S(=O)(=O)[O-])cc4F)c4ccc([nH]4)c(-c4c(F)cc(S(=O)(=O)[O-])cc4F)c4nc(c(-c5c(F)cc(S(=O)(=O)[O-])cc5F)c5ccc2[nH]5)C=C4)C=C3)cc1
REMARK SMILES IDX 17 1 16 2 15 3 14 4 13 5 11 6 12 7 2 8 1 9 3 13 4 14 5 15
REMARK SMILES IDX 10 16 6 17 8 18 7 19 9 20 18 22 19 23 20 24 21 25 22 26
REMARK SMILES IDX 23 27 24 28 25 29 26 30 90 31 27 32 89 33 28 34 29 35 30 36
REMARK SMILES IDX 83 37 31 38 88 39 82 40 84 41 32 42 87 43 81 44 80 45 33 47
REMARK SMILES IDX 67 48 46 49 66 50 47 51 50 52 65 53 85 54 48 55 49 56 64 58
REMARK SMILES IDX 86 59 51 60 34 61 35 62 44 63 36 64 37 65 43 66 45 67 38 68
REMARK SMILES IDX 39 69 40 70 41 71 42 72 68 73 69 74 78 75 70 76 71 77 77 78
REMARK SMILES IDX 79 79 72 80 73 81 74 82 75 83 76 84 52 85 53 86 62 87 54 88
REMARK SMILES IDX 55 89 61 90 63 91 56 92 57 93 58 94 59 95 60 96
REMARK H PARENT 1 10 1 11 1 12 9 21 84 46 50 57
REMARK Flexibility Score: inf
ROOT
ATOM      1  C   UNL A   1      32.912  19.864  25.522  1.00  0.00     0.188 C 
ENDROOT
BRANCH   1   2
ATOM      2  O   UNL A   1      31.783  20.602  25.083  1.00  0.00    -0.376 OA
BRANCH   2   3
ATOM      3  C   UNL A   1      31.756  22.006  25.288  1.00  0.00     0.202 C 
BRANCH   3   4
ATOM      4  C   UNL A   1      31.748  22.984  24.100  1.00  0.00     0.261 C 
BRANCH   4   5
ATOM      5  O   UNL A   1      30.688  23.958  24.086  1.00  0.00    -0.459 OA
BRANCH   5   6
ATOM      6  C   UNL A   1      31.062  25.260  24.257  1.00  0.00     0.365 C 
ATOM      7  O   UNL A   1      31.605  25.939  23.390  1.00  0.00    -0.245 OA
BRANCH   6   8
ATOM      8  C   UNL A   1      30.846  25.791  25.689  1.00  0.00     0.296 C 
BRANCH   8   9
ATOM      9  N   UNL A   1      29.968  24.945  26.532  1.00  0.00    -0.346 N 
ATOM     10  H   UNL A   1      30.318  24.941  27.490  1.00  0.00     0.345 HD
ATOM     11  H   UNL A   1      29.961  23.992  26.168  1.00  0.00     0.345 HD
ATOM     12  H   UNL A   1      29.019  25.321  26.518  1.00  0.00     0.345 HD
ENDBRANCH   8   9
BRANCH   8  13
ATOM     13  C   UNL A   1      32.213  26.048  26.352  1.00  0.00     0.113 C 
BRANCH  13  14
ATOM     14  C   UNL A   1      32.542  27.524  26.443  1.00  0.00    -0.038 A 
ATOM     15  C   UNL A   1      31.528  28.467  26.666  1.00  0.00     0.004 A 
ATOM     16  C   UNL A   1      33.878  27.944  26.455  1.00  0.00     0.050 A 
ATOM     17  C   UNL A   1      31.853  29.795  26.947  1.00  0.00     0.004 A 
ATOM     18  C   UNL A   1      34.190  29.257  26.780  1.00  0.00     0.115 A 
ATOM     19  C   UNL A   1      33.189  30.189  27.023  1.00  0.00     0.046 A 
BRANCH  18  20
ATOM     20  O   UNL A   1      35.510  29.582  26.895  1.00  0.00    -0.508 OA
ATOM     21  H   UNL A   1      35.974  29.925  26.157  1.00  0.00     0.293 HD
ENDBRANCH  18  20
ENDBRANCH  13  14
ENDBRANCH   8  13
ENDBRANCH   6   8
ENDBRANCH   5   6
ENDBRANCH   4   5
ENDBRANCH   3   4
ENDBRANCH   2   3
ENDBRANCH   1   2
BRANCH   1  22
ATOM     22  C   UNL A   1      34.235  19.997  24.748  1.00  0.00     0.188 C 
BRANCH  22  23
ATOM     23  O   UNL A   1      35.295  20.643  25.408  1.00  0.00    -0.376 OA
BRANCH  23  24
ATOM     24  C   UNL A   1      36.626  20.420  24.978  1.00  0.00     0.202 C 
BRANCH  24  25
ATOM     25  C   UNL A   1      37.734  21.491  24.859  1.00  0.00     0.261 C 
BRANCH  25  26
ATOM     26  O   UNL A   1      37.993  22.350  25.974  1.00  0.00    -0.460 OA
BRANCH  26  27
ATOM     27  C   UNL A   1      39.264  22.344  26.455  1.00  0.00     0.338 C 
ATOM     28  O   UNL A   1      40.062  21.429  26.403  1.00  0.00    -0.246 OA
BRANCH  27  29
ATOM     29  C   UNL A   1      39.608  23.726  26.862  1.00  0.00     0.060 A 
ATOM     30  C   UNL A   1      40.068  24.627  25.888  1.00  0.00     0.016 A 
ATOM     31  C   UNL A   1      39.472  24.131  28.189  1.00  0.00     0.016 A 
ATOM     32  C   UNL A   1      40.412  25.933  26.246  1.00  0.00     0.010 A 
ATOM     33  C   UNL A   1      39.846  25.429  28.550  1.00  0.00     0.010 A 
ATOM     34  C   UNL A   1      40.343  26.328  27.587  1.00  0.00    -0.014 A 
BRANCH  34  35
ATOM     35  C   UNL A   1      40.969  27.601  28.024  1.00  0.00     0.031 A 
ATOM     36  C   UNL A   1      42.468  27.718  27.944  1.00  0.00     0.074 A 
ATOM     37  C   UNL A   1      40.234  28.629  28.489  1.00  0.00     0.049 A 
ATOM     38  N   UNL A   1      43.250  28.677  28.364  1.00  0.00    -0.248 NA
ATOM     39  C   UNL A   1      43.178  26.595  27.310  1.00  0.00     0.031 C 
ATOM     40  C   UNL A   1      38.775  28.658  28.572  1.00  0.00     0.029 A 
ATOM     41  N   UNL A   1      40.625  29.843  29.000  1.00  0.00    -0.354 N 
ATOM     42  C   UNL A   1      44.543  28.269  28.060  1.00  0.00     0.074 A 
ATOM     43  C   UNL A   1      44.443  26.965  27.442  1.00  0.00     0.031 C 
ATOM     44  C   UNL A   1      38.394  29.824  29.124  1.00  0.00     0.029 A 
ATOM     45  C   UNL A   1      39.581  30.605  29.469  1.00  0.00     0.049 A 
ATOM     46  H   UNL A   1      41.564  30.138  29.027  1.00  0.00     0.167 HD
ATOM     47  C   UNL A   1      45.710  28.923  28.273  1.00  0.00     0.037 A 
ATOM     48  C   UNL A   1      39.587  31.782  30.130  1.00  0.00     0.037 A 
ATOM     49  C   UNL A   1      45.804  30.220  28.888  1.00  0.00     0.049 A 
ATOM     50  C   UNL A   1      40.906  32.459  30.423  1.00  0.00     0.074 A 
ATOM     51  C   UNL A   1      46.938  30.975  29.133  1.00  0.00     0.029 A 
ATOM     52  N   UNL A   1      44.726  30.953  29.365  1.00  0.00    -0.354 N 
ATOM     53  N   UNL A   1      42.121  32.073  30.114  1.00  0.00    -0.248 NA
ATOM     54  C   UNL A   1      40.853  33.734  31.153  1.00  0.00     0.031 C 
ATOM     55  C   UNL A   1      46.554  32.136  29.809  1.00  0.00     0.029 A 
ATOM     56  C   UNL A   1      45.173  32.139  29.926  1.00  0.00     0.049 A 
ATOM     57  H   UNL A   1      43.784  30.672  29.312  1.00  0.00     0.167 HD
ATOM     58  C   UNL A   1      42.972  33.073  30.579  1.00  0.00     0.074 A 
ATOM     59  C   UNL A   1      42.132  34.086  31.183  1.00  0.00     0.031 C 
ATOM     60  C   UNL A   1      44.325  33.149  30.509  1.00  0.00     0.037 A 
BRANCH  47  61
ATOM     61  C   UNL A   1      46.983  28.235  27.863  1.00  0.00     0.058 A 
ATOM     62  C   UNL A   1      47.532  28.390  26.581  1.00  0.00     0.135 A 
ATOM     63  C   UNL A   1      47.689  27.443  28.786  1.00  0.00     0.135 A 
ATOM     64  F   UNL A   1      46.890  29.118  25.654  1.00  0.00    -0.206 F 
ATOM     65  C   UNL A   1      48.725  27.772  26.221  1.00  0.00     0.059 A 
ATOM     66  C   UNL A   1      48.898  26.840  28.457  1.00  0.00     0.059 A 
ATOM     67  F   UNL A   1      47.206  27.256  30.025  1.00  0.00    -0.206 F 
ATOM     68  C   UNL A   1      49.404  27.002  27.168  1.00  0.00     0.060 A 
BRANCH  68  69
ATOM     69  S   UNL A   1      50.962  26.226  26.692  1.00  0.00     0.124 S 
ATOM     70  O   UNL A   1      50.764  24.860  27.168  1.00  0.00    -0.237 OA
ATOM     71  O   UNL A   1      50.963  26.397  25.243  1.00  0.00    -0.237 OA
ATOM     72  O   UNL A   1      51.966  27.002  27.413  1.00  0.00    -0.744 OA
ENDBRANCH  68  69
ENDBRANCH  47  61
BRANCH  48  73
ATOM     73  C   UNL A   1      38.308  32.395  30.585  1.00  0.00     0.058 A 
ATOM     74  C   UNL A   1      37.780  32.116  31.854  1.00  0.00     0.135 A 
ATOM     75  C   UNL A   1      37.576  33.255  29.750  1.00  0.00     0.135 A 
ATOM     76  F   UNL A   1      38.432  31.288  32.684  1.00  0.00    -0.206 F 
ATOM     77  C   UNL A   1      36.563  32.649  32.272  1.00  0.00     0.059 A 
ATOM     78  C   UNL A   1      36.373  33.824  30.157  1.00  0.00     0.059 A 
ATOM     79  F   UNL A   1      38.038  33.559  28.527  1.00  0.00    -0.206 F 
ATOM     80  C   UNL A   1      35.869  33.504  31.417  1.00  0.00     0.060 A 
BRANCH  80  81
ATOM     81  S   UNL A   1      34.308  34.216  31.984  1.00  0.00     0.124 S 
ATOM     82  O   UNL A   1      33.593  34.397  30.726  1.00  0.00    -0.237 OA
ATOM     83  O   UNL A   1      33.798  33.169  32.864  1.00  0.00    -0.237 OA
ATOM     84  O   UNL A   1      34.722  35.444  32.657  1.00  0.00    -0.744 OA
ENDBRANCH  80  81
ENDBRANCH  48  73
BRANCH  60  85
ATOM     85  C   UNL A   1      44.989  34.389  31.047  1.00  0.00     0.058 A 
ATOM     86  C   UNL A   1      45.183  35.534  30.258  1.00  0.00     0.135 A 
ATOM     87  C   UNL A   1      45.379  34.453  32.395  1.00  0.00     0.135 A 
ATOM     88  F   UNL A   1      44.832  35.529  28.962  1.00  0.00    -0.206 F 
ATOM     89  C   UNL A   1      45.761  36.688  30.780  1.00  0.00     0.059 A 
ATOM     90  C   UNL A   1      45.930  35.606  32.947  1.00  0.00     0.059 A 
ATOM     91  F   UNL A   1      45.206  33.392  33.200  1.00  0.00    -0.206 F 
ATOM     92  C   UNL A   1      46.129  36.715  32.127  1.00  0.00     0.060 A 
BRANCH  92  93
ATOM     93  S   UNL A   1      46.845  38.230  32.799  1.00  0.00     0.124 S 
ATOM     94  O   UNL A   1      47.775  38.611  31.742  1.00  0.00    -0.237 OA
ATOM     95  O   UNL A   1      45.673  39.087  32.952  1.00  0.00    -0.237 OA
ATOM     96  O   UNL A   1      47.460  37.792  34.049  1.00  0.00    -0.744 OA
ENDBRANCH  92  93
ENDBRANCH  60  85
ENDBRANCH  34  35
ENDBRANCH  27  29
ENDBRANCH  26  27
ENDBRANCH  25  26
ENDBRANCH  24  25
ENDBRANCH  23  24
ENDBRANCH  22  23
ENDBRANCH   1  22
TORSDOF 24
ENDMDL
