MODEL 1
REMARK VINA RESULT:      -9.9      0.000      0.000
REMARK SMILES COc1cc(OC(F)(F)F)cc2c1O[C@@H](C(F)(F)F)C(C(=O)OCCOCCOCCOC(=O)c1ccc(-c3c4nc(c(-c5c(F)cc(S(=O)(=O)[O-])cc5F)c5ccc([nH]5)c(-c5c(F)cc(S(=O)(=O)[O-])cc5F)c5nc(c(-c6c(F)cc(S(=O)(=O)[O-])cc6F)c6ccc3[nH]6)C=C5)C=C4)cc1)=C2
REMARK SMILES IDX 28 1 27 2 26 3 25 4 24 5 23 6 21 7 22 8 20 9 3 10 4 11 13 12
REMARK SMILES IDX 5 13 12 14 14 15 11 16 101 17 15 18 2 19 1 20 6 21 7 22 8 23
REMARK SMILES IDX 9 24 10 25 16 26 17 27 18 28 19 29 29 30 30 31 31 32 32 33
REMARK SMILES IDX 33 34 34 35 35 36 36 37 100 38 37 39 99 40 38 41 39 42 40 43
REMARK SMILES IDX 93 44 41 45 98 46 92 47 94 48 42 49 97 50 91 51 90 52 43 54
REMARK SMILES IDX 77 55 56 56 76 57 57 58 60 59 75 60 95 61 58 62 59 63 74 65
REMARK SMILES IDX 96 66 61 67 44 68 45 69 54 70 46 71 47 72 53 73 55 74 48 75
REMARK SMILES IDX 49 76 50 77 51 78 52 79 78 80 79 81 88 82 80 83 81 84 87 85
REMARK SMILES IDX 89 86 82 87 83 88 84 89 85 90 86 91 62 92 63 93 72 94 64 95
REMARK SMILES IDX 65 96 71 97 73 98 66 99 67 100 68 101 69 102 70 103
REMARK H PARENT 94 53 60 64
REMARK Flexibility Score: inf
ROOT
ATOM      1  C   UNL A   1      35.410  33.230  28.083  1.00  0.00     0.188 C 
ENDROOT
BRANCH   1   2
ATOM      2  C   UNL A   1      34.869  32.129  29.016  1.00  0.00     0.188 C 
BRANCH   2   3
ATOM      3  O   UNL A   1      33.855  31.322  28.432  1.00  0.00    -0.376 OA
BRANCH   3   4
ATOM      4  C   UNL A   1      34.248  30.566  27.294  1.00  0.00     0.202 C 
BRANCH   4   5
ATOM      5  C   UNL A   1      33.091  29.747  26.717  1.00  0.00     0.261 C 
BRANCH   5   6
ATOM      6  O   UNL A   1      33.496  28.469  26.201  1.00  0.00    -0.460 OA
BRANCH   6   7
ATOM      7  C   UNL A   1      33.097  28.171  24.942  1.00  0.00     0.338 C 
ATOM      8  O   UNL A   1      32.828  28.979  24.071  1.00  0.00    -0.246 OA
BRANCH   7   9
ATOM      9  C   UNL A   1      33.120  26.710  24.746  1.00  0.00     0.087 C 
ATOM     10  C   UNL A   1      33.117  22.529  24.924  1.00  0.00     0.165 A 
ATOM     11  C   UNL A   1      34.289  21.827  24.616  1.00  0.00     0.097 A 
ATOM     12  C   UNL A   1      33.107  23.925  24.864  1.00  0.00     0.170 A 
ATOM     13  C   UNL A   1      35.443  22.506  24.223  1.00  0.00     0.134 A 
ATOM     14  C   UNL A   1      34.272  24.618  24.495  1.00  0.00     0.025 A 
ATOM     15  O   UNL A   1      31.989  24.610  25.271  1.00  0.00    -0.471 OA
ATOM     16  C   UNL A   1      35.423  23.904  24.150  1.00  0.00     0.059 A 
ATOM     17  C   UNL A   1      34.298  26.077  24.600  1.00  0.00     0.027 C 
ATOM     18  C   UNL A   1      31.833  25.924  24.669  1.00  0.00     0.316 C 
BRANCH  10  19
ATOM     19  O   UNL A   1      32.081  21.741  25.356  1.00  0.00    -0.493 OA
ATOM     20  C   UNL A   1      32.160  20.373  24.964  1.00  0.00     0.278 C 
ENDBRANCH  10  19
BRANCH  13  21
ATOM     21  O   UNL A   1      36.642  21.935  23.900  1.00  0.00    -0.406 OA
BRANCH  21  22
ATOM     22  C   UNL A   1      37.416  21.394  24.958  1.00  0.00     0.573 C 
ATOM     23  F   UNL A   1      37.756  20.112  24.711  1.00  0.00    -0.132 F 
ATOM     24  F   UNL A   1      38.527  22.127  25.175  1.00  0.00    -0.132 F 
ATOM     25  F   UNL A   1      36.673  21.417  26.088  1.00  0.00    -0.132 F 
ENDBRANCH  21  22
ENDBRANCH  13  21
BRANCH  18  26
ATOM     26  C   UNL A   1      30.545  26.564  25.210  1.00  0.00     0.430 C 
ATOM     27  F   UNL A   1      30.769  27.161  26.405  1.00  0.00    -0.167 F 
ATOM     28  F   UNL A   1      30.133  27.549  24.370  1.00  0.00    -0.167 F 
ATOM     29  F   UNL A   1      29.532  25.687  25.337  1.00  0.00    -0.167 F 
ENDBRANCH  18  26
ENDBRANCH   7   9
ENDBRANCH   6   7
ENDBRANCH   5   6
ENDBRANCH   4   5
ENDBRANCH   3   4
ENDBRANCH   2   3
ENDBRANCH   1   2
BRANCH   1  30
ATOM     30  O   UNL A   1      34.619  34.371  27.776  1.00  0.00    -0.376 OA
BRANCH  30  31
ATOM     31  C   UNL A   1      33.286  34.445  28.256  1.00  0.00     0.202 C 
BRANCH  31  32
ATOM     32  C   UNL A   1      32.966  35.500  29.319  1.00  0.00     0.261 C 
BRANCH  32  33
ATOM     33  O   UNL A   1      32.441  34.961  30.542  1.00  0.00    -0.460 OA
BRANCH  33  34
ATOM     34  C   UNL A   1      33.083  35.358  31.668  1.00  0.00     0.338 C 
ATOM     35  O   UNL A   1      32.674  36.137  32.512  1.00  0.00    -0.246 OA
BRANCH  34  36
ATOM     36  C   UNL A   1      34.323  34.576  31.841  1.00  0.00     0.060 A 
ATOM     37  C   UNL A   1      34.270  33.427  32.644  1.00  0.00     0.016 A 
ATOM     38  C   UNL A   1      35.534  35.005  31.295  1.00  0.00     0.016 A 
ATOM     39  C   UNL A   1      35.438  32.722  32.935  1.00  0.00     0.010 A 
ATOM     40  C   UNL A   1      36.707  34.312  31.610  1.00  0.00     0.010 A 
ATOM     41  C   UNL A   1      36.668  33.191  32.458  1.00  0.00    -0.014 A 
BRANCH  41  42
ATOM     42  C   UNL A   1      37.934  32.639  32.996  1.00  0.00     0.031 A 
ATOM     43  C   UNL A   1      38.595  31.511  32.252  1.00  0.00     0.074 A 
ATOM     44  C   UNL A   1      38.474  33.111  34.133  1.00  0.00     0.049 A 
ATOM     45  N   UNL A   1      39.627  30.785  32.590  1.00  0.00    -0.248 NA
ATOM     46  C   UNL A   1      38.006  31.156  30.950  1.00  0.00     0.031 C 
ATOM     47  C   UNL A   1      37.957  34.232  34.914  1.00  0.00     0.029 A 
ATOM     48  N   UNL A   1      39.571  32.684  34.837  1.00  0.00    -0.354 N 
ATOM     49  C   UNL A   1      39.804  29.876  31.555  1.00  0.00     0.074 A 
ATOM     50  C   UNL A   1      38.765  30.135  30.580  1.00  0.00     0.031 C 
ATOM     51  C   UNL A   1      38.721  34.386  36.011  1.00  0.00     0.029 A 
ATOM     52  C   UNL A   1      39.755  33.352  36.025  1.00  0.00     0.049 A 
ATOM     53  H   UNL A   1      40.170  31.969  34.523  1.00  0.00     0.167 HD
ATOM     54  C   UNL A   1      40.742  28.908  31.429  1.00  0.00     0.037 A 
ATOM     55  C   UNL A   1      40.634  33.128  37.023  1.00  0.00     0.037 A 
ATOM     56  C   UNL A   1      41.764  28.646  32.407  1.00  0.00     0.049 A 
ATOM     57  C   UNL A   1      41.628  32.003  36.896  1.00  0.00     0.074 A 
ATOM     58  C   UNL A   1      42.762  27.688  32.374  1.00  0.00     0.029 A 
ATOM     59  N   UNL A   1      41.912  29.340  33.598  1.00  0.00    -0.354 N 
ATOM     60  N   UNL A   1      41.788  31.149  35.911  1.00  0.00    -0.248 NA
ATOM     61  C   UNL A   1      42.560  31.807  38.016  1.00  0.00     0.031 C 
ATOM     62  C   UNL A   1      43.491  27.778  33.565  1.00  0.00     0.029 A 
ATOM     63  C   UNL A   1      42.975  28.822  34.318  1.00  0.00     0.049 A 
ATOM     64  H   UNL A   1      41.346  30.091  33.890  1.00  0.00     0.167 HD
ATOM     65  C   UNL A   1      42.856  30.337  36.280  1.00  0.00     0.074 A 
ATOM     66  C   UNL A   1      43.304  30.798  37.578  1.00  0.00     0.031 C 
ATOM     67  C   UNL A   1      43.418  29.305  35.602  1.00  0.00     0.037 A 
BRANCH  54  68
ATOM     68  C   UNL A   1      40.673  28.038  30.207  1.00  0.00     0.058 A 
ATOM     69  C   UNL A   1      39.666  27.075  30.042  1.00  0.00     0.135 A 
ATOM     70  C   UNL A   1      41.631  28.168  29.189  1.00  0.00     0.135 A 
ATOM     71  F   UNL A   1      38.738  26.895  30.996  1.00  0.00    -0.206 F 
ATOM     72  C   UNL A   1      39.628  26.249  28.923  1.00  0.00     0.059 A 
ATOM     73  C   UNL A   1      41.599  27.368  28.050  1.00  0.00     0.059 A 
ATOM     74  F   UNL A   1      42.618  29.071  29.300  1.00  0.00    -0.206 F 
ATOM     75  C   UNL A   1      40.604  26.399  27.936  1.00  0.00     0.060 A 
BRANCH  75  76
ATOM     76  S   UNL A   1      40.557  25.307  26.498  1.00  0.00     0.124 S 
ATOM     77  O   UNL A   1      41.478  24.251  26.908  1.00  0.00    -0.237 OA
ATOM     78  O   UNL A   1      39.149  24.930  26.435  1.00  0.00    -0.237 OA
ATOM     79  O   UNL A   1      41.023  26.160  25.409  1.00  0.00    -0.744 OA
ENDBRANCH  75  76
ENDBRANCH  54  68
BRANCH  55  80
ATOM     80  C   UNL A   1      40.596  33.976  38.242  1.00  0.00     0.058 A 
ATOM     81  C   UNL A   1      41.418  35.106  38.364  1.00  0.00     0.135 A 
ATOM     82  C   UNL A   1      39.728  33.680  39.305  1.00  0.00     0.135 A 
ATOM     83  F   UNL A   1      42.274  35.420  37.380  1.00  0.00    -0.206 F 
ATOM     84  C   UNL A   1      41.385  35.911  39.498  1.00  0.00     0.059 A 
ATOM     85  C   UNL A   1      39.662  34.482  40.440  1.00  0.00     0.059 A 
ATOM     86  F   UNL A   1      38.917  32.613  39.234  1.00  0.00    -0.206 F 
ATOM     87  C   UNL A   1      40.501  35.592  40.531  1.00  0.00     0.060 A 
BRANCH  87  88
ATOM     88  S   UNL A   1      40.424  36.675  41.974  1.00  0.00     0.124 S 
ATOM     89  O   UNL A   1      39.096  36.374  42.496  1.00  0.00    -0.237 OA
ATOM     90  O   UNL A   1      41.548  36.200  42.775  1.00  0.00    -0.237 OA
ATOM     91  O   UNL A   1      40.591  38.008  41.402  1.00  0.00    -0.744 OA
ENDBRANCH  87  88
ENDBRANCH  55  80
BRANCH  67  92
ATOM     92  C   UNL A   1      44.612  28.631  36.218  1.00  0.00     0.058 A 
ATOM     93  C   UNL A   1      45.910  29.141  36.068  1.00  0.00     0.135 A 
ATOM     94  C   UNL A   1      44.440  27.502  37.037  1.00  0.00     0.135 A 
ATOM     95  F   UNL A   1      46.128  30.214  35.291  1.00  0.00    -0.206 F 
ATOM     96  C   UNL A   1      46.999  28.551  36.701  1.00  0.00     0.059 A 
ATOM     97  C   UNL A   1      45.511  26.910  37.698  1.00  0.00     0.059 A 
ATOM     98  F   UNL A   1      43.216  26.982  37.222  1.00  0.00    -0.206 F 
ATOM     99  C   UNL A   1      46.789  27.437  37.518  1.00  0.00     0.060 A 
BRANCH  99 100
ATOM    100  S   UNL A   1      48.201  26.712  38.379  1.00  0.00     0.124 S 
ATOM    101  O   UNL A   1      47.680  25.398  38.742  1.00  0.00    -0.237 OA
ATOM    102  O   UNL A   1      49.237  26.723  37.351  1.00  0.00    -0.237 OA
ATOM    103  O   UNL A   1      48.425  27.628  39.494  1.00  0.00    -0.744 OA
ENDBRANCH  99 100
ENDBRANCH  67  92
ENDBRANCH  41  42
ENDBRANCH  34  36
ENDBRANCH  33  34
ENDBRANCH  32  33
ENDBRANCH  31  32
ENDBRANCH  30  31
ENDBRANCH   1  30
TORSDOF 24
ENDMDL
MODEL 2
REMARK VINA RESULT:      -9.6      6.085      8.406
REMARK SMILES COc1cc(OC(F)(F)F)cc2c1O[C@@H](C(F)(F)F)C(C(=O)OCCOCCOCCOC(=O)c1ccc(-c3c4nc(c(-c5c(F)cc(S(=O)(=O)[O-])cc5F)c5ccc([nH]5)c(-c5c(F)cc(S(=O)(=O)[O-])cc5F)c5nc(c(-c6c(F)cc(S(=O)(=O)[O-])cc6F)c6ccc3[nH]6)C=C5)C=C4)cc1)=C2
REMARK SMILES IDX 28 1 27 2 26 3 25 4 24 5 23 6 21 7 22 8 20 9 3 10 4 11 13 12
REMARK SMILES IDX 5 13 12 14 14 15 11 16 101 17 15 18 2 19 1 20 6 21 7 22 8 23
REMARK SMILES IDX 9 24 10 25 16 26 17 27 18 28 19 29 29 30 30 31 31 32 32 33
REMARK SMILES IDX 33 34 34 35 35 36 36 37 100 38 37 39 99 40 38 41 39 42 40 43
REMARK SMILES IDX 93 44 41 45 98 46 92 47 94 48 42 49 97 50 91 51 90 52 43 54
REMARK SMILES IDX 77 55 56 56 76 57 57 58 60 59 75 60 95 61 58 62 59 63 74 65
REMARK SMILES IDX 96 66 61 67 44 68 45 69 54 70 46 71 47 72 53 73 55 74 48 75
REMARK SMILES IDX 49 76 50 77 51 78 52 79 78 80 79 81 88 82 80 83 81 84 87 85
REMARK SMILES IDX 89 86 82 87 83 88 84 89 85 90 86 91 62 92 63 93 72 94 64 95
REMARK SMILES IDX 65 96 71 97 73 98 66 99 67 100 68 101 69 102 70 103
REMARK H PARENT 94 53 60 64
REMARK Flexibility Score: inf
ROOT
ATOM      1  C   UNL A   1      35.281  32.727  28.086  1.00  0.00     0.188 C 
ENDROOT
BRANCH   1   2
ATOM      2  C   UNL A   1      34.787  31.288  28.331  1.00  0.00     0.188 C 
BRANCH   2   3
ATOM      3  O   UNL A   1      33.528  31.000  27.738  1.00  0.00    -0.376 OA
BRANCH   3   4
ATOM      4  C   UNL A   1      33.566  30.195  26.568  1.00  0.00     0.202 C 
BRANCH   4   5
ATOM      5  C   UNL A   1      32.199  29.595  26.234  1.00  0.00     0.261 C 
BRANCH   5   6
ATOM      6  O   UNL A   1      32.263  28.223  25.811  1.00  0.00    -0.460 OA
BRANCH   6   7
ATOM      7  C   UNL A   1      32.292  28.002  24.477  1.00  0.00     0.338 C 
ATOM      8  O   UNL A   1      32.153  28.849  23.612  1.00  0.00    -0.246 OA
BRANCH   7   9
ATOM      9  C   UNL A   1      32.608  26.586  24.213  1.00  0.00     0.087 C 
ATOM     10  C   UNL A   1      33.201  22.444  24.128  1.00  0.00     0.165 A 
ATOM     11  C   UNL A   1      34.503  21.935  24.204  1.00  0.00     0.097 A 
ATOM     12  C   UNL A   1      32.993  23.826  24.153  1.00  0.00     0.170 A 
ATOM     13  C   UNL A   1      35.600  22.794  24.276  1.00  0.00     0.134 A 
ATOM     14  C   UNL A   1      34.090  24.698  24.251  1.00  0.00     0.025 A 
ATOM     15  O   UNL A   1      31.710  24.315  24.187  1.00  0.00    -0.471 OA
ATOM     16  C   UNL A   1      35.387  24.177  24.284  1.00  0.00     0.059 A 
ATOM     17  C   UNL A   1      33.851  26.128  24.446  1.00  0.00     0.027 C 
ATOM     18  C   UNL A   1      31.560  25.657  23.648  1.00  0.00     0.316 C 
BRANCH  10  19
ATOM     19  O   UNL A   1      32.217  21.489  24.127  1.00  0.00    -0.493 OA
ATOM     20  C   UNL A   1      32.359  20.476  25.119  1.00  0.00     0.278 C 
ENDBRANCH  10  19
BRANCH  13  21
ATOM     21  O   UNL A   1      36.912  22.419  24.355  1.00  0.00    -0.406 OA
BRANCH  21  22
ATOM     22  C   UNL A   1      37.615  22.741  25.544  1.00  0.00     0.573 C 
ATOM     23  F   UNL A   1      38.437  21.737  25.916  1.00  0.00    -0.132 F 
ATOM     24  F   UNL A   1      38.322  23.880  25.400  1.00  0.00    -0.132 F 
ATOM     25  F   UNL A   1      36.716  22.929  26.537  1.00  0.00    -0.132 F 
ENDBRANCH  21  22
ENDBRANCH  13  21
BRANCH  18  26
ATOM     26  C   UNL A   1      30.082  26.065  23.747  1.00  0.00     0.430 C 
ATOM     27  F   UNL A   1      29.790  26.522  24.988  1.00  0.00    -0.167 F 
ATOM     28  F   UNL A   1      29.832  27.096  22.899  1.00  0.00    -0.167 F 
ATOM     29  F   UNL A   1      29.237  25.066  23.433  1.00  0.00    -0.167 F 
ENDBRANCH  18  26
ENDBRANCH   7   9
ENDBRANCH   6   7
ENDBRANCH   5   6
ENDBRANCH   4   5
ENDBRANCH   3   4
ENDBRANCH   2   3
ENDBRANCH   1   2
BRANCH   1  30
ATOM     30  O   UNL A   1      35.273  33.684  29.138  1.00  0.00    -0.376 OA
BRANCH  30  31
ATOM     31  C   UNL A   1      34.924  33.274  30.452  1.00  0.00     0.202 C 
BRANCH  31  32
ATOM     32  C   UNL A   1      36.061  32.918  31.415  1.00  0.00     0.261 C 
BRANCH  32  33
ATOM     33  O   UNL A   1      36.504  31.555  31.322  1.00  0.00    -0.460 OA
BRANCH  33  34
ATOM     34  C   UNL A   1      37.557  31.238  32.114  1.00  0.00     0.338 C 
ATOM     35  O   UNL A   1      37.611  31.307  33.330  1.00  0.00    -0.246 OA
BRANCH  34  36
ATOM     36  C   UNL A   1      38.625  30.619  31.305  1.00  0.00     0.060 A 
ATOM     37  C   UNL A   1      39.656  29.948  31.978  1.00  0.00     0.016 A 
ATOM     38  C   UNL A   1      38.661  30.762  29.916  1.00  0.00     0.016 A 
ATOM     39  C   UNL A   1      40.749  29.450  31.268  1.00  0.00     0.010 A 
ATOM     40  C   UNL A   1      39.769  30.286  29.210  1.00  0.00     0.010 A 
ATOM     41  C   UNL A   1      40.832  29.660  29.886  1.00  0.00    -0.014 A 
BRANCH  41  42
ATOM     42  C   UNL A   1      42.105  29.409  29.170  1.00  0.00     0.031 A 
ATOM     43  C   UNL A   1      42.372  28.022  28.653  1.00  0.00     0.074 A 
ATOM     44  C   UNL A   1      43.015  30.383  29.002  1.00  0.00     0.049 A 
ATOM     45  N   UNL A   1      43.457  27.530  28.115  1.00  0.00    -0.248 NA
ATOM     46  C   UNL A   1      41.263  27.060  28.762  1.00  0.00     0.031 C 
ATOM     47  C   UNL A   1      42.849  31.776  29.411  1.00  0.00     0.029 A 
ATOM     48  N   UNL A   1      44.274  30.337  28.459  1.00  0.00    -0.354 N 
ATOM     49  C   UNL A   1      43.170  26.200  27.836  1.00  0.00     0.074 A 
ATOM     50  C   UNL A   1      41.812  25.958  28.274  1.00  0.00     0.031 C 
ATOM     51  C   UNL A   1      43.981  32.449  29.132  1.00  0.00     0.029 A 
ATOM     52  C   UNL A   1      44.959  31.524  28.560  1.00  0.00     0.049 A 
ATOM     53  H   UNL A   1      44.651  29.531  28.037  1.00  0.00     0.167 HD
ATOM     54  C   UNL A   1      43.968  25.263  27.273  1.00  0.00     0.037 A 
ATOM     55  C   UNL A   1      46.241  31.818  28.259  1.00  0.00     0.037 A 
ATOM     56  C   UNL A   1      45.322  25.506  26.851  1.00  0.00     0.049 A 
ATOM     57  C   UNL A   1      47.134  30.745  27.694  1.00  0.00     0.074 A 
ATOM     58  C   UNL A   1      46.214  24.623  26.269  1.00  0.00     0.029 A 
ATOM     59  N   UNL A   1      45.981  26.719  26.975  1.00  0.00    -0.354 N 
ATOM     60  N   UNL A   1      46.853  29.489  27.433  1.00  0.00    -0.248 NA
ATOM     61  C   UNL A   1      48.521  31.124  27.386  1.00  0.00     0.031 C 
ATOM     62  C   UNL A   1      47.427  25.294  26.076  1.00  0.00     0.029 A 
ATOM     63  C   UNL A   1      47.275  26.606  26.496  1.00  0.00     0.049 A 
ATOM     64  H   UNL A   1      45.587  27.541  27.349  1.00  0.00     0.167 HD
ATOM     65  C   UNL A   1      48.017  28.939  26.902  1.00  0.00     0.074 A 
ATOM     66  C   UNL A   1      49.006  29.996  26.881  1.00  0.00     0.031 C 
ATOM     67  C   UNL A   1      48.242  27.675  26.467  1.00  0.00     0.037 A 
BRANCH  54  68
ATOM     68  C   UNL A   1      43.403  23.880  27.121  1.00  0.00     0.058 A 
ATOM     69  C   UNL A   1      42.858  23.434  25.907  1.00  0.00     0.135 A 
ATOM     70  C   UNL A   1      43.403  22.990  28.207  1.00  0.00     0.135 A 
ATOM     71  F   UNL A   1      42.813  24.253  24.844  1.00  0.00    -0.206 F 
ATOM     72  C   UNL A   1      42.305  22.163  25.783  1.00  0.00     0.059 A 
ATOM     73  C   UNL A   1      42.877  21.706  28.098  1.00  0.00     0.059 A 
ATOM     74  F   UNL A   1      43.908  23.369  29.391  1.00  0.00    -0.206 F 
ATOM     75  C   UNL A   1      42.313  21.309  26.887  1.00  0.00     0.060 A 
BRANCH  75  76
ATOM     76  S   UNL A   1      41.574  19.670  26.720  1.00  0.00     0.124 S 
ATOM     77  O   UNL A   1      40.549  19.709  27.759  1.00  0.00    -0.237 OA
ATOM     78  O   UNL A   1      41.084  19.685  25.346  1.00  0.00    -0.237 OA
ATOM     79  O   UNL A   1      42.691  18.767  26.974  1.00  0.00    -0.744 OA
ENDBRANCH  75  76
ENDBRANCH  54  68
BRANCH  55  80
ATOM     80  C   UNL A   1      46.761  33.188  28.508  1.00  0.00     0.058 A 
ATOM     81  C   UNL A   1      47.316  33.537  29.747  1.00  0.00     0.135 A 
ATOM     82  C   UNL A   1      46.723  34.171  27.507  1.00  0.00     0.135 A 
ATOM     83  F   UNL A   1      47.361  32.635  30.739  1.00  0.00    -0.206 F 
ATOM     84  C   UNL A   1      47.813  34.814  29.989  1.00  0.00     0.059 A 
ATOM     85  C   UNL A   1      47.232  35.449  27.717  1.00  0.00     0.059 A 
ATOM     86  F   UNL A   1      46.207  33.885  26.302  1.00  0.00    -0.206 F 
ATOM     87  C   UNL A   1      47.769  35.763  28.966  1.00  0.00     0.060 A 
BRANCH  87  88
ATOM     88  S   UNL A   1      48.468  37.400  29.269  1.00  0.00     0.124 S 
ATOM     89  O   UNL A   1      48.892  37.791  27.929  1.00  0.00    -0.237 OA
ATOM     90  O   UNL A   1      47.325  38.127  29.814  1.00  0.00    -0.237 OA
ATOM     91  O   UNL A   1      49.543  37.135  30.220  1.00  0.00    -0.744 OA
ENDBRANCH  87  88
ENDBRANCH  55  80
BRANCH  67  92
ATOM     92  C   UNL A   1      49.592  27.366  25.882  1.00  0.00     0.058 A 
ATOM     93  C   UNL A   1      50.659  26.922  26.677  1.00  0.00     0.135 A 
ATOM     94  C   UNL A   1      49.793  27.441  24.494  1.00  0.00     0.135 A 
ATOM     95  F   UNL A   1      50.520  26.840  28.009  1.00  0.00    -0.206 F 
ATOM     96  C   UNL A   1      51.883  26.570  26.117  1.00  0.00     0.059 A 
ATOM     97  C   UNL A   1      51.001  27.073  23.910  1.00  0.00     0.059 A 
ATOM     98  F   UNL A   1      48.800  27.850  23.688  1.00  0.00    -0.206 F 
ATOM     99  C   UNL A   1      52.044  26.645  24.732  1.00  0.00     0.060 A 
BRANCH  99 100
ATOM    100  S   UNL A   1      53.618  26.134  24.009  1.00  0.00     0.124 S 
ATOM    101  O   UNL A   1      53.916  24.930  24.776  1.00  0.00    -0.237 OA
ATOM    102  O   UNL A   1      53.267  25.923  22.607  1.00  0.00    -0.237 OA
ATOM    103  O   UNL A   1      54.494  27.274  24.263  1.00  0.00    -0.744 OA
ENDBRANCH  99 100
ENDBRANCH  67  92
ENDBRANCH  41  42
ENDBRANCH  34  36
ENDBRANCH  33  34
ENDBRANCH  32  33
ENDBRANCH  31  32
ENDBRANCH  30  31
ENDBRANCH   1  30
TORSDOF 24
ENDMDL
MODEL 3
REMARK VINA RESULT:      -9.6      1.278      2.296
REMARK SMILES COc1cc(OC(F)(F)F)cc2c1O[C@@H](C(F)(F)F)C(C(=O)OCCOCCOCCOC(=O)c1ccc(-c3c4nc(c(-c5c(F)cc(S(=O)(=O)[O-])cc5F)c5ccc([nH]5)c(-c5c(F)cc(S(=O)(=O)[O-])cc5F)c5nc(c(-c6c(F)cc(S(=O)(=O)[O-])cc6F)c6ccc3[nH]6)C=C5)C=C4)cc1)=C2
REMARK SMILES IDX 28 1 27 2 26 3 25 4 24 5 23 6 21 7 22 8 20 9 3 10 4 11 13 12
REMARK SMILES IDX 5 13 12 14 14 15 11 16 101 17 15 18 2 19 1 20 6 21 7 22 8 23
REMARK SMILES IDX 9 24 10 25 16 26 17 27 18 28 19 29 29 30 30 31 31 32 32 33
REMARK SMILES IDX 33 34 34 35 35 36 36 37 100 38 37 39 99 40 38 41 39 42 40 43
REMARK SMILES IDX 93 44 41 45 98 46 92 47 94 48 42 49 97 50 91 51 90 52 43 54
REMARK SMILES IDX 77 55 56 56 76 57 57 58 60 59 75 60 95 61 58 62 59 63 74 65
REMARK SMILES IDX 96 66 61 67 44 68 45 69 54 70 46 71 47 72 53 73 55 74 48 75
REMARK SMILES IDX 49 76 50 77 51 78 52 79 78 80 79 81 88 82 80 83 81 84 87 85
REMARK SMILES IDX 89 86 82 87 83 88 84 89 85 90 86 91 62 92 63 93 72 94 64 95
REMARK SMILES IDX 65 96 71 97 73 98 66 99 67 100 68 101 69 102 70 103
REMARK H PARENT 94 53 60 64
REMARK Flexibility Score: inf
ROOT
ATOM      1  C   UNL A   1      33.714  29.030  27.272  1.00  0.00     0.188 C 
ENDROOT
BRANCH   1   2
ATOM      2  C   UNL A   1      32.701  28.959  26.111  1.00  0.00     0.188 C 
BRANCH   2   3
ATOM      3  O   UNL A   1      33.236  29.348  24.853  1.00  0.00    -0.376 OA
BRANCH   3   4
ATOM      4  C   UNL A   1      33.825  28.308  24.084  1.00  0.00     0.202 C 
BRANCH   4   5
ATOM      5  C   UNL A   1      33.260  28.249  22.663  1.00  0.00     0.261 C 
BRANCH   5   6
ATOM      6  O   UNL A   1      31.883  27.843  22.611  1.00  0.00    -0.460 OA
BRANCH   6   7
ATOM      7  C   UNL A   1      31.623  26.660  22.009  1.00  0.00     0.338 C 
ATOM      8  O   UNL A   1      31.309  26.510  20.841  1.00  0.00    -0.246 OA
BRANCH   7   9
ATOM      9  C   UNL A   1      31.863  25.555  22.955  1.00  0.00     0.087 C 
ATOM     10  C   UNL A   1      32.799  22.950  26.094  1.00  0.00     0.165 A 
ATOM     11  C   UNL A   1      33.853  22.040  25.941  1.00  0.00     0.097 A 
ATOM     12  C   UNL A   1      32.477  23.822  25.050  1.00  0.00     0.170 A 
ATOM     13  C   UNL A   1      34.570  21.976  24.745  1.00  0.00     0.134 A 
ATOM     14  C   UNL A   1      33.210  23.781  23.853  1.00  0.00     0.025 A 
ATOM     15  O   UNL A   1      31.515  24.782  25.246  1.00  0.00    -0.471 OA
ATOM     16  C   UNL A   1      34.233  22.841  23.698  1.00  0.00     0.059 A 
ATOM     17  C   UNL A   1      32.976  24.808  22.837  1.00  0.00     0.027 C 
ATOM     18  C   UNL A   1      30.855  25.231  24.031  1.00  0.00     0.316 C 
BRANCH  10  19
ATOM     19  O   UNL A   1      32.225  22.948  27.339  1.00  0.00    -0.493 OA
ATOM     20  C   UNL A   1      32.980  22.288  28.350  1.00  0.00     0.278 C 
ENDBRANCH  10  19
BRANCH  13  21
ATOM     21  O   UNL A   1      35.614  21.136  24.477  1.00  0.00    -0.406 OA
BRANCH  21  22
ATOM     22  C   UNL A   1      36.923  21.680  24.538  1.00  0.00     0.573 C 
ATOM     23  F   UNL A   1      37.854  20.708  24.646  1.00  0.00    -0.132 F 
ATOM     24  F   UNL A   1      37.185  22.443  23.457  1.00  0.00    -0.132 F 
ATOM     25  F   UNL A   1      37.012  22.465  25.636  1.00  0.00    -0.132 F 
ENDBRANCH  21  22
ENDBRANCH  13  21
BRANCH  18  26
ATOM     26  C   UNL A   1      29.808  26.293  24.404  1.00  0.00     0.430 C 
ATOM     27  F   UNL A   1      30.405  27.457  24.753  1.00  0.00    -0.167 F 
ATOM     28  F   UNL A   1      29.036  26.577  23.323  1.00  0.00    -0.167 F 
ATOM     29  F   UNL A   1      28.989  25.900  25.397  1.00  0.00    -0.167 F 
ENDBRANCH  18  26
ENDBRANCH   7   9
ENDBRANCH   6   7
ENDBRANCH   5   6
ENDBRANCH   4   5
ENDBRANCH   3   4
ENDBRANCH   2   3
ENDBRANCH   1   2
BRANCH   1  30
ATOM     30  O   UNL A   1      34.902  29.802  27.149  1.00  0.00    -0.376 OA
BRANCH  30  31
ATOM     31  C   UNL A   1      34.939  31.115  27.686  1.00  0.00     0.202 C 
BRANCH  31  32
ATOM     32  C   UNL A   1      33.638  31.924  27.685  1.00  0.00     0.261 C 
BRANCH  32  33
ATOM     33  O   UNL A   1      33.826  33.337  27.515  1.00  0.00    -0.460 OA
BRANCH  33  34
ATOM     34  C   UNL A   1      33.635  34.081  28.632  1.00  0.00     0.338 C 
ATOM     35  O   UNL A   1      32.630  34.697  28.944  1.00  0.00    -0.246 OA
BRANCH  34  36
ATOM     36  C   UNL A   1      34.784  33.920  29.545  1.00  0.00     0.060 A 
ATOM     37  C   UNL A   1      36.065  34.193  29.046  1.00  0.00     0.016 A 
ATOM     38  C   UNL A   1      34.617  33.431  30.842  1.00  0.00     0.016 A 
ATOM     39  C   UNL A   1      37.191  33.942  29.831  1.00  0.00     0.010 A 
ATOM     40  C   UNL A   1      35.748  33.155  31.617  1.00  0.00     0.010 A 
ATOM     41  C   UNL A   1      37.038  33.376  31.102  1.00  0.00    -0.014 A 
BRANCH  41  42
ATOM     42  C   UNL A   1      38.214  32.830  31.821  1.00  0.00     0.031 A 
ATOM     43  C   UNL A   1      38.887  31.607  31.262  1.00  0.00     0.074 A 
ATOM     44  C   UNL A   1      38.659  33.392  32.957  1.00  0.00     0.049 A 
ATOM     45  N   UNL A   1      39.842  30.877  31.775  1.00  0.00    -0.248 NA
ATOM     46  C   UNL A   1      38.416  31.147  29.946  1.00  0.00     0.031 C 
ATOM     47  C   UNL A   1      38.125  34.607  33.568  1.00  0.00     0.029 A 
ATOM     48  N   UNL A   1      39.657  32.994  33.811  1.00  0.00    -0.354 N 
ATOM     49  C   UNL A   1      40.075  29.862  30.856  1.00  0.00     0.074 A 
ATOM     50  C   UNL A   1      39.155  30.064  29.758  1.00  0.00     0.031 C 
ATOM     51  C   UNL A   1      38.781  34.839  34.720  1.00  0.00     0.029 A 
ATOM     52  C   UNL A   1      39.754  33.770  34.942  1.00  0.00     0.049 A 
ATOM     53  H   UNL A   1      40.247  32.227  33.632  1.00  0.00     0.167 HD
ATOM     54  C   UNL A   1      40.971  28.849  30.924  1.00  0.00     0.037 A 
ATOM     55  C   UNL A   1      40.515  33.612  36.044  1.00  0.00     0.037 A 
ATOM     56  C   UNL A   1      41.874  28.645  32.025  1.00  0.00     0.049 A 
ATOM     57  C   UNL A   1      41.458  32.441  36.131  1.00  0.00     0.074 A 
ATOM     58  C   UNL A   1      42.820  27.649  32.189  1.00  0.00     0.029 A 
ATOM     59  N   UNL A   1      41.937  29.449  33.153  1.00  0.00    -0.354 N 
ATOM     60  N   UNL A   1      41.673  31.486  35.255  1.00  0.00    -0.248 NA
ATOM     61  C   UNL A   1      42.262  32.320  37.357  1.00  0.00     0.031 C 
ATOM     62  C   UNL A   1      43.429  27.829  33.436  1.00  0.00     0.029 A 
ATOM     63  C   UNL A   1      42.895  28.964  34.027  1.00  0.00     0.049 A 
ATOM     64  H   UNL A   1      41.383  30.248  33.309  1.00  0.00     0.167 HD
ATOM     65  C   UNL A   1      42.656  30.672  35.811  1.00  0.00     0.074 A 
ATOM     66  C   UNL A   1      42.993  31.243  37.098  1.00  0.00     0.031 C 
ATOM     67  C   UNL A   1      43.230  29.556  35.298  1.00  0.00     0.037 A 
BRANCH  54  68
ATOM     68  C   UNL A   1      40.981  27.864  29.791  1.00  0.00     0.058 A 
ATOM     69  C   UNL A   1      42.004  27.855  28.829  1.00  0.00     0.135 A 
ATOM     70  C   UNL A   1      39.952  26.917  29.663  1.00  0.00     0.135 A 
ATOM     71  F   UNL A   1      43.000  28.753  28.893  1.00  0.00    -0.206 F 
ATOM     72  C   UNL A   1      41.989  26.961  27.763  1.00  0.00     0.059 A 
ATOM     73  C   UNL A   1      39.930  25.999  28.617  1.00  0.00     0.059 A 
ATOM     74  F   UNL A   1      38.948  26.887  30.553  1.00  0.00    -0.206 F 
ATOM     75  C   UNL A   1      40.944  26.042  27.662  1.00  0.00     0.060 A 
BRANCH  75  76
ATOM     76  S   UNL A   1      40.925  24.902  26.262  1.00  0.00     0.124 S 
ATOM     77  O   UNL A   1      41.905  23.907  26.686  1.00  0.00    -0.237 OA
ATOM     78  O   UNL A   1      39.536  24.455  26.240  1.00  0.00    -0.237 OA
ATOM     79  O   UNL A   1      41.328  25.740  25.137  1.00  0.00    -0.744 OA
ENDBRANCH  75  76
ENDBRANCH  54  68
BRANCH  55  80
ATOM     80  C   UNL A   1      40.398  34.580  37.165  1.00  0.00     0.058 A 
ATOM     81  C   UNL A   1      39.573  34.315  38.267  1.00  0.00     0.135 A 
ATOM     82  C   UNL A   1      41.119  35.784  37.161  1.00  0.00     0.135 A 
ATOM     83  F   UNL A   1      38.854  33.184  38.308  1.00  0.00    -0.206 F 
ATOM     84  C   UNL A   1      39.462  35.211  39.326  1.00  0.00     0.059 A 
ATOM     85  C   UNL A   1      41.041  36.687  38.218  1.00  0.00     0.059 A 
ATOM     86  F   UNL A   1      41.927  36.082  36.132  1.00  0.00    -0.206 F 
ATOM     87  C   UNL A   1      40.203  36.393  39.294  1.00  0.00     0.060 A 
BRANCH  87  88
ATOM     88  S   UNL A   1      40.098  37.524  40.699  1.00  0.00     0.124 S 
ATOM     89  O   UNL A   1      38.723  37.317  41.139  1.00  0.00    -0.237 OA
ATOM     90  O   UNL A   1      41.137  37.009  41.586  1.00  0.00    -0.237 OA
ATOM     91  O   UNL A   1      40.382  38.825  40.103  1.00  0.00    -0.744 OA
ENDBRANCH  87  88
ENDBRANCH  55  80
BRANCH  67  92
ATOM     92  C   UNL A   1      44.320  28.898  36.098  1.00  0.00     0.058 A 
ATOM     93  C   UNL A   1      45.640  29.372  36.079  1.00  0.00     0.135 A 
ATOM     94  C   UNL A   1      44.016  27.829  36.957  1.00  0.00     0.135 A 
ATOM     95  F   UNL A   1      45.981  30.387  35.271  1.00  0.00    -0.206 F 
ATOM     96  C   UNL A   1      46.626  28.802  36.878  1.00  0.00     0.059 A 
ATOM     97  C   UNL A   1      44.981  27.258  37.781  1.00  0.00     0.059 A 
ATOM     98  F   UNL A   1      42.765  27.346  37.020  1.00  0.00    -0.206 F 
ATOM     99  C   UNL A   1      46.286  27.748  37.730  1.00  0.00     0.060 A 
BRANCH  99 100
ATOM    100  S   UNL A   1      47.560  27.051  38.803  1.00  0.00     0.124 S 
ATOM    101  O   UNL A   1      47.151  25.653  38.876  1.00  0.00    -0.237 OA
ATOM    102  O   UNL A   1      48.784  27.316  38.052  1.00  0.00    -0.237 OA
ATOM    103  O   UNL A   1      47.416  27.813  40.040  1.00  0.00    -0.744 OA
ENDBRANCH  99 100
ENDBRANCH  67  92
ENDBRANCH  41  42
ENDBRANCH  34  36
ENDBRANCH  33  34
ENDBRANCH  32  33
ENDBRANCH  31  32
ENDBRANCH  30  31
ENDBRANCH   1  30
TORSDOF 24
ENDMDL
