MODEL 1
REMARK VINA RESULT:      -9.9      0.000      0.000
REMARK SMILES C[C@H](C(=O)NCC(=O)OCCOCCOCCOC(=O)c1ccc(-c2c3nc(c(-c4c(F)cc(S(=O)(=O)[O-])cc4F)c4ccc([nH]4)c(-c4c(F)cc(S(=O)(=O)[O-])cc4F)c4nc(c(-c5c(F)cc(S(=O)(=O)[O-])cc5F)c5ccc2[nH]5)C=C4)C=C3)cc1)N1C(=O)/C(=C/c2ccc(O)cc2)SC1=S
REMARK SMILES IDX 13 1 12 2 11 3 10 4 9 5 7 6 8 7 6 8 5 9 3 10 4 11 2 13 1 14
REMARK SMILES IDX 87 15 88 16 100 17 89 18 90 19 99 20 101 21 91 22 92 23
REMARK SMILES IDX 93 24 98 25 94 26 97 27 95 28 96 29 14 31 15 32 16 33 17 34
REMARK SMILES IDX 18 35 19 36 20 37 21 38 22 39 86 40 23 41 85 42 24 43 25 44
REMARK SMILES IDX 26 45 79 46 27 47 84 48 78 49 80 50 28 51 83 52 77 53 76 54
REMARK SMILES IDX 29 56 63 57 42 58 62 59 43 60 46 61 61 62 81 63 44 64 45 65
REMARK SMILES IDX 60 67 82 68 47 69 30 70 31 71 40 72 32 73 33 74 39 75 41 76
REMARK SMILES IDX 34 77 35 78 36 79 37 80 38 81 64 82 65 83 74 84 66 85 67 86
REMARK SMILES IDX 73 87 75 88 68 89 69 90 70 91 71 92 72 93 48 94 49 95 58 96
REMARK SMILES IDX 50 97 51 98 57 99 59 100 52 101 53 102 54 103 55 104 56 105
REMARK H PARENT 5 12 96 30 80 55 46 66
REMARK Flexibility Score: inf
ROOT
ATOM      1  C   UNL A   1      34.188  31.465  28.140  1.00  0.00     0.188 C 
ENDROOT
BRANCH   1   2
ATOM      2  O   UNL A   1      33.116  31.413  27.212  1.00  0.00    -0.376 OA
BRANCH   2   3
ATOM      3  C   UNL A   1      32.634  30.147  26.775  1.00  0.00     0.202 C 
BRANCH   3   4
ATOM      4  C   UNL A   1      33.333  29.421  25.612  1.00  0.00     0.261 C 
BRANCH   4   5
ATOM      5  O   UNL A   1      32.610  29.390  24.358  1.00  0.00    -0.462 OA
BRANCH   5   6
ATOM      6  C   UNL A   1      32.835  28.320  23.545  1.00  0.00     0.325 C 
ATOM      7  O   UNL A   1      33.827  27.604  23.608  1.00  0.00    -0.250 OA
BRANCH   6   8
ATOM      8  C   UNL A   1      31.665  28.010  22.583  1.00  0.00     0.238 C 
BRANCH   8   9
ATOM      9  N   UNL A   1      30.466  27.332  23.082  1.00  0.00    -0.343 N 
ATOM     10  C   UNL A   1      30.241  26.484  24.117  1.00  0.00     0.243 C 
ATOM     11  O   UNL A   1      29.081  26.089  24.259  1.00  0.00    -0.273 OA
ATOM     12  H   UNL A   1      29.657  27.535  22.558  1.00  0.00     0.164 HD
BRANCH  10  13
ATOM     13  C   UNL A   1      31.381  26.026  25.038  1.00  0.00     0.178 C 
ATOM     14  C   UNL A   1      31.170  26.572  26.448  1.00  0.00     0.042 C 
BRANCH  13  15
ATOM     15  N   UNL A   1      31.499  24.560  24.940  1.00  0.00    -0.281 N 
ATOM     16  C   UNL A   1      32.160  23.931  23.892  1.00  0.00     0.266 C 
ATOM     17  C   UNL A   1      30.998  23.703  25.894  1.00  0.00     0.149 C 
ATOM     18  O   UNL A   1      32.519  24.428  22.836  1.00  0.00    -0.268 OA
ATOM     19  C   UNL A   1      32.320  22.472  24.192  1.00  0.00     0.081 C 
ATOM     20  S   UNL A   1      31.876  22.200  25.828  1.00  0.00    -0.054 SA
ATOM     21  S   UNL A   1      29.706  23.923  26.923  1.00  0.00    -0.052 S 
ATOM     22  C   UNL A   1      32.713  21.559  23.288  1.00  0.00     0.029 C 
BRANCH  22  23
ATOM     23  C   UNL A   1      32.971  20.124  23.532  1.00  0.00    -0.024 A 
ATOM     24  C   UNL A   1      32.194  19.180  22.848  1.00  0.00     0.012 A 
ATOM     25  C   UNL A   1      33.974  19.651  24.393  1.00  0.00     0.012 A 
ATOM     26  C   UNL A   1      32.483  17.814  22.944  1.00  0.00     0.047 A 
ATOM     27  C   UNL A   1      34.295  18.295  24.459  1.00  0.00     0.047 A 
ATOM     28  C   UNL A   1      33.551  17.387  23.720  1.00  0.00     0.115 A 
BRANCH  28  29
ATOM     29  O   UNL A   1      33.851  16.057  23.732  1.00  0.00    -0.508 OA
ATOM     30  H   UNL A   1      34.699  15.766  23.460  1.00  0.00     0.293 HD
ENDBRANCH  28  29
ENDBRANCH  22  23
ENDBRANCH  13  15
ENDBRANCH  10  13
ENDBRANCH   8   9
ENDBRANCH   6   8
ENDBRANCH   5   6
ENDBRANCH   4   5
ENDBRANCH   3   4
ENDBRANCH   2   3
ENDBRANCH   1   2
BRANCH   1  31
ATOM     31  C   UNL A   1      34.646  32.836  28.655  1.00  0.00     0.188 C 
BRANCH  31  32
ATOM     32  O   UNL A   1      35.933  33.231  28.260  1.00  0.00    -0.376 OA
BRANCH  32  33
ATOM     33  C   UNL A   1      36.701  34.036  29.134  1.00  0.00     0.202 C 
BRANCH  33  34
ATOM     34  C   UNL A   1      37.755  33.462  30.106  1.00  0.00     0.261 C 
BRANCH  34  35
ATOM     35  O   UNL A   1      37.303  32.683  31.223  1.00  0.00    -0.460 OA
BRANCH  35  36
ATOM     36  C   UNL A   1      37.081  31.362  31.022  1.00  0.00     0.338 C 
ATOM     37  O   UNL A   1      36.001  30.792  31.056  1.00  0.00    -0.246 OA
BRANCH  36  38
ATOM     38  C   UNL A   1      38.332  30.769  30.486  1.00  0.00     0.060 A 
ATOM     39  C   UNL A   1      39.396  30.506  31.364  1.00  0.00     0.016 A 
ATOM     40  C   UNL A   1      38.443  30.437  29.135  1.00  0.00     0.016 A 
ATOM     41  C   UNL A   1      40.577  29.930  30.891  1.00  0.00     0.010 A 
ATOM     42  C   UNL A   1      39.639  29.889  28.657  1.00  0.00     0.010 A 
ATOM     43  C   UNL A   1      40.723  29.659  29.525  1.00  0.00    -0.014 A 
BRANCH  43  44
ATOM     44  C   UNL A   1      42.061  29.340  28.964  1.00  0.00     0.031 A 
ATOM     45  C   UNL A   1      42.307  27.935  28.481  1.00  0.00     0.074 A 
ATOM     46  C   UNL A   1      43.040  30.259  28.884  1.00  0.00     0.049 A 
ATOM     47  N   UNL A   1      43.411  27.383  28.050  1.00  0.00    -0.248 NA
ATOM     48  C   UNL A   1      41.145  27.030  28.493  1.00  0.00     0.031 C 
ATOM     49  C   UNL A   1      42.919  31.664  29.270  1.00  0.00     0.029 A 
ATOM     50  N   UNL A   1      44.344  30.138  28.466  1.00  0.00    -0.354 N 
ATOM     51  C   UNL A   1      43.083  26.064  27.756  1.00  0.00     0.074 A 
ATOM     52  C   UNL A   1      41.684  25.892  28.081  1.00  0.00     0.031 C 
ATOM     53  C   UNL A   1      44.107  32.269  29.091  1.00  0.00     0.029 A 
ATOM     54  C   UNL A   1      45.083  31.287  28.615  1.00  0.00     0.049 A 
ATOM     55  H   UNL A   1      44.714  29.304  28.093  1.00  0.00     0.167 HD
ATOM     56  C   UNL A   1      43.874  25.085  27.257  1.00  0.00     0.037 A 
ATOM     57  C   UNL A   1      46.400  31.512  28.423  1.00  0.00     0.037 A 
ATOM     58  C   UNL A   1      45.267  25.259  26.939  1.00  0.00     0.049 A 
ATOM     59  C   UNL A   1      47.282  30.386  27.941  1.00  0.00     0.074 A 
ATOM     60  C   UNL A   1      46.151  24.333  26.414  1.00  0.00     0.029 A 
ATOM     61  N   UNL A   1      45.984  26.433  27.126  1.00  0.00    -0.354 N 
ATOM     62  N   UNL A   1      46.958  29.147  27.650  1.00  0.00    -0.248 NA
ATOM     63  C   UNL A   1      48.711  30.685  27.762  1.00  0.00     0.031 C 
ATOM     64  C   UNL A   1      47.414  24.926  26.340  1.00  0.00     0.029 A 
ATOM     65  C   UNL A   1      47.305  26.245  26.754  1.00  0.00     0.049 A 
ATOM     66  H   UNL A   1      45.608  27.274  27.473  1.00  0.00     0.167 HD
ATOM     67  C   UNL A   1      48.133  28.534  27.220  1.00  0.00     0.074 A 
ATOM     68  C   UNL A   1      49.173  29.539  27.282  1.00  0.00     0.031 C 
ATOM     69  C   UNL A   1      48.331  27.257  26.809  1.00  0.00     0.037 A 
BRANCH  56  70
ATOM     70  C   UNL A   1      43.259  23.726  27.056  1.00  0.00     0.058 A 
ATOM     71  C   UNL A   1      42.812  23.292  25.798  1.00  0.00     0.135 A 
ATOM     72  C   UNL A   1      43.146  22.834  28.133  1.00  0.00     0.135 A 
ATOM     73  F   UNL A   1      42.878  24.111  24.736  1.00  0.00    -0.206 F 
ATOM     74  C   UNL A   1      42.251  22.031  25.621  1.00  0.00     0.059 A 
ATOM     75  C   UNL A   1      42.617  21.557  27.974  1.00  0.00     0.059 A 
ATOM     76  F   UNL A   1      43.553  23.198  29.360  1.00  0.00    -0.206 F 
ATOM     77  C   UNL A   1      42.159  21.170  26.716  1.00  0.00     0.060 A 
BRANCH  77  78
ATOM     78  S   UNL A   1      41.436  19.535  26.467  1.00  0.00     0.124 S 
ATOM     79  O   UNL A   1      40.101  19.877  25.986  1.00  0.00    -0.237 OA
ATOM     80  O   UNL A   1      42.334  18.946  25.479  1.00  0.00    -0.237 OA
ATOM     81  O   UNL A   1      41.488  18.934  27.796  1.00  0.00    -0.744 OA
ENDBRANCH  77  78
ENDBRANCH  56  70
BRANCH  57  82
ATOM     82  C   UNL A   1      46.978  32.857  28.702  1.00  0.00     0.058 A 
ATOM     83  C   UNL A   1      47.443  33.197  29.981  1.00  0.00     0.135 A 
ATOM     84  C   UNL A   1      47.063  33.836  27.697  1.00  0.00     0.135 A 
ATOM     85  F   UNL A   1      47.368  32.305  30.980  1.00  0.00    -0.206 F 
ATOM     86  C   UNL A   1      47.960  34.459  30.259  1.00  0.00     0.059 A 
ATOM     87  C   UNL A   1      47.603  35.094  27.944  1.00  0.00     0.059 A 
ATOM     88  F   UNL A   1      46.635  33.563  26.455  1.00  0.00    -0.206 F 
ATOM     89  C   UNL A   1      48.040  35.400  29.232  1.00  0.00     0.060 A 
BRANCH  89  90
ATOM     90  S   UNL A   1      48.760  37.017  29.593  1.00  0.00     0.124 S 
ATOM     91  O   UNL A   1      47.645  37.698  30.242  1.00  0.00    -0.237 OA
ATOM     92  O   UNL A   1      49.882  36.664  30.456  1.00  0.00    -0.237 OA
ATOM     93  O   UNL A   1      49.128  37.524  28.275  1.00  0.00    -0.744 OA
ENDBRANCH  89  90
ENDBRANCH  57  82
BRANCH  69  94
ATOM     94  C   UNL A   1      49.713  26.873  26.343  1.00  0.00     0.058 A 
ATOM     95  C   UNL A   1      50.715  26.468  27.238  1.00  0.00     0.135 A 
ATOM     96  C   UNL A   1      50.015  26.849  24.971  1.00  0.00     0.135 A 
ATOM     97  F   UNL A   1      50.483  26.474  28.561  1.00  0.00    -0.206 F 
ATOM     98  C   UNL A   1      51.975  26.077  26.792  1.00  0.00     0.059 A 
ATOM     99  C   UNL A   1      51.257  26.431  24.501  1.00  0.00     0.059 A 
ATOM    100  F   UNL A   1      49.091  27.214  24.068  1.00  0.00    -0.206 F 
ATOM    101  C   UNL A   1      52.234  26.058  25.420  1.00  0.00     0.060 A 
BRANCH 101 102
ATOM    102  S   UNL A   1      53.860  25.513  24.854  1.00  0.00     0.124 S 
ATOM    103  O   UNL A   1      54.706  25.891  25.982  1.00  0.00    -0.237 OA
ATOM    104  O   UNL A   1      53.660  24.080  24.665  1.00  0.00    -0.237 OA
ATOM    105  O   UNL A   1      54.069  26.279  23.629  1.00  0.00    -0.744 OA
ENDBRANCH 101 102
ENDBRANCH  69  94
ENDBRANCH  43  44
ENDBRANCH  36  38
ENDBRANCH  35  36
ENDBRANCH  34  35
ENDBRANCH  33  34
ENDBRANCH  32  33
ENDBRANCH  31  32
ENDBRANCH   1  31
TORSDOF 25
ENDMDL
MODEL 2
REMARK VINA RESULT:      -9.3      1.344      8.016
REMARK SMILES C[C@H](C(=O)NCC(=O)OCCOCCOCCOC(=O)c1ccc(-c2c3nc(c(-c4c(F)cc(S(=O)(=O)[O-])cc4F)c4ccc([nH]4)c(-c4c(F)cc(S(=O)(=O)[O-])cc4F)c4nc(c(-c5c(F)cc(S(=O)(=O)[O-])cc5F)c5ccc2[nH]5)C=C4)C=C3)cc1)N1C(=O)/C(=C/c2ccc(O)cc2)SC1=S
REMARK SMILES IDX 13 1 12 2 11 3 10 4 9 5 7 6 8 7 6 8 5 9 3 10 4 11 2 13 1 14
REMARK SMILES IDX 87 15 88 16 100 17 89 18 90 19 99 20 101 21 91 22 92 23
REMARK SMILES IDX 93 24 98 25 94 26 97 27 95 28 96 29 14 31 15 32 16 33 17 34
REMARK SMILES IDX 18 35 19 36 20 37 21 38 22 39 86 40 23 41 85 42 24 43 25 44
REMARK SMILES IDX 26 45 79 46 27 47 84 48 78 49 80 50 28 51 83 52 77 53 76 54
REMARK SMILES IDX 29 56 63 57 42 58 62 59 43 60 46 61 61 62 81 63 44 64 45 65
REMARK SMILES IDX 60 67 82 68 47 69 30 70 31 71 40 72 32 73 33 74 39 75 41 76
REMARK SMILES IDX 34 77 35 78 36 79 37 80 38 81 64 82 65 83 74 84 66 85 67 86
REMARK SMILES IDX 73 87 75 88 68 89 69 90 70 91 71 92 72 93 48 94 49 95 58 96
REMARK SMILES IDX 50 97 51 98 57 99 59 100 52 101 53 102 54 103 55 104 56 105
REMARK H PARENT 5 12 96 30 80 55 46 66
REMARK Flexibility Score: inf
ROOT
ATOM      1  C   UNL A   1      34.019  31.128  28.165  1.00  0.00     0.188 C 
ENDROOT
BRANCH   1   2
ATOM      2  O   UNL A   1      34.055  30.232  27.065  1.00  0.00    -0.376 OA
BRANCH   2   3
ATOM      3  C   UNL A   1      32.889  29.485  26.737  1.00  0.00     0.202 C 
BRANCH   3   4
ATOM      4  C   UNL A   1      32.793  28.001  27.133  1.00  0.00     0.261 C 
BRANCH   4   5
ATOM      5  O   UNL A   1      32.501  27.076  26.058  1.00  0.00    -0.462 OA
BRANCH   5   6
ATOM      6  C   UNL A   1      31.393  26.296  26.204  1.00  0.00     0.325 C 
ATOM      7  O   UNL A   1      30.448  26.571  26.932  1.00  0.00    -0.250 OA
BRANCH   6   8
ATOM      8  C   UNL A   1      31.374  25.059  25.276  1.00  0.00     0.238 C 
BRANCH   8   9
ATOM      9  N   UNL A   1      31.333  25.234  23.822  1.00  0.00    -0.343 N 
ATOM     10  C   UNL A   1      32.244  25.039  22.835  1.00  0.00     0.243 C 
ATOM     11  O   UNL A   1      31.871  25.291  21.688  1.00  0.00    -0.273 OA
ATOM     12  H   UNL A   1      30.464  25.561  23.494  1.00  0.00     0.164 HD
BRANCH  10  13
ATOM     13  C   UNL A   1      33.667  24.554  23.147  1.00  0.00     0.178 C 
ATOM     14  C   UNL A   1      34.379  25.558  24.050  1.00  0.00     0.042 C 
BRANCH  13  15
ATOM     15  N   UNL A   1      33.587  23.179  23.673  1.00  0.00    -0.281 N 
ATOM     16  C   UNL A   1      32.837  22.185  23.055  1.00  0.00     0.266 C 
ATOM     17  C   UNL A   1      34.274  22.763  24.790  1.00  0.00     0.149 C 
ATOM     18  O   UNL A   1      31.995  22.324  22.181  1.00  0.00    -0.268 OA
ATOM     19  C   UNL A   1      33.142  20.857  23.676  1.00  0.00     0.081 C 
ATOM     20  S   UNL A   1      34.499  21.038  24.712  1.00  0.00    -0.054 SA
ATOM     21  S   UNL A   1      34.767  23.656  26.108  1.00  0.00    -0.052 S 
ATOM     22  C   UNL A   1      32.424  19.743  23.456  1.00  0.00     0.029 C 
BRANCH  22  23
ATOM     23  C   UNL A   1      32.713  18.385  23.966  1.00  0.00    -0.024 A 
ATOM     24  C   UNL A   1      33.474  17.521  23.169  1.00  0.00     0.012 A 
ATOM     25  C   UNL A   1      32.291  17.922  25.222  1.00  0.00     0.012 A 
ATOM     26  C   UNL A   1      33.884  16.275  23.657  1.00  0.00     0.047 A 
ATOM     27  C   UNL A   1      32.733  16.701  25.732  1.00  0.00     0.047 A 
ATOM     28  C   UNL A   1      33.540  15.892  24.946  1.00  0.00     0.115 A 
BRANCH  28  29
ATOM     29  O   UNL A   1      34.019  14.705  25.417  1.00  0.00    -0.508 OA
ATOM     30  H   UNL A   1      34.811  14.348  25.066  1.00  0.00     0.293 HD
ENDBRANCH  28  29
ENDBRANCH  22  23
ENDBRANCH  13  15
ENDBRANCH  10  13
ENDBRANCH   8   9
ENDBRANCH   6   8
ENDBRANCH   5   6
ENDBRANCH   4   5
ENDBRANCH   3   4
ENDBRANCH   2   3
ENDBRANCH   1   2
BRANCH   1  31
ATOM     31  C   UNL A   1      33.970  32.636  27.881  1.00  0.00     0.188 C 
BRANCH  31  32
ATOM     32  O   UNL A   1      34.497  33.458  28.888  1.00  0.00    -0.376 OA
BRANCH  32  33
ATOM     33  C   UNL A   1      35.392  32.899  29.830  1.00  0.00     0.202 C 
BRANCH  33  34
ATOM     34  C   UNL A   1      36.034  33.713  30.975  1.00  0.00     0.261 C 
BRANCH  34  35
ATOM     35  O   UNL A   1      37.290  33.270  31.508  1.00  0.00    -0.460 OA
BRANCH  35  36
ATOM     36  C   UNL A   1      37.348  32.021  32.029  1.00  0.00     0.338 C 
ATOM     37  O   UNL A   1      36.501  31.484  32.727  1.00  0.00    -0.246 OA
BRANCH  36  38
ATOM     38  C   UNL A   1      38.486  31.315  31.390  1.00  0.00     0.060 A 
ATOM     39  C   UNL A   1      39.221  30.382  32.140  1.00  0.00     0.016 A 
ATOM     40  C   UNL A   1      38.804  31.541  30.050  1.00  0.00     0.016 A 
ATOM     41  C   UNL A   1      40.285  29.689  31.558  1.00  0.00     0.010 A 
ATOM     42  C   UNL A   1      39.890  30.868  29.478  1.00  0.00     0.010 A 
ATOM     43  C   UNL A   1      40.655  29.961  30.235  1.00  0.00    -0.014 A 
BRANCH  43  44
ATOM     44  C   UNL A   1      41.953  29.470  29.705  1.00  0.00     0.031 A 
ATOM     45  C   UNL A   1      43.099  30.443  29.632  1.00  0.00     0.074 A 
ATOM     46  C   UNL A   1      42.122  28.201  29.290  1.00  0.00     0.049 A 
ATOM     47  N   UNL A   1      44.291  30.291  29.117  1.00  0.00    -0.248 NA
ATOM     48  C   UNL A   1      42.862  31.773  30.218  1.00  0.00     0.031 C 
ATOM     49  C   UNL A   1      41.111  27.147  29.351  1.00  0.00     0.029 A 
ATOM     50  N   UNL A   1      43.210  27.589  28.714  1.00  0.00    -0.354 N 
ATOM     51  C   UNL A   1      44.939  31.508  29.300  1.00  0.00     0.074 A 
ATOM     52  C   UNL A   1      44.001  32.395  29.952  1.00  0.00     0.031 C 
ATOM     53  C   UNL A   1      41.620  26.024  28.813  1.00  0.00     0.029 A 
ATOM     54  C   UNL A   1      42.976  26.288  28.335  1.00  0.00     0.049 A 
ATOM     55  H   UNL A   1      44.076  28.041  28.586  1.00  0.00     0.167 HD
ATOM     56  C   UNL A   1      46.204  31.854  28.960  1.00  0.00     0.037 A 
ATOM     57  C   UNL A   1      43.756  25.424  27.650  1.00  0.00     0.037 A 
ATOM     58  C   UNL A   1      47.133  30.969  28.308  1.00  0.00     0.049 A 
ATOM     59  C   UNL A   1      45.134  25.856  27.210  1.00  0.00     0.074 A 
ATOM     60  C   UNL A   1      48.442  31.220  27.936  1.00  0.00     0.029 A 
ATOM     61  N   UNL A   1      46.851  29.667  27.919  1.00  0.00    -0.354 N 
ATOM     62  N   UNL A   1      45.743  27.002  27.404  1.00  0.00    -0.248 NA
ATOM     63  C   UNL A   1      45.932  24.877  26.456  1.00  0.00     0.031 C 
ATOM     64  C   UNL A   1      48.932  30.094  27.269  1.00  0.00     0.029 A 
ATOM     65  C   UNL A   1      47.952  29.113  27.286  1.00  0.00     0.049 A 
ATOM     66  H   UNL A   1      45.994  29.206  28.071  1.00  0.00     0.167 HD
ATOM     67  C   UNL A   1      47.005  26.868  26.829  1.00  0.00     0.074 A 
ATOM     68  C   UNL A   1      47.075  25.528  26.288  1.00  0.00     0.031 C 
ATOM     69  C   UNL A   1      48.015  27.772  26.760  1.00  0.00     0.037 A 
BRANCH  56  70
ATOM     70  C   UNL A   1      46.645  33.261  29.257  1.00  0.00     0.058 A 
ATOM     71  C   UNL A   1      46.427  34.314  28.354  1.00  0.00     0.135 A 
ATOM     72  C   UNL A   1      47.266  33.566  30.479  1.00  0.00     0.135 A 
ATOM     73  F   UNL A   1      45.855  34.077  27.162  1.00  0.00    -0.206 F 
ATOM     74  C   UNL A   1      46.832  35.614  28.641  1.00  0.00     0.059 A 
ATOM     75  C   UNL A   1      47.651  34.864  30.801  1.00  0.00     0.059 A 
ATOM     76  F   UNL A   1      47.503  32.597  31.378  1.00  0.00    -0.206 F 
ATOM     77  C   UNL A   1      47.442  35.879  29.868  1.00  0.00     0.060 A 
BRANCH  77  78
ATOM     78  S   UNL A   1      47.954  37.572  30.228  1.00  0.00     0.124 S 
ATOM     79  O   UNL A   1      46.665  38.249  30.334  1.00  0.00    -0.237 OA
ATOM     80  O   UNL A   1      48.692  37.415  31.476  1.00  0.00    -0.237 OA
ATOM     81  O   UNL A   1      48.759  37.938  29.067  1.00  0.00    -0.744 OA
ENDBRANCH  77  78
ENDBRANCH  56  70
BRANCH  57  82
ATOM     82  C   UNL A   1      43.250  24.063  27.318  1.00  0.00     0.058 A 
ATOM     83  C   UNL A   1      43.372  23.000  28.225  1.00  0.00     0.135 A 
ATOM     84  C   UNL A   1      42.647  23.792  26.078  1.00  0.00     0.135 A 
ATOM     85  F   UNL A   1      43.958  23.200  29.416  1.00  0.00    -0.206 F 
ATOM     86  C   UNL A   1      42.929  21.718  27.915  1.00  0.00     0.059 A 
ATOM     87  C   UNL A   1      42.168  22.526  25.756  1.00  0.00     0.059 A 
ATOM     88  F   UNL A   1      42.502  24.772  25.173  1.00  0.00    -0.206 F 
ATOM     89  C   UNL A   1      42.323  21.492  26.678  1.00  0.00     0.060 A 
BRANCH  89  90
ATOM     90  S   UNL A   1      41.705  19.835  26.307  1.00  0.00     0.124 S 
ATOM     91  O   UNL A   1      42.042  19.114  27.529  1.00  0.00    -0.237 OA
ATOM     92  O   UNL A   1      40.284  20.084  26.083  1.00  0.00    -0.237 OA
ATOM     93  O   UNL A   1      42.461  19.451  25.120  1.00  0.00    -0.744 OA
ENDBRANCH  89  90
ENDBRANCH  57  82
BRANCH  69  94
ATOM     94  C   UNL A   1      49.307  27.335  26.119  1.00  0.00     0.058 A 
ATOM     95  C   UNL A   1      49.543  27.482  24.743  1.00  0.00     0.135 A 
ATOM     96  C   UNL A   1      50.350  26.822  26.908  1.00  0.00     0.135 A 
ATOM     97  F   UNL A   1      48.581  27.964  23.940  1.00  0.00    -0.206 F 
ATOM     98  C   UNL A   1      50.757  27.113  24.169  1.00  0.00     0.059 A 
ATOM     99  C   UNL A   1      51.583  26.476  26.361  1.00  0.00     0.059 A 
ATOM    100  F   UNL A   1      50.186  26.671  28.232  1.00  0.00    -0.206 F 
ATOM    101  C   UNL A   1      51.773  26.615  24.988  1.00  0.00     0.060 A 
BRANCH 101 102
ATOM    102  S   UNL A   1      53.354  26.175  24.235  1.00  0.00     0.124 S 
ATOM    103  O   UNL A   1      53.933  27.490  23.977  1.00  0.00    -0.237 OA
ATOM    104  O   UNL A   1      53.995  25.397  25.290  1.00  0.00    -0.237 OA
ATOM    105  O   UNL A   1      52.968  25.416  23.049  1.00  0.00    -0.744 OA
ENDBRANCH 101 102
ENDBRANCH  69  94
ENDBRANCH  43  44
ENDBRANCH  36  38
ENDBRANCH  35  36
ENDBRANCH  34  35
ENDBRANCH  33  34
ENDBRANCH  32  33
ENDBRANCH  31  32
ENDBRANCH   1  31
TORSDOF 25
ENDMDL
MODEL 3
REMARK VINA RESULT:      -8.8      7.674     13.044
REMARK SMILES C[C@H](C(=O)NCC(=O)OCCOCCOCCOC(=O)c1ccc(-c2c3nc(c(-c4c(F)cc(S(=O)(=O)[O-])cc4F)c4ccc([nH]4)c(-c4c(F)cc(S(=O)(=O)[O-])cc4F)c4nc(c(-c5c(F)cc(S(=O)(=O)[O-])cc5F)c5ccc2[nH]5)C=C4)C=C3)cc1)N1C(=O)/C(=C/c2ccc(O)cc2)SC1=S
REMARK SMILES IDX 13 1 12 2 11 3 10 4 9 5 7 6 8 7 6 8 5 9 3 10 4 11 2 13 1 14
REMARK SMILES IDX 87 15 88 16 100 17 89 18 90 19 99 20 101 21 91 22 92 23
REMARK SMILES IDX 93 24 98 25 94 26 97 27 95 28 96 29 14 31 15 32 16 33 17 34
REMARK SMILES IDX 18 35 19 36 20 37 21 38 22 39 86 40 23 41 85 42 24 43 25 44
REMARK SMILES IDX 26 45 79 46 27 47 84 48 78 49 80 50 28 51 83 52 77 53 76 54
REMARK SMILES IDX 29 56 63 57 42 58 62 59 43 60 46 61 61 62 81 63 44 64 45 65
REMARK SMILES IDX 60 67 82 68 47 69 30 70 31 71 40 72 32 73 33 74 39 75 41 76
REMARK SMILES IDX 34 77 35 78 36 79 37 80 38 81 64 82 65 83 74 84 66 85 67 86
REMARK SMILES IDX 73 87 75 88 68 89 69 90 70 91 71 92 72 93 48 94 49 95 58 96
REMARK SMILES IDX 50 97 51 98 57 99 59 100 52 101 53 102 54 103 55 104 56 105
REMARK H PARENT 5 12 96 30 80 55 46 66
REMARK Flexibility Score: inf
ROOT
ATOM      1  C   UNL A   1      42.187  24.686  27.757  1.00  0.00     0.188 C 
ENDROOT
BRANCH   1   2
ATOM      2  O   UNL A   1      40.986  25.435  27.655  1.00  0.00    -0.376 OA
BRANCH   2   3
ATOM      3  C   UNL A   1      40.080  25.156  26.594  1.00  0.00     0.202 C 
BRANCH   3   4
ATOM      4  C   UNL A   1      39.018  24.053  26.763  1.00  0.00     0.261 C 
BRANCH   4   5
ATOM      5  O   UNL A   1      37.664  24.418  26.405  1.00  0.00    -0.462 OA
BRANCH   5   6
ATOM      6  C   UNL A   1      36.998  23.567  25.575  1.00  0.00     0.325 C 
ATOM      7  O   UNL A   1      37.467  22.525  25.136  1.00  0.00    -0.250 OA
BRANCH   6   8
ATOM      8  C   UNL A   1      35.531  23.978  25.307  1.00  0.00     0.238 C 
BRANCH   8   9
ATOM      9  N   UNL A   1      35.138  24.470  23.985  1.00  0.00    -0.343 N 
ATOM     10  C   UNL A   1      33.936  24.673  23.387  1.00  0.00     0.243 C 
ATOM     11  O   UNL A   1      33.965  25.109  22.234  1.00  0.00    -0.273 OA
ATOM     12  H   UNL A   1      35.904  24.702  23.412  1.00  0.00     0.164 HD
BRANCH  10  13
ATOM     13  C   UNL A   1      32.620  24.348  24.108  1.00  0.00     0.178 C 
ATOM     14  C   UNL A   1      31.432  24.798  23.262  1.00  0.00     0.042 C 
BRANCH  13  15
ATOM     15  N   UNL A   1      32.630  22.920  24.475  1.00  0.00    -0.281 N 
ATOM     16  C   UNL A   1      32.716  21.906  23.528  1.00  0.00     0.266 C 
ATOM     17  C   UNL A   1      32.590  22.481  25.778  1.00  0.00     0.149 C 
ATOM     18  O   UNL A   1      32.571  22.003  22.320  1.00  0.00    -0.268 OA
ATOM     19  C   UNL A   1      32.944  20.592  24.209  1.00  0.00     0.081 C 
ATOM     20  S   UNL A   1      33.288  20.888  25.865  1.00  0.00    -0.054 SA
ATOM     21  S   UNL A   1      31.920  23.222  27.112  1.00  0.00    -0.052 S 
ATOM     22  C   UNL A   1      32.849  19.401  23.594  1.00  0.00     0.029 C 
BRANCH  22  23
ATOM     23  C   UNL A   1      33.140  18.075  24.178  1.00  0.00    -0.024 A 
ATOM     24  C   UNL A   1      32.188  17.496  25.027  1.00  0.00     0.012 A 
ATOM     25  C   UNL A   1      34.309  17.346  23.906  1.00  0.00     0.012 A 
ATOM     26  C   UNL A   1      32.355  16.190  25.502  1.00  0.00     0.047 A 
ATOM     27  C   UNL A   1      34.461  16.029  24.341  1.00  0.00     0.047 A 
ATOM     28  C   UNL A   1      33.472  15.457  25.127  1.00  0.00     0.115 A 
BRANCH  28  29
ATOM     29  O   UNL A   1      33.567  14.163  25.546  1.00  0.00    -0.508 OA
ATOM     30  H   UNL A   1      34.230  13.918  26.161  1.00  0.00     0.293 HD
ENDBRANCH  28  29
ENDBRANCH  22  23
ENDBRANCH  13  15
ENDBRANCH  10  13
ENDBRANCH   8   9
ENDBRANCH   6   8
ENDBRANCH   5   6
ENDBRANCH   4   5
ENDBRANCH   3   4
ENDBRANCH   2   3
ENDBRANCH   1   2
BRANCH   1  31
ATOM     31  C   UNL A   1      43.505  25.442  27.979  1.00  0.00     0.188 C 
BRANCH  31  32
ATOM     32  O   UNL A   1      44.292  24.984  29.046  1.00  0.00    -0.376 OA
BRANCH  32  33
ATOM     33  C   UNL A   1      43.899  23.811  29.732  1.00  0.00     0.202 C 
BRANCH  33  34
ATOM     34  C   UNL A   1      44.557  23.338  31.048  1.00  0.00     0.261 C 
BRANCH  34  35
ATOM     35  O   UNL A   1      43.787  23.397  32.257  1.00  0.00    -0.460 OA
BRANCH  35  36
ATOM     36  C   UNL A   1      44.436  23.715  33.402  1.00  0.00     0.338 C 
ATOM     37  O   UNL A   1      45.389  23.123  33.887  1.00  0.00    -0.246 OA
BRANCH  36  38
ATOM     38  C   UNL A   1      43.970  25.057  33.830  1.00  0.00     0.060 A 
ATOM     39  C   UNL A   1      44.506  26.198  33.210  1.00  0.00     0.016 A 
ATOM     40  C   UNL A   1      42.982  25.192  34.808  1.00  0.00     0.016 A 
ATOM     41  C   UNL A   1      44.070  27.473  33.579  1.00  0.00     0.010 A 
ATOM     42  C   UNL A   1      42.571  26.471  35.198  1.00  0.00     0.010 A 
ATOM     43  C   UNL A   1      43.132  27.619  34.608  1.00  0.00    -0.014 A 
BRANCH  43  44
ATOM     44  C   UNL A   1      42.890  28.953  35.217  1.00  0.00     0.031 A 
ATOM     45  C   UNL A   1      43.782  29.383  36.352  1.00  0.00     0.074 A 
ATOM     46  C   UNL A   1      41.907  29.766  34.789  1.00  0.00     0.049 A 
ATOM     47  N   UNL A   1      43.710  30.444  37.112  1.00  0.00    -0.248 NA
ATOM     48  C   UNL A   1      44.904  28.485  36.674  1.00  0.00     0.031 C 
ATOM     49  C   UNL A   1      41.007  29.493  33.670  1.00  0.00     0.029 A 
ATOM     50  N   UNL A   1      41.492  30.988  35.264  1.00  0.00    -0.354 N 
ATOM     51  C   UNL A   1      44.764  30.334  38.012  1.00  0.00     0.074 A 
ATOM     52  C   UNL A   1      45.446  29.092  37.719  1.00  0.00     0.031 C 
ATOM     53  C   UNL A   1      40.131  30.508  33.559  1.00  0.00     0.029 A 
ATOM     54  C   UNL A   1      40.382  31.483  34.621  1.00  0.00     0.049 A 
ATOM     55  H   UNL A   1      41.948  31.464  35.996  1.00  0.00     0.167 HD
ATOM     56  C   UNL A   1      45.135  31.193  38.992  1.00  0.00     0.037 A 
ATOM     57  C   UNL A   1      39.636  32.577  34.882  1.00  0.00     0.037 A 
ATOM     58  C   UNL A   1      44.453  32.426  39.282  1.00  0.00     0.049 A 
ATOM     59  C   UNL A   1      40.019  33.481  36.029  1.00  0.00     0.074 A 
ATOM     60  C   UNL A   1      44.759  33.372  40.244  1.00  0.00     0.029 A 
ATOM     61  N   UNL A   1      43.318  32.881  38.624  1.00  0.00    -0.354 N 
ATOM     62  N   UNL A   1      41.029  33.377  36.862  1.00  0.00    -0.248 NA
ATOM     63  C   UNL A   1      39.163  34.651  36.273  1.00  0.00     0.031 C 
ATOM     64  C   UNL A   1      43.779  34.367  40.209  1.00  0.00     0.029 A 
ATOM     65  C   UNL A   1      42.898  34.078  39.178  1.00  0.00     0.049 A 
ATOM     66  H   UNL A   1      42.878  32.419  37.874  1.00  0.00     0.167 HD
ATOM     67  C   UNL A   1      40.947  34.485  37.703  1.00  0.00     0.074 A 
ATOM     68  C   UNL A   1      39.796  35.249  37.273  1.00  0.00     0.031 C 
ATOM     69  C   UNL A   1      41.755  34.838  38.734  1.00  0.00     0.037 A 
BRANCH  56  70
ATOM     70  C   UNL A   1      46.315  30.810  39.844  1.00  0.00     0.058 A 
ATOM     71  C   UNL A   1      47.623  31.205  39.522  1.00  0.00     0.135 A 
ATOM     72  C   UNL A   1      46.128  30.065  41.019  1.00  0.00     0.135 A 
ATOM     73  F   UNL A   1      47.863  31.902  38.399  1.00  0.00    -0.206 F 
ATOM     74  C   UNL A   1      48.707  30.852  40.319  1.00  0.00     0.059 A 
ATOM     75  C   UNL A   1      47.192  29.727  41.849  1.00  0.00     0.059 A 
ATOM     76  F   UNL A   1      44.898  29.657  41.373  1.00  0.00    -0.206 F 
ATOM     77  C   UNL A   1      48.480  30.114  41.483  1.00  0.00     0.060 A 
BRANCH  77  78
ATOM     78  S   UNL A   1      49.896  29.671  42.511  1.00  0.00     0.124 S 
ATOM     79  O   UNL A   1      49.254  28.907  43.577  1.00  0.00    -0.237 OA
ATOM     80  O   UNL A   1      50.722  28.901  41.588  1.00  0.00    -0.237 OA
ATOM     81  O   UNL A   1      50.444  30.964  42.911  1.00  0.00    -0.744 OA
ENDBRANCH  77  78
ENDBRANCH  56  70
BRANCH  57  82
ATOM     82  C   UNL A   1      38.435  32.879  34.053  1.00  0.00     0.058 A 
ATOM     83  C   UNL A   1      38.523  33.692  32.913  1.00  0.00     0.135 A 
ATOM     84  C   UNL A   1      37.169  32.373  34.394  1.00  0.00     0.135 A 
ATOM     85  F   UNL A   1      39.705  34.216  32.554  1.00  0.00    -0.206 F 
ATOM     86  C   UNL A   1      37.403  34.003  32.148  1.00  0.00     0.059 A 
ATOM     87  C   UNL A   1      36.040  32.645  33.628  1.00  0.00     0.059 A 
ATOM     88  F   UNL A   1      37.027  31.588  35.473  1.00  0.00    -0.206 F 
ATOM     89  C   UNL A   1      36.165  33.470  32.511  1.00  0.00     0.060 A 
BRANCH  89  90
ATOM     90  S   UNL A   1      34.729  33.839  31.480  1.00  0.00     0.124 S 
ATOM     91  O   UNL A   1      34.938  35.250  31.176  1.00  0.00    -0.237 OA
ATOM     92  O   UNL A   1      34.907  32.912  30.367  1.00  0.00    -0.237 OA
ATOM     93  O   UNL A   1      33.600  33.544  32.357  1.00  0.00    -0.744 OA
ENDBRANCH  89  90
ENDBRANCH  57  82
BRANCH  69  94
ATOM     94  C   UNL A   1      41.460  36.133  39.448  1.00  0.00     0.058 A 
ATOM     95  C   UNL A   1      41.977  37.361  39.006  1.00  0.00     0.135 A 
ATOM     96  C   UNL A   1      40.593  36.150  40.553  1.00  0.00     0.135 A 
ATOM     97  F   UNL A   1      42.813  37.404  37.957  1.00  0.00    -0.206 F 
ATOM     98  C   UNL A   1      41.664  38.556  39.650  1.00  0.00     0.059 A 
ATOM     99  C   UNL A   1      40.242  37.336  41.192  1.00  0.00     0.059 A 
ATOM    100  F   UNL A   1      40.059  35.007  41.012  1.00  0.00    -0.206 F 
ATOM    101  C   UNL A   1      40.791  38.533  40.740  1.00  0.00     0.060 A 
BRANCH 101 102
ATOM    102  S   UNL A   1      40.366  40.094  41.541  1.00  0.00     0.124 S 
ATOM    103  O   UNL A   1      39.451  39.648  42.587  1.00  0.00    -0.237 OA
ATOM    104  O   UNL A   1      41.666  40.573  41.998  1.00  0.00    -0.237 OA
ATOM    105  O   UNL A   1      39.758  40.874  40.467  1.00  0.00    -0.744 OA
ENDBRANCH 101 102
ENDBRANCH  69  94
ENDBRANCH  43  44
ENDBRANCH  36  38
ENDBRANCH  35  36
ENDBRANCH  34  35
ENDBRANCH  33  34
ENDBRANCH  32  33
ENDBRANCH  31  32
ENDBRANCH   1  31
TORSDOF 25
ENDMDL
