MODEL 1
REMARK VINA RESULT:     -12.4      0.000      0.000
REMARK SMILES Cc1cnn(C2(C(=O)OCCOCCOCCOC(=O)c3ccc(-c4c5nc(c(-c6c(F)cc(S(=O)(=O)[O-])cc6F)c6ccc([nH]6)c(-c6c(F)cc(S(=O)(=O)[O-])cc6F)c6nc(c(-c7c(F)cc(S(=O)(=O)[O-])cc7F)c7ccc4[nH]7)C=C6)C=C5)cc3)CCN(C(=O)c3cc4ccccc4[nH]3)CC2)c1
REMARK SMILES IDX 14 1 13 2 12 3 11 4 10 5 9 6 7 7 8 8 6 9 87 10 102 11 88 12
REMARK SMILES IDX 101 13 89 14 90 15 91 16 5 17 1 18 2 19 3 20 103 21 4 22
REMARK SMILES IDX 92 23 93 24 100 25 94 26 99 27 95 29 98 30 96 31 97 32 15 33
REMARK SMILES IDX 16 34 17 35 18 36 19 37 20 38 21 39 22 40 86 41 23 42 85 43
REMARK SMILES IDX 24 44 25 45 26 46 79 47 27 48 84 49 78 50 80 51 28 52 83 53
REMARK SMILES IDX 77 54 76 55 29 57 63 58 42 59 62 60 43 61 46 62 61 63 81 64
REMARK SMILES IDX 44 65 45 66 60 68 82 69 47 70 30 71 31 72 40 73 32 74 33 75
REMARK SMILES IDX 39 76 41 77 34 78 35 79 36 80 37 81 38 82 64 83 65 84 74 85
REMARK SMILES IDX 66 86 67 87 73 88 75 89 68 90 69 91 70 92 71 93 72 94 48 95
REMARK SMILES IDX 49 96 58 97 50 98 51 99 57 100 59 101 52 102 53 103 54 104
REMARK SMILES IDX 55 105 56 106
REMARK H PARENT 100 28 80 56 46 67
REMARK Flexibility Score: inf
ROOT
ATOM      1  C   UNL A   1      35.082  21.127  25.098  1.00  0.00     0.188 C 
ENDROOT
BRANCH   1   2
ATOM      2  C   UNL A   1      34.227  19.907  24.760  1.00  0.00     0.188 C 
BRANCH   2   3
ATOM      3  O   UNL A   1      33.012  20.211  24.079  1.00  0.00    -0.376 OA
BRANCH   3   4
ATOM      4  C   UNL A   1      33.092  21.290  23.154  1.00  0.00     0.202 C 
BRANCH   4   5
ATOM      5  C   UNL A   1      32.329  22.575  23.536  1.00  0.00     0.261 C 
BRANCH   5   6
ATOM      6  O   UNL A   1      32.982  23.811  23.156  1.00  0.00    -0.461 OA
BRANCH   6   7
ATOM      7  C   UNL A   1      33.698  24.480  24.106  1.00  0.00     0.334 C 
ATOM      8  O   UNL A   1      34.917  24.369  24.208  1.00  0.00    -0.249 OA
BRANCH   7   9
ATOM      9  C   UNL A   1      32.817  25.287  25.116  1.00  0.00     0.163 C 
ATOM     10  C   UNL A   1      33.614  26.351  25.917  1.00  0.00     0.064 C 
ATOM     11  C   UNL A   1      31.827  25.971  24.145  1.00  0.00     0.064 C 
ATOM     12  C   UNL A   1      32.778  27.517  26.446  1.00  0.00     0.123 C 
ATOM     13  C   UNL A   1      31.013  27.092  24.748  1.00  0.00     0.123 C 
ATOM     14  N   UNL A   1      31.878  28.049  25.428  1.00  0.00    -0.337 N 
ATOM     15  C   UNL A   1      31.896  29.412  25.138  1.00  0.00     0.270 C 
ATOM     16  O   UNL A   1      32.778  30.167  25.532  1.00  0.00    -0.267 OA
BRANCH   9  17
ATOM     17  N   UNL A   1      32.078  24.379  26.033  1.00  0.00    -0.255 N 
ATOM     18  C   UNL A   1      29.176  22.524  27.275  1.00  0.00     0.048 C 
ATOM     19  C   UNL A   1      30.483  23.139  26.959  1.00  0.00    -0.013 A 
ATOM     20  C   UNL A   1      31.771  22.722  27.334  1.00  0.00     0.138 A 
ATOM     21  C   UNL A   1      30.718  24.267  26.206  1.00  0.00     0.113 A 
ATOM     22  N   UNL A   1      32.728  23.477  26.795  1.00  0.00    -0.180 NA
ENDBRANCH   9  17
BRANCH  15  23
ATOM     23  C   UNL A   1      30.842  29.879  24.274  1.00  0.00     0.105 A 
ATOM     24  C   UNL A   1      30.296  29.298  23.142  1.00  0.00     0.042 A 
ATOM     25  N   UNL A   1      30.216  31.087  24.451  1.00  0.00    -0.351 N 
ATOM     26  C   UNL A   1      29.396  30.231  22.564  1.00  0.00     0.000 A 
ATOM     27  C   UNL A   1      29.402  31.364  23.378  1.00  0.00     0.046 A 
ATOM     28  H   UNL A   1      30.333  31.671  25.234  1.00  0.00     0.167 HD
ATOM     29  C   UNL A   1      28.595  30.229  21.408  1.00  0.00     0.010 A 
ATOM     30  C   UNL A   1      28.675  32.518  23.072  1.00  0.00     0.026 A 
ATOM     31  C   UNL A   1      27.836  31.364  21.103  1.00  0.00     0.001 A 
ATOM     32  C   UNL A   1      27.888  32.494  21.917  1.00  0.00     0.002 A 
ENDBRANCH  15  23
ENDBRANCH   7   9
ENDBRANCH   6   7
ENDBRANCH   5   6
ENDBRANCH   4   5
ENDBRANCH   3   4
ENDBRANCH   2   3
ENDBRANCH   1   2
BRANCH   1  33
ATOM     33  O   UNL A   1      36.485  20.923  25.149  1.00  0.00    -0.376 OA
BRANCH  33  34
ATOM     34  C   UNL A   1      37.408  22.014  25.209  1.00  0.00     0.202 C 
BRANCH  34  35
ATOM     35  C   UNL A   1      38.767  21.997  25.932  1.00  0.00     0.261 C 
BRANCH  35  36
ATOM     36  O   UNL A   1      39.154  23.178  26.599  1.00  0.00    -0.460 OA
BRANCH  36  37
ATOM     37  C   UNL A   1      40.244  23.138  27.384  1.00  0.00     0.338 C 
ATOM     38  O   UNL A   1      40.612  22.224  28.106  1.00  0.00    -0.246 OA
BRANCH  37  39
ATOM     39  C   UNL A   1      40.947  24.407  27.129  1.00  0.00     0.060 A 
ATOM     40  C   UNL A   1      42.091  24.653  27.874  1.00  0.00     0.016 A 
ATOM     41  C   UNL A   1      40.333  25.409  26.344  1.00  0.00     0.016 A 
ATOM     42  C   UNL A   1      42.329  25.963  28.194  1.00  0.00     0.010 A 
ATOM     43  C   UNL A   1      40.602  26.710  26.621  1.00  0.00     0.010 A 
ATOM     44  C   UNL A   1      41.449  26.926  27.692  1.00  0.00    -0.014 A 
BRANCH  44  45
ATOM     45  C   UNL A   1      41.308  28.168  28.401  1.00  0.00     0.031 A 
ATOM     46  C   UNL A   1      42.447  29.053  28.149  1.00  0.00     0.074 A 
ATOM     47  C   UNL A   1      40.194  28.439  29.110  1.00  0.00     0.049 A 
ATOM     48  N   UNL A   1      43.468  29.244  28.914  1.00  0.00    -0.248 NA
ATOM     49  C   UNL A   1      42.613  29.551  26.773  1.00  0.00     0.031 C 
ATOM     50  C   UNL A   1      38.926  27.696  29.174  1.00  0.00     0.029 A 
ATOM     51  N   UNL A   1      39.945  29.520  29.892  1.00  0.00    -0.354 N 
ATOM     52  C   UNL A   1      44.255  30.141  28.211  1.00  0.00     0.074 A 
ATOM     53  C   UNL A   1      43.850  30.044  26.834  1.00  0.00     0.031 C 
ATOM     54  C   UNL A   1      37.982  28.465  29.768  1.00  0.00     0.029 A 
ATOM     55  C   UNL A   1      38.607  29.682  30.250  1.00  0.00     0.049 A 
ATOM     56  H   UNL A   1      40.652  30.141  30.183  1.00  0.00     0.167 HD
ATOM     57  C   UNL A   1      44.892  31.149  28.861  1.00  0.00     0.037 A 
ATOM     58  C   UNL A   1      38.088  30.800  30.822  1.00  0.00     0.037 A 
ATOM     59  C   UNL A   1      45.002  30.873  30.275  1.00  0.00     0.049 A 
ATOM     60  C   UNL A   1      39.239  31.519  31.445  1.00  0.00     0.074 A 
ATOM     61  C   UNL A   1      45.581  29.866  31.024  1.00  0.00     0.029 A 
ATOM     62  N   UNL A   1      44.100  31.489  31.110  1.00  0.00    -0.354 N 
ATOM     63  N   UNL A   1      39.946  31.027  32.431  1.00  0.00    -0.248 NA
ATOM     64  C   UNL A   1      39.918  32.522  30.637  1.00  0.00     0.031 C 
ATOM     65  C   UNL A   1      44.680  29.637  32.107  1.00  0.00     0.029 A 
ATOM     66  C   UNL A   1      43.634  30.556  32.005  1.00  0.00     0.049 A 
ATOM     67  H   UNL A   1      43.833  32.436  31.075  1.00  0.00     0.167 HD
ATOM     68  C   UNL A   1      41.265  31.343  32.128  1.00  0.00     0.074 A 
ATOM     69  C   UNL A   1      41.177  32.312  31.035  1.00  0.00     0.031 C 
ATOM     70  C   UNL A   1      42.303  30.577  32.582  1.00  0.00     0.037 A 
BRANCH  57  71
ATOM     71  C   UNL A   1      45.010  32.535  28.279  1.00  0.00     0.058 A 
ATOM     72  C   UNL A   1      46.283  33.028  27.950  1.00  0.00     0.135 A 
ATOM     73  C   UNL A   1      43.964  33.491  28.274  1.00  0.00     0.135 A 
ATOM     74  F   UNL A   1      47.349  32.211  27.944  1.00  0.00    -0.206 F 
ATOM     75  C   UNL A   1      46.511  34.379  27.693  1.00  0.00     0.059 A 
ATOM     76  C   UNL A   1      44.156  34.825  27.958  1.00  0.00     0.059 A 
ATOM     77  F   UNL A   1      42.718  33.210  28.672  1.00  0.00    -0.206 F 
ATOM     78  C   UNL A   1      45.440  35.271  27.711  1.00  0.00     0.060 A 
BRANCH  78  79
ATOM     79  S   UNL A   1      45.739  37.029  27.485  1.00  0.00     0.124 S 
ATOM     80  O   UNL A   1      46.099  37.434  28.839  1.00  0.00    -0.237 OA
ATOM     81  O   UNL A   1      46.820  37.024  26.506  1.00  0.00    -0.237 OA
ATOM     82  O   UNL A   1      44.457  37.527  26.995  1.00  0.00    -0.744 OA
ENDBRANCH  78  79
ENDBRANCH  57  71
BRANCH  58  83
ATOM     83  C   UNL A   1      36.824  31.490  30.431  1.00  0.00     0.058 A 
ATOM     84  C   UNL A   1      36.028  32.167  31.374  1.00  0.00     0.135 A 
ATOM     85  C   UNL A   1      36.517  31.738  29.076  1.00  0.00     0.135 A 
ATOM     86  F   UNL A   1      36.267  32.017  32.685  1.00  0.00    -0.206 F 
ATOM     87  C   UNL A   1      35.010  33.056  30.997  1.00  0.00     0.059 A 
ATOM     88  C   UNL A   1      35.509  32.614  28.677  1.00  0.00     0.059 A 
ATOM     89  F   UNL A   1      37.252  31.199  28.093  1.00  0.00    -0.206 F 
ATOM     90  C   UNL A   1      34.769  33.285  29.642  1.00  0.00     0.060 A 
BRANCH  90  91
ATOM     91  S   UNL A   1      33.557  34.535  29.142  1.00  0.00     0.124 S 
ATOM     92  O   UNL A   1      32.772  33.814  28.147  1.00  0.00    -0.237 OA
ATOM     93  O   UNL A   1      32.878  34.830  30.399  1.00  0.00    -0.237 OA
ATOM     94  O   UNL A   1      34.385  35.618  28.615  1.00  0.00    -0.744 OA
ENDBRANCH  90  91
ENDBRANCH  58  83
BRANCH  70  95
ATOM     95  C   UNL A   1      42.002  29.524  33.627  1.00  0.00     0.058 A 
ATOM     96  C   UNL A   1      41.710  28.178  33.340  1.00  0.00     0.135 A 
ATOM     97  C   UNL A   1      42.176  29.861  34.977  1.00  0.00     0.135 A 
ATOM     98  F   UNL A   1      41.623  27.749  32.073  1.00  0.00    -0.206 F 
ATOM     99  C   UNL A   1      41.568  27.219  34.349  1.00  0.00     0.059 A 
ATOM    100  C   UNL A   1      42.065  28.919  35.997  1.00  0.00     0.059 A 
ATOM    101  F   UNL A   1      42.516  31.116  35.315  1.00  0.00    -0.206 F 
ATOM    102  C   UNL A   1      41.750  27.600  35.678  1.00  0.00     0.060 A 
BRANCH 102 103
ATOM    103  S   UNL A   1      41.645  26.351  36.981  1.00  0.00     0.124 S 
ATOM    104  O   UNL A   1      41.614  25.109  36.216  1.00  0.00    -0.237 OA
ATOM    105  O   UNL A   1      42.863  26.591  37.749  1.00  0.00    -0.237 OA
ATOM    106  O   UNL A   1      40.405  26.686  37.676  1.00  0.00    -0.744 OA
ENDBRANCH 102 103
ENDBRANCH  70  95
ENDBRANCH  44  45
ENDBRANCH  37  39
ENDBRANCH  36  37
ENDBRANCH  35  36
ENDBRANCH  34  35
ENDBRANCH  33  34
ENDBRANCH   1  33
TORSDOF 22
ENDMDL
MODEL 2
REMARK VINA RESULT:     -11.1      2.096      3.915
REMARK SMILES Cc1cnn(C2(C(=O)OCCOCCOCCOC(=O)c3ccc(-c4c5nc(c(-c6c(F)cc(S(=O)(=O)[O-])cc6F)c6ccc([nH]6)c(-c6c(F)cc(S(=O)(=O)[O-])cc6F)c6nc(c(-c7c(F)cc(S(=O)(=O)[O-])cc7F)c7ccc4[nH]7)C=C6)C=C5)cc3)CCN(C(=O)c3cc4ccccc4[nH]3)CC2)c1
REMARK SMILES IDX 14 1 13 2 12 3 11 4 10 5 9 6 7 7 8 8 6 9 87 10 102 11 88 12
REMARK SMILES IDX 101 13 89 14 90 15 91 16 5 17 1 18 2 19 3 20 103 21 4 22
REMARK SMILES IDX 92 23 93 24 100 25 94 26 99 27 95 29 98 30 96 31 97 32 15 33
REMARK SMILES IDX 16 34 17 35 18 36 19 37 20 38 21 39 22 40 86 41 23 42 85 43
REMARK SMILES IDX 24 44 25 45 26 46 79 47 27 48 84 49 78 50 80 51 28 52 83 53
REMARK SMILES IDX 77 54 76 55 29 57 63 58 42 59 62 60 43 61 46 62 61 63 81 64
REMARK SMILES IDX 44 65 45 66 60 68 82 69 47 70 30 71 31 72 40 73 32 74 33 75
REMARK SMILES IDX 39 76 41 77 34 78 35 79 36 80 37 81 38 82 64 83 65 84 74 85
REMARK SMILES IDX 66 86 67 87 73 88 75 89 68 90 69 91 70 92 71 93 72 94 48 95
REMARK SMILES IDX 49 96 58 97 50 98 51 99 57 100 59 101 52 102 53 103 54 104
REMARK SMILES IDX 55 105 56 106
REMARK H PARENT 100 28 80 56 46 67
REMARK Flexibility Score: inf
ROOT
ATOM      1  C   UNL A   1      35.851  21.511  25.756  1.00  0.00     0.188 C 
ENDROOT
BRANCH   1   2
ATOM      2  C   UNL A   1      34.588  22.021  25.064  1.00  0.00     0.188 C 
BRANCH   2   3
ATOM      3  O   UNL A   1      33.862  22.996  25.809  1.00  0.00    -0.376 OA
BRANCH   3   4
ATOM      4  C   UNL A   1      32.840  22.474  26.651  1.00  0.00     0.202 C 
BRANCH   4   5
ATOM      5  C   UNL A   1      31.403  22.954  26.361  1.00  0.00     0.261 C 
BRANCH   5   6
ATOM      6  O   UNL A   1      31.291  23.962  25.327  1.00  0.00    -0.461 OA
BRANCH   6   7
ATOM      7  C   UNL A   1      30.884  25.214  25.687  1.00  0.00     0.334 C 
ATOM      8  O   UNL A   1      29.982  25.401  26.502  1.00  0.00    -0.249 OA
BRANCH   7   9
ATOM      9  C   UNL A   1      31.573  26.364  24.883  1.00  0.00     0.163 C 
ATOM     10  C   UNL A   1      30.650  27.590  24.647  1.00  0.00     0.064 C 
ATOM     11  C   UNL A   1      32.726  26.732  25.844  1.00  0.00     0.064 C 
ATOM     12  C   UNL A   1      31.385  28.912  24.417  1.00  0.00     0.123 C 
ATOM     13  C   UNL A   1      33.424  28.035  25.536  1.00  0.00     0.123 C 
ATOM     14  N   UNL A   1      32.457  29.116  25.386  1.00  0.00    -0.337 N 
ATOM     15  C   UNL A   1      32.500  30.295  26.127  1.00  0.00     0.270 C 
ATOM     16  O   UNL A   1      31.566  31.089  26.174  1.00  0.00    -0.267 OA
BRANCH   9  17
ATOM     17  N   UNL A   1      32.128  25.866  23.596  1.00  0.00    -0.255 N 
ATOM     18  C   UNL A   1      32.378  25.577  19.955  1.00  0.00     0.048 C 
ATOM     19  C   UNL A   1      32.501  25.551  21.428  1.00  0.00    -0.013 A 
ATOM     20  C   UNL A   1      33.613  25.211  22.217  1.00  0.00     0.138 A 
ATOM     21  C   UNL A   1      31.535  25.870  22.356  1.00  0.00     0.113 A 
ATOM     22  N   UNL A   1      33.384  25.381  23.519  1.00  0.00    -0.180 NA
ENDBRANCH   9  17
BRANCH  15  23
ATOM     23  C   UNL A   1      33.696  30.500  26.904  1.00  0.00     0.105 A 
ATOM     24  C   UNL A   1      34.025  31.521  27.778  1.00  0.00     0.042 A 
ATOM     25  N   UNL A   1      34.777  29.657  26.841  1.00  0.00    -0.351 N 
ATOM     26  C   UNL A   1      35.379  31.344  28.166  1.00  0.00     0.000 A 
ATOM     27  C   UNL A   1      35.842  30.196  27.524  1.00  0.00     0.046 A 
ATOM     28  H   UNL A   1      34.788  28.792  26.373  1.00  0.00     0.167 HD
ATOM     29  C   UNL A   1      36.264  32.070  28.983  1.00  0.00     0.010 A 
ATOM     30  C   UNL A   1      37.164  29.755  27.625  1.00  0.00     0.026 A 
ATOM     31  C   UNL A   1      37.584  31.626  29.120  1.00  0.00     0.001 A 
ATOM     32  C   UNL A   1      38.027  30.493  28.440  1.00  0.00     0.002 A 
ENDBRANCH  15  23
ENDBRANCH   7   9
ENDBRANCH   6   7
ENDBRANCH   5   6
ENDBRANCH   4   5
ENDBRANCH   3   4
ENDBRANCH   2   3
ENDBRANCH   1   2
BRANCH   1  33
ATOM     33  O   UNL A   1      36.889  21.039  24.912  1.00  0.00    -0.376 OA
BRANCH  33  34
ATOM     34  C   UNL A   1      38.271  21.199  25.247  1.00  0.00     0.202 C 
BRANCH  34  35
ATOM     35  C   UNL A   1      38.826  22.163  26.310  1.00  0.00     0.261 C 
BRANCH  35  36
ATOM     36  O   UNL A   1      40.188  22.516  26.208  1.00  0.00    -0.460 OA
BRANCH  36  37
ATOM     37  C   UNL A   1      40.784  23.071  27.276  1.00  0.00     0.338 C 
ATOM     38  O   UNL A   1      41.599  22.558  28.028  1.00  0.00    -0.246 OA
BRANCH  37  39
ATOM     39  C   UNL A   1      40.304  24.463  27.305  1.00  0.00     0.060 A 
ATOM     40  C   UNL A   1      40.945  25.367  26.471  1.00  0.00     0.016 A 
ATOM     41  C   UNL A   1      39.404  24.878  28.313  1.00  0.00     0.016 A 
ATOM     42  C   UNL A   1      41.048  26.649  26.942  1.00  0.00     0.010 A 
ATOM     43  C   UNL A   1      39.464  26.162  28.750  1.00  0.00     0.010 A 
ATOM     44  C   UNL A   1      40.447  26.941  28.170  1.00  0.00    -0.014 A 
BRANCH  44  45
ATOM     45  C   UNL A   1      40.962  28.035  28.947  1.00  0.00     0.031 A 
ATOM     46  C   UNL A   1      42.113  28.655  28.289  1.00  0.00     0.074 A 
ATOM     47  C   UNL A   1      40.346  28.432  30.079  1.00  0.00     0.049 A 
ATOM     48  N   UNL A   1      43.360  28.460  28.557  1.00  0.00    -0.248 NA
ATOM     49  C   UNL A   1      41.863  29.336  27.008  1.00  0.00     0.031 C 
ATOM     50  C   UNL A   1      39.049  28.011  30.631  1.00  0.00     0.029 A 
ATOM     51  N   UNL A   1      40.748  29.385  30.958  1.00  0.00    -0.354 N 
ATOM     52  C   UNL A   1      44.031  29.255  27.643  1.00  0.00     0.074 A 
ATOM     53  C   UNL A   1      43.110  29.503  26.566  1.00  0.00     0.031 C 
ATOM     54  C   UNL A   1      38.680  28.863  31.616  1.00  0.00     0.029 A 
ATOM     55  C   UNL A   1      39.767  29.792  31.861  1.00  0.00     0.049 A 
ATOM     56  H   UNL A   1      41.659  29.758  30.958  1.00  0.00     0.167 HD
ATOM     57  C   UNL A   1      45.135  29.952  28.020  1.00  0.00     0.037 A 
ATOM     58  C   UNL A   1      39.862  30.882  32.668  1.00  0.00     0.037 A 
ATOM     59  C   UNL A   1      45.705  29.411  29.232  1.00  0.00     0.049 A 
ATOM     60  C   UNL A   1      41.320  31.185  32.784  1.00  0.00     0.074 A 
ATOM     61  C   UNL A   1      46.213  28.179  29.599  1.00  0.00     0.029 A 
ATOM     62  N   UNL A   1      45.423  30.065  30.409  1.00  0.00    -0.354 N 
ATOM     63  N   UNL A   1      42.180  30.373  33.343  1.00  0.00    -0.248 NA
ATOM     64  C   UNL A   1      41.886  32.126  31.828  1.00  0.00     0.031 C 
ATOM     65  C   UNL A   1      45.786  27.982  30.947  1.00  0.00     0.029 A 
ATOM     66  C   UNL A   1      45.098  29.125  31.357  1.00  0.00     0.049 A 
ATOM     67  H   UNL A   1      45.451  31.039  30.549  1.00  0.00     0.167 HD
ATOM     68  C   UNL A   1      43.305  30.416  32.527  1.00  0.00     0.074 A 
ATOM     69  C   UNL A   1      43.080  31.556  31.638  1.00  0.00     0.031 C 
ATOM     70  C   UNL A   1      44.168  29.358  32.446  1.00  0.00     0.037 A 
BRANCH  57  71
ATOM     71  C   UNL A   1      45.410  31.351  27.531  1.00  0.00     0.058 A 
ATOM     72  C   UNL A   1      46.657  31.634  26.950  1.00  0.00     0.135 A 
ATOM     73  C   UNL A   1      44.609  32.478  27.841  1.00  0.00     0.135 A 
ATOM     74  F   UNL A   1      47.503  30.641  26.635  1.00  0.00    -0.206 F 
ATOM     75  C   UNL A   1      47.100  32.941  26.748  1.00  0.00     0.059 A 
ATOM     76  C   UNL A   1      45.002  33.781  27.588  1.00  0.00     0.059 A 
ATOM     77  F   UNL A   1      43.448  32.388  28.498  1.00  0.00    -0.206 F 
ATOM     78  C   UNL A   1      46.267  34.008  27.082  1.00  0.00     0.060 A 
BRANCH  78  79
ATOM     79  S   UNL A   1      46.869  35.693  26.923  1.00  0.00     0.124 S 
ATOM     80  O   UNL A   1      48.305  35.473  26.790  1.00  0.00    -0.237 OA
ATOM     81  O   UNL A   1      46.175  36.147  25.723  1.00  0.00    -0.237 OA
ATOM     82  O   UNL A   1      46.438  36.323  28.167  1.00  0.00    -0.744 OA
ENDBRANCH  78  79
ENDBRANCH  57  71
BRANCH  58  83
ATOM     83  C   UNL A   1      38.804  31.910  32.896  1.00  0.00     0.058 A 
ATOM     84  C   UNL A   1      38.636  33.004  32.027  1.00  0.00     0.135 A 
ATOM     85  C   UNL A   1      37.757  31.686  33.815  1.00  0.00     0.135 A 
ATOM     86  F   UNL A   1      39.565  33.274  31.099  1.00  0.00    -0.206 F 
ATOM     87  C   UNL A   1      37.486  33.809  32.048  1.00  0.00     0.059 A 
ATOM     88  C   UNL A   1      36.608  32.474  33.858  1.00  0.00     0.059 A 
ATOM     89  F   UNL A   1      37.780  30.634  34.645  1.00  0.00    -0.206 F 
ATOM     90  C   UNL A   1      36.468  33.524  32.960  1.00  0.00     0.060 A 
BRANCH  90  91
ATOM     91  S   UNL A   1      34.921  34.464  32.903  1.00  0.00     0.124 S 
ATOM     92  O   UNL A   1      34.008  33.587  33.626  1.00  0.00    -0.237 OA
ATOM     93  O   UNL A   1      35.285  35.703  33.582  1.00  0.00    -0.237 OA
ATOM     94  O   UNL A   1      34.656  34.596  31.472  1.00  0.00    -0.744 OA
ENDBRANCH  90  91
ENDBRANCH  58  83
BRANCH  70  95
ATOM     95  C   UNL A   1      44.010  28.238  33.453  1.00  0.00     0.058 A 
ATOM     96  C   UNL A   1      44.493  28.281  34.774  1.00  0.00     0.135 A 
ATOM     97  C   UNL A   1      43.197  27.149  33.110  1.00  0.00     0.135 A 
ATOM     98  F   UNL A   1      45.198  29.333  35.214  1.00  0.00    -0.206 F 
ATOM     99  C   UNL A   1      44.206  27.272  35.701  1.00  0.00     0.059 A 
ATOM    100  C   UNL A   1      42.876  26.147  34.023  1.00  0.00     0.059 A 
ATOM    101  F   UNL A   1      42.653  27.079  31.884  1.00  0.00    -0.206 F 
ATOM    102  C   UNL A   1      43.393  26.208  35.315  1.00  0.00     0.060 A 
BRANCH 102 103
ATOM    103  S   UNL A   1      42.954  24.942  36.530  1.00  0.00     0.124 S 
ATOM    104  O   UNL A   1      41.778  25.524  37.169  1.00  0.00    -0.237 OA
ATOM    105  O   UNL A   1      42.707  23.772  35.693  1.00  0.00    -0.237 OA
ATOM    106  O   UNL A   1      44.142  24.854  37.375  1.00  0.00    -0.744 OA
ENDBRANCH 102 103
ENDBRANCH  70  95
ENDBRANCH  44  45
ENDBRANCH  37  39
ENDBRANCH  36  37
ENDBRANCH  35  36
ENDBRANCH  34  35
ENDBRANCH  33  34
ENDBRANCH   1  33
TORSDOF 22
ENDMDL
MODEL 3
REMARK VINA RESULT:     -11.0      3.564      7.813
REMARK SMILES Cc1cnn(C2(C(=O)OCCOCCOCCOC(=O)c3ccc(-c4c5nc(c(-c6c(F)cc(S(=O)(=O)[O-])cc6F)c6ccc([nH]6)c(-c6c(F)cc(S(=O)(=O)[O-])cc6F)c6nc(c(-c7c(F)cc(S(=O)(=O)[O-])cc7F)c7ccc4[nH]7)C=C6)C=C5)cc3)CCN(C(=O)c3cc4ccccc4[nH]3)CC2)c1
REMARK SMILES IDX 14 1 13 2 12 3 11 4 10 5 9 6 7 7 8 8 6 9 87 10 102 11 88 12
REMARK SMILES IDX 101 13 89 14 90 15 91 16 5 17 1 18 2 19 3 20 103 21 4 22
REMARK SMILES IDX 92 23 93 24 100 25 94 26 99 27 95 29 98 30 96 31 97 32 15 33
REMARK SMILES IDX 16 34 17 35 18 36 19 37 20 38 21 39 22 40 86 41 23 42 85 43
REMARK SMILES IDX 24 44 25 45 26 46 79 47 27 48 84 49 78 50 80 51 28 52 83 53
REMARK SMILES IDX 77 54 76 55 29 57 63 58 42 59 62 60 43 61 46 62 61 63 81 64
REMARK SMILES IDX 44 65 45 66 60 68 82 69 47 70 30 71 31 72 40 73 32 74 33 75
REMARK SMILES IDX 39 76 41 77 34 78 35 79 36 80 37 81 38 82 64 83 65 84 74 85
REMARK SMILES IDX 66 86 67 87 73 88 75 89 68 90 69 91 70 92 71 93 72 94 48 95
REMARK SMILES IDX 49 96 58 97 50 98 51 99 57 100 59 101 52 102 53 103 54 104
REMARK SMILES IDX 55 105 56 106
REMARK H PARENT 100 28 80 56 46 67
REMARK Flexibility Score: inf
ROOT
ATOM      1  C   UNL A   1      33.308  28.424  24.485  1.00  0.00     0.188 C 
ENDROOT
BRANCH   1   2
ATOM      2  C   UNL A   1      32.050  27.598  24.223  1.00  0.00     0.188 C 
BRANCH   2   3
ATOM      3  O   UNL A   1      32.046  26.317  24.847  1.00  0.00    -0.376 OA
BRANCH   3   4
ATOM      4  C   UNL A   1      30.929  26.060  25.691  1.00  0.00     0.202 C 
BRANCH   4   5
ATOM      5  C   UNL A   1      30.822  24.633  26.268  1.00  0.00     0.261 C 
BRANCH   5   6
ATOM      6  O   UNL A   1      31.973  23.788  26.030  1.00  0.00    -0.461 OA
BRANCH   6   7
ATOM      7  C   UNL A   1      31.763  22.457  25.817  1.00  0.00     0.334 C 
ATOM      8  O   UNL A   1      30.750  21.882  26.210  1.00  0.00    -0.249 OA
BRANCH   7   9
ATOM      9  C   UNL A   1      32.971  21.720  25.151  1.00  0.00     0.163 C 
ATOM     10  C   UNL A   1      33.371  22.311  23.773  1.00  0.00     0.064 C 
ATOM     11  C   UNL A   1      34.078  21.988  26.197  1.00  0.00     0.064 C 
ATOM     12  C   UNL A   1      34.823  22.060  23.364  1.00  0.00     0.123 C 
ATOM     13  C   UNL A   1      35.483  21.687  25.731  1.00  0.00     0.123 C 
ATOM     14  N   UNL A   1      35.752  22.337  24.454  1.00  0.00    -0.337 N 
ATOM     15  C   UNL A   1      36.821  23.206  24.243  1.00  0.00     0.270 C 
ATOM     16  O   UNL A   1      36.910  23.929  23.257  1.00  0.00    -0.267 OA
BRANCH   9  17
ATOM     17  N   UNL A   1      32.720  20.257  25.046  1.00  0.00    -0.255 N 
ATOM     18  C   UNL A   1      32.647  16.992  23.392  1.00  0.00     0.048 C 
ATOM     19  C   UNL A   1      32.613  18.174  24.279  1.00  0.00    -0.013 A 
ATOM     20  C   UNL A   1      32.621  18.228  25.683  1.00  0.00     0.138 A 
ATOM     21  C   UNL A   1      32.575  19.500  23.908  1.00  0.00     0.113 A 
ATOM     22  N   UNL A   1      32.666  19.477  26.144  1.00  0.00    -0.180 NA
ENDBRANCH   9  17
BRANCH  15  23
ATOM     23  C   UNL A   1      37.797  23.262  25.302  1.00  0.00     0.105 A 
ATOM     24  C   UNL A   1      38.104  24.290  26.176  1.00  0.00     0.042 A 
ATOM     25  N   UNL A   1      38.655  22.228  25.577  1.00  0.00    -0.351 N 
ATOM     26  C   UNL A   1      39.247  23.902  26.923  1.00  0.00     0.000 A 
ATOM     27  C   UNL A   1      39.602  22.624  26.492  1.00  0.00     0.046 A 
ATOM     28  H   UNL A   1      38.601  21.330  25.177  1.00  0.00     0.167 HD
ATOM     29  C   UNL A   1      40.030  24.530  27.907  1.00  0.00     0.010 A 
ATOM     30  C   UNL A   1      40.732  21.953  26.970  1.00  0.00     0.026 A 
ATOM     31  C   UNL A   1      41.147  23.860  28.419  1.00  0.00     0.001 A 
ATOM     32  C   UNL A   1      41.497  22.597  27.946  1.00  0.00     0.002 A 
ENDBRANCH  15  23
ENDBRANCH   7   9
ENDBRANCH   6   7
ENDBRANCH   5   6
ENDBRANCH   4   5
ENDBRANCH   3   4
ENDBRANCH   2   3
ENDBRANCH   1   2
BRANCH   1  33
ATOM     33  O   UNL A   1      33.327  29.188  25.679  1.00  0.00    -0.376 OA
BRANCH  33  34
ATOM     34  C   UNL A   1      34.344  29.019  26.672  1.00  0.00     0.202 C 
BRANCH  34  35
ATOM     35  C   UNL A   1      34.771  30.077  27.704  1.00  0.00     0.261 C 
BRANCH  35  36
ATOM     36  O   UNL A   1      36.154  30.229  27.934  1.00  0.00    -0.460 OA
BRANCH  36  37
ATOM     37  C   UNL A   1      36.675  29.704  29.056  1.00  0.00     0.338 C 
ATOM     38  O   UNL A   1      36.252  29.810  30.197  1.00  0.00    -0.246 OA
BRANCH  37  39
ATOM     39  C   UNL A   1      37.827  28.904  28.606  1.00  0.00     0.060 A 
ATOM     40  C   UNL A   1      38.263  27.897  29.455  1.00  0.00     0.016 A 
ATOM     41  C   UNL A   1      38.580  29.319  27.485  1.00  0.00     0.016 A 
ATOM     42  C   UNL A   1      39.610  27.652  29.454  1.00  0.00     0.010 A 
ATOM     43  C   UNL A   1      39.908  29.037  27.451  1.00  0.00     0.010 A 
ATOM     44  C   UNL A   1      40.403  28.381  28.562  1.00  0.00    -0.014 A 
BRANCH  44  45
ATOM     45  C   UNL A   1      41.791  28.581  28.878  1.00  0.00     0.031 A 
ATOM     46  C   UNL A   1      42.651  27.759  28.026  1.00  0.00     0.074 A 
ATOM     47  C   UNL A   1      42.169  29.496  29.793  1.00  0.00     0.049 A 
ATOM     48  N   UNL A   1      43.202  26.633  28.332  1.00  0.00    -0.248 NA
ATOM     49  C   UNL A   1      42.660  28.072  26.588  1.00  0.00     0.031 C 
ATOM     50  C   UNL A   1      41.362  30.519  30.476  1.00  0.00     0.029 A 
ATOM     51  N   UNL A   1      43.420  29.745  30.257  1.00  0.00    -0.354 N 
ATOM     52  C   UNL A   1      43.880  26.264  27.182  1.00  0.00     0.074 A 
ATOM     53  C   UNL A   1      43.273  26.992  26.101  1.00  0.00     0.031 C 
ATOM     54  C   UNL A   1      42.182  31.408  31.085  1.00  0.00     0.029 A 
ATOM     55  C   UNL A   1      43.551  30.942  30.960  1.00  0.00     0.049 A 
ATOM     56  H   UNL A   1      44.174  29.130  30.110  1.00  0.00     0.167 HD
ATOM     57  C   UNL A   1      45.113  25.698  27.266  1.00  0.00     0.037 A 
ATOM     58  C   UNL A   1      44.735  31.509  31.310  1.00  0.00     0.037 A 
ATOM     59  C   UNL A   1      45.353  25.161  28.585  1.00  0.00     0.049 A 
ATOM     60  C   UNL A   1      45.743  30.407  31.291  1.00  0.00     0.074 A 
ATOM     61  C   UNL A   1      44.734  24.209  29.372  1.00  0.00     0.029 A 
ATOM     62  N   UNL A   1      46.119  25.915  29.443  1.00  0.00    -0.354 N 
ATOM     63  N   UNL A   1      45.698  29.378  32.098  1.00  0.00    -0.248 NA
ATOM     64  C   UNL A   1      46.473  30.191  30.050  1.00  0.00     0.031 C 
ATOM     65  C   UNL A   1      44.797  24.720  30.703  1.00  0.00     0.029 A 
ATOM     66  C   UNL A   1      45.507  25.922  30.673  1.00  0.00     0.049 A 
ATOM     67  H   UNL A   1      46.962  26.370  29.217  1.00  0.00     0.167 HD
ATOM     68  C   UNL A   1      46.030  28.282  31.310  1.00  0.00     0.074 A 
ATOM     69  C   UNL A   1      46.549  28.856  30.068  1.00  0.00     0.031 C 
ATOM     70  C   UNL A   1      45.583  27.026  31.613  1.00  0.00     0.037 A 
BRANCH  57  71
ATOM     71  C   UNL A   1      46.218  26.028  26.295  1.00  0.00     0.058 A 
ATOM     72  C   UNL A   1      46.605  27.369  26.136  1.00  0.00     0.135 A 
ATOM     73  C   UNL A   1      46.731  25.125  25.331  1.00  0.00     0.135 A 
ATOM     74  F   UNL A   1      46.159  28.311  26.982  1.00  0.00    -0.206 F 
ATOM     75  C   UNL A   1      47.393  27.791  25.066  1.00  0.00     0.059 A 
ATOM     76  C   UNL A   1      47.569  25.512  24.299  1.00  0.00     0.059 A 
ATOM     77  F   UNL A   1      46.372  23.838  25.274  1.00  0.00    -0.206 F 
ATOM     78  C   UNL A   1      47.860  26.853  24.146  1.00  0.00     0.060 A 
BRANCH  78  79
ATOM     79  S   UNL A   1      48.787  27.401  22.707  1.00  0.00     0.124 S 
ATOM     80  O   UNL A   1      48.843  26.174  21.920  1.00  0.00    -0.237 OA
ATOM     81  O   UNL A   1      47.931  28.460  22.186  1.00  0.00    -0.237 OA
ATOM     82  O   UNL A   1      50.055  27.847  23.275  1.00  0.00    -0.744 OA
ENDBRANCH  78  79
ENDBRANCH  57  71
BRANCH  58  83
ATOM     83  C   UNL A   1      45.109  32.946  31.158  1.00  0.00     0.058 A 
ATOM     84  C   UNL A   1      45.044  33.600  29.914  1.00  0.00     0.135 A 
ATOM     85  C   UNL A   1      45.268  33.781  32.285  1.00  0.00     0.135 A 
ATOM     86  F   UNL A   1      44.862  32.890  28.790  1.00  0.00    -0.206 F 
ATOM     87  C   UNL A   1      45.104  34.997  29.796  1.00  0.00     0.059 A 
ATOM     88  C   UNL A   1      45.334  35.171  32.192  1.00  0.00     0.059 A 
ATOM     89  F   UNL A   1      45.275  33.272  33.525  1.00  0.00    -0.206 F 
ATOM     90  C   UNL A   1      45.233  35.776  30.947  1.00  0.00     0.060 A 
BRANCH  90  91
ATOM     91  S   UNL A   1      45.169  37.582  30.823  1.00  0.00     0.124 S 
ATOM     92  O   UNL A   1      45.293  37.984  32.219  1.00  0.00    -0.237 OA
ATOM     93  O   UNL A   1      46.316  37.876  29.971  1.00  0.00    -0.237 OA
ATOM     94  O   UNL A   1      43.865  37.834  30.217  1.00  0.00    -0.744 OA
ENDBRANCH  90  91
ENDBRANCH  58  83
BRANCH  70  95
ATOM     95  C   UNL A   1      44.928  26.813  32.961  1.00  0.00     0.058 A 
ATOM     96  C   UNL A   1      43.550  26.956  33.208  1.00  0.00     0.135 A 
ATOM     97  C   UNL A   1      45.708  26.289  34.001  1.00  0.00     0.135 A 
ATOM     98  F   UNL A   1      42.716  27.359  32.239  1.00  0.00    -0.206 F 
ATOM     99  C   UNL A   1      42.980  26.621  34.442  1.00  0.00     0.059 A 
ATOM    100  C   UNL A   1      45.159  25.924  35.228  1.00  0.00     0.059 A 
ATOM    101  F   UNL A   1      47.019  26.070  33.810  1.00  0.00    -0.206 F 
ATOM    102  C   UNL A   1      43.795  26.102  35.447  1.00  0.00     0.060 A 
BRANCH 102 103
ATOM    103  S   UNL A   1      43.052  25.594  37.016  1.00  0.00     0.124 S 
ATOM    104  O   UNL A   1      44.150  24.877  37.658  1.00  0.00    -0.237 OA
ATOM    105  O   UNL A   1      42.688  26.871  37.622  1.00  0.00    -0.237 OA
ATOM    106  O   UNL A   1      41.922  24.764  36.605  1.00  0.00    -0.744 OA
ENDBRANCH 102 103
ENDBRANCH  70  95
ENDBRANCH  44  45
ENDBRANCH  37  39
ENDBRANCH  36  37
ENDBRANCH  35  36
ENDBRANCH  34  35
ENDBRANCH  33  34
ENDBRANCH   1  33
TORSDOF 22
ENDMDL
