MODEL 1
REMARK VINA RESULT:      -7.4      0.000      0.000
REMARK SMILES CCN1C(=O)/C(=C/c2ccccc2O[C@H](C)C(=O)OCCOCCOCCOC(=O)c2ccc(-c3c4nc(c(-c5c(F)cc(S(=O)(=O)[O-])cc5F)c5ccc([nH]5)c(-c5c(F)cc(S(=O)(=O)[O-])cc5F)c5nc(c(-c6c(F)cc(S(=O)(=O)[O-])cc6F)c6ccc3[nH]6)C=C5)C=C4)cc2)S/C1=[NH+]\c1ccc(C)cc1O
REMARK SMILES IDX 23 1 22 2 21 3 20 4 19 5 17 6 18 7 15 8 16 9 14 10 13 11
REMARK SMILES IDX 8 12 9 13 10 14 12 15 11 16 7 17 3 18 4 19 98 20 5 21 6 22
REMARK SMILES IDX 97 23 99 24 2 26 1 27 100 28 101 29 106 30 102 31 105 32
REMARK SMILES IDX 103 33 104 34 107 35 24 37 25 38 26 39 27 40 28 41 29 42
REMARK SMILES IDX 30 43 31 44 32 45 96 46 33 47 95 48 34 49 35 50 36 51 89 52
REMARK SMILES IDX 37 53 94 54 88 55 90 56 38 57 93 58 87 59 86 60 39 62 73 63
REMARK SMILES IDX 52 64 72 65 53 66 56 67 71 68 91 69 54 70 55 71 70 73 92 74
REMARK SMILES IDX 57 75 40 76 41 77 50 78 42 79 43 80 49 81 51 82 44 83 45 84
REMARK SMILES IDX 46 85 47 86 48 87 74 88 75 89 84 90 76 91 77 92 83 93 85 94
REMARK SMILES IDX 78 95 79 96 80 97 81 98 82 99 58 100 59 101 68 102 60 103
REMARK SMILES IDX 61 104 67 105 69 106 62 107 63 108 64 109 65 110 66 111
REMARK H PARENT 99 25 107 36 90 61 56 72
REMARK Flexibility Score: inf
ROOT
ATOM      1  C   UNL A   1      45.882  23.296  24.373  1.00  0.00     0.188 C 
ENDROOT
BRANCH   1   2
ATOM      2  O   UNL A   1      46.589  24.525  24.253  1.00  0.00    -0.376 OA
BRANCH   2   3
ATOM      3  C   UNL A   1      46.409  25.473  25.306  1.00  0.00     0.202 C 
BRANCH   3   4
ATOM      4  C   UNL A   1      45.451  26.637  25.006  1.00  0.00     0.261 C 
BRANCH   4   5
ATOM      5  O   UNL A   1      44.684  27.032  26.159  1.00  0.00    -0.461 OA
BRANCH   5   6
ATOM      6  C   UNL A   1      44.915  28.293  26.629  1.00  0.00     0.347 C 
ATOM      7  O   UNL A   1      44.770  29.306  25.954  1.00  0.00    -0.248 OA
BRANCH   6   8
ATOM      8  C   UNL A   1      45.202  28.290  28.149  1.00  0.00     0.279 C 
ATOM      9  C   UNL A   1      45.614  26.940  28.729  1.00  0.00     0.066 C 
BRANCH   8  10
ATOM     10  O   UNL A   1      45.954  29.387  28.667  1.00  0.00    -0.478 OA
BRANCH  10  11
ATOM     11  C   UNL A   1      47.174  29.672  28.121  1.00  0.00     0.127 A 
ATOM     12  C   UNL A   1      47.479  30.963  27.652  1.00  0.00     0.018 A 
ATOM     13  C   UNL A   1      48.801  31.237  27.253  1.00  0.00     0.012 A 
ATOM     14  C   UNL A   1      49.804  30.271  27.360  1.00  0.00     0.001 A 
ATOM     15  C   UNL A   1      48.196  28.725  28.265  1.00  0.00     0.047 A 
ATOM     16  C   UNL A   1      49.500  29.014  27.869  1.00  0.00     0.004 A 
BRANCH  12  17
ATOM     17  C   UNL A   1      46.511  32.067  27.511  1.00  0.00     0.036 C 
ATOM     18  N   UNL A   1      44.553  34.500  29.344  1.00  0.00    -0.186 N 
ATOM     19  C   UNL A   1      44.992  33.909  28.171  1.00  0.00     0.348 C 
ATOM     20  C   UNL A   1      45.120  34.036  30.508  1.00  0.00     0.324 C 
ATOM     21  O   UNL A   1      44.654  34.215  27.033  1.00  0.00    -0.240 OA
ATOM     22  C   UNL A   1      45.984  32.839  28.472  1.00  0.00     0.110 C 
ATOM     23  S   UNL A   1      46.285  32.787  30.154  1.00  0.00     0.007 SA
ATOM     24  N   UNL A   1      44.833  34.521  31.670  1.00  0.00    -0.231 N 
ATOM     25  H   UNL A   1      44.217  35.287  31.731  1.00  0.00     0.313 HD
BRANCH  18  26
ATOM     26  C   UNL A   1      43.438  35.446  29.304  1.00  0.00     0.244 C 
ATOM     27  C   UNL A   1      42.059  34.831  29.117  1.00  0.00     0.055 C 
ENDBRANCH  18  26
BRANCH  24  28
ATOM     28  C   UNL A   1      45.378  33.985  32.853  1.00  0.00     0.167 A 
ATOM     29  C   UNL A   1      46.660  34.382  33.238  1.00  0.00     0.056 A 
ATOM     30  C   UNL A   1      44.724  33.021  33.637  1.00  0.00     0.162 A 
ATOM     31  C   UNL A   1      47.238  33.890  34.413  1.00  0.00     0.008 A 
ATOM     32  C   UNL A   1      45.271  32.556  34.829  1.00  0.00     0.054 A 
ATOM     33  C   UNL A   1      46.534  33.001  35.234  1.00  0.00    -0.047 A 
ATOM     34  C   UNL A   1      47.162  32.486  36.495  1.00  0.00     0.044 C 
BRANCH  30  35
ATOM     35  O   UNL A   1      43.522  32.489  33.245  1.00  0.00    -0.504 OA
ATOM     36  H   UNL A   1      42.965  32.074  33.873  1.00  0.00     0.293 HD
ENDBRANCH  30  35
ENDBRANCH  24  28
ENDBRANCH  12  17
ENDBRANCH  10  11
ENDBRANCH   8  10
ENDBRANCH   6   8
ENDBRANCH   5   6
ENDBRANCH   4   5
ENDBRANCH   3   4
ENDBRANCH   2   3
ENDBRANCH   1   2
BRANCH   1  37
ATOM     37  C   UNL A   1      46.107  22.505  25.666  1.00  0.00     0.188 C 
BRANCH  37  38
ATOM     38  O   UNL A   1      45.246  21.382  25.835  1.00  0.00    -0.376 OA
BRANCH  38  39
ATOM     39  C   UNL A   1      43.841  21.652  25.791  1.00  0.00     0.202 C 
BRANCH  39  40
ATOM     40  C   UNL A   1      43.255  22.416  26.993  1.00  0.00     0.261 C 
BRANCH  40  41
ATOM     41  O   UNL A   1      42.706  23.705  26.658  1.00  0.00    -0.460 OA
BRANCH  41  42
ATOM     42  C   UNL A   1      41.367  23.860  26.789  1.00  0.00     0.338 C 
ATOM     43  O   UNL A   1      40.508  23.070  26.430  1.00  0.00    -0.246 OA
BRANCH  42  44
ATOM     44  C   UNL A   1      41.123  25.021  27.684  1.00  0.00     0.060 A 
ATOM     45  C   UNL A   1      42.142  25.971  27.836  1.00  0.00     0.016 A 
ATOM     46  C   UNL A   1      39.883  25.225  28.300  1.00  0.00     0.016 A 
ATOM     47  C   UNL A   1      41.941  27.097  28.639  1.00  0.00     0.010 A 
ATOM     48  C   UNL A   1      39.684  26.350  29.107  1.00  0.00     0.010 A 
ATOM     49  C   UNL A   1      40.723  27.273  29.309  1.00  0.00    -0.014 A 
BRANCH  49  50
ATOM     50  C   UNL A   1      40.602  28.294  30.381  1.00  0.00     0.031 A 
ATOM     51  C   UNL A   1      41.528  28.193  31.563  1.00  0.00     0.074 A 
ATOM     52  C   UNL A   1      39.707  29.297  30.316  1.00  0.00     0.049 A 
ATOM     53  N   UNL A   1      41.594  28.937  32.636  1.00  0.00    -0.248 NA
ATOM     54  C   UNL A   1      42.512  27.097  31.526  1.00  0.00     0.031 C 
ATOM     55  C   UNL A   1      38.776  29.535  29.215  1.00  0.00     0.029 A 
ATOM     56  N   UNL A   1      39.436  30.303  31.212  1.00  0.00    -0.354 N 
ATOM     57  C   UNL A   1      42.624  28.403  33.402  1.00  0.00     0.074 A 
ATOM     58  C   UNL A   1      43.128  27.249  32.688  1.00  0.00     0.031 C 
ATOM     59  C   UNL A   1      38.028  30.615  29.506  1.00  0.00     0.029 A 
ATOM     60  C   UNL A   1      38.407  31.127  30.824  1.00  0.00     0.049 A 
ATOM     61  H   UNL A   1      39.931  30.422  32.054  1.00  0.00     0.167 HD
ATOM     62  C   UNL A   1      43.116  28.836  34.586  1.00  0.00     0.037 A 
ATOM     63  C   UNL A   1      37.827  32.163  31.465  1.00  0.00     0.037 A 
ATOM     64  C   UNL A   1      42.610  29.974  35.305  1.00  0.00     0.049 A 
ATOM     65  C   UNL A   1      38.332  32.579  32.825  1.00  0.00     0.074 A 
ATOM     66  C   UNL A   1      43.052  30.498  36.507  1.00  0.00     0.029 A 
ATOM     67  N   UNL A   1      41.540  30.758  34.898  1.00  0.00    -0.354 N 
ATOM     68  N   UNL A   1      39.324  32.082  33.526  1.00  0.00    -0.248 NA
ATOM     69  C   UNL A   1      37.637  33.697  33.481  1.00  0.00     0.031 C 
ATOM     70  C   UNL A   1      42.217  31.566  36.852  1.00  0.00     0.029 A 
ATOM     71  C   UNL A   1      41.289  31.742  35.839  1.00  0.00     0.049 A 
ATOM     72  H   UNL A   1      41.034  30.631  34.063  1.00  0.00     0.167 HD
ATOM     73  C   UNL A   1      39.389  32.845  34.690  1.00  0.00     0.074 A 
ATOM     74  C   UNL A   1      38.341  33.839  34.597  1.00  0.00     0.031 C 
ATOM     75  C   UNL A   1      40.245  32.733  35.738  1.00  0.00     0.037 A 
BRANCH  62  76
ATOM     76  C   UNL A   1      44.242  28.045  35.189  1.00  0.00     0.058 A 
ATOM     77  C   UNL A   1      45.585  28.318  34.880  1.00  0.00     0.135 A 
ATOM     78  C   UNL A   1      43.974  26.995  36.082  1.00  0.00     0.135 A 
ATOM     79  F   UNL A   1      45.894  29.297  34.015  1.00  0.00    -0.206 F 
ATOM     80  C   UNL A   1      46.620  27.550  35.402  1.00  0.00     0.059 A 
ATOM     81  C   UNL A   1      44.996  26.233  36.639  1.00  0.00     0.059 A 
ATOM     82  F   UNL A   1      42.708  26.691  36.409  1.00  0.00    -0.206 F 
ATOM     83  C   UNL A   1      46.314  26.505  36.276  1.00  0.00     0.060 A 
BRANCH  83  84
ATOM     84  S   UNL A   1      47.665  25.498  36.922  1.00  0.00     0.124 S 
ATOM     85  O   UNL A   1      48.655  25.623  35.856  1.00  0.00    -0.237 OA
ATOM     86  O   UNL A   1      47.992  26.177  38.172  1.00  0.00    -0.237 OA
ATOM     87  O   UNL A   1      47.063  24.176  37.068  1.00  0.00    -0.744 OA
ENDBRANCH  83  84
ENDBRANCH  62  76
BRANCH  63  88
ATOM     88  C   UNL A   1      36.691  32.885  30.830  1.00  0.00     0.058 A 
ATOM     89  C   UNL A   1      35.364  32.593  31.176  1.00  0.00     0.135 A 
ATOM     90  C   UNL A   1      36.912  33.881  29.867  1.00  0.00     0.135 A 
ATOM     91  F   UNL A   1      35.102  31.637  32.080  1.00  0.00    -0.206 F 
ATOM     92  C   UNL A   1      34.294  33.258  30.586  1.00  0.00     0.059 A 
ATOM     93  C   UNL A   1      35.860  34.577  29.280  1.00  0.00     0.059 A 
ATOM     94  F   UNL A   1      38.164  34.200  29.504  1.00  0.00    -0.206 F 
ATOM     95  C   UNL A   1      34.553  34.255  29.643  1.00  0.00     0.060 A 
BRANCH  95  96
ATOM     96  S   UNL A   1      33.161  35.159  28.932  1.00  0.00     0.124 S 
ATOM     97  O   UNL A   1      33.824  36.333  28.376  1.00  0.00    -0.237 OA
ATOM     98  O   UNL A   1      32.638  34.201  27.963  1.00  0.00    -0.237 OA
ATOM     99  O   UNL A   1      32.299  35.407  30.084  1.00  0.00    -0.744 OA
ENDBRANCH  95  96
ENDBRANCH  63  88
BRANCH  75 100
ATOM    100  C   UNL A   1      40.115  33.727  36.861  1.00  0.00     0.058 A 
ATOM    101  C   UNL A   1      40.849  34.923  36.880  1.00  0.00     0.135 A 
ATOM    102  C   UNL A   1      39.190  33.512  37.897  1.00  0.00     0.135 A 
ATOM    103  F   UNL A   1      41.748  35.180  35.917  1.00  0.00    -0.206 F 
ATOM    104  C   UNL A   1      40.685  35.862  37.895  1.00  0.00     0.059 A 
ATOM    105  C   UNL A   1      38.992  34.448  38.908  1.00  0.00     0.059 A 
ATOM    106  F   UNL A   1      38.452  32.390  37.921  1.00  0.00    -0.206 F 
ATOM    107  C   UNL A   1      39.750  35.616  38.904  1.00  0.00     0.060 A 
BRANCH 107 108
ATOM    108  S   UNL A   1      39.518  36.859  40.193  1.00  0.00     0.124 S 
ATOM    109  O   UNL A   1      39.477  38.091  39.411  1.00  0.00    -0.237 OA
ATOM    110  O   UNL A   1      38.252  36.451  40.797  1.00  0.00    -0.237 OA
ATOM    111  O   UNL A   1      40.693  36.692  41.042  1.00  0.00    -0.744 OA
ENDBRANCH 107 108
ENDBRANCH  75 100
ENDBRANCH  49  50
ENDBRANCH  42  44
ENDBRANCH  41  42
ENDBRANCH  40  41
ENDBRANCH  39  40
ENDBRANCH  38  39
ENDBRANCH  37  38
ENDBRANCH   1  37
TORSDOF 26
ENDMDL
MODEL 2
REMARK VINA RESULT:      -7.4      1.903      3.088
REMARK SMILES CCN1C(=O)/C(=C/c2ccccc2O[C@H](C)C(=O)OCCOCCOCCOC(=O)c2ccc(-c3c4nc(c(-c5c(F)cc(S(=O)(=O)[O-])cc5F)c5ccc([nH]5)c(-c5c(F)cc(S(=O)(=O)[O-])cc5F)c5nc(c(-c6c(F)cc(S(=O)(=O)[O-])cc6F)c6ccc3[nH]6)C=C5)C=C4)cc2)S/C1=[NH+]\c1ccc(C)cc1O
REMARK SMILES IDX 23 1 22 2 21 3 20 4 19 5 17 6 18 7 15 8 16 9 14 10 13 11
REMARK SMILES IDX 8 12 9 13 10 14 12 15 11 16 7 17 3 18 4 19 98 20 5 21 6 22
REMARK SMILES IDX 97 23 99 24 2 26 1 27 100 28 101 29 106 30 102 31 105 32
REMARK SMILES IDX 103 33 104 34 107 35 24 37 25 38 26 39 27 40 28 41 29 42
REMARK SMILES IDX 30 43 31 44 32 45 96 46 33 47 95 48 34 49 35 50 36 51 89 52
REMARK SMILES IDX 37 53 94 54 88 55 90 56 38 57 93 58 87 59 86 60 39 62 73 63
REMARK SMILES IDX 52 64 72 65 53 66 56 67 71 68 91 69 54 70 55 71 70 73 92 74
REMARK SMILES IDX 57 75 40 76 41 77 50 78 42 79 43 80 49 81 51 82 44 83 45 84
REMARK SMILES IDX 46 85 47 86 48 87 74 88 75 89 84 90 76 91 77 92 83 93 85 94
REMARK SMILES IDX 78 95 79 96 80 97 81 98 82 99 58 100 59 101 68 102 60 103
REMARK SMILES IDX 61 104 67 105 69 106 62 107 63 108 64 109 65 110 66 111
REMARK H PARENT 99 25 107 36 90 61 56 72
REMARK Flexibility Score: inf
ROOT
ATOM      1  C   UNL A   1      45.919  24.420  24.865  1.00  0.00     0.188 C 
ENDROOT
BRANCH   1   2
ATOM      2  O   UNL A   1      46.755  25.526  24.545  1.00  0.00    -0.376 OA
BRANCH   2   3
ATOM      3  C   UNL A   1      46.461  26.761  25.201  1.00  0.00     0.202 C 
BRANCH   3   4
ATOM      4  C   UNL A   1      46.944  28.034  24.487  1.00  0.00     0.261 C 
BRANCH   4   5
ATOM      5  O   UNL A   1      46.386  29.232  25.059  1.00  0.00    -0.461 OA
BRANCH   5   6
ATOM      6  C   UNL A   1      46.933  29.642  26.242  1.00  0.00     0.347 C 
ATOM      7  O   UNL A   1      48.107  29.967  26.370  1.00  0.00    -0.248 OA
BRANCH   6   8
ATOM      8  C   UNL A   1      45.854  29.814  27.337  1.00  0.00     0.279 C 
ATOM      9  C   UNL A   1      44.423  29.533  26.889  1.00  0.00     0.066 C 
BRANCH   8  10
ATOM     10  O   UNL A   1      46.159  29.295  28.631  1.00  0.00    -0.478 OA
BRANCH  10  11
ATOM     11  C   UNL A   1      46.195  27.941  28.812  1.00  0.00     0.127 A 
ATOM     12  C   UNL A   1      47.407  27.271  29.065  1.00  0.00     0.018 A 
ATOM     13  C   UNL A   1      47.361  25.906  29.403  1.00  0.00     0.012 A 
ATOM     14  C   UNL A   1      46.143  25.234  29.534  1.00  0.00     0.001 A 
ATOM     15  C   UNL A   1      44.979  27.269  28.988  1.00  0.00     0.047 A 
ATOM     16  C   UNL A   1      44.951  25.918  29.328  1.00  0.00     0.004 A 
BRANCH  12  17
ATOM     17  C   UNL A   1      48.748  27.878  28.975  1.00  0.00     0.036 C 
ATOM     18  N   UNL A   1      51.028  30.197  30.568  1.00  0.00    -0.186 N 
ATOM     19  C   UNL A   1      50.697  29.282  29.583  1.00  0.00     0.348 C 
ATOM     20  C   UNL A   1      50.094  30.389  31.558  1.00  0.00     0.324 C 
ATOM     21  O   UNL A   1      51.409  28.929  28.649  1.00  0.00    -0.240 OA
ATOM     22  C   UNL A   1      49.332  28.734  29.825  1.00  0.00     0.110 C 
ATOM     23  S   UNL A   1      48.703  29.374  31.281  1.00  0.00     0.007 SA
ATOM     24  N   UNL A   1      50.286  31.184  32.558  1.00  0.00    -0.231 N 
ATOM     25  H   UNL A   1      51.153  31.642  32.648  1.00  0.00     0.313 HD
BRANCH  18  26
ATOM     26  C   UNL A   1      52.243  31.000  30.429  1.00  0.00     0.244 C 
ATOM     27  C   UNL A   1      53.343  30.711  31.441  1.00  0.00     0.055 C 
ENDBRANCH  18  26
BRANCH  24  28
ATOM     28  C   UNL A   1      49.288  31.413  33.526  1.00  0.00     0.167 A 
ATOM     29  C   UNL A   1      49.196  30.540  34.611  1.00  0.00     0.056 A 
ATOM     30  C   UNL A   1      48.335  32.441  33.424  1.00  0.00     0.162 A 
ATOM     31  C   UNL A   1      48.233  30.735  35.606  1.00  0.00     0.008 A 
ATOM     32  C   UNL A   1      47.399  32.669  34.428  1.00  0.00     0.054 A 
ATOM     33  C   UNL A   1      47.350  31.821  35.539  1.00  0.00    -0.047 A 
ATOM     34  C   UNL A   1      46.325  32.023  36.616  1.00  0.00     0.044 C 
BRANCH  30  35
ATOM     35  O   UNL A   1      48.285  33.249  32.318  1.00  0.00    -0.504 OA
ATOM     36  H   UNL A   1      48.401  32.883  31.463  1.00  0.00     0.293 HD
ENDBRANCH  30  35
ENDBRANCH  24  28
ENDBRANCH  12  17
ENDBRANCH  10  11
ENDBRANCH   8  10
ENDBRANCH   6   8
ENDBRANCH   5   6
ENDBRANCH   4   5
ENDBRANCH   3   4
ENDBRANCH   2   3
ENDBRANCH   1   2
BRANCH   1  37
ATOM     37  C   UNL A   1      46.163  23.754  26.223  1.00  0.00     0.188 C 
BRANCH  37  38
ATOM     38  O   UNL A   1      45.411  22.563  26.445  1.00  0.00    -0.376 OA
BRANCH  38  39
ATOM     39  C   UNL A   1      44.035  22.603  26.053  1.00  0.00     0.202 C 
BRANCH  39  40
ATOM     40  C   UNL A   1      43.058  23.244  27.056  1.00  0.00     0.261 C 
BRANCH  40  41
ATOM     41  O   UNL A   1      42.235  24.283  26.492  1.00  0.00    -0.460 OA
BRANCH  41  42
ATOM     42  C   UNL A   1      40.922  24.280  26.822  1.00  0.00     0.338 C 
ATOM     43  O   UNL A   1      40.122  23.385  26.601  1.00  0.00    -0.246 OA
BRANCH  42  44
ATOM     44  C   UNL A   1      40.673  25.424  27.737  1.00  0.00     0.060 A 
ATOM     45  C   UNL A   1      41.562  26.508  27.706  1.00  0.00     0.016 A 
ATOM     46  C   UNL A   1      39.540  25.477  28.556  1.00  0.00     0.016 A 
ATOM     47  C   UNL A   1      41.346  27.621  28.523  1.00  0.00     0.010 A 
ATOM     48  C   UNL A   1      39.326  26.589  29.376  1.00  0.00     0.010 A 
ATOM     49  C   UNL A   1      40.245  27.650  29.390  1.00  0.00    -0.014 A 
BRANCH  49  50
ATOM     50  C   UNL A   1      40.167  28.678  30.459  1.00  0.00     0.031 A 
ATOM     51  C   UNL A   1      41.103  28.554  31.631  1.00  0.00     0.074 A 
ATOM     52  C   UNL A   1      39.301  29.707  30.400  1.00  0.00     0.049 A 
ATOM     53  N   UNL A   1      41.203  29.300  32.701  1.00  0.00    -0.248 NA
ATOM     54  C   UNL A   1      42.053  27.429  31.589  1.00  0.00     0.031 C 
ATOM     55  C   UNL A   1      38.366  29.969  29.309  1.00  0.00     0.029 A 
ATOM     56  N   UNL A   1      39.070  30.724  31.295  1.00  0.00    -0.354 N 
ATOM     57  C   UNL A   1      42.224  28.737  33.457  1.00  0.00     0.074 A 
ATOM     58  C   UNL A   1      42.686  27.567  32.743  1.00  0.00     0.031 C 
ATOM     59  C   UNL A   1      37.653  31.072  29.603  1.00  0.00     0.029 A 
ATOM     60  C   UNL A   1      38.061  31.577  30.915  1.00  0.00     0.049 A 
ATOM     61  H   UNL A   1      39.578  30.831  32.131  1.00  0.00     0.167 HD
ATOM     62  C   UNL A   1      42.742  29.160  34.635  1.00  0.00     0.037 A 
ATOM     63  C   UNL A   1      37.520  32.632  31.559  1.00  0.00     0.037 A 
ATOM     64  C   UNL A   1      42.278  30.316  35.355  1.00  0.00     0.049 A 
ATOM     65  C   UNL A   1      38.052  33.037  32.911  1.00  0.00     0.074 A 
ATOM     66  C   UNL A   1      42.749  30.830  36.550  1.00  0.00     0.029 A 
ATOM     67  N   UNL A   1      41.228  31.129  34.956  1.00  0.00    -0.354 N 
ATOM     68  N   UNL A   1      39.036  32.514  33.604  1.00  0.00    -0.248 NA
ATOM     69  C   UNL A   1      37.398  34.178  33.570  1.00  0.00     0.031 C 
ATOM     70  C   UNL A   1      41.950  31.923  36.900  1.00  0.00     0.029 A 
ATOM     71  C   UNL A   1      41.016  32.124  35.896  1.00  0.00     0.049 A 
ATOM     72  H   UNL A   1      40.708  31.014  34.128  1.00  0.00     0.167 HD
ATOM     73  C   UNL A   1      39.137  33.278  34.764  1.00  0.00     0.074 A 
ATOM     74  C   UNL A   1      38.118  34.303  34.678  1.00  0.00     0.031 C 
ATOM     75  C   UNL A   1      40.001  33.144  35.803  1.00  0.00     0.037 A 
BRANCH  62  76
ATOM     76  C   UNL A   1      43.850  28.338  35.228  1.00  0.00     0.058 A 
ATOM     77  C   UNL A   1      45.200  28.600  34.941  1.00  0.00     0.135 A 
ATOM     78  C   UNL A   1      43.559  27.269  36.090  1.00  0.00     0.135 A 
ATOM     79  F   UNL A   1      45.532  29.598  34.105  1.00  0.00    -0.206 F 
ATOM     80  C   UNL A   1      46.219  27.805  35.453  1.00  0.00     0.059 A 
ATOM     81  C   UNL A   1      44.564  26.478  36.638  1.00  0.00     0.059 A 
ATOM     82  F   UNL A   1      42.286  26.974  36.396  1.00  0.00    -0.206 F 
ATOM     83  C   UNL A   1      45.890  26.742  36.296  1.00  0.00     0.060 A 
BRANCH  83  84
ATOM     84  S   UNL A   1      47.220  25.699  36.929  1.00  0.00     0.124 S 
ATOM     85  O   UNL A   1      47.918  25.341  35.698  1.00  0.00    -0.237 OA
ATOM     86  O   UNL A   1      47.934  26.610  37.820  1.00  0.00    -0.237 OA
ATOM     87  O   UNL A   1      46.511  24.608  37.589  1.00  0.00    -0.744 OA
ENDBRANCH  83  84
ENDBRANCH  62  76
BRANCH  63  88
ATOM     88  C   UNL A   1      36.399  33.385  30.934  1.00  0.00     0.058 A 
ATOM     89  C   UNL A   1      36.605  34.182  29.799  1.00  0.00     0.135 A 
ATOM     90  C   UNL A   1      35.100  33.322  31.461  1.00  0.00     0.135 A 
ATOM     91  F   UNL A   1      37.834  34.287  29.269  1.00  0.00    -0.206 F 
ATOM     92  C   UNL A   1      35.565  34.894  29.209  1.00  0.00     0.059 A 
ATOM     93  C   UNL A   1      34.039  34.004  30.875  1.00  0.00     0.059 A 
ATOM     94  F   UNL A   1      34.850  32.571  32.545  1.00  0.00    -0.206 F 
ATOM     95  C   UNL A   1      34.283  34.792  29.751  1.00  0.00     0.060 A 
BRANCH  95  96
ATOM     96  S   UNL A   1      32.927  35.666  28.939  1.00  0.00     0.124 S 
ATOM     97  O   UNL A   1      32.431  34.651  28.017  1.00  0.00    -0.237 OA
ATOM     98  O   UNL A   1      32.055  35.989  30.065  1.00  0.00    -0.237 OA
ATOM     99  O   UNL A   1      33.589  36.811  28.320  1.00  0.00    -0.744 OA
ENDBRANCH  95  96
ENDBRANCH  63  88
BRANCH  75 100
ATOM    100  C   UNL A   1      39.913  34.147  36.923  1.00  0.00     0.058 A 
ATOM    101  C   UNL A   1      40.508  35.414  36.832  1.00  0.00     0.135 A 
ATOM    102  C   UNL A   1      39.162  33.859  38.076  1.00  0.00     0.135 A 
ATOM    103  F   UNL A   1      41.239  35.741  35.755  1.00  0.00    -0.206 F 
ATOM    104  C   UNL A   1      40.378  36.355  37.851  1.00  0.00     0.059 A 
ATOM    105  C   UNL A   1      38.998  34.793  39.095  1.00  0.00     0.059 A 
ATOM    106  F   UNL A   1      38.561  32.666  38.210  1.00  0.00    -0.206 F 
ATOM    107  C   UNL A   1      39.618  36.035  38.978  1.00  0.00     0.060 A 
BRANCH 107 108
ATOM    108  S   UNL A   1      39.424  37.277  40.274  1.00  0.00     0.124 S 
ATOM    109  O   UNL A   1      40.812  37.541  40.640  1.00  0.00    -0.237 OA
ATOM    110  O   UNL A   1      38.737  38.358  39.573  1.00  0.00    -0.237 OA
ATOM    111  O   UNL A   1      38.627  36.590  41.286  1.00  0.00    -0.744 OA
ENDBRANCH 107 108
ENDBRANCH  75 100
ENDBRANCH  49  50
ENDBRANCH  42  44
ENDBRANCH  41  42
ENDBRANCH  40  41
ENDBRANCH  39  40
ENDBRANCH  38  39
ENDBRANCH  37  38
ENDBRANCH   1  37
TORSDOF 26
ENDMDL
MODEL 3
REMARK VINA RESULT:      -7.4      6.057     11.539
REMARK SMILES CCN1C(=O)/C(=C/c2ccccc2O[C@H](C)C(=O)OCCOCCOCCOC(=O)c2ccc(-c3c4nc(c(-c5c(F)cc(S(=O)(=O)[O-])cc5F)c5ccc([nH]5)c(-c5c(F)cc(S(=O)(=O)[O-])cc5F)c5nc(c(-c6c(F)cc(S(=O)(=O)[O-])cc6F)c6ccc3[nH]6)C=C5)C=C4)cc2)S/C1=[NH+]\c1ccc(C)cc1O
REMARK SMILES IDX 23 1 22 2 21 3 20 4 19 5 17 6 18 7 15 8 16 9 14 10 13 11
REMARK SMILES IDX 8 12 9 13 10 14 12 15 11 16 7 17 3 18 4 19 98 20 5 21 6 22
REMARK SMILES IDX 97 23 99 24 2 26 1 27 100 28 101 29 106 30 102 31 105 32
REMARK SMILES IDX 103 33 104 34 107 35 24 37 25 38 26 39 27 40 28 41 29 42
REMARK SMILES IDX 30 43 31 44 32 45 96 46 33 47 95 48 34 49 35 50 36 51 89 52
REMARK SMILES IDX 37 53 94 54 88 55 90 56 38 57 93 58 87 59 86 60 39 62 73 63
REMARK SMILES IDX 52 64 72 65 53 66 56 67 71 68 91 69 54 70 55 71 70 73 92 74
REMARK SMILES IDX 57 75 40 76 41 77 50 78 42 79 43 80 49 81 51 82 44 83 45 84
REMARK SMILES IDX 46 85 47 86 48 87 74 88 75 89 84 90 76 91 77 92 83 93 85 94
REMARK SMILES IDX 78 95 79 96 80 97 81 98 82 99 58 100 59 101 68 102 60 103
REMARK SMILES IDX 61 104 67 105 69 106 62 107 63 108 64 109 65 110 66 111
REMARK H PARENT 99 25 107 36 90 61 56 72
REMARK Flexibility Score: inf
ROOT
ATOM      1  C   UNL A   1      44.984  18.063  43.628  1.00  0.00     0.188 C 
ENDROOT
BRANCH   1   2
ATOM      2  O   UNL A   1      46.365  17.730  43.543  1.00  0.00    -0.376 OA
BRANCH   2   3
ATOM      3  C   UNL A   1      47.265  18.798  43.243  1.00  0.00     0.202 C 
BRANCH   3   4
ATOM      4  C   UNL A   1      48.423  18.457  42.292  1.00  0.00     0.261 C 
BRANCH   4   5
ATOM      5  O   UNL A   1      48.756  19.548  41.413  1.00  0.00    -0.461 OA
BRANCH   5   6
ATOM      6  C   UNL A   1      49.554  19.238  40.349  1.00  0.00     0.347 C 
ATOM      7  O   UNL A   1      50.097  18.149  40.202  1.00  0.00    -0.248 OA
BRANCH   6   8
ATOM      8  C   UNL A   1      49.537  20.357  39.281  1.00  0.00     0.279 C 
ATOM      9  C   UNL A   1      48.646  21.552  39.606  1.00  0.00     0.066 C 
BRANCH   8  10
ATOM     10  O   UNL A   1      50.792  20.720  38.706  1.00  0.00    -0.478 OA
BRANCH  10  11
ATOM     11  C   UNL A   1      50.917  20.740  37.345  1.00  0.00     0.127 A 
ATOM     12  C   UNL A   1      51.809  21.623  36.708  1.00  0.00     0.018 A 
ATOM     13  C   UNL A   1      52.014  21.485  35.322  1.00  0.00     0.012 A 
ATOM     14  C   UNL A   1      51.389  20.468  34.596  1.00  0.00     0.001 A 
ATOM     15  C   UNL A   1      50.329  19.698  36.616  1.00  0.00     0.047 A 
ATOM     16  C   UNL A   1      50.548  19.573  35.245  1.00  0.00     0.004 A 
BRANCH  12  17
ATOM     17  C   UNL A   1      52.537  22.720  37.371  1.00  0.00     0.036 C 
ATOM     18  N   UNL A   1      52.167  25.991  38.882  1.00  0.00    -0.186 N 
ATOM     19  C   UNL A   1      52.918  24.889  38.506  1.00  0.00     0.348 C 
ATOM     20  C   UNL A   1      50.813  25.910  38.655  1.00  0.00     0.324 C 
ATOM     21  O   UNL A   1      54.123  24.741  38.672  1.00  0.00    -0.240 OA
ATOM     22  C   UNL A   1      52.043  23.857  37.883  1.00  0.00     0.110 C 
ATOM     23  S   UNL A   1      50.414  24.373  37.934  1.00  0.00     0.007 SA
ATOM     24  N   UNL A   1      49.989  26.847  38.989  1.00  0.00    -0.231 N 
ATOM     25  H   UNL A   1      50.329  27.637  39.468  1.00  0.00     0.313 HD
BRANCH  18  26
ATOM     26  C   UNL A   1      52.843  27.203  39.342  1.00  0.00     0.244 C 
ATOM     27  C   UNL A   1      53.331  28.142  38.248  1.00  0.00     0.055 C 
ENDBRANCH  18  26
BRANCH  24  28
ATOM     28  C   UNL A   1      48.615  26.769  38.687  1.00  0.00     0.167 A 
ATOM     29  C   UNL A   1      48.202  27.044  37.382  1.00  0.00     0.056 A 
ATOM     30  C   UNL A   1      47.628  26.490  39.646  1.00  0.00     0.162 A 
ATOM     31  C   UNL A   1      46.850  26.965  37.029  1.00  0.00     0.008 A 
ATOM     32  C   UNL A   1      46.287  26.368  39.298  1.00  0.00     0.054 A 
ATOM     33  C   UNL A   1      45.888  26.592  37.976  1.00  0.00    -0.047 A 
ATOM     34  C   UNL A   1      44.443  26.504  37.584  1.00  0.00     0.044 C 
BRANCH  30  35
ATOM     35  O   UNL A   1      47.953  26.343  40.971  1.00  0.00    -0.504 OA
ATOM     36  H   UNL A   1      48.852  26.326  41.234  1.00  0.00     0.293 HD
ENDBRANCH  30  35
ENDBRANCH  24  28
ENDBRANCH  12  17
ENDBRANCH  10  11
ENDBRANCH   8  10
ENDBRANCH   6   8
ENDBRANCH   5   6
ENDBRANCH   4   5
ENDBRANCH   3   4
ENDBRANCH   2   3
ENDBRANCH   1   2
BRANCH   1  37
ATOM     37  C   UNL A   1      44.152  17.839  42.361  1.00  0.00     0.188 C 
BRANCH  37  38
ATOM     38  O   UNL A   1      44.763  18.298  41.158  1.00  0.00    -0.376 OA
BRANCH  38  39
ATOM     39  C   UNL A   1      45.235  17.285  40.263  1.00  0.00     0.202 C 
BRANCH  39  40
ATOM     40  C   UNL A   1      46.331  17.710  39.269  1.00  0.00     0.261 C 
BRANCH  40  41
ATOM     41  O   UNL A   1      46.043  18.933  38.565  1.00  0.00    -0.460 OA
BRANCH  41  42
ATOM     42  C   UNL A   1      45.652  18.825  37.272  1.00  0.00     0.338 C 
ATOM     43  O   UNL A   1      45.125  17.854  36.755  1.00  0.00    -0.246 OA
BRANCH  42  44
ATOM     44  C   UNL A   1      45.721  20.175  36.655  1.00  0.00     0.060 A 
ATOM     45  C   UNL A   1      45.566  20.282  35.266  1.00  0.00     0.016 A 
ATOM     46  C   UNL A   1      45.852  21.332  37.432  1.00  0.00     0.016 A 
ATOM     47  C   UNL A   1      45.587  21.535  34.649  1.00  0.00     0.010 A 
ATOM     48  C   UNL A   1      45.877  22.586  36.814  1.00  0.00     0.010 A 
ATOM     49  C   UNL A   1      45.780  22.692  35.416  1.00  0.00    -0.014 A 
BRANCH  49  50
ATOM     50  C   UNL A   1      46.095  23.983  34.752  1.00  0.00     0.031 A 
ATOM     51  C   UNL A   1      47.538  24.293  34.457  1.00  0.00     0.074 A 
ATOM     52  C   UNL A   1      45.137  24.861  34.405  1.00  0.00     0.049 A 
ATOM     53  N   UNL A   1      48.067  25.362  33.921  1.00  0.00    -0.248 NA
ATOM     54  C   UNL A   1      48.515  23.254  34.822  1.00  0.00     0.031 C 
ATOM     55  C   UNL A   1      43.701  24.672  34.598  1.00  0.00     0.029 A 
ATOM     56  N   UNL A   1      45.239  26.099  33.817  1.00  0.00    -0.354 N 
ATOM     57  C   UNL A   1      49.436  25.125  33.883  1.00  0.00     0.074 A 
ATOM     58  C   UNL A   1      49.659  23.829  34.485  1.00  0.00     0.031 C 
ATOM     59  C   UNL A   1      43.055  25.762  34.144  1.00  0.00     0.029 A 
ATOM     60  C   UNL A   1      44.032  26.736  33.655  1.00  0.00     0.049 A 
ATOM     61  H   UNL A   1      46.097  26.493  33.538  1.00  0.00     0.167 HD
ATOM     62  C   UNL A   1      50.421  25.908  33.383  1.00  0.00     0.037 A 
ATOM     63  C   UNL A   1      43.751  27.969  33.184  1.00  0.00     0.037 A 
ATOM     64  C   UNL A   1      50.206  27.203  32.795  1.00  0.00     0.049 A 
ATOM     65  C   UNL A   1      44.870  28.863  32.710  1.00  0.00     0.074 A 
ATOM     66  C   UNL A   1      51.140  28.066  32.249  1.00  0.00     0.029 A 
ATOM     67  N   UNL A   1      48.974  27.830  32.687  1.00  0.00    -0.354 N 
ATOM     68  N   UNL A   1      46.158  28.617  32.655  1.00  0.00    -0.248 NA
ATOM     69  C   UNL A   1      44.496  30.204  32.236  1.00  0.00     0.031 C 
ATOM     70  C   UNL A   1      50.480  29.235  31.859  1.00  0.00     0.029 A 
ATOM     71  C   UNL A   1      49.126  29.080  32.111  1.00  0.00     0.049 A 
ATOM     72  H   UNL A   1      48.116  27.444  32.979  1.00  0.00     0.167 HD
ATOM     73  C   UNL A   1      46.743  29.759  32.114  1.00  0.00     0.074 A 
ATOM     74  C   UNL A   1      45.669  30.694  31.854  1.00  0.00     0.031 C 
ATOM     75  C   UNL A   1      48.052  30.006  31.851  1.00  0.00     0.037 A 
BRANCH  62  76
ATOM     76  C   UNL A   1      51.826  25.389  33.487  1.00  0.00     0.058 A 
ATOM     77  C   UNL A   1      52.620  25.625  34.622  1.00  0.00     0.135 A 
ATOM     78  C   UNL A   1      52.391  24.650  32.435  1.00  0.00     0.135 A 
ATOM     79  F   UNL A   1      52.135  26.343  35.647  1.00  0.00    -0.206 F 
ATOM     80  C   UNL A   1      53.937  25.184  34.692  1.00  0.00     0.059 A 
ATOM     81  C   UNL A   1      53.697  24.175  32.495  1.00  0.00     0.059 A 
ATOM     82  F   UNL A   1      51.678  24.399  31.326  1.00  0.00    -0.206 F 
ATOM     83  C   UNL A   1      54.468  24.465  33.620  1.00  0.00     0.060 A 
BRANCH  83  84
ATOM     84  S   UNL A   1      56.188  23.926  33.711  1.00  0.00     0.124 S 
ATOM     85  O   UNL A   1      56.886  25.202  33.825  1.00  0.00    -0.237 OA
ATOM     86  O   UNL A   1      56.192  23.093  34.910  1.00  0.00    -0.237 OA
ATOM     87  O   UNL A   1      56.387  23.211  32.454  1.00  0.00    -0.744 OA
ENDBRANCH  83  84
ENDBRANCH  62  76
BRANCH  63  88
ATOM     88  C   UNL A   1      42.339  28.440  33.139  1.00  0.00     0.058 A 
ATOM     89  C   UNL A   1      41.548  28.251  31.997  1.00  0.00     0.135 A 
ATOM     90  C   UNL A   1      41.756  29.089  34.238  1.00  0.00     0.135 A 
ATOM     91  F   UNL A   1      42.067  27.651  30.915  1.00  0.00    -0.206 F 
ATOM     92  C   UNL A   1      40.230  28.691  31.943  1.00  0.00     0.059 A 
ATOM     93  C   UNL A   1      40.433  29.517  34.218  1.00  0.00     0.059 A 
ATOM     94  F   UNL A   1      42.471  29.291  35.357  1.00  0.00    -0.206 F 
ATOM     95  C   UNL A   1      39.678  29.317  33.062  1.00  0.00     0.060 A 
BRANCH  95  96
ATOM     96  S   UNL A   1      37.946  29.826  33.007  1.00  0.00     0.124 S 
ATOM     97  O   UNL A   1      37.888  30.798  34.092  1.00  0.00    -0.237 OA
ATOM     98  O   UNL A   1      37.831  30.368  31.656  1.00  0.00    -0.237 OA
ATOM     99  O   UNL A   1      37.224  28.578  33.237  1.00  0.00    -0.744 OA
ENDBRANCH  95  96
ENDBRANCH  63  88
BRANCH  75 100
ATOM    100  C   UNL A   1      48.404  31.327  31.220  1.00  0.00     0.058 A 
ATOM    101  C   UNL A   1      48.393  31.510  29.829  1.00  0.00     0.135 A 
ATOM    102  C   UNL A   1      48.690  32.444  32.024  1.00  0.00     0.135 A 
ATOM    103  F   UNL A   1      48.128  30.477  29.014  1.00  0.00    -0.206 F 
ATOM    104  C   UNL A   1      48.669  32.748  29.255  1.00  0.00     0.059 A 
ATOM    105  C   UNL A   1      48.945  33.697  31.472  1.00  0.00     0.059 A 
ATOM    106  F   UNL A   1      48.703  32.328  33.361  1.00  0.00    -0.206 F 
ATOM    107  C   UNL A   1      48.942  33.837  30.086  1.00  0.00     0.060 A 
BRANCH 107 108
ATOM    108  S   UNL A   1      49.260  35.447  29.332  1.00  0.00     0.124 S 
ATOM    109  O   UNL A   1      50.683  35.624  29.605  1.00  0.00    -0.237 OA
ATOM    110  O   UNL A   1      48.907  35.213  27.934  1.00  0.00    -0.237 OA
ATOM    111  O   UNL A   1      48.365  36.344  30.055  1.00  0.00    -0.744 OA
ENDBRANCH 107 108
ENDBRANCH  75 100
ENDBRANCH  49  50
ENDBRANCH  42  44
ENDBRANCH  41  42
ENDBRANCH  40  41
ENDBRANCH  39  40
ENDBRANCH  38  39
ENDBRANCH  37  38
ENDBRANCH   1  37
TORSDOF 26
ENDMDL
