MODEL 1
REMARK VINA RESULT:      -9.8      0.000      0.000
REMARK SMILES C/C(=C(\C#N)C(=O)OCCOCCOCCOC(=O)c1ccc(-c2c3nc(c(-c4c(F)cc(S(=O)(=O)[O-])cc4F)c4ccc([nH]4)c(-c4c(F)cc(S(=O)(=O)[O-])cc4F)c4nc(c(-c5c(F)cc(S(=O)(=O)[O-])cc5F)c5ccc2[nH]5)C=C4)C=C3)cc1)c1cccc2ccccc12
REMARK SMILES IDX 13 1 12 2 11 3 10 4 9 5 8 6 6 7 7 8 3 9 1 10 2 11 86 12
REMARK SMILES IDX 87 13 95 14 88 15 90 16 94 17 89 18 91 19 93 20 92 21 4 22
REMARK SMILES IDX 5 23 14 24 15 25 16 26 17 27 18 28 19 29 20 30 21 31 85 32
REMARK SMILES IDX 22 33 84 34 23 35 24 36 25 37 78 38 26 39 83 40 77 41 79 42
REMARK SMILES IDX 27 43 82 44 76 45 75 46 28 48 62 49 41 50 61 51 42 52 45 53
REMARK SMILES IDX 60 54 80 55 43 56 44 57 59 59 81 60 46 61 29 62 30 63 39 64
REMARK SMILES IDX 31 65 32 66 38 67 40 68 33 69 34 70 35 71 36 72 37 73 63 74
REMARK SMILES IDX 64 75 73 76 65 77 66 78 72 79 74 80 67 81 68 82 69 83 70 84
REMARK SMILES IDX 71 85 47 86 48 87 57 88 49 89 50 90 56 91 58 92 51 93 52 94
REMARK SMILES IDX 53 95 54 96 55 97
REMARK H PARENT 79 47 45 58
REMARK Flexibility Score: inf
ROOT
ATOM      1  C   UNL A   1      37.794  22.101  25.809  1.00  0.00     0.188 C 
ENDROOT
BRANCH   1   2
ATOM      2  C   UNL A   1      36.627  21.199  25.353  1.00  0.00     0.188 C 
BRANCH   2   3
ATOM      3  O   UNL A   1      35.424  21.917  25.175  1.00  0.00    -0.376 OA
BRANCH   3   4
ATOM      4  C   UNL A   1      35.294  23.118  25.911  1.00  0.00     0.202 C 
BRANCH   4   5
ATOM      5  C   UNL A   1      33.884  23.601  26.309  1.00  0.00     0.261 C 
BRANCH   5   6
ATOM      6  O   UNL A   1      33.671  25.024  26.298  1.00  0.00    -0.459 OA
BRANCH   6   7
ATOM      7  C   UNL A   1      32.797  25.524  25.385  1.00  0.00     0.349 C 
ATOM      8  O   UNL A   1      31.584  25.457  25.487  1.00  0.00    -0.245 OA
BRANCH   7   9
ATOM      9  C   UNL A   1      33.540  26.144  24.220  1.00  0.00     0.140 C 
ATOM     10  C   UNL A   1      33.573  28.073  22.586  1.00  0.00     0.047 C 
ATOM     11  C   UNL A   1      33.371  27.488  23.960  1.00  0.00    -0.018 C 
BRANCH  11  12
ATOM     12  C   UNL A   1      32.895  28.461  25.030  1.00  0.00    -0.013 A 
ATOM     13  C   UNL A   1      31.549  28.820  24.925  1.00  0.00     0.009 A 
ATOM     14  C   UNL A   1      33.649  29.131  26.051  1.00  0.00    -0.011 A 
ATOM     15  C   UNL A   1      31.066  30.022  25.433  1.00  0.00     0.001 A 
ATOM     16  C   UNL A   1      33.178  30.400  26.503  1.00  0.00    -0.018 A 
ATOM     17  C   UNL A   1      34.773  28.622  26.751  1.00  0.00     0.009 A 
ATOM     18  C   UNL A   1      31.921  30.864  26.120  1.00  0.00     0.009 A 
ATOM     19  C   UNL A   1      33.903  31.173  27.422  1.00  0.00     0.009 A 
ATOM     20  C   UNL A   1      35.391  29.338  27.792  1.00  0.00     0.001 A 
ATOM     21  C   UNL A   1      34.994  30.633  28.088  1.00  0.00     0.001 A 
ENDBRANCH  11  12
BRANCH   9  22
ATOM     22  C   UNL A   1      33.819  25.131  23.121  1.00  0.00     0.107 C 
ATOM     23  N   UNL A   1      34.050  24.290  22.211  1.00  0.00    -0.192 NA
ENDBRANCH   9  22
ENDBRANCH   7   9
ENDBRANCH   6   7
ENDBRANCH   5   6
ENDBRANCH   4   5
ENDBRANCH   3   4
ENDBRANCH   2   3
ENDBRANCH   1   2
BRANCH   1  24
ATOM     24  O   UNL A   1      39.125  21.628  25.728  1.00  0.00    -0.376 OA
BRANCH  24  25
ATOM     25  C   UNL A   1      39.957  21.828  26.853  1.00  0.00     0.202 C 
BRANCH  25  26
ATOM     26  C   UNL A   1      41.430  22.185  26.599  1.00  0.00     0.261 C 
BRANCH  26  27
ATOM     27  O   UNL A   1      41.961  23.331  27.301  1.00  0.00    -0.460 OA
BRANCH  27  28
ATOM     28  C   UNL A   1      41.935  24.507  26.620  1.00  0.00     0.338 C 
ATOM     29  O   UNL A   1      42.074  24.641  25.408  1.00  0.00    -0.246 OA
BRANCH  28  30
ATOM     30  C   UNL A   1      41.531  25.632  27.505  1.00  0.00     0.060 A 
ATOM     31  C   UNL A   1      42.324  26.790  27.523  1.00  0.00     0.016 A 
ATOM     32  C   UNL A   1      40.430  25.542  28.360  1.00  0.00     0.016 A 
ATOM     33  C   UNL A   1      42.037  27.842  28.405  1.00  0.00     0.010 A 
ATOM     34  C   UNL A   1      40.163  26.586  29.266  1.00  0.00     0.010 A 
ATOM     35  C   UNL A   1      40.978  27.732  29.317  1.00  0.00    -0.014 A 
BRANCH  35  36
ATOM     36  C   UNL A   1      40.823  28.741  30.407  1.00  0.00     0.031 A 
ATOM     37  C   UNL A   1      41.736  28.681  31.601  1.00  0.00     0.074 A 
ATOM     38  C   UNL A   1      39.898  29.719  30.352  1.00  0.00     0.049 A 
ATOM     39  N   UNL A   1      41.782  29.462  32.650  1.00  0.00    -0.248 NA
ATOM     40  C   UNL A   1      42.722  27.591  31.616  1.00  0.00     0.031 C 
ATOM     41  C   UNL A   1      38.956  29.906  29.260  1.00  0.00     0.029 A 
ATOM     42  N   UNL A   1      39.590  30.732  31.231  1.00  0.00    -0.354 N 
ATOM     43  C   UNL A   1      42.800  28.964  33.452  1.00  0.00     0.074 A 
ATOM     44  C   UNL A   1      43.323  27.790  32.781  1.00  0.00     0.031 C 
ATOM     45  C   UNL A   1      38.167  30.957  29.528  1.00  0.00     0.029 A 
ATOM     46  C   UNL A   1      38.536  31.517  30.823  1.00  0.00     0.049 A 
ATOM     47  H   UNL A   1      40.079  30.880  32.073  1.00  0.00     0.167 HD
ATOM     48  C   UNL A   1      43.260  29.439  34.634  1.00  0.00     0.037 A 
ATOM     49  C   UNL A   1      37.925  32.563  31.420  1.00  0.00     0.037 A 
ATOM     50  C   UNL A   1      42.727  30.592  35.317  1.00  0.00     0.049 A 
ATOM     51  C   UNL A   1      38.427  33.047  32.753  1.00  0.00     0.074 A 
ATOM     52  C   UNL A   1      43.150  31.155  36.510  1.00  0.00     0.029 A 
ATOM     53  N   UNL A   1      41.647  31.348  34.885  1.00  0.00    -0.354 N 
ATOM     54  N   UNL A   1      39.424  32.592  33.474  1.00  0.00    -0.248 NA
ATOM     55  C   UNL A   1      37.726  34.191  33.353  1.00  0.00     0.031 C 
ATOM     56  C   UNL A   1      42.289  32.211  36.829  1.00  0.00     0.029 A 
ATOM     57  C   UNL A   1      41.370  32.351  35.803  1.00  0.00     0.049 A 
ATOM     58  H   UNL A   1      41.151  31.197  34.049  1.00  0.00     0.167 HD
ATOM     59  C   UNL A   1      39.479  33.404  34.602  1.00  0.00     0.074 A 
ATOM     60  C   UNL A   1      38.437  34.397  34.452  1.00  0.00     0.031 C 
ATOM     61  C   UNL A   1      40.318  33.330  35.666  1.00  0.00     0.037 A 
BRANCH  48  62
ATOM     62  C   UNL A   1      44.389  28.687  35.286  1.00  0.00     0.058 A 
ATOM     63  C   UNL A   1      44.155  27.662  36.217  1.00  0.00     0.135 A 
ATOM     64  C   UNL A   1      45.722  28.975  34.951  1.00  0.00     0.135 A 
ATOM     65  F   UNL A   1      42.900  27.358  36.587  1.00  0.00    -0.206 F 
ATOM     66  C   UNL A   1      45.202  26.970  36.814  1.00  0.00     0.059 A 
ATOM     67  C   UNL A   1      46.784  28.275  35.513  1.00  0.00     0.059 A 
ATOM     68  F   UNL A   1      46.002  29.947  34.069  1.00  0.00    -0.206 F 
ATOM     69  C   UNL A   1      46.515  27.282  36.455  1.00  0.00     0.060 A 
BRANCH  69  70
ATOM     70  S   UNL A   1      47.863  26.371  37.236  1.00  0.00     0.124 S 
ATOM     71  O   UNL A   1      48.952  27.339  37.159  1.00  0.00    -0.237 OA
ATOM     72  O   UNL A   1      47.332  26.119  38.571  1.00  0.00    -0.237 OA
ATOM     73  O   UNL A   1      48.012  25.191  36.389  1.00  0.00    -0.744 OA
ENDBRANCH  69  70
ENDBRANCH  48  62
BRANCH  49  74
ATOM     74  C   UNL A   1      36.766  33.233  30.765  1.00  0.00     0.058 A 
ATOM     75  C   UNL A   1      36.958  34.236  29.802  1.00  0.00     0.135 A 
ATOM     76  C   UNL A   1      35.446  32.900  31.104  1.00  0.00     0.135 A 
ATOM     77  F   UNL A   1      38.200  34.605  29.455  1.00  0.00    -0.206 F 
ATOM     78  C   UNL A   1      35.885  34.895  29.211  1.00  0.00     0.059 A 
ATOM     79  C   UNL A   1      34.355  33.524  30.505  1.00  0.00     0.059 A 
ATOM     80  F   UNL A   1      35.204  31.945  32.016  1.00  0.00    -0.206 F 
ATOM     81  C   UNL A   1      34.586  34.527  29.564  1.00  0.00     0.060 A 
BRANCH  81  82
ATOM     82  S   UNL A   1      33.203  35.326  28.725  1.00  0.00     0.124 S 
ATOM     83  O   UNL A   1      32.476  35.914  29.842  1.00  0.00    -0.237 OA
ATOM     84  O   UNL A   1      33.890  36.263  27.841  1.00  0.00    -0.237 OA
ATOM     85  O   UNL A   1      32.536  34.217  28.048  1.00  0.00    -0.744 OA
ENDBRANCH  81  82
ENDBRANCH  49  74
BRANCH  61  86
ATOM     86  C   UNL A   1      40.149  34.363  36.749  1.00  0.00     0.058 A 
ATOM     87  C   UNL A   1      39.268  34.172  37.826  1.00  0.00     0.135 A 
ATOM     88  C   UNL A   1      40.880  35.562  36.712  1.00  0.00     0.135 A 
ATOM     89  F   UNL A   1      38.540  33.047  37.911  1.00  0.00    -0.206 F 
ATOM     90  C   UNL A   1      39.079  35.150  38.797  1.00  0.00     0.059 A 
ATOM     91  C   UNL A   1      40.734  36.540  37.693  1.00  0.00     0.059 A 
ATOM     92  F   UNL A   1      41.748  35.796  35.715  1.00  0.00    -0.206 F 
ATOM     93  C   UNL A   1      39.815  36.334  38.719  1.00  0.00     0.060 A 
BRANCH  93  94
ATOM     94  S   UNL A   1      39.552  37.601  39.979  1.00  0.00     0.124 S 
ATOM     95  O   UNL A   1      38.248  38.131  39.596  1.00  0.00    -0.237 OA
ATOM     96  O   UNL A   1      39.583  36.823  41.214  1.00  0.00    -0.237 OA
ATOM     97  O   UNL A   1      40.680  38.508  39.789  1.00  0.00    -0.744 OA
ENDBRANCH  93  94
ENDBRANCH  61  86
ENDBRANCH  35  36
ENDBRANCH  28  30
ENDBRANCH  27  28
ENDBRANCH  26  27
ENDBRANCH  25  26
ENDBRANCH  24  25
ENDBRANCH   1  24
TORSDOF 22
ENDMDL
MODEL 2
REMARK VINA RESULT:      -9.8      1.259      2.137
REMARK SMILES C/C(=C(\C#N)C(=O)OCCOCCOCCOC(=O)c1ccc(-c2c3nc(c(-c4c(F)cc(S(=O)(=O)[O-])cc4F)c4ccc([nH]4)c(-c4c(F)cc(S(=O)(=O)[O-])cc4F)c4nc(c(-c5c(F)cc(S(=O)(=O)[O-])cc5F)c5ccc2[nH]5)C=C4)C=C3)cc1)c1cccc2ccccc12
REMARK SMILES IDX 13 1 12 2 11 3 10 4 9 5 8 6 6 7 7 8 3 9 1 10 2 11 86 12
REMARK SMILES IDX 87 13 95 14 88 15 90 16 94 17 89 18 91 19 93 20 92 21 4 22
REMARK SMILES IDX 5 23 14 24 15 25 16 26 17 27 18 28 19 29 20 30 21 31 85 32
REMARK SMILES IDX 22 33 84 34 23 35 24 36 25 37 78 38 26 39 83 40 77 41 79 42
REMARK SMILES IDX 27 43 82 44 76 45 75 46 28 48 62 49 41 50 61 51 42 52 45 53
REMARK SMILES IDX 60 54 80 55 43 56 44 57 59 59 81 60 46 61 29 62 30 63 39 64
REMARK SMILES IDX 31 65 32 66 38 67 40 68 33 69 34 70 35 71 36 72 37 73 63 74
REMARK SMILES IDX 64 75 73 76 65 77 66 78 72 79 74 80 67 81 68 82 69 83 70 84
REMARK SMILES IDX 71 85 47 86 48 87 57 88 49 89 50 90 56 91 58 92 51 93 52 94
REMARK SMILES IDX 53 95 54 96 55 97
REMARK H PARENT 79 47 45 58
REMARK Flexibility Score: inf
ROOT
ATOM      1  C   UNL A   1      37.860  22.158  25.715  1.00  0.00     0.188 C 
ENDROOT
BRANCH   1   2
ATOM      2  C   UNL A   1      36.657  21.304  25.261  1.00  0.00     0.188 C 
BRANCH   2   3
ATOM      3  O   UNL A   1      35.577  22.090  24.802  1.00  0.00    -0.376 OA
BRANCH   3   4
ATOM      4  C   UNL A   1      35.895  23.123  23.889  1.00  0.00     0.202 C 
BRANCH   4   5
ATOM      5  C   UNL A   1      35.033  24.402  23.879  1.00  0.00     0.261 C 
BRANCH   5   6
ATOM      6  O   UNL A   1      33.745  24.309  24.514  1.00  0.00    -0.459 OA
BRANCH   6   7
ATOM      7  C   UNL A   1      32.695  23.902  23.753  1.00  0.00     0.349 C 
ATOM      8  O   UNL A   1      32.625  24.049  22.544  1.00  0.00    -0.245 OA
BRANCH   7   9
ATOM      9  C   UNL A   1      31.623  23.271  24.617  1.00  0.00     0.140 C 
ATOM     10  C   UNL A   1      30.140  23.604  26.638  1.00  0.00     0.047 C 
ATOM     11  C   UNL A   1      30.813  24.087  25.380  1.00  0.00    -0.018 C 
BRANCH  11  12
ATOM     12  C   UNL A   1      30.606  25.557  25.041  1.00  0.00    -0.013 A 
ATOM     13  C   UNL A   1      29.883  25.782  23.867  1.00  0.00     0.009 A 
ATOM     14  C   UNL A   1      31.132  26.724  25.691  1.00  0.00    -0.011 A 
ATOM     15  C   UNL A   1      30.023  26.953  23.128  1.00  0.00     0.001 A 
ATOM     16  C   UNL A   1      31.340  27.892  24.898  1.00  0.00    -0.018 A 
ATOM     17  C   UNL A   1      31.375  26.887  27.079  1.00  0.00     0.009 A 
ATOM     18  C   UNL A   1      30.850  27.958  23.595  1.00  0.00     0.009 A 
ATOM     19  C   UNL A   1      31.943  29.044  25.424  1.00  0.00     0.009 A 
ATOM     20  C   UNL A   1      31.821  28.106  27.621  1.00  0.00     0.001 A 
ATOM     21  C   UNL A   1      32.159  29.164  26.789  1.00  0.00     0.001 A 
ENDBRANCH  11  12
BRANCH   9  22
ATOM     22  C   UNL A   1      31.999  21.863  25.050  1.00  0.00     0.107 C 
ATOM     23  N   UNL A   1      32.311  20.696  25.411  1.00  0.00    -0.192 NA
ENDBRANCH   9  22
ENDBRANCH   7   9
ENDBRANCH   6   7
ENDBRANCH   5   6
ENDBRANCH   4   5
ENDBRANCH   3   4
ENDBRANCH   2   3
ENDBRANCH   1   2
BRANCH   1  24
ATOM     24  O   UNL A   1      39.155  21.589  25.754  1.00  0.00    -0.376 OA
BRANCH  24  25
ATOM     25  C   UNL A   1      39.996  21.958  26.827  1.00  0.00     0.202 C 
BRANCH  25  26
ATOM     26  C   UNL A   1      41.502  22.086  26.546  1.00  0.00     0.261 C 
BRANCH  26  27
ATOM     27  O   UNL A   1      42.200  23.182  27.178  1.00  0.00    -0.460 OA
BRANCH  27  28
ATOM     28  C   UNL A   1      42.161  24.369  26.519  1.00  0.00     0.338 C 
ATOM     29  O   UNL A   1      42.308  24.528  25.310  1.00  0.00    -0.246 OA
BRANCH  28  30
ATOM     30  C   UNL A   1      41.729  25.472  27.419  1.00  0.00     0.060 A 
ATOM     31  C   UNL A   1      42.556  26.599  27.544  1.00  0.00     0.016 A 
ATOM     32  C   UNL A   1      40.566  25.386  28.188  1.00  0.00     0.016 A 
ATOM     33  C   UNL A   1      42.240  27.623  28.448  1.00  0.00     0.010 A 
ATOM     34  C   UNL A   1      40.268  26.401  29.116  1.00  0.00     0.010 A 
ATOM     35  C   UNL A   1      41.114  27.515  29.275  1.00  0.00    -0.014 A 
BRANCH  35  36
ATOM     36  C   UNL A   1      40.912  28.483  30.395  1.00  0.00     0.031 A 
ATOM     37  C   UNL A   1      41.779  28.384  31.619  1.00  0.00     0.074 A 
ATOM     38  C   UNL A   1      39.984  29.458  30.339  1.00  0.00     0.049 A 
ATOM     39  N   UNL A   1      41.781  29.128  32.696  1.00  0.00    -0.248 NA
ATOM     40  C   UNL A   1      42.771  27.298  31.633  1.00  0.00     0.031 C 
ATOM     41  C   UNL A   1      39.084  29.680  29.219  1.00  0.00     0.029 A 
ATOM     42  N   UNL A   1      39.637  30.438  31.241  1.00  0.00    -0.354 N 
ATOM     43  C   UNL A   1      42.770  28.605  33.518  1.00  0.00     0.074 A 
ATOM     44  C   UNL A   1      43.326  27.459  32.826  1.00  0.00     0.031 C 
ATOM     45  C   UNL A   1      38.279  30.718  29.495  1.00  0.00     0.029 A 
ATOM     46  C   UNL A   1      38.595  31.233  30.821  1.00  0.00     0.049 A 
ATOM     47  H   UNL A   1      40.093  30.558  32.105  1.00  0.00     0.167 HD
ATOM     48  C   UNL A   1      43.183  29.040  34.733  1.00  0.00     0.037 A 
ATOM     49  C   UNL A   1      37.956  32.254  31.432  1.00  0.00     0.037 A 
ATOM     50  C   UNL A   1      42.618  30.166  35.436  1.00  0.00     0.049 A 
ATOM     51  C   UNL A   1      38.404  32.692  32.799  1.00  0.00     0.074 A 
ATOM     52  C   UNL A   1      42.992  30.687  36.663  1.00  0.00     0.029 A 
ATOM     53  N   UNL A   1      41.551  30.932  34.990  1.00  0.00    -0.354 N 
ATOM     54  N   UNL A   1      39.376  32.216  33.541  1.00  0.00    -0.248 NA
ATOM     55  C   UNL A   1      37.675  33.811  33.412  1.00  0.00     0.031 C 
ATOM     56  C   UNL A   1      42.115  31.727  36.987  1.00  0.00     0.029 A 
ATOM     57  C   UNL A   1      41.234  31.900  35.932  1.00  0.00     0.049 A 
ATOM     58  H   UNL A   1      41.088  30.808  34.131  1.00  0.00     0.167 HD
ATOM     59  C   UNL A   1      39.384  32.988  34.698  1.00  0.00     0.074 A 
ATOM     60  C   UNL A   1      38.343  33.981  34.545  1.00  0.00     0.031 C 
ATOM     61  C   UNL A   1      40.183  32.879  35.790  1.00  0.00     0.037 A 
BRANCH  48  62
ATOM     62  C   UNL A   1      44.291  28.269  35.400  1.00  0.00     0.058 A 
ATOM     63  C   UNL A   1      44.029  27.182  36.249  1.00  0.00     0.135 A 
ATOM     64  C   UNL A   1      45.633  28.606  35.162  1.00  0.00     0.135 A 
ATOM     65  F   UNL A   1      42.762  26.829  36.526  1.00  0.00    -0.206 F 
ATOM     66  C   UNL A   1      45.057  26.473  36.861  1.00  0.00     0.059 A 
ATOM     67  C   UNL A   1      46.679  27.891  35.739  1.00  0.00     0.059 A 
ATOM     68  F   UNL A   1      45.940  29.638  34.362  1.00  0.00    -0.206 F 
ATOM     69  C   UNL A   1      46.380  26.835  36.599  1.00  0.00     0.060 A 
BRANCH  69  70
ATOM     70  S   UNL A   1      47.702  25.902  37.397  1.00  0.00     0.124 S 
ATOM     71  O   UNL A   1      47.166  25.731  38.744  1.00  0.00    -0.237 OA
ATOM     72  O   UNL A   1      47.764  24.694  36.581  1.00  0.00    -0.237 OA
ATOM     73  O   UNL A   1      48.857  26.788  37.290  1.00  0.00    -0.744 OA
ENDBRANCH  69  70
ENDBRANCH  48  62
BRANCH  49  74
ATOM     74  C   UNL A   1      36.819  32.942  30.757  1.00  0.00     0.058 A 
ATOM     75  C   UNL A   1      35.489  32.649  31.098  1.00  0.00     0.135 A 
ATOM     76  C   UNL A   1      37.039  33.889  29.745  1.00  0.00     0.135 A 
ATOM     77  F   UNL A   1      35.225  31.738  32.046  1.00  0.00    -0.206 F 
ATOM     78  C   UNL A   1      34.419  33.257  30.450  1.00  0.00     0.059 A 
ATOM     79  C   UNL A   1      35.984  34.533  29.103  1.00  0.00     0.059 A 
ATOM     80  F   UNL A   1      38.290  34.211  29.382  1.00  0.00    -0.206 F 
ATOM     81  C   UNL A   1      34.678  34.203  29.458  1.00  0.00     0.060 A 
BRANCH  81  82
ATOM     82  S   UNL A   1      33.282  35.051  28.687  1.00  0.00     0.124 S 
ATOM     83  O   UNL A   1      33.951  36.110  27.943  1.00  0.00    -0.237 OA
ATOM     84  O   UNL A   1      32.687  33.983  27.890  1.00  0.00    -0.237 OA
ATOM     85  O   UNL A   1      32.483  35.485  29.830  1.00  0.00    -0.744 OA
ENDBRANCH  81  82
ENDBRANCH  49  74
BRANCH  61  86
ATOM     86  C   UNL A   1      39.967  33.872  36.902  1.00  0.00     0.058 A 
ATOM     87  C   UNL A   1      39.044  33.641  37.934  1.00  0.00     0.135 A 
ATOM     88  C   UNL A   1      40.696  35.073  36.938  1.00  0.00     0.135 A 
ATOM     89  F   UNL A   1      38.316  32.513  37.950  1.00  0.00    -0.206 F 
ATOM     90  C   UNL A   1      38.813  34.583  38.932  1.00  0.00     0.059 A 
ATOM     91  C   UNL A   1      40.508  36.014  37.946  1.00  0.00     0.059 A 
ATOM     92  F   UNL A   1      41.603  35.344  35.986  1.00  0.00    -0.206 F 
ATOM     93  C   UNL A   1      39.548  35.770  38.926  1.00  0.00     0.060 A 
BRANCH  93  94
ATOM     94  S   UNL A   1      39.231  36.990  40.220  1.00  0.00     0.124 S 
ATOM     95  O   UNL A   1      40.582  37.289  40.680  1.00  0.00    -0.237 OA
ATOM     96  O   UNL A   1      38.559  38.058  39.484  1.00  0.00    -0.237 OA
ATOM     97  O   UNL A   1      38.390  36.267  41.169  1.00  0.00    -0.744 OA
ENDBRANCH  93  94
ENDBRANCH  61  86
ENDBRANCH  35  36
ENDBRANCH  28  30
ENDBRANCH  27  28
ENDBRANCH  26  27
ENDBRANCH  25  26
ENDBRANCH  24  25
ENDBRANCH   1  24
TORSDOF 22
ENDMDL
MODEL 3
REMARK VINA RESULT:      -9.7      4.390     10.602
REMARK SMILES C/C(=C(\C#N)C(=O)OCCOCCOCCOC(=O)c1ccc(-c2c3nc(c(-c4c(F)cc(S(=O)(=O)[O-])cc4F)c4ccc([nH]4)c(-c4c(F)cc(S(=O)(=O)[O-])cc4F)c4nc(c(-c5c(F)cc(S(=O)(=O)[O-])cc5F)c5ccc2[nH]5)C=C4)C=C3)cc1)c1cccc2ccccc12
REMARK SMILES IDX 13 1 12 2 11 3 10 4 9 5 8 6 6 7 7 8 3 9 1 10 2 11 86 12
REMARK SMILES IDX 87 13 95 14 88 15 90 16 94 17 89 18 91 19 93 20 92 21 4 22
REMARK SMILES IDX 5 23 14 24 15 25 16 26 17 27 18 28 19 29 20 30 21 31 85 32
REMARK SMILES IDX 22 33 84 34 23 35 24 36 25 37 78 38 26 39 83 40 77 41 79 42
REMARK SMILES IDX 27 43 82 44 76 45 75 46 28 48 62 49 41 50 61 51 42 52 45 53
REMARK SMILES IDX 60 54 80 55 43 56 44 57 59 59 81 60 46 61 29 62 30 63 39 64
REMARK SMILES IDX 31 65 32 66 38 67 40 68 33 69 34 70 35 71 36 72 37 73 63 74
REMARK SMILES IDX 64 75 73 76 65 77 66 78 72 79 74 80 67 81 68 82 69 83 70 84
REMARK SMILES IDX 71 85 47 86 48 87 57 88 49 89 50 90 56 91 58 92 51 93 52 94
REMARK SMILES IDX 53 95 54 96 55 97
REMARK H PARENT 79 47 45 58
REMARK Flexibility Score: inf
ROOT
ATOM      1  C   UNL A   1      31.260  29.305  24.925  1.00  0.00     0.188 C 
ENDROOT
BRANCH   1   2
ATOM      2  C   UNL A   1      31.248  28.790  23.470  1.00  0.00     0.188 C 
BRANCH   2   3
ATOM      3  O   UNL A   1      31.885  27.537  23.334  1.00  0.00    -0.376 OA
BRANCH   3   4
ATOM      4  C   UNL A   1      31.528  26.770  22.200  1.00  0.00     0.202 C 
BRANCH   4   5
ATOM      5  C   UNL A   1      32.308  25.474  21.899  1.00  0.00     0.261 C 
BRANCH   5   6
ATOM      6  O   UNL A   1      32.687  24.679  23.037  1.00  0.00    -0.459 OA
BRANCH   6   7
ATOM      7  C   UNL A   1      31.701  24.023  23.705  1.00  0.00     0.349 C 
ATOM      8  O   UNL A   1      30.778  23.438  23.164  1.00  0.00    -0.245 OA
BRANCH   7   9
ATOM      9  C   UNL A   1      31.896  24.147  25.201  1.00  0.00     0.140 C 
ATOM     10  C   UNL A   1      32.122  22.862  27.367  1.00  0.00     0.047 C 
ATOM     11  C   UNL A   1      32.401  23.071  25.901  1.00  0.00    -0.018 C 
BRANCH  11  12
ATOM     12  C   UNL A   1      33.214  21.979  25.219  1.00  0.00    -0.013 A 
ATOM     13  C   UNL A   1      32.472  20.855  24.848  1.00  0.00     0.009 A 
ATOM     14  C   UNL A   1      34.631  21.899  25.003  1.00  0.00    -0.011 A 
ATOM     15  C   UNL A   1      33.057  19.600  24.706  1.00  0.00     0.001 A 
ATOM     16  C   UNL A   1      35.223  20.602  24.937  1.00  0.00    -0.018 A 
ATOM     17  C   UNL A   1      35.513  22.978  24.738  1.00  0.00     0.009 A 
ATOM     18  C   UNL A   1      34.424  19.463  24.872  1.00  0.00     0.009 A 
ATOM     19  C   UNL A   1      36.611  20.429  24.831  1.00  0.00     0.009 A 
ATOM     20  C   UNL A   1      36.878  22.777  24.464  1.00  0.00     0.001 A 
ATOM     21  C   UNL A   1      37.437  21.512  24.567  1.00  0.00     0.001 A 
ENDBRANCH  11  12
BRANCH   9  22
ATOM     22  C   UNL A   1      30.920  25.136  25.821  1.00  0.00     0.107 C 
ATOM     23  N   UNL A   1      30.111  25.956  26.333  1.00  0.00    -0.192 NA
ENDBRANCH   9  22
ENDBRANCH   7   9
ENDBRANCH   6   7
ENDBRANCH   5   6
ENDBRANCH   4   5
ENDBRANCH   3   4
ENDBRANCH   2   3
ENDBRANCH   1   2
BRANCH   1  24
ATOM     24  O   UNL A   1      32.061  30.418  25.275  1.00  0.00    -0.376 OA
BRANCH  24  25
ATOM     25  C   UNL A   1      31.715  31.128  26.445  1.00  0.00     0.202 C 
BRANCH  25  26
ATOM     26  C   UNL A   1      32.796  31.301  27.525  1.00  0.00     0.261 C 
BRANCH  26  27
ATOM     27  O   UNL A   1      34.136  30.875  27.190  1.00  0.00    -0.460 OA
BRANCH  27  28
ATOM     28  C   UNL A   1      34.490  29.636  27.623  1.00  0.00     0.338 C 
ATOM     29  O   UNL A   1      33.797  28.625  27.558  1.00  0.00    -0.246 OA
BRANCH  28  30
ATOM     30  C   UNL A   1      35.919  29.597  28.034  1.00  0.00     0.060 A 
ATOM     31  C   UNL A   1      36.905  29.767  27.050  1.00  0.00     0.016 A 
ATOM     32  C   UNL A   1      36.302  29.331  29.350  1.00  0.00     0.016 A 
ATOM     33  C   UNL A   1      38.265  29.647  27.370  1.00  0.00     0.010 A 
ATOM     34  C   UNL A   1      37.667  29.182  29.662  1.00  0.00     0.010 A 
ATOM     35  C   UNL A   1      38.659  29.311  28.672  1.00  0.00    -0.014 A 
BRANCH  35  36
ATOM     36  C   UNL A   1      40.081  28.953  28.954  1.00  0.00     0.031 A 
ATOM     37  C   UNL A   1      40.977  29.962  29.617  1.00  0.00     0.074 A 
ATOM     38  C   UNL A   1      40.589  27.743  28.646  1.00  0.00     0.049 A 
ATOM     39  N   UNL A   1      42.235  29.854  29.961  1.00  0.00    -0.248 NA
ATOM     40  C   UNL A   1      40.377  31.268  29.924  1.00  0.00     0.031 C 
ATOM     41  C   UNL A   1      39.842  26.668  28.014  1.00  0.00     0.029 A 
ATOM     42  N   UNL A   1      41.848  27.215  28.815  1.00  0.00    -0.354 N 
ATOM     43  C   UNL A   1      42.581  31.074  30.528  1.00  0.00     0.074 A 
ATOM     44  C   UNL A   1      41.405  31.919  30.449  1.00  0.00     0.031 C 
ATOM     45  C   UNL A   1      40.648  25.611  27.835  1.00  0.00     0.029 A 
ATOM     46  C   UNL A   1      41.981  25.934  28.329  1.00  0.00     0.049 A 
ATOM     47  H   UNL A   1      42.585  27.708  29.244  1.00  0.00     0.167 HD
ATOM     48  C   UNL A   1      43.764  31.456  31.068  1.00  0.00     0.037 A 
ATOM     49  C   UNL A   1      43.051  25.112  28.274  1.00  0.00     0.037 A 
ATOM     50  C   UNL A   1      44.942  30.626  31.127  1.00  0.00     0.049 A 
ATOM     51  C   UNL A   1      44.365  25.573  28.842  1.00  0.00     0.074 A 
ATOM     52  C   UNL A   1      46.177  30.928  31.678  1.00  0.00     0.029 A 
ATOM     53  N   UNL A   1      45.045  29.345  30.606  1.00  0.00    -0.354 N 
ATOM     54  N   UNL A   1      44.660  26.714  29.419  1.00  0.00    -0.248 NA
ATOM     55  C   UNL A   1      45.493  24.634  28.759  1.00  0.00     0.031 C 
ATOM     56  C   UNL A   1      47.042  29.856  31.435  1.00  0.00     0.029 A 
ATOM     57  C   UNL A   1      46.331  28.857  30.794  1.00  0.00     0.049 A 
ATOM     58  H   UNL A   1      44.313  28.853  30.169  1.00  0.00     0.167 HD
ATOM     59  C   UNL A   1      46.000  26.622  29.782  1.00  0.00     0.074 A 
ATOM     60  C   UNL A   1      46.449  25.303  29.388  1.00  0.00     0.031 C 
ATOM     61  C   UNL A   1      46.785  27.550  30.384  1.00  0.00     0.037 A 
BRANCH  48  62
ATOM     62  C   UNL A   1      43.850  32.854  31.615  1.00  0.00     0.058 A 
ATOM     63  C   UNL A   1      44.303  33.929  30.833  1.00  0.00     0.135 A 
ATOM     64  C   UNL A   1      43.447  33.128  32.933  1.00  0.00     0.135 A 
ATOM     65  F   UNL A   1      44.719  33.720  29.573  1.00  0.00    -0.206 F 
ATOM     66  C   UNL A   1      44.379  35.219  31.344  1.00  0.00     0.059 A 
ATOM     67  C   UNL A   1      43.486  34.417  33.456  1.00  0.00     0.059 A 
ATOM     68  F   UNL A   1      43.009  32.138  33.725  1.00  0.00    -0.206 F 
ATOM     69  C   UNL A   1      43.967  35.454  32.658  1.00  0.00     0.060 A 
BRANCH  69  70
ATOM     70  S   UNL A   1      44.068  37.136  33.305  1.00  0.00     0.124 S 
ATOM     71  O   UNL A   1      42.877  37.197  34.145  1.00  0.00    -0.237 OA
ATOM     72  O   UNL A   1      45.343  37.118  34.014  1.00  0.00    -0.237 OA
ATOM     73  O   UNL A   1      44.033  37.966  32.104  1.00  0.00    -0.744 OA
ENDBRANCH  69  70
ENDBRANCH  48  62
BRANCH  49  74
ATOM     74  C   UNL A   1      42.931  23.759  27.660  1.00  0.00     0.058 A 
ATOM     75  C   UNL A   1      42.540  22.648  28.423  1.00  0.00     0.135 A 
ATOM     76  C   UNL A   1      43.226  23.547  26.305  1.00  0.00     0.135 A 
ATOM     77  F   UNL A   1      42.265  22.794  29.728  1.00  0.00    -0.206 F 
ATOM     78  C   UNL A   1      42.461  21.374  27.871  1.00  0.00     0.059 A 
ATOM     79  C   UNL A   1      43.125  22.286  25.721  1.00  0.00     0.059 A 
ATOM     80  F   UNL A   1      43.600  24.574  25.527  1.00  0.00    -0.206 F 
ATOM     81  C   UNL A   1      42.749  21.205  26.516  1.00  0.00     0.060 A 
BRANCH  81  82
ATOM     82  S   UNL A   1      42.555  19.563  25.790  1.00  0.00     0.124 S 
ATOM     83  O   UNL A   1      43.471  19.629  24.658  1.00  0.00    -0.237 OA
ATOM     84  O   UNL A   1      42.959  18.699  26.894  1.00  0.00    -0.237 OA
ATOM     85  O   UNL A   1      41.135  19.512  25.454  1.00  0.00    -0.744 OA
ENDBRANCH  81  82
ENDBRANCH  49  74
BRANCH  61  86
ATOM     86  C   UNL A   1      48.214  27.163  30.666  1.00  0.00     0.058 A 
ATOM     87  C   UNL A   1      48.569  26.408  31.796  1.00  0.00     0.135 A 
ATOM     88  C   UNL A   1      49.244  27.551  29.794  1.00  0.00     0.135 A 
ATOM     89  F   UNL A   1      47.627  26.012  32.667  1.00  0.00    -0.206 F 
ATOM     90  C   UNL A   1      49.895  26.095  32.078  1.00  0.00     0.059 A 
ATOM     91  C   UNL A   1      50.575  27.219  30.036  1.00  0.00     0.059 A 
ATOM     92  F   UNL A   1      48.965  28.263  28.690  1.00  0.00    -0.206 F 
ATOM     93  C   UNL A   1      50.893  26.510  31.193  1.00  0.00     0.060 A 
BRANCH  93  94
ATOM     94  S   UNL A   1      52.611  26.108  31.576  1.00  0.00     0.124 S 
ATOM     95  O   UNL A   1      52.470  24.815  32.237  1.00  0.00    -0.237 OA
ATOM     96  O   UNL A   1      53.227  26.080  30.253  1.00  0.00    -0.237 OA
ATOM     97  O   UNL A   1      53.034  27.210  32.435  1.00  0.00    -0.744 OA
ENDBRANCH  93  94
ENDBRANCH  61  86
ENDBRANCH  35  36
ENDBRANCH  28  30
ENDBRANCH  27  28
ENDBRANCH  26  27
ENDBRANCH  25  26
ENDBRANCH  24  25
ENDBRANCH   1  24
TORSDOF 22
ENDMDL
