MODEL 1
REMARK VINA RESULT:     -10.3      0.000      0.000
REMARK SMILES CC1=C(C#N)C(=O)N(C)C(=O)/C1=C\Nc1ccc(C(=O)OCCOCCOCCOC(=O)c2ccc(-c3c4nc(c(-c5c(F)cc(S(=O)(=O)[O-])cc5F)c5ccc([nH]5)c(-c5c(F)cc(S(=O)(=O)[O-])cc5F)c5nc(c(-c6c(F)cc(S(=O)(=O)[O-])cc6F)c6ccc3[nH]6)C=C5)C=C4)cc2)c(O)c1
REMARK SMILES IDX 25 1 24 2 23 3 22 4 21 5 19 6 20 7 18 8 15 9 16 10 101 11
REMARK SMILES IDX 17 12 99 13 14 14 13 16 1 17 2 18 3 19 12 20 6 21 10 22 7 23
REMARK SMILES IDX 8 24 11 25 9 26 4 27 5 28 100 29 26 31 27 32 28 33 29 34
REMARK SMILES IDX 30 35 31 36 32 37 33 38 34 39 98 40 35 41 97 42 36 43 37 44
REMARK SMILES IDX 38 45 91 46 39 47 96 48 90 49 92 50 40 51 95 52 89 53 88 54
REMARK SMILES IDX 41 56 75 57 54 58 74 59 55 60 58 61 73 62 93 63 56 64 57 65
REMARK SMILES IDX 72 67 94 68 59 69 42 70 43 71 52 72 44 73 45 74 51 75 53 76
REMARK SMILES IDX 46 77 47 78 48 79 49 80 50 81 76 82 77 83 86 84 78 85 79 86
REMARK SMILES IDX 85 87 87 88 80 89 81 90 82 91 83 92 84 93 60 94 61 95 70 96
REMARK SMILES IDX 62 97 63 98 69 99 71 100 64 101 65 102 66 103 67 104 68 105
REMARK H PARENT 14 15 100 30 92 55 58 66
REMARK Flexibility Score: inf
ROOT
ATOM      1  C   UNL A   1      43.070  21.862  27.046  1.00  0.00     0.188 C 
ENDROOT
BRANCH   1   2
ATOM      2  O   UNL A   1      41.713  21.624  27.384  1.00  0.00    -0.376 OA
BRANCH   2   3
ATOM      3  C   UNL A   1      40.671  22.287  26.683  1.00  0.00     0.202 C 
BRANCH   3   4
ATOM      4  C   UNL A   1      39.382  21.556  26.267  1.00  0.00     0.261 C 
BRANCH   4   5
ATOM      5  O   UNL A   1      38.230  22.389  26.044  1.00  0.00    -0.460 OA
BRANCH   5   6
ATOM      6  C   UNL A   1      37.335  21.906  25.140  1.00  0.00     0.341 C 
ATOM      7  O   UNL A   1      37.525  20.999  24.345  1.00  0.00    -0.246 OA
BRANCH   6   8
ATOM      8  C   UNL A   1      36.002  22.517  25.358  1.00  0.00     0.101 A 
ATOM      9  C   UNL A   1      33.561  23.844  25.883  1.00  0.00     0.042 A 
ATOM     10  C   UNL A   1      34.674  24.560  25.438  1.00  0.00     0.027 A 
ATOM     11  C   UNL A   1      33.666  22.443  25.972  1.00  0.00     0.073 A 
ATOM     12  C   UNL A   1      35.896  23.909  25.218  1.00  0.00     0.022 A 
ATOM     13  C   UNL A   1      34.862  21.781  25.679  1.00  0.00     0.132 A 
BRANCH   9  14
ATOM     14  N   UNL A   1      32.338  24.447  26.213  1.00  0.00    -0.361 N 
ATOM     15  H   UNL A   1      31.563  23.841  26.189  1.00  0.00     0.166 HD
BRANCH  14  16
ATOM     16  C   UNL A   1      32.037  25.746  26.567  1.00  0.00     0.097 C 
ATOM     17  C   UNL A   1      31.914  28.513  27.626  1.00  0.00     0.047 C 
ATOM     18  C   UNL A   1      31.606  28.186  26.179  1.00  0.00    -0.013 C 
ATOM     19  C   UNL A   1      31.271  29.147  25.286  1.00  0.00     0.121 C 
ATOM     20  C   UNL A   1      31.737  26.785  25.748  1.00  0.00     0.060 C 
ATOM     21  C   UNL A   1      30.965  28.826  23.872  1.00  0.00     0.271 C 
ATOM     22  C   UNL A   1      31.560  26.464  24.281  1.00  0.00     0.262 C 
ATOM     23  O   UNL A   1      30.642  29.719  23.091  1.00  0.00    -0.268 OA
ATOM     24  N   UNL A   1      31.084  27.498  23.486  1.00  0.00    -0.277 N 
ATOM     25  O   UNL A   1      31.830  25.351  23.827  1.00  0.00    -0.269 OA
ATOM     26  C   UNL A   1      30.760  27.200  22.101  1.00  0.00     0.157 C 
BRANCH  19  27
ATOM     27  C   UNL A   1      31.184  30.608  25.695  1.00  0.00     0.105 C 
ATOM     28  N   UNL A   1      31.113  31.821  26.033  1.00  0.00    -0.192 NA
ENDBRANCH  19  27
ENDBRANCH  14  16
ENDBRANCH   9  14
BRANCH  13  29
ATOM     29  O   UNL A   1      34.833  20.414  25.709  1.00  0.00    -0.507 OA
ATOM     30  H   UNL A   1      34.019  19.964  25.814  1.00  0.00     0.293 HD
ENDBRANCH  13  29
ENDBRANCH   6   8
ENDBRANCH   5   6
ENDBRANCH   4   5
ENDBRANCH   3   4
ENDBRANCH   2   3
ENDBRANCH   1   2
BRANCH   1  31
ATOM     31  C   UNL A   1      43.623  21.347  25.701  1.00  0.00     0.188 C 
BRANCH  31  32
ATOM     32  O   UNL A   1      43.660  22.305  24.671  1.00  0.00    -0.376 OA
BRANCH  32  33
ATOM     33  C   UNL A   1      44.118  23.617  24.953  1.00  0.00     0.202 C 
BRANCH  33  34
ATOM     34  C   UNL A   1      43.239  24.883  25.059  1.00  0.00     0.261 C 
BRANCH  34  35
ATOM     35  O   UNL A   1      43.798  26.074  25.621  1.00  0.00    -0.460 OA
BRANCH  35  36
ATOM     36  C   UNL A   1      43.030  27.186  25.567  1.00  0.00     0.338 C 
ATOM     37  O   UNL A   1      42.433  27.622  24.592  1.00  0.00    -0.246 OA
BRANCH  36  38
ATOM     38  C   UNL A   1      42.870  27.710  26.937  1.00  0.00     0.060 A 
ATOM     39  C   UNL A   1      42.106  26.982  27.859  1.00  0.00     0.016 A 
ATOM     40  C   UNL A   1      43.457  28.923  27.303  1.00  0.00     0.016 A 
ATOM     41  C   UNL A   1      41.912  27.475  29.150  1.00  0.00     0.010 A 
ATOM     42  C   UNL A   1      43.243  29.426  28.591  1.00  0.00     0.010 A 
ATOM     43  C   UNL A   1      42.449  28.718  29.512  1.00  0.00    -0.014 A 
BRANCH  43  44
ATOM     44  C   UNL A   1      42.048  29.359  30.790  1.00  0.00     0.031 A 
ATOM     45  C   UNL A   1      40.805  30.208  30.811  1.00  0.00     0.074 A 
ATOM     46  C   UNL A   1      42.770  29.191  31.913  1.00  0.00     0.049 A 
ATOM     47  N   UNL A   1      40.301  30.919  31.784  1.00  0.00    -0.248 NA
ATOM     48  C   UNL A   1      40.028  30.260  29.562  1.00  0.00     0.031 C 
ATOM     49  C   UNL A   1      43.971  28.365  32.031  1.00  0.00     0.029 A 
ATOM     50  N   UNL A   1      42.604  29.725  33.167  1.00  0.00    -0.354 N 
ATOM     51  C   UNL A   1      39.158  31.515  31.265  1.00  0.00     0.074 A 
ATOM     52  C   UNL A   1      39.056  31.100  29.882  1.00  0.00     0.031 C 
ATOM     53  C   UNL A   1      44.444  28.462  33.286  1.00  0.00     0.029 A 
ATOM     54  C   UNL A   1      43.603  29.385  34.049  1.00  0.00     0.049 A 
ATOM     55  H   UNL A   1      41.842  30.297  33.413  1.00  0.00     0.167 HD
ATOM     56  C   UNL A   1      38.270  32.327  31.885  1.00  0.00     0.037 A 
ATOM     57  C   UNL A   1      43.828  29.794  35.314  1.00  0.00     0.037 A 
ATOM     58  C   UNL A   1      38.380  32.742  33.259  1.00  0.00     0.049 A 
ATOM     59  C   UNL A   1      42.865  30.758  35.962  1.00  0.00     0.074 A 
ATOM     60  C   UNL A   1      37.521  33.550  33.984  1.00  0.00     0.029 A 
ATOM     61  N   UNL A   1      39.416  32.394  34.113  1.00  0.00    -0.354 N 
ATOM     62  N   UNL A   1      41.773  31.292  35.470  1.00  0.00    -0.248 NA
ATOM     63  C   UNL A   1      43.166  31.176  37.340  1.00  0.00     0.031 C 
ATOM     64  C   UNL A   1      38.068  33.735  35.259  1.00  0.00     0.029 A 
ATOM     65  C   UNL A   1      39.233  32.992  35.349  1.00  0.00     0.049 A 
ATOM     66  H   UNL A   1      40.171  31.808  33.875  1.00  0.00     0.167 HD
ATOM     67  C   UNL A   1      41.239  32.080  36.487  1.00  0.00     0.074 A 
ATOM     68  C   UNL A   1      42.125  31.946  37.625  1.00  0.00     0.031 C 
ATOM     69  C   UNL A   1      40.117  32.842  36.479  1.00  0.00     0.037 A 
BRANCH  56  70
ATOM     70  C   UNL A   1      37.115  32.848  31.073  1.00  0.00     0.058 A 
ATOM     71  C   UNL A   1      35.825  32.306  31.187  1.00  0.00     0.135 A 
ATOM     72  C   UNL A   1      37.296  33.926  30.191  1.00  0.00     0.135 A 
ATOM     73  F   UNL A   1      35.599  31.261  31.999  1.00  0.00    -0.206 F 
ATOM     74  C   UNL A   1      34.761  32.798  30.438  1.00  0.00     0.059 A 
ATOM     75  C   UNL A   1      36.240  34.454  29.454  1.00  0.00     0.059 A 
ATOM     76  F   UNL A   1      38.510  34.480  30.039  1.00  0.00    -0.206 F 
ATOM     77  C   UNL A   1      34.979  33.873  29.574  1.00  0.00     0.060 A 
BRANCH  77  78
ATOM     78  S   UNL A   1      33.586  34.502  28.613  1.00  0.00     0.124 S 
ATOM     79  O   UNL A   1      33.284  33.358  27.758  1.00  0.00    -0.237 OA
ATOM     80  O   UNL A   1      32.601  34.798  29.649  1.00  0.00    -0.237 OA
ATOM     81  O   UNL A   1      34.142  35.665  27.928  1.00  0.00    -0.744 OA
ENDBRANCH  77  78
ENDBRANCH  56  70
BRANCH  57  82
ATOM     82  C   UNL A   1      45.024  29.306  36.055  1.00  0.00     0.058 A 
ATOM     83  C   UNL A   1      44.967  28.147  36.844  1.00  0.00     0.135 A 
ATOM     84  C   UNL A   1      46.246  29.996  35.997  1.00  0.00     0.135 A 
ATOM     85  F   UNL A   1      43.819  27.460  36.943  1.00  0.00    -0.206 F 
ATOM     86  C   UNL A   1      46.072  27.697  37.559  1.00  0.00     0.059 A 
ATOM     87  C   UNL A   1      47.372  29.549  36.681  1.00  0.00     0.059 A 
ATOM     88  F   UNL A   1      46.356  31.107  35.252  1.00  0.00    -0.206 F 
ATOM     89  C   UNL A   1      47.272  28.403  37.468  1.00  0.00     0.060 A 
BRANCH  89  90
ATOM     90  S   UNL A   1      48.712  27.781  38.363  1.00  0.00     0.124 S 
ATOM     91  O   UNL A   1      48.198  27.696  39.725  1.00  0.00    -0.237 OA
ATOM     92  O   UNL A   1      48.960  26.507  37.693  1.00  0.00    -0.237 OA
ATOM     93  O   UNL A   1      49.722  28.809  38.132  1.00  0.00    -0.744 OA
ENDBRANCH  89  90
ENDBRANCH  57  82
BRANCH  69  94
ATOM     94  C   UNL A   1      39.747  33.558  37.753  1.00  0.00     0.058 A 
ATOM     95  C   UNL A   1      38.814  33.031  38.658  1.00  0.00     0.135 A 
ATOM     96  C   UNL A   1      40.387  34.761  38.099  1.00  0.00     0.135 A 
ATOM     97  F   UNL A   1      38.170  31.888  38.377  1.00  0.00    -0.206 F 
ATOM     98  C   UNL A   1      38.509  33.683  39.850  1.00  0.00     0.059 A 
ATOM     99  C   UNL A   1      40.120  35.413  39.299  1.00  0.00     0.059 A 
ATOM    100  F   UNL A   1      41.297  35.305  37.276  1.00  0.00    -0.206 F 
ATOM    101  C   UNL A   1      39.170  34.872  40.163  1.00  0.00     0.060 A 
BRANCH 101 102
ATOM    102  S   UNL A   1      38.791  35.687  41.730  1.00  0.00     0.124 S 
ATOM    103  O   UNL A   1      39.792  35.101  42.614  1.00  0.00    -0.237 OA
ATOM    104  O   UNL A   1      38.981  37.096  41.402  1.00  0.00    -0.237 OA
ATOM    105  O   UNL A   1      37.411  35.292  41.995  1.00  0.00    -0.744 OA
ENDBRANCH 101 102
ENDBRANCH  69  94
ENDBRANCH  43  44
ENDBRANCH  36  38
ENDBRANCH  35  36
ENDBRANCH  34  35
ENDBRANCH  33  34
ENDBRANCH  32  33
ENDBRANCH  31  32
ENDBRANCH   1  31
TORSDOF 24
ENDMDL
MODEL 2
REMARK VINA RESULT:      -9.7      1.374      2.201
REMARK SMILES CC1=C(C#N)C(=O)N(C)C(=O)/C1=C\Nc1ccc(C(=O)OCCOCCOCCOC(=O)c2ccc(-c3c4nc(c(-c5c(F)cc(S(=O)(=O)[O-])cc5F)c5ccc([nH]5)c(-c5c(F)cc(S(=O)(=O)[O-])cc5F)c5nc(c(-c6c(F)cc(S(=O)(=O)[O-])cc6F)c6ccc3[nH]6)C=C5)C=C4)cc2)c(O)c1
REMARK SMILES IDX 25 1 24 2 23 3 22 4 21 5 19 6 20 7 18 8 15 9 16 10 101 11
REMARK SMILES IDX 17 12 99 13 14 14 13 16 1 17 2 18 3 19 12 20 6 21 10 22 7 23
REMARK SMILES IDX 8 24 11 25 9 26 4 27 5 28 100 29 26 31 27 32 28 33 29 34
REMARK SMILES IDX 30 35 31 36 32 37 33 38 34 39 98 40 35 41 97 42 36 43 37 44
REMARK SMILES IDX 38 45 91 46 39 47 96 48 90 49 92 50 40 51 95 52 89 53 88 54
REMARK SMILES IDX 41 56 75 57 54 58 74 59 55 60 58 61 73 62 93 63 56 64 57 65
REMARK SMILES IDX 72 67 94 68 59 69 42 70 43 71 52 72 44 73 45 74 51 75 53 76
REMARK SMILES IDX 46 77 47 78 48 79 49 80 50 81 76 82 77 83 86 84 78 85 79 86
REMARK SMILES IDX 85 87 87 88 80 89 81 90 82 91 83 92 84 93 60 94 61 95 70 96
REMARK SMILES IDX 62 97 63 98 69 99 71 100 64 101 65 102 66 103 67 104 68 105
REMARK H PARENT 14 15 100 30 92 55 58 66
REMARK Flexibility Score: inf
ROOT
ATOM      1  C   UNL A   1      42.441  22.152  27.355  1.00  0.00     0.188 C 
ENDROOT
BRANCH   1   2
ATOM      2  O   UNL A   1      41.272  21.388  27.105  1.00  0.00    -0.376 OA
BRANCH   2   3
ATOM      3  C   UNL A   1      40.205  21.935  26.345  1.00  0.00     0.202 C 
BRANCH   3   4
ATOM      4  C   UNL A   1      39.056  21.059  25.814  1.00  0.00     0.261 C 
BRANCH   4   5
ATOM      5  O   UNL A   1      38.040  21.743  25.059  1.00  0.00    -0.460 OA
BRANCH   5   6
ATOM      6  C   UNL A   1      36.863  21.071  24.933  1.00  0.00     0.341 C 
ATOM      7  O   UNL A   1      36.716  19.858  24.946  1.00  0.00    -0.246 OA
BRANCH   6   8
ATOM      8  C   UNL A   1      35.724  22.018  24.948  1.00  0.00     0.101 A 
ATOM      9  C   UNL A   1      33.682  23.973  24.881  1.00  0.00     0.042 A 
ATOM     10  C   UNL A   1      34.487  23.752  23.761  1.00  0.00     0.027 A 
ATOM     11  C   UNL A   1      33.858  23.137  26.000  1.00  0.00     0.073 A 
ATOM     12  C   UNL A   1      35.526  22.812  23.807  1.00  0.00     0.022 A 
ATOM     13  C   UNL A   1      34.844  22.147  26.022  1.00  0.00     0.132 A 
BRANCH   9  14
ATOM     14  N   UNL A   1      32.690  24.964  24.933  1.00  0.00    -0.361 N 
ATOM     15  H   UNL A   1      31.899  24.779  24.377  1.00  0.00     0.166 HD
BRANCH  14  16
ATOM     16  C   UNL A   1      32.634  26.152  25.631  1.00  0.00     0.097 C 
ATOM     17  C   UNL A   1      33.117  28.658  27.141  1.00  0.00     0.047 C 
ATOM     18  C   UNL A   1      32.161  28.592  25.968  1.00  0.00    -0.013 C 
ATOM     19  C   UNL A   1      31.485  29.683  25.536  1.00  0.00     0.121 C 
ATOM     20  C   UNL A   1      32.026  27.307  25.262  1.00  0.00     0.060 C 
ATOM     21  C   UNL A   1      30.546  29.616  24.392  1.00  0.00     0.271 C 
ATOM     22  C   UNL A   1      31.176  27.259  24.012  1.00  0.00     0.262 C 
ATOM     23  O   UNL A   1      29.929  30.620  24.038  1.00  0.00    -0.268 OA
ATOM     24  N   UNL A   1      30.424  28.394  23.745  1.00  0.00    -0.277 N 
ATOM     25  O   UNL A   1      31.165  26.269  23.279  1.00  0.00    -0.269 OA
ATOM     26  C   UNL A   1      29.483  28.344  22.638  1.00  0.00     0.157 C 
BRANCH  19  27
ATOM     27  C   UNL A   1      31.650  31.033  26.214  1.00  0.00     0.105 C 
ATOM     28  N   UNL A   1      31.787  32.154  26.775  1.00  0.00    -0.192 NA
ENDBRANCH  19  27
ENDBRANCH  14  16
ENDBRANCH   9  14
BRANCH  13  29
ATOM     29  O   UNL A   1      34.873  21.330  27.119  1.00  0.00    -0.507 OA
ATOM     30  H   UNL A   1      35.693  21.096  27.507  1.00  0.00     0.293 HD
ENDBRANCH  13  29
ENDBRANCH   6   8
ENDBRANCH   5   6
ENDBRANCH   4   5
ENDBRANCH   3   4
ENDBRANCH   2   3
ENDBRANCH   1   2
BRANCH   1  31
ATOM     31  C   UNL A   1      43.545  22.233  26.281  1.00  0.00     0.188 C 
BRANCH  31  32
ATOM     32  O   UNL A   1      43.232  23.039  25.171  1.00  0.00    -0.376 OA
BRANCH  32  33
ATOM     33  C   UNL A   1      43.671  24.387  25.141  1.00  0.00     0.202 C 
BRANCH  33  34
ATOM     34  C   UNL A   1      43.311  25.484  26.169  1.00  0.00     0.261 C 
BRANCH  34  35
ATOM     35  O   UNL A   1      42.294  26.435  25.844  1.00  0.00    -0.460 OA
BRANCH  35  36
ATOM     36  C   UNL A   1      41.049  26.171  26.306  1.00  0.00     0.338 C 
ATOM     37  O   UNL A   1      40.283  25.306  25.904  1.00  0.00    -0.246 OA
BRANCH  36  38
ATOM     38  C   UNL A   1      40.818  26.983  27.515  1.00  0.00     0.060 A 
ATOM     39  C   UNL A   1      41.397  28.256  27.602  1.00  0.00     0.016 A 
ATOM     40  C   UNL A   1      40.047  26.482  28.566  1.00  0.00     0.016 A 
ATOM     41  C   UNL A   1      41.221  29.027  28.751  1.00  0.00     0.010 A 
ATOM     42  C   UNL A   1      39.890  27.249  29.726  1.00  0.00     0.010 A 
ATOM     43  C   UNL A   1      40.497  28.513  29.835  1.00  0.00    -0.014 A 
BRANCH  43  44
ATOM     44  C   UNL A   1      40.509  29.219  31.142  1.00  0.00     0.031 A 
ATOM     45  C   UNL A   1      39.475  30.283  31.394  1.00  0.00     0.074 A 
ATOM     46  C   UNL A   1      41.418  28.922  32.088  1.00  0.00     0.049 A 
ATOM     47  N   UNL A   1      39.334  31.077  32.422  1.00  0.00    -0.248 NA
ATOM     48  C   UNL A   1      38.465  30.476  30.341  1.00  0.00     0.031 C 
ATOM     49  C   UNL A   1      42.446  27.888  31.979  1.00  0.00     0.029 A 
ATOM     50  N   UNL A   1      41.630  29.479  33.325  1.00  0.00    -0.354 N 
ATOM     51  C   UNL A   1      38.231  31.873  32.137  1.00  0.00     0.074 A 
ATOM     52  C   UNL A   1      37.755  31.482  30.828  1.00  0.00     0.031 C 
ATOM     53  C   UNL A   1      43.194  27.898  33.097  1.00  0.00     0.029 A 
ATOM     54  C   UNL A   1      42.721  28.961  33.984  1.00  0.00     0.049 A 
ATOM     55  H   UNL A   1      41.057  30.183  33.705  1.00  0.00     0.167 HD
ATOM     56  C   UNL A   1      37.662  32.837  32.900  1.00  0.00     0.037 A 
ATOM     57  C   UNL A   1      43.288  29.324  35.152  1.00  0.00     0.037 A 
ATOM     58  C   UNL A   1      38.145  33.226  34.199  1.00  0.00     0.049 A 
ATOM     59  C   UNL A   1      42.682  30.451  35.952  1.00  0.00     0.074 A 
ATOM     60  C   UNL A   1      37.626  34.180  35.057  1.00  0.00     0.029 A 
ATOM     61  N   UNL A   1      39.263  32.694  34.823  1.00  0.00    -0.354 N 
ATOM     62  N   UNL A   1      41.622  31.177  35.685  1.00  0.00    -0.248 NA
ATOM     63  C   UNL A   1      43.348  30.807  37.213  1.00  0.00     0.031 C 
ATOM     64  C   UNL A   1      38.465  34.263  36.175  1.00  0.00     0.029 A 
ATOM     65  C   UNL A   1      39.467  33.317  36.043  1.00  0.00     0.049 A 
ATOM     66  H   UNL A   1      39.829  31.978  34.453  1.00  0.00     0.167 HD
ATOM     67  C   UNL A   1      41.476  32.052  36.759  1.00  0.00     0.074 A 
ATOM     68  C   UNL A   1      42.552  31.758  37.683  1.00  0.00     0.031 C 
ATOM     69  C   UNL A   1      40.536  33.008  36.961  1.00  0.00     0.037 A 
BRANCH  56  70
ATOM     70  C   UNL A   1      36.471  33.561  32.335  1.00  0.00     0.058 A 
ATOM     71  C   UNL A   1      36.579  34.413  31.224  1.00  0.00     0.135 A 
ATOM     72  C   UNL A   1      35.195  33.373  32.893  1.00  0.00     0.135 A 
ATOM     73  F   UNL A   1      37.776  34.645  30.664  1.00  0.00    -0.206 F 
ATOM     74  C   UNL A   1      35.470  35.073  30.704  1.00  0.00     0.059 A 
ATOM     75  C   UNL A   1      34.068  34.000  32.370  1.00  0.00     0.059 A 
ATOM     76  F   UNL A   1      35.034  32.572  33.959  1.00  0.00    -0.206 F 
ATOM     77  C   UNL A   1      34.218  34.859  31.284  1.00  0.00     0.060 A 
BRANCH  77  78
ATOM     78  S   UNL A   1      32.790  35.721  30.593  1.00  0.00     0.124 S 
ATOM     79  O   UNL A   1      31.771  35.448  31.601  1.00  0.00    -0.237 OA
ATOM     80  O   UNL A   1      33.262  37.101  30.526  1.00  0.00    -0.237 OA
ATOM     81  O   UNL A   1      32.588  35.067  29.304  1.00  0.00    -0.744 OA
ENDBRANCH  77  78
ENDBRANCH  56  70
BRANCH  57  82
ATOM     82  C   UNL A   1      44.510  28.624  35.638  1.00  0.00     0.058 A 
ATOM     83  C   UNL A   1      45.790  29.041  35.244  1.00  0.00     0.135 A 
ATOM     84  C   UNL A   1      44.420  27.517  36.496  1.00  0.00     0.135 A 
ATOM     85  F   UNL A   1      45.929  30.085  34.414  1.00  0.00    -0.206 F 
ATOM     86  C   UNL A   1      46.936  28.379  35.673  1.00  0.00     0.059 A 
ATOM     87  C   UNL A   1      45.554  26.856  36.961  1.00  0.00     0.059 A 
ATOM     88  F   UNL A   1      43.220  27.080  36.908  1.00  0.00    -0.206 F 
ATOM     89  C   UNL A   1      46.808  27.289  36.534  1.00  0.00     0.060 A 
BRANCH  89  90
ATOM     90  S   UNL A   1      48.307  26.469  37.121  1.00  0.00     0.124 S 
ATOM     91  O   UNL A   1      48.870  25.960  35.876  1.00  0.00    -0.237 OA
ATOM     92  O   UNL A   1      49.032  27.571  37.747  1.00  0.00    -0.237 OA
ATOM     93  O   UNL A   1      47.797  25.459  38.044  1.00  0.00    -0.744 OA
ENDBRANCH  89  90
ENDBRANCH  57  82
BRANCH  69  94
ATOM     94  C   UNL A   1      40.591  33.782  38.253  1.00  0.00     0.058 A 
ATOM     95  C   UNL A   1      41.387  34.927  38.401  1.00  0.00     0.135 A 
ATOM     96  C   UNL A   1      39.781  33.404  39.339  1.00  0.00     0.135 A 
ATOM     97  F   UNL A   1      42.183  35.331  37.399  1.00  0.00    -0.206 F 
ATOM     98  C   UNL A   1      41.400  35.657  39.587  1.00  0.00     0.059 A 
ATOM     99  C   UNL A   1      39.755  34.136  40.522  1.00  0.00     0.059 A 
ATOM    100  F   UNL A   1      38.990  32.323  39.249  1.00  0.00    -0.206 F 
ATOM    101  C   UNL A   1      40.577  35.254  40.641  1.00  0.00     0.060 A 
BRANCH 101 102
ATOM    102  S   UNL A   1      40.576  36.231  42.160  1.00  0.00     0.124 S 
ATOM    103  O   UNL A   1      40.680  35.191  43.178  1.00  0.00    -0.237 OA
ATOM    104  O   UNL A   1      41.756  37.073  41.991  1.00  0.00    -0.237 OA
ATOM    105  O   UNL A   1      39.298  36.935  42.111  1.00  0.00    -0.744 OA
ENDBRANCH 101 102
ENDBRANCH  69  94
ENDBRANCH  43  44
ENDBRANCH  36  38
ENDBRANCH  35  36
ENDBRANCH  34  35
ENDBRANCH  33  34
ENDBRANCH  32  33
ENDBRANCH  31  32
ENDBRANCH   1  31
TORSDOF 24
ENDMDL
MODEL 3
REMARK VINA RESULT:      -9.4      5.106     10.602
REMARK SMILES CC1=C(C#N)C(=O)N(C)C(=O)/C1=C\Nc1ccc(C(=O)OCCOCCOCCOC(=O)c2ccc(-c3c4nc(c(-c5c(F)cc(S(=O)(=O)[O-])cc5F)c5ccc([nH]5)c(-c5c(F)cc(S(=O)(=O)[O-])cc5F)c5nc(c(-c6c(F)cc(S(=O)(=O)[O-])cc6F)c6ccc3[nH]6)C=C5)C=C4)cc2)c(O)c1
REMARK SMILES IDX 25 1 24 2 23 3 22 4 21 5 19 6 20 7 18 8 15 9 16 10 101 11
REMARK SMILES IDX 17 12 99 13 14 14 13 16 1 17 2 18 3 19 12 20 6 21 10 22 7 23
REMARK SMILES IDX 8 24 11 25 9 26 4 27 5 28 100 29 26 31 27 32 28 33 29 34
REMARK SMILES IDX 30 35 31 36 32 37 33 38 34 39 98 40 35 41 97 42 36 43 37 44
REMARK SMILES IDX 38 45 91 46 39 47 96 48 90 49 92 50 40 51 95 52 89 53 88 54
REMARK SMILES IDX 41 56 75 57 54 58 74 59 55 60 58 61 73 62 93 63 56 64 57 65
REMARK SMILES IDX 72 67 94 68 59 69 42 70 43 71 52 72 44 73 45 74 51 75 53 76
REMARK SMILES IDX 46 77 47 78 48 79 49 80 50 81 76 82 77 83 86 84 78 85 79 86
REMARK SMILES IDX 85 87 87 88 80 89 81 90 82 91 83 92 84 93 60 94 61 95 70 96
REMARK SMILES IDX 62 97 63 98 69 99 71 100 64 101 65 102 66 103 67 104 68 105
REMARK H PARENT 14 15 100 30 92 55 58 66
REMARK Flexibility Score: inf
ROOT
ATOM      1  C   UNL A   1      33.523  28.267  24.053  1.00  0.00     0.188 C 
ENDROOT
BRANCH   1   2
ATOM      2  O   UNL A   1      33.028  26.940  23.954  1.00  0.00    -0.376 OA
BRANCH   2   3
ATOM      3  C   UNL A   1      32.522  26.453  22.721  1.00  0.00     0.202 C 
BRANCH   3   4
ATOM      4  C   UNL A   1      31.873  25.062  22.605  1.00  0.00     0.261 C 
BRANCH   4   5
ATOM      5  O   UNL A   1      32.515  24.004  23.341  1.00  0.00    -0.460 OA
BRANCH   5   6
ATOM      6  C   UNL A   1      33.662  23.528  22.787  1.00  0.00     0.341 C 
ATOM      7  O   UNL A   1      33.864  23.328  21.598  1.00  0.00    -0.246 OA
BRANCH   6   8
ATOM      8  C   UNL A   1      34.731  23.438  23.809  1.00  0.00     0.101 A 
ATOM      9  C   UNL A   1      36.675  23.438  25.862  1.00  0.00     0.042 A 
ATOM     10  C   UNL A   1      35.319  23.559  26.172  1.00  0.00     0.027 A 
ATOM     11  C   UNL A   1      37.032  23.226  24.517  1.00  0.00     0.073 A 
ATOM     12  C   UNL A   1      34.358  23.601  25.152  1.00  0.00     0.022 A 
ATOM     13  C   UNL A   1      36.069  23.191  23.504  1.00  0.00     0.132 A 
BRANCH   9  14
ATOM     14  N   UNL A   1      37.693  23.486  26.826  1.00  0.00    -0.361 N 
ATOM     15  H   UNL A   1      37.607  22.819  27.545  1.00  0.00     0.166 HD
BRANCH  14  16
ATOM     16  C   UNL A   1      38.795  24.308  26.938  1.00  0.00     0.097 C 
ATOM     17  C   UNL A   1      40.879  26.288  27.668  1.00  0.00     0.047 C 
ATOM     18  C   UNL A   1      41.216  24.861  27.285  1.00  0.00    -0.013 C 
ATOM     19  C   UNL A   1      42.493  24.410  27.270  1.00  0.00     0.121 C 
ATOM     20  C   UNL A   1      40.103  23.949  26.979  1.00  0.00     0.060 C 
ATOM     21  C   UNL A   1      42.823  23.017  26.890  1.00  0.00     0.271 C 
ATOM     22  C   UNL A   1      40.416  22.492  26.723  1.00  0.00     0.262 C 
ATOM     23  O   UNL A   1      43.995  22.644  26.865  1.00  0.00    -0.268 OA
ATOM     24  N   UNL A   1      41.761  22.173  26.596  1.00  0.00    -0.277 N 
ATOM     25  O   UNL A   1      39.524  21.646  26.639  1.00  0.00    -0.269 OA
ATOM     26  C   UNL A   1      42.107  20.817  26.206  1.00  0.00     0.157 C 
BRANCH  19  27
ATOM     27  C   UNL A   1      43.655  25.319  27.636  1.00  0.00     0.105 C 
ATOM     28  N   UNL A   1      44.619  26.073  27.940  1.00  0.00    -0.192 NA
ENDBRANCH  19  27
ENDBRANCH  14  16
ENDBRANCH   9  14
BRANCH  13  29
ATOM     29  O   UNL A   1      36.509  22.889  22.245  1.00  0.00    -0.507 OA
ATOM     30  H   UNL A   1      36.504  22.002  21.946  1.00  0.00     0.293 HD
ENDBRANCH  13  29
ENDBRANCH   6   8
ENDBRANCH   5   6
ENDBRANCH   4   5
ENDBRANCH   3   4
ENDBRANCH   2   3
ENDBRANCH   1   2
BRANCH   1  31
ATOM     31  C   UNL A   1      32.665  29.353  24.734  1.00  0.00     0.188 C 
BRANCH  31  32
ATOM     32  O   UNL A   1      32.720  29.356  26.140  1.00  0.00    -0.376 OA
BRANCH  32  33
ATOM     33  C   UNL A   1      33.698  30.144  26.799  1.00  0.00     0.202 C 
BRANCH  33  34
ATOM     34  C   UNL A   1      33.421  31.372  27.696  1.00  0.00     0.261 C 
BRANCH  34  35
ATOM     35  O   UNL A   1      34.312  32.489  27.641  1.00  0.00    -0.460 OA
BRANCH  35  36
ATOM     36  C   UNL A   1      34.438  33.218  28.774  1.00  0.00     0.338 C 
ATOM     37  O   UNL A   1      33.542  33.777  29.393  1.00  0.00    -0.246 OA
BRANCH  36  38
ATOM     38  C   UNL A   1      35.823  33.087  29.263  1.00  0.00     0.060 A 
ATOM     39  C   UNL A   1      36.236  33.861  30.355  1.00  0.00     0.016 A 
ATOM     40  C   UNL A   1      36.715  32.215  28.635  1.00  0.00     0.016 A 
ATOM     41  C   UNL A   1      37.552  33.779  30.813  1.00  0.00     0.010 A 
ATOM     42  C   UNL A   1      38.039  32.150  29.082  1.00  0.00     0.010 A 
ATOM     43  C   UNL A   1      38.471  32.950  30.156  1.00  0.00    -0.014 A 
BRANCH  43  44
ATOM     44  C   UNL A   1      39.918  33.039  30.478  1.00  0.00     0.031 A 
ATOM     45  C   UNL A   1      40.514  32.007  31.399  1.00  0.00     0.074 A 
ATOM     46  C   UNL A   1      40.690  34.013  29.965  1.00  0.00     0.049 A 
ATOM     47  N   UNL A   1      41.726  31.923  31.877  1.00  0.00    -0.248 NA
ATOM     48  C   UNL A   1      39.616  30.927  31.839  1.00  0.00     0.031 C 
ATOM     49  C   UNL A   1      40.241  35.048  29.035  1.00  0.00     0.029 A 
ATOM     50  N   UNL A   1      42.018  34.299  30.171  1.00  0.00    -0.354 N 
ATOM     51  C   UNL A   1      41.737  30.791  32.684  1.00  0.00     0.074 A 
ATOM     52  C   UNL A   1      40.402  30.235  32.649  1.00  0.00     0.031 C 
ATOM     53  C   UNL A   1      41.272  35.867  28.764  1.00  0.00     0.029 A 
ATOM     54  C   UNL A   1      42.443  35.439  29.529  1.00  0.00     0.049 A 
ATOM     55  H   UNL A   1      42.609  33.741  30.725  1.00  0.00     0.167 HD
ATOM     56  C   UNL A   1      42.767  30.260  33.384  1.00  0.00     0.037 A 
ATOM     57  C   UNL A   1      43.630  36.077  29.578  1.00  0.00     0.037 A 
ATOM     58  C   UNL A   1      44.092  30.822  33.420  1.00  0.00     0.049 A 
ATOM     59  C   UNL A   1      44.742  35.508  30.424  1.00  0.00     0.074 A 
ATOM     60  C   UNL A   1      45.209  30.347  34.087  1.00  0.00     0.029 A 
ATOM     61  N   UNL A   1      44.478  31.988  32.776  1.00  0.00    -0.354 N 
ATOM     62  N   UNL A   1      44.748  34.421  31.159  1.00  0.00    -0.248 NA
ATOM     63  C   UNL A   1      46.011  36.251  30.445  1.00  0.00     0.031 C 
ATOM     64  C   UNL A   1      46.254  31.257  33.890  1.00  0.00     0.029 A 
ATOM     65  C   UNL A   1      45.808  32.263  33.049  1.00  0.00     0.049 A 
ATOM     66  H   UNL A   1      43.893  32.538  32.206  1.00  0.00     0.167 HD
ATOM     67  C   UNL A   1      46.028  34.334  31.703  1.00  0.00     0.074 A 
ATOM     68  C   UNL A   1      46.770  35.473  31.204  1.00  0.00     0.031 C 
ATOM     69  C   UNL A   1      46.541  33.395  32.537  1.00  0.00     0.037 A 
BRANCH  56  70
ATOM     70  C   UNL A   1      42.495  29.022  34.195  1.00  0.00     0.058 A 
ATOM     71  C   UNL A   1      42.758  27.736  33.697  1.00  0.00     0.135 A 
ATOM     72  C   UNL A   1      41.992  29.126  35.503  1.00  0.00     0.135 A 
ATOM     73  F   UNL A   1      43.220  27.577  32.446  1.00  0.00    -0.206 F 
ATOM     74  C   UNL A   1      42.510  26.598  34.456  1.00  0.00     0.059 A 
ATOM     75  C   UNL A   1      41.764  28.002  36.291  1.00  0.00     0.059 A 
ATOM     76  F   UNL A   1      41.718  30.331  36.029  1.00  0.00    -0.206 F 
ATOM     77  C   UNL A   1      42.014  26.741  35.753  1.00  0.00     0.060 A 
BRANCH  77  78
ATOM     78  S   UNL A   1      41.701  25.253  36.726  1.00  0.00     0.124 S 
ATOM     79  O   UNL A   1      41.463  24.266  35.678  1.00  0.00    -0.237 OA
ATOM     80  O   UNL A   1      42.948  25.100  37.470  1.00  0.00    -0.237 OA
ATOM     81  O   UNL A   1      40.535  25.609  37.528  1.00  0.00    -0.744 OA
ENDBRANCH  77  78
ENDBRANCH  56  70
BRANCH  57  82
ATOM     82  C   UNL A   1      43.830  37.339  28.813  1.00  0.00     0.058 A 
ATOM     83  C   UNL A   1      43.671  38.591  29.424  1.00  0.00     0.135 A 
ATOM     84  C   UNL A   1      44.175  37.316  27.452  1.00  0.00     0.135 A 
ATOM     85  F   UNL A   1      43.329  38.667  30.719  1.00  0.00    -0.206 F 
ATOM     86  C   UNL A   1      43.833  39.775  28.713  1.00  0.00     0.059 A 
ATOM     87  C   UNL A   1      44.369  38.488  26.726  1.00  0.00     0.059 A 
ATOM     88  F   UNL A   1      44.345  36.145  26.820  1.00  0.00    -0.206 F 
ATOM     89  C   UNL A   1      44.186  39.714  27.364  1.00  0.00     0.060 A 
BRANCH  89  90
ATOM     90  S   UNL A   1      44.440  41.259  26.464  1.00  0.00     0.124 S 
ATOM     91  O   UNL A   1      43.245  41.313  25.630  1.00  0.00    -0.237 OA
ATOM     92  O   UNL A   1      44.508  42.235  27.548  1.00  0.00    -0.237 OA
ATOM     93  O   UNL A   1      45.695  41.033  25.755  1.00  0.00    -0.744 OA
ENDBRANCH  89  90
ENDBRANCH  57  82
BRANCH  69  94
ATOM     94  C   UNL A   1      47.989  33.524  32.931  1.00  0.00     0.058 A 
ATOM     95  C   UNL A   1      48.386  34.182  34.104  1.00  0.00     0.135 A 
ATOM     96  C   UNL A   1      48.991  32.921  32.150  1.00  0.00     0.135 A 
ATOM     97  F   UNL A   1      47.472  34.780  34.885  1.00  0.00    -0.206 F 
ATOM     98  C   UNL A   1      49.725  34.261  34.478  1.00  0.00     0.059 A 
ATOM     99  C   UNL A   1      50.332  32.961  32.520  1.00  0.00     0.059 A 
ATOM    100  F   UNL A   1      48.668  32.267  31.023  1.00  0.00    -0.206 F 
ATOM    101  C   UNL A   1      50.690  33.644  33.680  1.00  0.00     0.060 A 
BRANCH 101 102
ATOM    102  S   UNL A   1      52.419  33.722  34.197  1.00  0.00     0.124 S 
ATOM    103  O   UNL A   1      53.073  32.944  33.149  1.00  0.00    -0.237 OA
ATOM    104  O   UNL A   1      52.685  35.157  34.181  1.00  0.00    -0.237 OA
ATOM    105  O   UNL A   1      52.408  33.107  35.520  1.00  0.00    -0.744 OA
ENDBRANCH 101 102
ENDBRANCH  69  94
ENDBRANCH  43  44
ENDBRANCH  36  38
ENDBRANCH  35  36
ENDBRANCH  34  35
ENDBRANCH  33  34
ENDBRANCH  32  33
ENDBRANCH  31  32
ENDBRANCH   1  31
TORSDOF 24
ENDMDL
