MODEL 1
REMARK VINA RESULT:     -10.2      0.000      0.000
REMARK SMILES Cc1cc([N+](=O)[O-])ccc1NC(=O)[C@@H]1[C@@H](C(=O)OCCOCCOCCOC(=O)c2ccc(-c3c4nc(c(-c5c(F)cc(S(=O)(=O)[O-])cc5F)c5ccc([nH]5)c(-c5c(F)cc(S(=O)(=O)[O-])cc5F)c5nc(c(-c6c(F)cc(S(=O)(=O)[O-])cc6F)c6ccc3[nH]6)C=C5)C=C4)cc2)[C@H]2C=C[C@@H]1C2
REMARK SMILES IDX 22 1 21 2 20 3 19 4 18 5 16 6 17 7 15 8 14 9 99 10 96 11
REMARK SMILES IDX 98 12 100 13 97 14 12 15 11 16 13 18 10 19 1 20 2 21 3 22
REMARK SMILES IDX 4 23 9 24 8 25 5 26 6 27 7 28 23 29 24 30 25 31 26 32 27 33
REMARK SMILES IDX 28 34 29 35 30 36 31 37 95 38 32 39 94 40 33 41 34 42 35 43
REMARK SMILES IDX 88 44 36 45 93 46 87 47 89 48 37 49 92 50 86 51 85 52 38 54
REMARK SMILES IDX 72 55 51 56 71 57 52 58 55 59 70 60 90 61 53 62 54 63 69 65
REMARK SMILES IDX 91 66 56 67 39 68 40 69 49 70 41 71 42 72 48 73 50 74 43 75
REMARK SMILES IDX 44 76 45 77 46 78 47 79 73 80 74 81 83 82 75 83 76 84 82 85
REMARK SMILES IDX 84 86 77 87 78 88 79 89 80 90 81 91 57 92 58 93 67 94 59 95
REMARK SMILES IDX 60 96 66 97 68 98 61 99 62 100 63 101 64 102 65 103
REMARK H PARENT 11 17 89 53 55 64
REMARK Flexibility Score: inf
ROOT
ATOM      1  C   UNL A   1      33.364  29.324  24.774  1.00  0.00     0.188 C 
ENDROOT
BRANCH   1   2
ATOM      2  O   UNL A   1      33.660  27.994  24.373  1.00  0.00    -0.376 OA
BRANCH   2   3
ATOM      3  C   UNL A   1      33.657  27.904  22.949  1.00  0.00     0.202 C 
BRANCH   3   4
ATOM      4  C   UNL A   1      33.633  26.479  22.376  1.00  0.00     0.261 C 
BRANCH   4   5
ATOM      5  O   UNL A   1      33.923  25.122  23.029  1.00  0.00    -0.463 OA
BRANCH   5   6
ATOM      6  C   UNL A   1      34.132  23.882  22.496  1.00  0.00     0.310 C 
ATOM      7  O   UNL A   1      33.630  23.640  21.406  1.00  0.00    -0.252 OA
BRANCH   6   8
ATOM      8  C   UNL A   1      34.738  22.717  23.386  1.00  0.00     0.119 C 
ATOM      9  C   UNL A   1      34.338  22.738  24.928  1.00  0.00     0.100 C 
ATOM     10  C   UNL A   1      35.604  22.149  25.678  1.00  0.00     0.025 C 
ATOM     11  C   UNL A   1      36.297  22.592  23.642  1.00  0.00     0.027 C 
ATOM     12  C   UNL A   1      36.603  23.258  25.826  1.00  0.00    -0.027 C 
ATOM     13  C   UNL A   1      36.302  21.377  24.582  1.00  0.00     0.017 C 
ATOM     14  C   UNL A   1      36.939  23.596  24.583  1.00  0.00    -0.027 C 
BRANCH   9  15
ATOM     15  C   UNL A   1      33.189  21.898  25.400  1.00  0.00     0.228 C 
ATOM     16  N   UNL A   1      31.890  22.351  25.282  1.00  0.00    -0.326 N 
ATOM     17  H   UNL A   1      31.237  21.665  25.551  1.00  0.00     0.169 HD
ATOM     18  O   UNL A   1      33.385  20.852  26.027  1.00  0.00    -0.274 OA
BRANCH  16  19
ATOM     19  C   UNL A   1      31.255  23.559  24.871  1.00  0.00     0.044 A 
ATOM     20  C   UNL A   1      31.775  24.666  27.141  1.00  0.00     0.047 C 
ATOM     21  C   UNL A   1      31.230  24.672  25.738  1.00  0.00    -0.021 A 
ATOM     22  C   UNL A   1      30.634  25.894  25.318  1.00  0.00     0.091 A 
ATOM     23  C   UNL A   1      30.081  26.030  24.042  1.00  0.00     0.269 A 
ATOM     24  C   UNL A   1      30.662  23.747  23.618  1.00  0.00     0.033 A 
ATOM     25  C   UNL A   1      30.098  24.951  23.180  1.00  0.00     0.088 A 
BRANCH  23  26
ATOM     26  N   UNL A   1      29.459  27.291  23.622  1.00  0.00     0.062 N 
ATOM     27  O   UNL A   1      30.188  28.291  23.543  1.00  0.00    -0.258 OA
ATOM     28  O   UNL A   1      28.245  27.289  23.377  1.00  0.00    -0.258 OA
ENDBRANCH  23  26
ENDBRANCH  16  19
ENDBRANCH   9  15
ENDBRANCH   6   8
ENDBRANCH   5   6
ENDBRANCH   4   5
ENDBRANCH   3   4
ENDBRANCH   2   3
ENDBRANCH   1   2
BRANCH   1  29
ATOM     29  C   UNL A   1      33.094  29.424  26.277  1.00  0.00     0.188 C 
BRANCH  29  30
ATOM     30  O   UNL A   1      34.234  29.202  27.100  1.00  0.00    -0.376 OA
BRANCH  30  31
ATOM     31  C   UNL A   1      34.884  30.370  27.601  1.00  0.00     0.202 C 
BRANCH  31  32
ATOM     32  C   UNL A   1      33.805  31.438  27.756  1.00  0.00     0.261 C 
BRANCH  32  33
ATOM     33  O   UNL A   1      34.423  32.744  27.842  1.00  0.00    -0.460 OA
BRANCH  33  34
ATOM     34  C   UNL A   1      34.071  33.468  28.939  1.00  0.00     0.338 C 
ATOM     35  O   UNL A   1      32.965  33.948  29.136  1.00  0.00    -0.246 OA
BRANCH  34  36
ATOM     36  C   UNL A   1      35.279  33.696  29.793  1.00  0.00     0.060 A 
ATOM     37  C   UNL A   1      36.431  34.188  29.207  1.00  0.00     0.016 A 
ATOM     38  C   UNL A   1      35.358  33.249  31.117  1.00  0.00     0.016 A 
ATOM     39  C   UNL A   1      37.657  34.047  29.879  1.00  0.00     0.010 A 
ATOM     40  C   UNL A   1      36.608  33.003  31.719  1.00  0.00     0.010 A 
ATOM     41  C   UNL A   1      37.806  33.247  31.036  1.00  0.00    -0.014 A 
BRANCH  41  42
ATOM     42  C   UNL A   1      39.088  32.671  31.670  1.00  0.00     0.031 A 
ATOM     43  C   UNL A   1      39.405  31.279  31.223  1.00  0.00     0.074 A 
ATOM     44  C   UNL A   1      40.004  33.114  32.634  1.00  0.00     0.049 A 
ATOM     45  N   UNL A   1      40.270  30.507  31.802  1.00  0.00    -0.248 NA
ATOM     46  C   UNL A   1      38.648  30.585  30.174  1.00  0.00     0.031 C 
ATOM     47  C   UNL A   1      41.453  32.871  32.506  1.00  0.00     0.029 A 
ATOM     48  N   UNL A   1      40.023  33.919  33.800  1.00  0.00    -0.354 N 
ATOM     49  C   UNL A   1      40.508  29.503  30.909  1.00  0.00     0.074 A 
ATOM     50  C   UNL A   1      39.302  29.420  30.135  1.00  0.00     0.031 C 
ATOM     51  C   UNL A   1      42.120  33.336  33.579  1.00  0.00     0.029 A 
ATOM     52  C   UNL A   1      41.183  33.853  34.559  1.00  0.00     0.049 A 
ATOM     53  H   UNL A   1      39.261  34.490  34.055  1.00  0.00     0.167 HD
ATOM     54  C   UNL A   1      41.796  29.113  30.707  1.00  0.00     0.037 A 
ATOM     55  C   UNL A   1      41.322  33.916  35.930  1.00  0.00     0.037 A 
ATOM     56  C   UNL A   1      42.692  29.543  31.790  1.00  0.00     0.049 A 
ATOM     57  C   UNL A   1      42.055  32.673  36.388  1.00  0.00     0.074 A 
ATOM     58  C   UNL A   1      43.801  30.373  31.835  1.00  0.00     0.029 A 
ATOM     59  N   UNL A   1      42.385  29.241  33.121  1.00  0.00    -0.354 N 
ATOM     60  N   UNL A   1      42.329  31.719  35.550  1.00  0.00    -0.248 NA
ATOM     61  C   UNL A   1      42.466  32.324  37.746  1.00  0.00     0.031 C 
ATOM     62  C   UNL A   1      44.157  30.569  33.195  1.00  0.00     0.029 A 
ATOM     63  C   UNL A   1      43.289  29.832  33.984  1.00  0.00     0.049 A 
ATOM     64  H   UNL A   1      41.626  28.681  33.404  1.00  0.00     0.167 HD
ATOM     65  C   UNL A   1      42.916  30.670  36.176  1.00  0.00     0.074 A 
ATOM     66  C   UNL A   1      42.975  31.086  37.565  1.00  0.00     0.031 C 
ATOM     67  C   UNL A   1      43.259  29.580  35.430  1.00  0.00     0.037 A 
BRANCH  54  68
ATOM     68  C   UNL A   1      42.291  28.561  29.374  1.00  0.00     0.058 A 
ATOM     69  C   UNL A   1      42.431  29.413  28.257  1.00  0.00     0.135 A 
ATOM     70  C   UNL A   1      42.536  27.195  29.090  1.00  0.00     0.135 A 
ATOM     71  F   UNL A   1      42.173  30.726  28.352  1.00  0.00    -0.206 F 
ATOM     72  C   UNL A   1      42.811  28.954  26.989  1.00  0.00     0.059 A 
ATOM     73  C   UNL A   1      42.983  26.726  27.858  1.00  0.00     0.059 A 
ATOM     74  F   UNL A   1      42.282  26.210  29.957  1.00  0.00    -0.206 F 
ATOM     75  C   UNL A   1      43.104  27.609  26.805  1.00  0.00     0.060 A 
BRANCH  75  76
ATOM     76  S   UNL A   1      43.631  27.002  25.195  1.00  0.00     0.124 S 
ATOM     77  O   UNL A   1      42.750  27.738  24.295  1.00  0.00    -0.237 OA
ATOM     78  O   UNL A   1      45.040  27.378  25.164  1.00  0.00    -0.237 OA
ATOM     79  O   UNL A   1      43.377  25.565  25.277  1.00  0.00    -0.744 OA
ENDBRANCH  75  76
ENDBRANCH  54  68
BRANCH  55  80
ATOM     80  C   UNL A   1      40.383  34.702  36.814  1.00  0.00     0.058 A 
ATOM     81  C   UNL A   1      39.420  34.034  37.597  1.00  0.00     0.135 A 
ATOM     82  C   UNL A   1      40.510  36.074  37.072  1.00  0.00     0.135 A 
ATOM     83  F   UNL A   1      39.117  32.755  37.323  1.00  0.00    -0.206 F 
ATOM     84  C   UNL A   1      38.818  34.617  38.726  1.00  0.00     0.059 A 
ATOM     85  C   UNL A   1      39.933  36.687  38.202  1.00  0.00     0.059 A 
ATOM     86  F   UNL A   1      41.300  36.816  36.289  1.00  0.00    -0.206 F 
ATOM     87  C   UNL A   1      39.169  35.917  39.082  1.00  0.00     0.060 A 
BRANCH  87  88
ATOM     88  S   UNL A   1      39.007  36.463  40.819  1.00  0.00     0.124 S 
ATOM     89  O   UNL A   1      40.280  36.046  41.396  1.00  0.00    -0.237 OA
ATOM     90  O   UNL A   1      38.815  37.908  40.715  1.00  0.00    -0.237 OA
ATOM     91  O   UNL A   1      37.836  35.722  41.279  1.00  0.00    -0.744 OA
ENDBRANCH  87  88
ENDBRANCH  55  80
BRANCH  67  92
ATOM     92  C   UNL A   1      43.723  28.240  35.938  1.00  0.00     0.058 A 
ATOM     93  C   UNL A   1      42.897  27.122  36.132  1.00  0.00     0.135 A 
ATOM     94  C   UNL A   1      45.109  28.013  36.139  1.00  0.00     0.135 A 
ATOM     95  F   UNL A   1      41.582  27.168  35.873  1.00  0.00    -0.206 F 
ATOM     96  C   UNL A   1      43.398  25.888  36.555  1.00  0.00     0.059 A 
ATOM     97  C   UNL A   1      45.634  26.783  36.505  1.00  0.00     0.059 A 
ATOM     98  F   UNL A   1      46.018  28.984  35.972  1.00  0.00    -0.206 F 
ATOM     99  C   UNL A   1      44.769  25.730  36.740  1.00  0.00     0.060 A 
BRANCH  99 100
ATOM    100  S   UNL A   1      45.435  24.136  37.235  1.00  0.00     0.124 S 
ATOM    101  O   UNL A   1      44.750  23.236  36.314  1.00  0.00    -0.237 OA
ATOM    102  O   UNL A   1      46.868  24.304  37.010  1.00  0.00    -0.237 OA
ATOM    103  O   UNL A   1      45.039  24.026  38.636  1.00  0.00    -0.744 OA
ENDBRANCH  99 100
ENDBRANCH  67  92
ENDBRANCH  41  42
ENDBRANCH  34  36
ENDBRANCH  33  34
ENDBRANCH  32  33
ENDBRANCH  31  32
ENDBRANCH  30  31
ENDBRANCH  29  30
ENDBRANCH   1  29
TORSDOF 23
ENDMDL
MODEL 2
REMARK VINA RESULT:      -9.8      5.475      6.694
REMARK SMILES Cc1cc([N+](=O)[O-])ccc1NC(=O)[C@@H]1[C@@H](C(=O)OCCOCCOCCOC(=O)c2ccc(-c3c4nc(c(-c5c(F)cc(S(=O)(=O)[O-])cc5F)c5ccc([nH]5)c(-c5c(F)cc(S(=O)(=O)[O-])cc5F)c5nc(c(-c6c(F)cc(S(=O)(=O)[O-])cc6F)c6ccc3[nH]6)C=C5)C=C4)cc2)[C@H]2C=C[C@@H]1C2
REMARK SMILES IDX 22 1 21 2 20 3 19 4 18 5 16 6 17 7 15 8 14 9 99 10 96 11
REMARK SMILES IDX 98 12 100 13 97 14 12 15 11 16 13 18 10 19 1 20 2 21 3 22
REMARK SMILES IDX 4 23 9 24 8 25 5 26 6 27 7 28 23 29 24 30 25 31 26 32 27 33
REMARK SMILES IDX 28 34 29 35 30 36 31 37 95 38 32 39 94 40 33 41 34 42 35 43
REMARK SMILES IDX 88 44 36 45 93 46 87 47 89 48 37 49 92 50 86 51 85 52 38 54
REMARK SMILES IDX 72 55 51 56 71 57 52 58 55 59 70 60 90 61 53 62 54 63 69 65
REMARK SMILES IDX 91 66 56 67 39 68 40 69 49 70 41 71 42 72 48 73 50 74 43 75
REMARK SMILES IDX 44 76 45 77 46 78 47 79 73 80 74 81 83 82 75 83 76 84 82 85
REMARK SMILES IDX 84 86 77 87 78 88 79 89 80 90 81 91 57 92 58 93 67 94 59 95
REMARK SMILES IDX 60 96 66 97 68 98 61 99 62 100 63 101 64 102 65 103
REMARK H PARENT 11 17 89 53 55 64
REMARK Flexibility Score: inf
ROOT
ATOM      1  C   UNL A   1      33.448  29.308  24.214  1.00  0.00     0.188 C 
ENDROOT
BRANCH   1   2
ATOM      2  O   UNL A   1      32.825  28.213  23.559  1.00  0.00    -0.376 OA
BRANCH   2   3
ATOM      3  C   UNL A   1      33.667  27.733  22.510  1.00  0.00     0.202 C 
BRANCH   3   4
ATOM      4  C   UNL A   1      33.508  26.244  22.165  1.00  0.00     0.261 C 
BRANCH   4   5
ATOM      5  O   UNL A   1      33.810  24.980  22.979  1.00  0.00    -0.463 OA
BRANCH   5   6
ATOM      6  C   UNL A   1      34.080  23.696  22.597  1.00  0.00     0.310 C 
ATOM      7  O   UNL A   1      33.652  23.323  21.514  1.00  0.00    -0.252 OA
BRANCH   6   8
ATOM      8  C   UNL A   1      34.658  22.653  23.644  1.00  0.00     0.119 C 
ATOM      9  C   UNL A   1      34.279  22.913  25.170  1.00  0.00     0.100 C 
ATOM     10  C   UNL A   1      35.534  22.395  25.987  1.00  0.00     0.025 C 
ATOM     11  C   UNL A   1      36.215  22.512  23.904  1.00  0.00     0.027 C 
ATOM     12  C   UNL A   1      36.571  23.478  25.964  1.00  0.00    -0.027 C 
ATOM     13  C   UNL A   1      36.191  21.448  25.011  1.00  0.00     0.017 C 
ATOM     14  C   UNL A   1      36.903  23.619  24.682  1.00  0.00    -0.027 C 
BRANCH   9  15
ATOM     15  C   UNL A   1      33.108  22.192  25.768  1.00  0.00     0.228 C 
ATOM     16  N   UNL A   1      31.821  22.647  25.563  1.00  0.00    -0.326 N 
ATOM     17  H   UNL A   1      31.150  22.032  25.939  1.00  0.00     0.169 HD
ATOM     18  O   UNL A   1      33.277  21.265  26.567  1.00  0.00    -0.274 OA
BRANCH  16  19
ATOM     19  C   UNL A   1      31.217  23.780  24.945  1.00  0.00     0.044 A 
ATOM     20  C   UNL A   1      31.769  25.253  26.988  1.00  0.00     0.047 C 
ATOM     21  C   UNL A   1      31.221  25.028  25.604  1.00  0.00    -0.021 A 
ATOM     22  C   UNL A   1      30.656  26.172  24.976  1.00  0.00     0.091 A 
ATOM     23  C   UNL A   1      30.104  26.098  23.694  1.00  0.00     0.269 A 
ATOM     24  C   UNL A   1      30.626  23.761  23.677  1.00  0.00     0.033 A 
ATOM     25  C   UNL A   1      30.092  24.885  23.034  1.00  0.00     0.088 A 
BRANCH  23  26
ATOM     26  N   UNL A   1      29.514  27.281  23.058  1.00  0.00     0.062 N 
ATOM     27  O   UNL A   1      30.173  27.843  22.171  1.00  0.00    -0.258 OA
ATOM     28  O   UNL A   1      28.399  27.655  23.446  1.00  0.00    -0.258 OA
ENDBRANCH  23  26
ENDBRANCH  16  19
ENDBRANCH   9  15
ENDBRANCH   6   8
ENDBRANCH   5   6
ENDBRANCH   4   5
ENDBRANCH   3   4
ENDBRANCH   2   3
ENDBRANCH   1   2
BRANCH   1  29
ATOM     29  C   UNL A   1      32.653  29.774  25.436  1.00  0.00     0.188 C 
BRANCH  29  30
ATOM     30  O   UNL A   1      32.409  28.760  26.405  1.00  0.00    -0.376 OA
BRANCH  30  31
ATOM     31  C   UNL A   1      33.093  28.901  27.649  1.00  0.00     0.202 C 
BRANCH  31  32
ATOM     32  C   UNL A   1      34.186  29.943  27.432  1.00  0.00     0.261 C 
BRANCH  32  33
ATOM     33  O   UNL A   1      35.485  29.327  27.591  1.00  0.00    -0.460 OA
BRANCH  33  34
ATOM     34  C   UNL A   1      36.195  29.768  28.665  1.00  0.00     0.338 C 
ATOM     35  O   UNL A   1      35.716  30.056  29.751  1.00  0.00    -0.246 OA
BRANCH  34  36
ATOM     36  C   UNL A   1      37.623  29.972  28.267  1.00  0.00     0.060 A 
ATOM     37  C   UNL A   1      38.051  29.500  27.039  1.00  0.00     0.016 A 
ATOM     38  C   UNL A   1      38.592  30.443  29.160  1.00  0.00     0.016 A 
ATOM     39  C   UNL A   1      39.427  29.332  26.809  1.00  0.00     0.010 A 
ATOM     40  C   UNL A   1      39.956  30.151  28.960  1.00  0.00     0.010 A 
ATOM     41  C   UNL A   1      40.391  29.430  27.840  1.00  0.00    -0.014 A 
BRANCH  41  42
ATOM     42  C   UNL A   1      41.845  28.918  27.874  1.00  0.00     0.031 A 
ATOM     43  C   UNL A   1      41.975  27.515  28.375  1.00  0.00     0.074 A 
ATOM     44  C   UNL A   1      43.101  29.482  27.614  1.00  0.00     0.049 A 
ATOM     45  N   UNL A   1      43.096  26.969  28.729  1.00  0.00    -0.248 NA
ATOM     46  C   UNL A   1      40.818  26.662  28.669  1.00  0.00     0.031 C 
ATOM     47  C   UNL A   1      44.170  28.729  26.931  1.00  0.00     0.029 A 
ATOM     48  N   UNL A   1      43.749  30.740  27.703  1.00  0.00    -0.354 N 
ATOM     49  C   UNL A   1      42.842  25.630  28.779  1.00  0.00     0.074 A 
ATOM     50  C   UNL A   1      41.436  25.544  29.061  1.00  0.00     0.031 C 
ATOM     51  C   UNL A   1      45.300  29.456  26.848  1.00  0.00     0.029 A 
ATOM     52  C   UNL A   1      45.126  30.723  27.536  1.00  0.00     0.049 A 
ATOM     53  H   UNL A   1      43.252  31.574  27.873  1.00  0.00     0.167 HD
ATOM     54  C   UNL A   1      43.757  24.780  28.239  1.00  0.00     0.037 A 
ATOM     55  C   UNL A   1      46.081  31.500  28.157  1.00  0.00     0.037 A 
ATOM     56  C   UNL A   1      45.074  25.408  28.062  1.00  0.00     0.049 A 
ATOM     57  C   UNL A   1      47.080  30.579  28.825  1.00  0.00     0.074 A 
ATOM     58  C   UNL A   1      45.861  25.672  26.952  1.00  0.00     0.029 A 
ATOM     59  N   UNL A   1      45.702  26.044  29.138  1.00  0.00    -0.354 N 
ATOM     60  N   UNL A   1      46.882  29.296  28.852  1.00  0.00    -0.248 NA
ATOM     61  C   UNL A   1      48.286  30.948  29.563  1.00  0.00     0.031 C 
ATOM     62  C   UNL A   1      46.961  26.468  27.365  1.00  0.00     0.029 A 
ATOM     63  C   UNL A   1      46.869  26.665  28.733  1.00  0.00     0.049 A 
ATOM     64  H   UNL A   1      45.358  26.048  30.061  1.00  0.00     0.167 HD
ATOM     65  C   UNL A   1      47.849  28.665  29.561  1.00  0.00     0.074 A 
ATOM     66  C   UNL A   1      48.712  29.745  30.003  1.00  0.00     0.031 C 
ATOM     67  C   UNL A   1      47.778  27.309  29.690  1.00  0.00     0.037 A 
BRANCH  54  68
ATOM     68  C   UNL A   1      43.373  23.440  27.620  1.00  0.00     0.058 A 
ATOM     69  C   UNL A   1      42.993  22.357  28.443  1.00  0.00     0.135 A 
ATOM     70  C   UNL A   1      43.462  23.114  26.245  1.00  0.00     0.135 A 
ATOM     71  F   UNL A   1      42.923  22.492  29.775  1.00  0.00    -0.206 F 
ATOM     72  C   UNL A   1      42.699  21.083  27.940  1.00  0.00     0.059 A 
ATOM     73  C   UNL A   1      43.107  21.876  25.715  1.00  0.00     0.059 A 
ATOM     74  F   UNL A   1      43.977  23.940  25.329  1.00  0.00    -0.206 F 
ATOM     75  C   UNL A   1      42.741  20.858  26.570  1.00  0.00     0.060 A 
BRANCH  75  76
ATOM     76  S   UNL A   1      42.330  19.240  25.898  1.00  0.00     0.124 S 
ATOM     77  O   UNL A   1      43.093  19.232  24.654  1.00  0.00    -0.237 OA
ATOM     78  O   UNL A   1      42.797  18.338  26.943  1.00  0.00    -0.237 OA
ATOM     79  O   UNL A   1      40.879  19.300  25.737  1.00  0.00    -0.744 OA
ENDBRANCH  75  76
ENDBRANCH  54  68
BRANCH  55  80
ATOM     80  C   UNL A   1      45.814  32.913  28.618  1.00  0.00     0.058 A 
ATOM     81  C   UNL A   1      45.675  33.196  29.991  1.00  0.00     0.135 A 
ATOM     82  C   UNL A   1      45.875  34.038  27.783  1.00  0.00     0.135 A 
ATOM     83  F   UNL A   1      45.457  32.192  30.855  1.00  0.00    -0.206 F 
ATOM     84  C   UNL A   1      45.849  34.486  30.525  1.00  0.00     0.059 A 
ATOM     85  C   UNL A   1      46.064  35.342  28.284  1.00  0.00     0.059 A 
ATOM     86  F   UNL A   1      45.872  33.868  26.457  1.00  0.00    -0.206 F 
ATOM     87  C   UNL A   1      46.153  35.537  29.664  1.00  0.00     0.060 A 
BRANCH  87  88
ATOM     88  S   UNL A   1      47.052  37.000  30.291  1.00  0.00     0.124 S 
ATOM     89  O   UNL A   1      47.596  37.579  29.069  1.00  0.00    -0.237 OA
ATOM     90  O   UNL A   1      46.014  37.794  30.947  1.00  0.00    -0.237 OA
ATOM     91  O   UNL A   1      48.032  36.408  31.197  1.00  0.00    -0.744 OA
ENDBRANCH  87  88
ENDBRANCH  55  80
BRANCH  67  92
ATOM     92  C   UNL A   1      48.611  26.435  30.591  1.00  0.00     0.058 A 
ATOM     93  C   UNL A   1      48.250  26.041  31.890  1.00  0.00     0.135 A 
ATOM     94  C   UNL A   1      49.803  25.854  30.090  1.00  0.00     0.135 A 
ATOM     95  F   UNL A   1      47.093  26.430  32.445  1.00  0.00    -0.206 F 
ATOM     96  C   UNL A   1      49.043  25.184  32.656  1.00  0.00     0.059 A 
ATOM     97  C   UNL A   1      50.577  24.958  30.813  1.00  0.00     0.059 A 
ATOM     98  F   UNL A   1      50.261  26.125  28.859  1.00  0.00    -0.206 F 
ATOM     99  C   UNL A   1      50.206  24.649  32.109  1.00  0.00     0.060 A 
BRANCH  99 100
ATOM    100  S   UNL A   1      51.211  23.506  33.064  1.00  0.00     0.124 S 
ATOM    101  O   UNL A   1      52.519  23.681  32.443  1.00  0.00    -0.237 OA
ATOM    102  O   UNL A   1      51.079  24.023  34.423  1.00  0.00    -0.237 OA
ATOM    103  O   UNL A   1      50.569  22.216  32.830  1.00  0.00    -0.744 OA
ENDBRANCH  99 100
ENDBRANCH  67  92
ENDBRANCH  41  42
ENDBRANCH  34  36
ENDBRANCH  33  34
ENDBRANCH  32  33
ENDBRANCH  31  32
ENDBRANCH  30  31
ENDBRANCH  29  30
ENDBRANCH   1  29
TORSDOF 23
ENDMDL
MODEL 3
REMARK VINA RESULT:      -9.5      2.713      8.207
REMARK SMILES Cc1cc([N+](=O)[O-])ccc1NC(=O)[C@@H]1[C@@H](C(=O)OCCOCCOCCOC(=O)c2ccc(-c3c4nc(c(-c5c(F)cc(S(=O)(=O)[O-])cc5F)c5ccc([nH]5)c(-c5c(F)cc(S(=O)(=O)[O-])cc5F)c5nc(c(-c6c(F)cc(S(=O)(=O)[O-])cc6F)c6ccc3[nH]6)C=C5)C=C4)cc2)[C@H]2C=C[C@@H]1C2
REMARK SMILES IDX 22 1 21 2 20 3 19 4 18 5 16 6 17 7 15 8 14 9 99 10 96 11
REMARK SMILES IDX 98 12 100 13 97 14 12 15 11 16 13 18 10 19 1 20 2 21 3 22
REMARK SMILES IDX 4 23 9 24 8 25 5 26 6 27 7 28 23 29 24 30 25 31 26 32 27 33
REMARK SMILES IDX 28 34 29 35 30 36 31 37 95 38 32 39 94 40 33 41 34 42 35 43
REMARK SMILES IDX 88 44 36 45 93 46 87 47 89 48 37 49 92 50 86 51 85 52 38 54
REMARK SMILES IDX 72 55 51 56 71 57 52 58 55 59 70 60 90 61 53 62 54 63 69 65
REMARK SMILES IDX 91 66 56 67 39 68 40 69 49 70 41 71 42 72 48 73 50 74 43 75
REMARK SMILES IDX 44 76 45 77 46 78 47 79 73 80 74 81 83 82 75 83 76 84 82 85
REMARK SMILES IDX 84 86 77 87 78 88 79 89 80 90 81 91 57 92 58 93 67 94 59 95
REMARK SMILES IDX 60 96 66 97 68 98 61 99 62 100 63 101 64 102 65 103
REMARK H PARENT 11 17 89 53 55 64
REMARK Flexibility Score: inf
ROOT
ATOM      1  C   UNL A   1      37.554  20.956  25.569  1.00  0.00     0.188 C 
ENDROOT
BRANCH   1   2
ATOM      2  O   UNL A   1      36.317  21.653  25.589  1.00  0.00    -0.376 OA
BRANCH   2   3
ATOM      3  C   UNL A   1      35.835  21.825  24.256  1.00  0.00     0.202 C 
BRANCH   3   4
ATOM      4  C   UNL A   1      35.802  23.275  23.748  1.00  0.00     0.261 C 
BRANCH   4   5
ATOM      5  O   UNL A   1      34.653  24.128  23.197  1.00  0.00    -0.463 OA
BRANCH   5   6
ATOM      6  C   UNL A   1      33.421  23.790  22.715  1.00  0.00     0.310 C 
ATOM      7  O   UNL A   1      33.272  23.768  21.500  1.00  0.00    -0.252 OA
BRANCH   6   8
ATOM      8  C   UNL A   1      32.168  23.728  23.686  1.00  0.00     0.119 C 
ATOM      9  C   UNL A   1      32.023  24.936  24.716  1.00  0.00     0.100 C 
ATOM     10  C   UNL A   1      31.358  24.289  26.000  1.00  0.00     0.025 C 
ATOM     11  C   UNL A   1      32.017  22.588  24.777  1.00  0.00     0.027 C 
ATOM     12  C   UNL A   1      32.445  23.623  26.790  1.00  0.00    -0.027 C 
ATOM     13  C   UNL A   1      30.708  23.044  25.440  1.00  0.00     0.017 C 
ATOM     14  C   UNL A   1      32.915  22.660  25.999  1.00  0.00    -0.027 C 
BRANCH   9  15
ATOM     15  C   UNL A   1      31.136  26.095  24.368  1.00  0.00     0.228 C 
ATOM     16  N   UNL A   1      31.491  27.382  24.718  1.00  0.00    -0.326 N 
ATOM     17  H   UNL A   1      30.863  28.047  24.353  1.00  0.00     0.169 HD
ATOM     18  O   UNL A   1      30.012  25.910  23.891  1.00  0.00    -0.274 OA
BRANCH  16  19
ATOM     19  C   UNL A   1      32.535  27.993  25.472  1.00  0.00     0.044 A 
ATOM     20  C   UNL A   1      31.135  27.837  27.632  1.00  0.00     0.047 C 
ATOM     21  C   UNL A   1      32.383  28.179  26.863  1.00  0.00    -0.021 A 
ATOM     22  C   UNL A   1      33.437  28.750  27.628  1.00  0.00     0.091 A 
ATOM     23  C   UNL A   1      34.646  29.122  27.034  1.00  0.00     0.269 A 
ATOM     24  C   UNL A   1      33.755  28.410  24.930  1.00  0.00     0.033 A 
ATOM     25  C   UNL A   1      34.812  28.947  25.675  1.00  0.00     0.088 A 
BRANCH  23  26
ATOM     26  N   UNL A   1      35.723  29.721  27.830  1.00  0.00     0.062 N 
ATOM     27  O   UNL A   1      36.737  30.101  27.227  1.00  0.00    -0.258 OA
ATOM     28  O   UNL A   1      35.564  29.806  29.055  1.00  0.00    -0.258 OA
ENDBRANCH  23  26
ENDBRANCH  16  19
ENDBRANCH   9  15
ENDBRANCH   6   8
ENDBRANCH   5   6
ENDBRANCH   4   5
ENDBRANCH   3   4
ENDBRANCH   2   3
ENDBRANCH   1   2
BRANCH   1  29
ATOM     29  C   UNL A   1      38.746  21.896  25.767  1.00  0.00     0.188 C 
BRANCH  29  30
ATOM     30  O   UNL A   1      39.789  21.366  26.577  1.00  0.00    -0.376 OA
BRANCH  30  31
ATOM     31  C   UNL A   1      40.433  22.288  27.455  1.00  0.00     0.202 C 
BRANCH  31  32
ATOM     32  C   UNL A   1      40.038  23.686  26.988  1.00  0.00     0.261 C 
BRANCH  32  33
ATOM     33  O   UNL A   1      41.226  24.493  26.810  1.00  0.00    -0.460 OA
BRANCH  33  34
ATOM     34  C   UNL A   1      41.015  25.837  26.881  1.00  0.00     0.338 C 
ATOM     35  O   UNL A   1      40.972  26.590  25.921  1.00  0.00    -0.246 OA
BRANCH  34  36
ATOM     36  C   UNL A   1      40.981  26.259  28.316  1.00  0.00     0.060 A 
ATOM     37  C   UNL A   1      39.757  26.420  28.939  1.00  0.00     0.016 A 
ATOM     38  C   UNL A   1      42.124  26.689  29.000  1.00  0.00     0.016 A 
ATOM     39  C   UNL A   1      39.684  27.168  30.126  1.00  0.00     0.010 A 
ATOM     40  C   UNL A   1      42.016  27.539  30.118  1.00  0.00     0.010 A 
ATOM     41  C   UNL A   1      40.767  27.937  30.613  1.00  0.00    -0.014 A 
BRANCH  41  42
ATOM     42  C   UNL A   1      40.769  29.088  31.638  1.00  0.00     0.031 A 
ATOM     43  C   UNL A   1      41.191  28.668  33.011  1.00  0.00     0.074 A 
ATOM     44  C   UNL A   1      40.396  30.439  31.614  1.00  0.00     0.049 A 
ATOM     45  N   UNL A   1      41.027  29.388  34.075  1.00  0.00    -0.248 NA
ATOM     46  C   UNL A   1      41.692  27.323  33.315  1.00  0.00     0.031 C 
ATOM     47  C   UNL A   1      41.174  31.478  32.316  1.00  0.00     0.029 A 
ATOM     48  N   UNL A   1      39.452  31.276  30.968  1.00  0.00    -0.354 N 
ATOM     49  C   UNL A   1      41.836  28.823  35.018  1.00  0.00     0.074 A 
ATOM     50  C   UNL A   1      41.936  27.447  34.623  1.00  0.00     0.031 C 
ATOM     51  C   UNL A   1      40.589  32.684  32.198  1.00  0.00     0.029 A 
ATOM     52  C   UNL A   1      39.330  32.558  31.486  1.00  0.00     0.049 A 
ATOM     53  H   UNL A   1      38.917  30.968  30.201  1.00  0.00     0.167 HD
ATOM     54  C   UNL A   1      42.590  29.646  35.797  1.00  0.00     0.037 A 
ATOM     55  C   UNL A   1      38.200  33.341  31.595  1.00  0.00     0.037 A 
ATOM     56  C   UNL A   1      42.101  31.033  35.789  1.00  0.00     0.049 A 
ATOM     57  C   UNL A   1      38.039  33.738  33.047  1.00  0.00     0.074 A 
ATOM     58  C   UNL A   1      42.659  32.236  35.386  1.00  0.00     0.029 A 
ATOM     59  N   UNL A   1      40.764  31.311  36.088  1.00  0.00    -0.354 N 
ATOM     60  N   UNL A   1      38.821  33.246  33.959  1.00  0.00    -0.248 NA
ATOM     61  C   UNL A   1      37.013  34.599  33.632  1.00  0.00     0.031 C 
ATOM     62  C   UNL A   1      41.653  33.235  35.441  1.00  0.00     0.029 A 
ATOM     63  C   UNL A   1      40.486  32.654  35.912  1.00  0.00     0.049 A 
ATOM     64  H   UNL A   1      40.108  30.639  36.384  1.00  0.00     0.167 HD
ATOM     65  C   UNL A   1      38.460  33.668  35.196  1.00  0.00     0.074 A 
ATOM     66  C   UNL A   1      37.307  34.513  34.948  1.00  0.00     0.031 C 
ATOM     67  C   UNL A   1      39.183  33.229  36.267  1.00  0.00     0.037 A 
BRANCH  54  68
ATOM     68  C   UNL A   1      43.945  29.233  36.361  1.00  0.00     0.058 A 
ATOM     69  C   UNL A   1      44.375  29.724  37.613  1.00  0.00     0.135 A 
ATOM     70  C   UNL A   1      44.915  28.455  35.683  1.00  0.00     0.135 A 
ATOM     71  F   UNL A   1      43.592  30.526  38.348  1.00  0.00    -0.206 F 
ATOM     72  C   UNL A   1      45.637  29.439  38.152  1.00  0.00     0.059 A 
ATOM     73  C   UNL A   1      46.146  28.101  36.229  1.00  0.00     0.059 A 
ATOM     74  F   UNL A   1      44.777  28.053  34.417  1.00  0.00    -0.206 F 
ATOM     75  C   UNL A   1      46.509  28.610  37.459  1.00  0.00     0.060 A 
BRANCH  75  76
ATOM     76  S   UNL A   1      48.119  28.199  38.148  1.00  0.00     0.124 S 
ATOM     77  O   UNL A   1      47.765  27.752  39.491  1.00  0.00    -0.237 OA
ATOM     78  O   UNL A   1      48.598  27.167  37.235  1.00  0.00    -0.237 OA
ATOM     79  O   UNL A   1      48.847  29.465  38.085  1.00  0.00    -0.744 OA
ENDBRANCH  75  76
ENDBRANCH  54  68
BRANCH  55  80
ATOM     80  C   UNL A   1      37.049  33.258  30.622  1.00  0.00     0.058 A 
ATOM     81  C   UNL A   1      35.807  32.735  31.036  1.00  0.00     0.135 A 
ATOM     82  C   UNL A   1      37.051  33.844  29.349  1.00  0.00     0.135 A 
ATOM     83  F   UNL A   1      35.735  32.022  32.171  1.00  0.00    -0.206 F 
ATOM     84  C   UNL A   1      34.603  33.004  30.360  1.00  0.00     0.059 A 
ATOM     85  C   UNL A   1      35.863  34.141  28.651  1.00  0.00     0.059 A 
ATOM     86  F   UNL A   1      38.210  34.247  28.817  1.00  0.00    -0.206 F 
ATOM     87  C   UNL A   1      34.633  33.805  29.221  1.00  0.00     0.060 A 
BRANCH  87  88
ATOM     88  S   UNL A   1      33.146  34.745  28.727  1.00  0.00     0.124 S 
ATOM     89  O   UNL A   1      33.720  35.949  28.138  1.00  0.00    -0.237 OA
ATOM     90  O   UNL A   1      32.466  33.856  27.786  1.00  0.00    -0.237 OA
ATOM     91  O   UNL A   1      32.452  34.936  29.998  1.00  0.00    -0.744 OA
ENDBRANCH  87  88
ENDBRANCH  55  80
BRANCH  67  92
ATOM     92  C   UNL A   1      38.842  33.398  37.724  1.00  0.00     0.058 A 
ATOM     93  C   UNL A   1      38.006  32.544  38.461  1.00  0.00     0.135 A 
ATOM     94  C   UNL A   1      39.482  34.417  38.475  1.00  0.00     0.135 A 
ATOM     95  F   UNL A   1      37.424  31.476  37.897  1.00  0.00    -0.206 F 
ATOM     96  C   UNL A   1      37.772  32.724  39.826  1.00  0.00     0.059 A 
ATOM     97  C   UNL A   1      39.308  34.580  39.841  1.00  0.00     0.059 A 
ATOM     98  F   UNL A   1      40.322  35.295  37.909  1.00  0.00    -0.206 F 
ATOM     99  C   UNL A   1      38.427  33.747  40.507  1.00  0.00     0.060 A 
BRANCH  99 100
ATOM    100  S   UNL A   1      38.175  33.961  42.274  1.00  0.00     0.124 S 
ATOM    101  O   UNL A   1      39.121  35.030  42.574  1.00  0.00    -0.237 OA
ATOM    102  O   UNL A   1      36.763  34.322  42.353  1.00  0.00    -0.237 OA
ATOM    103  O   UNL A   1      38.509  32.650  42.823  1.00  0.00    -0.744 OA
ENDBRANCH  99 100
ENDBRANCH  67  92
ENDBRANCH  41  42
ENDBRANCH  34  36
ENDBRANCH  33  34
ENDBRANCH  32  33
ENDBRANCH  31  32
ENDBRANCH  30  31
ENDBRANCH  29  30
ENDBRANCH   1  29
TORSDOF 23
ENDMDL
