MODEL 1
REMARK VINA RESULT:      -9.8      0.000      0.000
REMARK SMILES CC(C)(C)C(=O)C[N@H+]1CCCC[C@H]1C(=O)OCCOCCOCCOC(=O)c1ccc(-c2c3nc(c(-c4c(F)cc(S(=O)(=O)[O-])cc4F)c4ccc([nH]4)c(-c4c(F)cc(S(=O)(=O)[O-])cc4F)c4nc(c(-c5c(F)cc(S(=O)(=O)[O-])cc5F)c5ccc2[nH]5)C=C4)C=C3)cc1
REMARK SMILES IDX 20 1 19 2 18 3 17 4 16 5 14 6 15 7 13 8 8 9 9 10 10 12 12 13
REMARK SMILES IDX 11 14 7 15 5 16 6 17 2 18 1 19 3 20 4 21 21 22 22 23 23 24
REMARK SMILES IDX 24 25 25 26 26 27 27 28 28 29 29 30 93 31 30 32 92 33 31 34
REMARK SMILES IDX 32 35 33 36 86 37 34 38 91 39 85 40 87 41 35 42 90 43 84 44
REMARK SMILES IDX 83 45 36 47 70 48 49 49 69 50 50 51 53 52 68 53 88 54 51 55
REMARK SMILES IDX 52 56 67 58 89 59 54 60 37 61 38 62 47 63 39 64 40 65 46 66
REMARK SMILES IDX 48 67 41 68 42 69 43 70 44 71 45 72 71 73 72 74 81 75 73 76
REMARK SMILES IDX 74 77 80 78 82 79 75 80 76 81 77 82 78 83 79 84 55 85 56 86
REMARK SMILES IDX 65 87 57 88 58 89 64 90 66 91 59 92 60 93 61 94 62 95 63 96
REMARK H PARENT 8 11 87 46 53 57
REMARK Flexibility Score: inf
ROOT
ATOM      1  C   UNL A   1      40.585  21.525  27.411  1.00  0.00     0.188 C 
ENDROOT
BRANCH   1   2
ATOM      2  O   UNL A   1      39.517  22.350  26.944  1.00  0.00    -0.376 OA
BRANCH   2   3
ATOM      3  C   UNL A   1      39.043  22.240  25.618  1.00  0.00     0.202 C 
BRANCH   3   4
ATOM      4  C   UNL A   1      37.540  21.997  25.428  1.00  0.00     0.261 C 
BRANCH   4   5
ATOM      5  O   UNL A   1      36.733  23.110  25.006  1.00  0.00    -0.459 OA
BRANCH   5   6
ATOM      6  C   UNL A   1      36.106  22.918  23.807  1.00  0.00     0.365 C 
ATOM      7  O   UNL A   1      36.713  22.797  22.751  1.00  0.00    -0.245 OA
BRANCH   6   8
ATOM      8  C   UNL A   1      34.563  23.020  23.938  1.00  0.00     0.295 C 
ATOM      9  N   UNL A   1      33.991  22.094  24.963  1.00  0.00    -0.317 N 
ATOM     10  C   UNL A   1      34.263  22.533  26.331  1.00  0.00     0.263 C 
ATOM     11  H   UNL A   1      32.975  22.144  24.882  1.00  0.00     0.349 HD
ATOM     12  C   UNL A   1      33.717  23.931  26.605  1.00  0.00     0.062 C 
ATOM     13  C   UNL A   1      34.064  24.458  24.180  1.00  0.00     0.078 C 
ATOM     14  C   UNL A   1      34.264  24.939  25.614  1.00  0.00     0.013 C 
BRANCH   9  15
ATOM     15  C   UNL A   1      34.313  20.672  24.684  1.00  0.00     0.340 C 
BRANCH  15  16
ATOM     16  C   UNL A   1      33.099  19.736  24.616  1.00  0.00     0.192 C 
ATOM     17  O   UNL A   1      31.974  20.193  24.856  1.00  0.00    -0.293 OA
BRANCH  16  18
ATOM     18  C   UNL A   1      33.284  18.223  24.285  1.00  0.00     0.026 C 
ATOM     19  C   UNL A   1      32.535  17.424  25.367  1.00  0.00     0.019 C 
ATOM     20  C   UNL A   1      34.773  17.842  24.355  1.00  0.00     0.019 C 
ATOM     21  C   UNL A   1      32.729  17.789  22.923  1.00  0.00     0.019 C 
ENDBRANCH  16  18
ENDBRANCH  15  16
ENDBRANCH   9  15
ENDBRANCH   6   8
ENDBRANCH   5   6
ENDBRANCH   4   5
ENDBRANCH   3   4
ENDBRANCH   2   3
ENDBRANCH   1   2
BRANCH   1  22
ATOM     22  C   UNL A   1      41.668  21.010  26.444  1.00  0.00     0.188 C 
BRANCH  22  23
ATOM     23  O   UNL A   1      42.968  21.374  26.846  1.00  0.00    -0.376 OA
BRANCH  23  24
ATOM     24  C   UNL A   1      43.823  22.111  26.005  1.00  0.00     0.202 C 
BRANCH  24  25
ATOM     25  C   UNL A   1      43.544  23.548  25.534  1.00  0.00     0.261 C 
BRANCH  25  26
ATOM     26  O   UNL A   1      42.705  24.381  26.337  1.00  0.00    -0.460 OA
BRANCH  26  27
ATOM     27  C   UNL A   1      42.440  25.618  25.857  1.00  0.00     0.338 C 
ATOM     28  O   UNL A   1      42.469  25.968  24.692  1.00  0.00    -0.246 OA
BRANCH  27  29
ATOM     29  C   UNL A   1      41.963  26.464  26.971  1.00  0.00     0.060 A 
ATOM     30  C   UNL A   1      42.476  27.759  27.099  1.00  0.00     0.016 A 
ATOM     31  C   UNL A   1      41.068  25.962  27.920  1.00  0.00     0.016 A 
ATOM     32  C   UNL A   1      42.124  28.544  28.200  1.00  0.00     0.010 A 
ATOM     33  C   UNL A   1      40.729  26.745  29.030  1.00  0.00     0.010 A 
ATOM     34  C   UNL A   1      41.279  28.029  29.193  1.00  0.00    -0.014 A 
BRANCH  34  35
ATOM     35  C   UNL A   1      41.101  28.755  30.477  1.00  0.00     0.031 A 
ATOM     36  C   UNL A   1      40.008  29.785  30.581  1.00  0.00     0.074 A 
ATOM     37  C   UNL A   1      41.882  28.497  31.542  1.00  0.00     0.049 A 
ATOM     38  N   UNL A   1      39.733  30.611  31.558  1.00  0.00    -0.248 NA
ATOM     39  C   UNL A   1      39.103  29.897  29.426  1.00  0.00     0.031 C 
ATOM     40  C   UNL A   1      42.933  27.482  31.597  1.00  0.00     0.029 A 
ATOM     41  N   UNL A   1      41.916  29.084  32.785  1.00  0.00    -0.354 N 
ATOM     42  C   UNL A   1      38.633  31.347  31.133  1.00  0.00     0.074 A 
ATOM     43  C   UNL A   1      38.301  30.881  29.804  1.00  0.00     0.031 C 
ATOM     44  C   UNL A   1      43.518  27.526  32.808  1.00  0.00     0.029 A 
ATOM     45  C   UNL A   1      42.914  28.600  33.597  1.00  0.00     0.049 A 
ATOM     46  H   UNL A   1      41.285  29.785  33.067  1.00  0.00     0.167 HD
ATOM     47  C   UNL A   1      37.961  32.323  31.789  1.00  0.00     0.037 A 
ATOM     48  C   UNL A   1      43.315  29.000  34.820  1.00  0.00     0.037 A 
ATOM     49  C   UNL A   1      38.293  32.789  33.110  1.00  0.00     0.049 A 
ATOM     50  C   UNL A   1      42.607  30.148  35.498  1.00  0.00     0.074 A 
ATOM     51  C   UNL A   1      37.679  33.784  33.852  1.00  0.00     0.029 A 
ATOM     52  N   UNL A   1      39.332  32.297  33.885  1.00  0.00    -0.354 N 
ATOM     53  N   UNL A   1      41.581  30.849  35.079  1.00  0.00    -0.248 NA
ATOM     54  C   UNL A   1      43.118  30.564  36.813  1.00  0.00     0.031 C 
ATOM     55  C   UNL A   1      38.374  33.921  35.059  1.00  0.00     0.029 A 
ATOM     56  C   UNL A   1      39.389  32.980  35.089  1.00  0.00     0.049 A 
ATOM     57  H   UNL A   1      39.940  31.570  33.619  1.00  0.00     0.167 HD
ATOM     58  C   UNL A   1      41.308  31.769  36.088  1.00  0.00     0.074 A 
ATOM     59  C   UNL A   1      42.272  31.532  37.141  1.00  0.00     0.031 C 
ATOM     60  C   UNL A   1      40.347  32.724  36.137  1.00  0.00     0.037 A 
BRANCH  47  61
ATOM     61  C   UNL A   1      36.819  32.981  31.067  1.00  0.00     0.058 A 
ATOM     62  C   UNL A   1      37.030  33.865  29.997  1.00  0.00     0.135 A 
ATOM     63  C   UNL A   1      35.493  32.708  31.442  1.00  0.00     0.135 A 
ATOM     64  F   UNL A   1      38.278  34.175  29.613  1.00  0.00    -0.206 F 
ATOM     65  C   UNL A   1      35.966  34.477  29.342  1.00  0.00     0.059 A 
ATOM     66  C   UNL A   1      34.414  33.291  30.785  1.00  0.00     0.059 A 
ATOM     67  F   UNL A   1      35.237  31.872  32.460  1.00  0.00    -0.206 F 
ATOM     68  C   UNL A   1      34.662  34.187  29.746  1.00  0.00     0.060 A 
BRANCH  68  69
ATOM     69  S   UNL A   1      33.291  34.999  28.895  1.00  0.00     0.124 S 
ATOM     70  O   UNL A   1      33.962  36.154  28.304  1.00  0.00    -0.237 OA
ATOM     71  O   UNL A   1      32.854  33.971  27.955  1.00  0.00    -0.237 OA
ATOM     72  O   UNL A   1      32.354  35.300  29.971  1.00  0.00    -0.744 OA
ENDBRANCH  68  69
ENDBRANCH  47  61
BRANCH  48  73
ATOM     73  C   UNL A   1      44.476  28.339  35.478  1.00  0.00     0.058 A 
ATOM     74  C   UNL A   1      45.790  28.768  35.238  1.00  0.00     0.135 A 
ATOM     75  C   UNL A   1      44.294  27.249  36.345  1.00  0.00     0.135 A 
ATOM     76  F   UNL A   1      46.017  29.794  34.402  1.00  0.00    -0.206 F 
ATOM     77  C   UNL A   1      46.882  28.135  35.822  1.00  0.00     0.059 A 
ATOM     78  C   UNL A   1      45.368  26.616  36.960  1.00  0.00     0.059 A 
ATOM     79  F   UNL A   1      43.057  26.801  36.611  1.00  0.00    -0.206 F 
ATOM     80  C   UNL A   1      46.660  27.059  36.684  1.00  0.00     0.060 A 
BRANCH  80  81
ATOM     81  S   UNL A   1      48.081  26.266  37.469  1.00  0.00     0.124 S 
ATOM     82  O   UNL A   1      49.180  27.103  37.002  1.00  0.00    -0.237 OA
ATOM     83  O   UNL A   1      47.749  26.375  38.885  1.00  0.00    -0.237 OA
ATOM     84  O   UNL A   1      48.046  24.910  36.928  1.00  0.00    -0.744 OA
ENDBRANCH  80  81
ENDBRANCH  48  73
BRANCH  60  85
ATOM     85  C   UNL A   1      40.256  33.564  37.382  1.00  0.00     0.058 A 
ATOM     86  C   UNL A   1      41.057  34.702  37.568  1.00  0.00     0.135 A 
ATOM     87  C   UNL A   1      39.309  33.261  38.375  1.00  0.00     0.135 A 
ATOM     88  F   UNL A   1      41.981  35.033  36.651  1.00  0.00    -0.206 F 
ATOM     89  C   UNL A   1      40.934  35.501  38.700  1.00  0.00     0.059 A 
ATOM     90  C   UNL A   1      39.152  34.060  39.504  1.00  0.00     0.059 A 
ATOM     91  F   UNL A   1      38.510  32.191  38.243  1.00  0.00    -0.206 F 
ATOM     92  C   UNL A   1      39.977  35.173  39.663  1.00  0.00     0.060 A 
BRANCH  92  93
ATOM     93  S   UNL A   1      39.797  36.242  41.108  1.00  0.00     0.124 S 
ATOM     94  O   UNL A   1      39.749  35.265  42.190  1.00  0.00    -0.237 OA
ATOM     95  O   UNL A   1      41.003  37.061  41.046  1.00  0.00    -0.237 OA
ATOM     96  O   UNL A   1      38.549  36.954  40.849  1.00  0.00    -0.744 OA
ENDBRANCH  92  93
ENDBRANCH  60  85
ENDBRANCH  34  35
ENDBRANCH  27  29
ENDBRANCH  26  27
ENDBRANCH  25  26
ENDBRANCH  24  25
ENDBRANCH  23  24
ENDBRANCH  22  23
ENDBRANCH   1  22
TORSDOF 23
ENDMDL
MODEL 2
REMARK VINA RESULT:      -9.6      1.154      2.380
REMARK SMILES CC(C)(C)C(=O)C[N@H+]1CCCC[C@H]1C(=O)OCCOCCOCCOC(=O)c1ccc(-c2c3nc(c(-c4c(F)cc(S(=O)(=O)[O-])cc4F)c4ccc([nH]4)c(-c4c(F)cc(S(=O)(=O)[O-])cc4F)c4nc(c(-c5c(F)cc(S(=O)(=O)[O-])cc5F)c5ccc2[nH]5)C=C4)C=C3)cc1
REMARK SMILES IDX 20 1 19 2 18 3 17 4 16 5 14 6 15 7 13 8 8 9 9 10 10 12 12 13
REMARK SMILES IDX 11 14 7 15 5 16 6 17 2 18 1 19 3 20 4 21 21 22 22 23 23 24
REMARK SMILES IDX 24 25 25 26 26 27 27 28 28 29 29 30 93 31 30 32 92 33 31 34
REMARK SMILES IDX 32 35 33 36 86 37 34 38 91 39 85 40 87 41 35 42 90 43 84 44
REMARK SMILES IDX 83 45 36 47 70 48 49 49 69 50 50 51 53 52 68 53 88 54 51 55
REMARK SMILES IDX 52 56 67 58 89 59 54 60 37 61 38 62 47 63 39 64 40 65 46 66
REMARK SMILES IDX 48 67 41 68 42 69 43 70 44 71 45 72 71 73 72 74 81 75 73 76
REMARK SMILES IDX 74 77 80 78 82 79 75 80 76 81 77 82 78 83 79 84 55 85 56 86
REMARK SMILES IDX 65 87 57 88 58 89 64 90 66 91 59 92 60 93 61 94 62 95 63 96
REMARK H PARENT 8 11 87 46 53 57
REMARK Flexibility Score: inf
ROOT
ATOM      1  C   UNL A   1      40.239  21.051  26.634  1.00  0.00     0.188 C 
ENDROOT
BRANCH   1   2
ATOM      2  O   UNL A   1      39.488  21.852  25.721  1.00  0.00    -0.376 OA
BRANCH   2   3
ATOM      3  C   UNL A   1      38.076  21.862  25.756  1.00  0.00     0.202 C 
BRANCH   3   4
ATOM      4  C   UNL A   1      37.341  21.117  24.635  1.00  0.00     0.261 C 
BRANCH   4   5
ATOM      5  O   UNL A   1      36.141  21.715  24.113  1.00  0.00    -0.459 OA
BRANCH   5   6
ATOM      6  C   UNL A   1      35.052  21.575  24.926  1.00  0.00     0.365 C 
ATOM      7  O   UNL A   1      34.599  20.485  25.249  1.00  0.00    -0.245 OA
BRANCH   6   8
ATOM      8  C   UNL A   1      34.395  22.942  25.254  1.00  0.00     0.295 C 
ATOM      9  N   UNL A   1      33.007  23.079  24.716  1.00  0.00    -0.317 N 
ATOM     10  C   UNL A   1      32.033  22.288  25.466  1.00  0.00     0.263 C 
ATOM     11  H   UNL A   1      32.716  24.045  24.869  1.00  0.00     0.349 HD
ATOM     12  C   UNL A   1      32.003  22.666  26.944  1.00  0.00     0.062 C 
ATOM     13  C   UNL A   1      34.422  23.290  26.754  1.00  0.00     0.078 C 
ATOM     14  C   UNL A   1      33.376  22.538  27.573  1.00  0.00     0.013 C 
BRANCH   9  15
ATOM     15  C   UNL A   1      32.951  22.909  23.241  1.00  0.00     0.340 C 
BRANCH  15  16
ATOM     16  C   UNL A   1      32.728  24.204  22.449  1.00  0.00     0.192 C 
ATOM     17  O   UNL A   1      33.313  24.355  21.368  1.00  0.00    -0.293 OA
BRANCH  16  18
ATOM     18  C   UNL A   1      31.808  25.328  23.015  1.00  0.00     0.026 C 
ATOM     19  C   UNL A   1      30.459  24.677  23.370  1.00  0.00     0.019 C 
ATOM     20  C   UNL A   1      31.553  26.398  21.940  1.00  0.00     0.019 C 
ATOM     21  C   UNL A   1      32.335  26.017  24.280  1.00  0.00     0.019 C 
ENDBRANCH  16  18
ENDBRANCH  15  16
ENDBRANCH   9  15
ENDBRANCH   6   8
ENDBRANCH   5   6
ENDBRANCH   4   5
ENDBRANCH   3   4
ENDBRANCH   2   3
ENDBRANCH   1   2
BRANCH   1  22
ATOM     22  C   UNL A   1      41.596  20.448  26.224  1.00  0.00     0.188 C 
BRANCH  22  23
ATOM     23  O   UNL A   1      42.685  21.120  26.811  1.00  0.00    -0.376 OA
BRANCH  23  24
ATOM     24  C   UNL A   1      43.487  22.012  26.074  1.00  0.00     0.202 C 
BRANCH  24  25
ATOM     25  C   UNL A   1      42.981  23.333  25.470  1.00  0.00     0.261 C 
BRANCH  25  26
ATOM     26  O   UNL A   1      42.392  24.302  26.339  1.00  0.00    -0.460 OA
BRANCH  26  27
ATOM     27  C   UNL A   1      42.364  25.579  25.894  1.00  0.00     0.338 C 
ATOM     28  O   UNL A   1      42.577  25.959  24.758  1.00  0.00    -0.246 OA
BRANCH  27  29
ATOM     29  C   UNL A   1      41.890  26.450  26.991  1.00  0.00     0.060 A 
ATOM     30  C   UNL A   1      42.485  27.706  27.157  1.00  0.00     0.016 A 
ATOM     31  C   UNL A   1      40.916  26.006  27.888  1.00  0.00     0.016 A 
ATOM     32  C   UNL A   1      42.132  28.507  28.246  1.00  0.00     0.010 A 
ATOM     33  C   UNL A   1      40.575  26.804  28.987  1.00  0.00     0.010 A 
ATOM     34  C   UNL A   1      41.204  28.046  29.189  1.00  0.00    -0.014 A 
BRANCH  34  35
ATOM     35  C   UNL A   1      41.011  28.776  30.470  1.00  0.00     0.031 A 
ATOM     36  C   UNL A   1      39.929  29.819  30.553  1.00  0.00     0.074 A 
ATOM     37  C   UNL A   1      41.770  28.510  31.549  1.00  0.00     0.049 A 
ATOM     38  N   UNL A   1      39.646  30.648  31.523  1.00  0.00    -0.248 NA
ATOM     39  C   UNL A   1      39.046  29.940  29.381  1.00  0.00     0.031 C 
ATOM     40  C   UNL A   1      42.807  27.482  31.624  1.00  0.00     0.029 A 
ATOM     41  N   UNL A   1      41.787  29.097  32.791  1.00  0.00    -0.354 N 
ATOM     42  C   UNL A   1      38.562  31.397  31.078  1.00  0.00     0.074 A 
ATOM     43  C   UNL A   1      38.250  30.934  29.744  1.00  0.00     0.031 C 
ATOM     44  C   UNL A   1      43.370  27.520  32.845  1.00  0.00     0.029 A 
ATOM     45  C   UNL A   1      42.765  28.602  33.622  1.00  0.00     0.049 A 
ATOM     46  H   UNL A   1      41.160  29.805  33.061  1.00  0.00     0.167 HD
ATOM     47  C   UNL A   1      37.890  32.382  31.722  1.00  0.00     0.037 A 
ATOM     48  C   UNL A   1      43.148  28.998  34.852  1.00  0.00     0.037 A 
ATOM     49  C   UNL A   1      38.203  32.845  33.048  1.00  0.00     0.049 A 
ATOM     50  C   UNL A   1      42.441  30.155  35.517  1.00  0.00     0.074 A 
ATOM     51  C   UNL A   1      37.587  33.847  33.777  1.00  0.00     0.029 A 
ATOM     52  N   UNL A   1      39.222  32.341  33.842  1.00  0.00    -0.354 N 
ATOM     53  N   UNL A   1      41.432  30.868  35.078  1.00  0.00    -0.248 NA
ATOM     54  C   UNL A   1      42.933  30.566  36.840  1.00  0.00     0.031 C 
ATOM     55  C   UNL A   1      38.262  33.978  34.997  1.00  0.00     0.029 A 
ATOM     56  C   UNL A   1      39.265  33.025  35.046  1.00  0.00     0.049 A 
ATOM     57  H   UNL A   1      39.826  31.607  33.587  1.00  0.00     0.167 HD
ATOM     58  C   UNL A   1      41.151  31.792  36.081  1.00  0.00     0.074 A 
ATOM     59  C   UNL A   1      42.092  31.544  37.152  1.00  0.00     0.031 C 
ATOM     60  C   UNL A   1      40.201  32.759  36.111  1.00  0.00     0.037 A 
BRANCH  47  61
ATOM     61  C   UNL A   1      36.769  33.053  30.978  1.00  0.00     0.058 A 
ATOM     62  C   UNL A   1      37.011  33.962  29.936  1.00  0.00     0.135 A 
ATOM     63  C   UNL A   1      35.433  32.767  31.303  1.00  0.00     0.135 A 
ATOM     64  F   UNL A   1      38.270  34.284  29.600  1.00  0.00    -0.206 F 
ATOM     65  C   UNL A   1      35.966  34.586  29.261  1.00  0.00     0.059 A 
ATOM     66  C   UNL A   1      34.373  33.362  30.625  1.00  0.00     0.059 A 
ATOM     67  F   UNL A   1      35.147  31.907  32.293  1.00  0.00    -0.206 F 
ATOM     68  C   UNL A   1      34.651  34.282  29.616  1.00  0.00     0.060 A 
BRANCH  68  69
ATOM     69  S   UNL A   1      33.306  35.109  28.740  1.00  0.00     0.124 S 
ATOM     70  O   UNL A   1      32.516  35.632  29.851  1.00  0.00    -0.237 OA
ATOM     71  O   UNL A   1      34.016  36.104  27.944  1.00  0.00    -0.237 OA
ATOM     72  O   UNL A   1      32.682  34.030  27.980  1.00  0.00    -0.744 OA
ENDBRANCH  68  69
ENDBRANCH  47  61
BRANCH  48  73
ATOM     73  C   UNL A   1      44.289  28.324  35.532  1.00  0.00     0.058 A 
ATOM     74  C   UNL A   1      45.607  28.769  35.354  1.00  0.00     0.135 A 
ATOM     75  C   UNL A   1      44.083  27.207  36.357  1.00  0.00     0.135 A 
ATOM     76  F   UNL A   1      45.857  29.822  34.559  1.00  0.00    -0.206 F 
ATOM     77  C   UNL A   1      46.682  28.125  35.958  1.00  0.00     0.059 A 
ATOM     78  C   UNL A   1      45.138  26.562  36.992  1.00  0.00     0.059 A 
ATOM     79  F   UNL A   1      42.840  26.743  36.563  1.00  0.00    -0.206 F 
ATOM     80  C   UNL A   1      46.437  27.021  36.777  1.00  0.00     0.060 A 
BRANCH  80  81
ATOM     81  S   UNL A   1      47.833  26.212  37.589  1.00  0.00     0.124 S 
ATOM     82  O   UNL A   1      47.397  26.199  38.980  1.00  0.00    -0.237 OA
ATOM     83  O   UNL A   1      47.870  24.917  36.918  1.00  0.00    -0.237 OA
ATOM     84  O   UNL A   1      48.953  27.097  37.286  1.00  0.00    -0.744 OA
ENDBRANCH  80  81
ENDBRANCH  48  73
BRANCH  60  85
ATOM     85  C   UNL A   1      40.097  33.600  37.355  1.00  0.00     0.058 A 
ATOM     86  C   UNL A   1      39.214  33.277  38.396  1.00  0.00     0.135 A 
ATOM     87  C   UNL A   1      40.940  34.710  37.533  1.00  0.00     0.135 A 
ATOM     88  F   UNL A   1      38.383  32.228  38.276  1.00  0.00    -0.206 F 
ATOM     89  C   UNL A   1      39.158  34.032  39.564  1.00  0.00     0.059 A 
ATOM     90  C   UNL A   1      40.918  35.466  38.701  1.00  0.00     0.059 A 
ATOM     91  F   UNL A   1      41.811  35.058  36.572  1.00  0.00    -0.206 F 
ATOM     92  C   UNL A   1      40.016  35.124  39.708  1.00  0.00     0.060 A 
BRANCH  92  93
ATOM     93  S   UNL A   1      39.965  36.072  41.245  1.00  0.00     0.124 S 
ATOM     94  O   UNL A   1      38.755  36.867  41.060  1.00  0.00    -0.237 OA
ATOM     95  O   UNL A   1      39.886  35.024  42.258  1.00  0.00    -0.237 OA
ATOM     96  O   UNL A   1      41.217  36.821  41.223  1.00  0.00    -0.744 OA
ENDBRANCH  92  93
ENDBRANCH  60  85
ENDBRANCH  34  35
ENDBRANCH  27  29
ENDBRANCH  26  27
ENDBRANCH  25  26
ENDBRANCH  24  25
ENDBRANCH  23  24
ENDBRANCH  22  23
ENDBRANCH   1  22
TORSDOF 23
ENDMDL
MODEL 3
REMARK VINA RESULT:      -9.4      6.188     11.828
REMARK SMILES CC(C)(C)C(=O)C[N@H+]1CCCC[C@H]1C(=O)OCCOCCOCCOC(=O)c1ccc(-c2c3nc(c(-c4c(F)cc(S(=O)(=O)[O-])cc4F)c4ccc([nH]4)c(-c4c(F)cc(S(=O)(=O)[O-])cc4F)c4nc(c(-c5c(F)cc(S(=O)(=O)[O-])cc5F)c5ccc2[nH]5)C=C4)C=C3)cc1
REMARK SMILES IDX 20 1 19 2 18 3 17 4 16 5 14 6 15 7 13 8 8 9 9 10 10 12 12 13
REMARK SMILES IDX 11 14 7 15 5 16 6 17 2 18 1 19 3 20 4 21 21 22 22 23 23 24
REMARK SMILES IDX 24 25 25 26 26 27 27 28 28 29 29 30 93 31 30 32 92 33 31 34
REMARK SMILES IDX 32 35 33 36 86 37 34 38 91 39 85 40 87 41 35 42 90 43 84 44
REMARK SMILES IDX 83 45 36 47 70 48 49 49 69 50 50 51 53 52 68 53 88 54 51 55
REMARK SMILES IDX 52 56 67 58 89 59 54 60 37 61 38 62 47 63 39 64 40 65 46 66
REMARK SMILES IDX 48 67 41 68 42 69 43 70 44 71 45 72 71 73 72 74 81 75 73 76
REMARK SMILES IDX 74 77 80 78 82 79 75 80 76 81 77 82 78 83 79 84 55 85 56 86
REMARK SMILES IDX 65 87 57 88 58 89 64 90 66 91 59 92 60 93 61 94 62 95 63 96
REMARK H PARENT 8 11 87 46 53 57
REMARK Flexibility Score: inf
ROOT
ATOM      1  C   UNL A   1      33.983  32.773  27.673  1.00  0.00     0.188 C 
ENDROOT
BRANCH   1   2
ATOM      2  O   UNL A   1      33.157  31.622  27.846  1.00  0.00    -0.376 OA
BRANCH   2   3
ATOM      3  C   UNL A   1      33.226  30.537  26.944  1.00  0.00     0.202 C 
BRANCH   3   4
ATOM      4  C   UNL A   1      32.285  29.352  27.197  1.00  0.00     0.261 C 
BRANCH   4   5
ATOM      5  O   UNL A   1      31.722  28.692  26.050  1.00  0.00    -0.459 OA
BRANCH   5   6
ATOM      6  C   UNL A   1      32.465  27.639  25.595  1.00  0.00     0.365 C 
ATOM      7  O   UNL A   1      33.335  27.100  26.267  1.00  0.00    -0.245 OA
BRANCH   6   8
ATOM      8  C   UNL A   1      32.171  27.324  24.104  1.00  0.00     0.295 C 
ATOM      9  N   UNL A   1      32.489  25.914  23.721  1.00  0.00    -0.317 N 
ATOM     10  C   UNL A   1      31.517  24.956  24.246  1.00  0.00     0.263 C 
ATOM     11  H   UNL A   1      32.386  25.845  22.708  1.00  0.00     0.349 HD
ATOM     12  C   UNL A   1      30.098  25.262  23.776  1.00  0.00     0.062 C 
ATOM     13  C   UNL A   1      30.736  27.683  23.675  1.00  0.00     0.078 C 
ATOM     14  C   UNL A   1      29.690  26.675  24.143  1.00  0.00     0.013 C 
BRANCH   9  15
ATOM     15  C   UNL A   1      33.911  25.566  23.970  1.00  0.00     0.340 C 
BRANCH  15  16
ATOM     16  C   UNL A   1      34.392  24.282  23.281  1.00  0.00     0.192 C 
ATOM     17  O   UNL A   1      34.018  24.045  22.125  1.00  0.00    -0.293 OA
BRANCH  16  18
ATOM     18  C   UNL A   1      35.310  23.275  24.038  1.00  0.00     0.026 C 
ATOM     19  C   UNL A   1      34.484  21.998  24.281  1.00  0.00     0.019 C 
ATOM     20  C   UNL A   1      35.715  23.849  25.407  1.00  0.00     0.019 C 
ATOM     21  C   UNL A   1      36.580  22.866  23.282  1.00  0.00     0.019 C 
ENDBRANCH  16  18
ENDBRANCH  15  16
ENDBRANCH   9  15
ENDBRANCH   6   8
ENDBRANCH   5   6
ENDBRANCH   4   5
ENDBRANCH   3   4
ENDBRANCH   2   3
ENDBRANCH   1   2
BRANCH   1  22
ATOM     22  C   UNL A   1      33.604  34.121  28.317  1.00  0.00     0.188 C 
BRANCH  22  23
ATOM     23  O   UNL A   1      33.920  34.172  29.689  1.00  0.00    -0.376 OA
BRANCH  23  24
ATOM     24  C   UNL A   1      35.074  33.553  30.205  1.00  0.00     0.202 C 
BRANCH  24  25
ATOM     25  C   UNL A   1      35.083  32.186  30.907  1.00  0.00     0.261 C 
BRANCH  25  26
ATOM     26  O   UNL A   1      35.971  31.175  30.427  1.00  0.00    -0.460 OA
BRANCH  26  27
ATOM     27  C   UNL A   1      36.684  30.501  31.358  1.00  0.00     0.338 C 
ATOM     28  O   UNL A   1      36.249  29.962  32.359  1.00  0.00    -0.246 OA
BRANCH  27  29
ATOM     29  C   UNL A   1      38.084  30.395  30.896  1.00  0.00     0.060 A 
ATOM     30  C   UNL A   1      38.348  30.483  29.525  1.00  0.00     0.016 A 
ATOM     31  C   UNL A   1      39.119  30.143  31.800  1.00  0.00     0.016 A 
ATOM     32  C   UNL A   1      39.646  30.282  29.049  1.00  0.00     0.010 A 
ATOM     33  C   UNL A   1      40.417  29.927  31.319  1.00  0.00     0.010 A 
ATOM     34  C   UNL A   1      40.682  29.964  29.939  1.00  0.00    -0.014 A 
BRANCH  34  35
ATOM     35  C   UNL A   1      41.999  29.507  29.423  1.00  0.00     0.031 A 
ATOM     36  C   UNL A   1      43.132  30.496  29.352  1.00  0.00     0.074 A 
ATOM     37  C   UNL A   1      42.197  28.233  29.039  1.00  0.00     0.049 A 
ATOM     38  N   UNL A   1      44.329  30.354  28.845  1.00  0.00    -0.248 NA
ATOM     39  C   UNL A   1      42.878  31.824  29.934  1.00  0.00     0.031 C 
ATOM     40  C   UNL A   1      41.207  27.160  29.116  1.00  0.00     0.029 A 
ATOM     41  N   UNL A   1      43.305  27.629  28.494  1.00  0.00    -0.354 N 
ATOM     42  C   UNL A   1      44.968  31.575  29.035  1.00  0.00     0.074 A 
ATOM     43  C   UNL A   1      44.019  32.450  29.689  1.00  0.00     0.031 C 
ATOM     44  C   UNL A   1      41.747  26.031  28.622  1.00  0.00     0.029 A 
ATOM     45  C   UNL A   1      43.105  26.312  28.155  1.00  0.00     0.049 A 
ATOM     46  H   UNL A   1      44.160  28.096  28.358  1.00  0.00     0.167 HD
ATOM     47  C   UNL A   1      46.228  31.934  28.694  1.00  0.00     0.037 A 
ATOM     48  C   UNL A   1      43.912  25.443  27.511  1.00  0.00     0.037 A 
ATOM     49  C   UNL A   1      47.171  31.065  28.040  1.00  0.00     0.049 A 
ATOM     50  C   UNL A   1      45.282  25.891  27.063  1.00  0.00     0.074 A 
ATOM     51  C   UNL A   1      48.467  31.344  27.642  1.00  0.00     0.029 A 
ATOM     52  N   UNL A   1      46.918  29.749  27.683  1.00  0.00    -0.354 N 
ATOM     53  N   UNL A   1      45.867  27.053  27.231  1.00  0.00    -0.248 NA
ATOM     54  C   UNL A   1      46.097  24.911  26.330  1.00  0.00     0.031 C 
ATOM     55  C   UNL A   1      48.983  30.209  27.007  1.00  0.00     0.029 A 
ATOM     56  C   UNL A   1      48.027  29.209  27.052  1.00  0.00     0.049 A 
ATOM     57  H   UNL A   1      46.075  29.270  27.853  1.00  0.00     0.167 HD
ATOM     58  C   UNL A   1      47.126  26.935  26.649  1.00  0.00     0.074 A 
ATOM     59  C   UNL A   1      47.222  25.586  26.131  1.00  0.00     0.031 C 
ATOM     60  C   UNL A   1      48.114  27.859  26.552  1.00  0.00     0.037 A 
BRANCH  47  61
ATOM     61  C   UNL A   1      46.647  33.347  28.990  1.00  0.00     0.058 A 
ATOM     62  C   UNL A   1      46.529  34.369  28.036  1.00  0.00     0.135 A 
ATOM     63  C   UNL A   1      47.159  33.684  30.254  1.00  0.00     0.135 A 
ATOM     64  F   UNL A   1      46.065  34.096  26.806  1.00  0.00    -0.206 F 
ATOM     65  C   UNL A   1      46.930  35.673  28.316  1.00  0.00     0.059 A 
ATOM     66  C   UNL A   1      47.544  34.985  30.563  1.00  0.00     0.059 A 
ATOM     67  F   UNL A   1      47.295  32.743  31.201  1.00  0.00    -0.206 F 
ATOM     68  C   UNL A   1      47.440  35.970  29.581  1.00  0.00     0.060 A 
BRANCH  68  69
ATOM     69  S   UNL A   1      47.968  37.661  29.926  1.00  0.00     0.124 S 
ATOM     70  O   UNL A   1      47.720  37.754  31.362  1.00  0.00    -0.237 OA
ATOM     71  O   UNL A   1      49.372  37.639  29.527  1.00  0.00    -0.237 OA
ATOM     72  O   UNL A   1      47.092  38.469  29.084  1.00  0.00    -0.744 OA
ENDBRANCH  68  69
ENDBRANCH  47  61
BRANCH  48  73
ATOM     73  C   UNL A   1      43.435  24.065  27.210  1.00  0.00     0.058 A 
ATOM     74  C   UNL A   1      42.821  23.759  25.987  1.00  0.00     0.135 A 
ATOM     75  C   UNL A   1      43.567  23.031  28.150  1.00  0.00     0.135 A 
ATOM     76  F   UNL A   1      42.654  24.718  25.063  1.00  0.00    -0.206 F 
ATOM     77  C   UNL A   1      42.342  22.483  25.710  1.00  0.00     0.059 A 
ATOM     78  C   UNL A   1      43.120  21.741  27.887  1.00  0.00     0.059 A 
ATOM     79  F   UNL A   1      44.151  23.270  29.335  1.00  0.00    -0.206 F 
ATOM     80  C   UNL A   1      42.498  21.479  26.668  1.00  0.00     0.060 A 
BRANCH  80  81
ATOM     81  S   UNL A   1      41.909  19.814  26.287  1.00  0.00     0.124 S 
ATOM     82  O   UNL A   1      42.697  19.487  25.105  1.00  0.00    -0.237 OA
ATOM     83  O   UNL A   1      42.248  19.083  27.504  1.00  0.00    -0.237 OA
ATOM     84  O   UNL A   1      40.481  20.009  26.061  1.00  0.00    -0.744 OA
ENDBRANCH  80  81
ENDBRANCH  48  73
BRANCH  60  85
ATOM     85  C   UNL A   1      49.402  27.441  25.897  1.00  0.00     0.058 A 
ATOM     86  C   UNL A   1      50.518  27.039  26.647  1.00  0.00     0.135 A 
ATOM     87  C   UNL A   1      49.500  27.382  24.496  1.00  0.00     0.135 A 
ATOM     88  F   UNL A   1      50.479  27.080  27.989  1.00  0.00    -0.206 F 
ATOM     89  C   UNL A   1      51.690  26.608  26.034  1.00  0.00     0.059 A 
ATOM     90  C   UNL A   1      50.654  26.932  23.862  1.00  0.00     0.059 A 
ATOM     91  F   UNL A   1      48.459  27.746  23.731  1.00  0.00    -0.206 F 
ATOM     92  C   UNL A   1      51.749  26.556  24.640  1.00  0.00     0.060 A 
BRANCH  92  93
ATOM     93  S   UNL A   1      53.260  25.955  23.854  1.00  0.00     0.124 S 
ATOM     94  O   UNL A   1      53.369  24.613  24.417  1.00  0.00    -0.237 OA
ATOM     95  O   UNL A   1      52.926  26.022  22.435  1.00  0.00    -0.237 OA
ATOM     96  O   UNL A   1      54.274  26.905  24.299  1.00  0.00    -0.744 OA
ENDBRANCH  92  93
ENDBRANCH  60  85
ENDBRANCH  34  35
ENDBRANCH  27  29
ENDBRANCH  26  27
ENDBRANCH  25  26
ENDBRANCH  24  25
ENDBRANCH  23  24
ENDBRANCH  22  23
ENDBRANCH   1  22
TORSDOF 23
ENDMDL
