MODEL 1
REMARK VINA RESULT:     -10.3      0.000      0.000
REMARK SMILES Cc1cc(C[NH+]2C[C@@H](C)[C@H](C)C2)oc1C(=O)OCCOCCOCCOC(=O)c1ccc(-c2c3nc(c(-c4c(F)cc(S(=O)(=O)[O-])cc4F)c4ccc([nH]4)c(-c4c(F)cc(S(=O)(=O)[O-])cc4F)c4nc(c(-c5c(F)cc(S(=O)(=O)[O-])cc5F)c5ccc2[nH]5)C=C4)C=C3)cc1
REMARK SMILES IDX 22 1 21 2 20 3 19 4 18 5 17 6 15 7 16 8 14 9 1 10 2 11 3 12
REMARK SMILES IDX 4 13 13 14 5 15 6 16 7 17 12 18 8 20 10 21 9 22 11 23 23 24
REMARK SMILES IDX 24 25 25 26 26 27 27 28 28 29 29 30 30 31 94 32 31 33 93 34
REMARK SMILES IDX 32 35 33 36 34 37 87 38 35 39 92 40 86 41 88 42 36 43 91 44
REMARK SMILES IDX 85 45 84 46 37 48 71 49 50 50 70 51 51 52 54 53 69 54 89 55
REMARK SMILES IDX 52 56 53 57 68 59 90 60 55 61 38 62 39 63 48 64 40 65 41 66
REMARK SMILES IDX 47 67 49 68 42 69 43 70 44 71 45 72 46 73 72 74 73 75 82 76
REMARK SMILES IDX 74 77 75 78 81 79 83 80 76 81 77 82 78 83 79 84 80 85 56 86
REMARK SMILES IDX 57 87 66 88 58 89 59 90 65 91 67 92 60 93 61 94 62 95 63 96
REMARK SMILES IDX 64 97
REMARK H PARENT 6 19 88 47 54 58
REMARK Flexibility Score: inf
ROOT
ATOM      1  C   UNL A   1      41.907  20.588  26.835  1.00  0.00     0.188 C 
ENDROOT
BRANCH   1   2
ATOM      2  C   UNL A   1      40.440  21.048  26.925  1.00  0.00     0.188 C 
BRANCH   2   3
ATOM      3  O   UNL A   1      39.930  21.889  25.895  1.00  0.00    -0.376 OA
BRANCH   3   4
ATOM      4  C   UNL A   1      38.565  22.291  25.948  1.00  0.00     0.202 C 
BRANCH   4   5
ATOM      5  C   UNL A   1      37.579  21.463  25.122  1.00  0.00     0.261 C 
BRANCH   5   6
ATOM      6  O   UNL A   1      36.760  22.306  24.291  1.00  0.00    -0.457 OA
BRANCH   6   7
ATOM      7  C   UNL A   1      35.751  22.972  24.929  1.00  0.00     0.374 C 
ATOM      8  O   UNL A   1      35.733  24.181  25.115  1.00  0.00    -0.242 OA
BRANCH   7   9
ATOM      9  C   UNL A   1      34.672  22.056  25.232  1.00  0.00     0.215 A 
ATOM     10  C   UNL A   1      34.146  22.253  27.763  1.00  0.00     0.049 C 
ATOM     11  C   UNL A   1      33.994  21.702  26.393  1.00  0.00     0.003 A 
ATOM     12  C   UNL A   1      33.078  20.677  26.012  1.00  0.00     0.056 A 
ATOM     13  C   UNL A   1      33.266  20.435  24.668  1.00  0.00     0.159 A 
ATOM     14  O   UNL A   1      34.210  21.294  24.191  1.00  0.00    -0.448 OA
BRANCH  13  15
ATOM     15  C   UNL A   1      32.679  19.495  23.661  1.00  0.00     0.338 C 
BRANCH  15  16
ATOM     16  N   UNL A   1      32.999  18.080  23.828  1.00  0.00    -0.328 N 
ATOM     17  C   UNL A   1      34.401  17.755  24.067  1.00  0.00     0.266 C 
ATOM     18  C   UNL A   1      32.137  17.303  24.712  1.00  0.00     0.266 C 
ATOM     19  H   UNL A   1      32.780  17.771  22.880  1.00  0.00     0.348 HD
ATOM     20  C   UNL A   1      34.335  16.356  24.680  1.00  0.00     0.049 C 
ATOM     21  C   UNL A   1      33.093  16.467  25.567  1.00  0.00     0.049 C 
ATOM     22  C   UNL A   1      35.604  15.985  25.433  1.00  0.00     0.014 C 
ATOM     23  C   UNL A   1      32.497  15.133  25.987  1.00  0.00     0.014 C 
ENDBRANCH  15  16
ENDBRANCH  13  15
ENDBRANCH   7   9
ENDBRANCH   6   7
ENDBRANCH   5   6
ENDBRANCH   4   5
ENDBRANCH   3   4
ENDBRANCH   2   3
ENDBRANCH   1   2
BRANCH   1  24
ATOM     24  O   UNL A   1      42.562  20.966  25.630  1.00  0.00    -0.376 OA
BRANCH  24  25
ATOM     25  C   UNL A   1      43.609  21.916  25.774  1.00  0.00     0.202 C 
BRANCH  25  26
ATOM     26  C   UNL A   1      43.196  23.345  25.406  1.00  0.00     0.261 C 
BRANCH  26  27
ATOM     27  O   UNL A   1      42.466  24.046  26.425  1.00  0.00    -0.460 OA
BRANCH  27  28
ATOM     28  C   UNL A   1      41.910  25.229  26.079  1.00  0.00     0.338 C 
ATOM     29  O   UNL A   1      41.451  25.535  24.994  1.00  0.00    -0.246 OA
BRANCH  28  30
ATOM     30  C   UNL A   1      41.803  26.052  27.300  1.00  0.00     0.060 A 
ATOM     31  C   UNL A   1      40.725  25.840  28.168  1.00  0.00     0.016 A 
ATOM     32  C   UNL A   1      42.765  27.023  27.588  1.00  0.00     0.016 A 
ATOM     33  C   UNL A   1      40.596  26.622  29.318  1.00  0.00     0.010 A 
ATOM     34  C   UNL A   1      42.626  27.813  28.730  1.00  0.00     0.010 A 
ATOM     35  C   UNL A   1      41.529  27.633  29.590  1.00  0.00    -0.014 A 
BRANCH  35  36
ATOM     36  C   UNL A   1      41.284  28.605  30.682  1.00  0.00     0.031 A 
ATOM     37  C   UNL A   1      42.125  28.518  31.927  1.00  0.00     0.074 A 
ATOM     38  C   UNL A   1      40.324  29.542  30.579  1.00  0.00     0.049 A 
ATOM     39  N   UNL A   1      42.066  29.233  33.019  1.00  0.00    -0.248 NA
ATOM     40  C   UNL A   1      43.171  27.481  31.939  1.00  0.00     0.031 C 
ATOM     41  C   UNL A   1      39.454  29.741  29.421  1.00  0.00     0.029 A 
ATOM     42  N   UNL A   1      39.913  30.497  31.477  1.00  0.00    -0.354 N 
ATOM     43  C   UNL A   1      43.064  28.737  33.849  1.00  0.00     0.074 A 
ATOM     44  C   UNL A   1      43.698  27.643  33.143  1.00  0.00     0.031 C 
ATOM     45  C   UNL A   1      38.602  30.748  29.684  1.00  0.00     0.029 A 
ATOM     46  C   UNL A   1      38.852  31.250  31.035  1.00  0.00     0.049 A 
ATOM     47  H   UNL A   1      40.340  30.630  32.354  1.00  0.00     0.167 HD
ATOM     48  C   UNL A   1      43.428  29.159  35.083  1.00  0.00     0.037 A 
ATOM     49  C   UNL A   1      38.154  32.221  31.657  1.00  0.00     0.037 A 
ATOM     50  C   UNL A   1      42.793  30.239  35.790  1.00  0.00     0.049 A 
ATOM     51  C   UNL A   1      38.539  32.634  33.056  1.00  0.00     0.074 A 
ATOM     52  C   UNL A   1      43.105  30.752  37.037  1.00  0.00     0.029 A 
ATOM     53  N   UNL A   1      41.711  30.965  35.316  1.00  0.00    -0.354 N 
ATOM     54  N   UNL A   1      39.510  32.183  33.812  1.00  0.00    -0.248 NA
ATOM     55  C   UNL A   1      37.730  33.690  33.685  1.00  0.00     0.031 C 
ATOM     56  C   UNL A   1      42.186  31.765  37.334  1.00  0.00     0.029 A 
ATOM     57  C   UNL A   1      41.327  31.908  36.256  1.00  0.00     0.049 A 
ATOM     58  H   UNL A   1      41.280  30.831  34.442  1.00  0.00     0.167 HD
ATOM     59  C   UNL A   1      39.447  32.917  34.994  1.00  0.00     0.074 A 
ATOM     60  C   UNL A   1      38.345  33.844  34.851  1.00  0.00     0.031 C 
ATOM     61  C   UNL A   1      40.233  32.832  36.095  1.00  0.00     0.037 A 
BRANCH  48  62
ATOM     62  C   UNL A   1      44.557  28.432  35.753  1.00  0.00     0.058 A 
ATOM     63  C   UNL A   1      44.326  27.340  36.601  1.00  0.00     0.135 A 
ATOM     64  C   UNL A   1      45.887  28.823  35.531  1.00  0.00     0.135 A 
ATOM     65  F   UNL A   1      43.070  26.940  36.862  1.00  0.00    -0.206 F 
ATOM     66  C   UNL A   1      45.373  26.671  37.226  1.00  0.00     0.059 A 
ATOM     67  C   UNL A   1      46.952  28.157  36.130  1.00  0.00     0.059 A 
ATOM     68  F   UNL A   1      46.161  29.867  34.732  1.00  0.00    -0.206 F 
ATOM     69  C   UNL A   1      46.683  27.091  36.988  1.00  0.00     0.060 A 
BRANCH  69  70
ATOM     70  S   UNL A   1      48.034  26.219  37.810  1.00  0.00     0.124 S 
ATOM     71  O   UNL A   1      47.363  25.002  38.255  1.00  0.00    -0.237 OA
ATOM     72  O   UNL A   1      49.001  26.050  36.730  1.00  0.00    -0.237 OA
ATOM     73  O   UNL A   1      48.436  27.139  38.869  1.00  0.00    -0.744 OA
ENDBRANCH  69  70
ENDBRANCH  48  62
BRANCH  49  74
ATOM     74  C   UNL A   1      37.009  32.875  30.970  1.00  0.00     0.058 A 
ATOM     75  C   UNL A   1      35.691  32.453  31.199  1.00  0.00     0.135 A 
ATOM     76  C   UNL A   1      37.212  33.922  30.058  1.00  0.00     0.135 A 
ATOM     77  F   UNL A   1      35.448  31.445  32.051  1.00  0.00    -0.206 F 
ATOM     78  C   UNL A   1      34.614  33.035  30.536  1.00  0.00     0.059 A 
ATOM     79  C   UNL A   1      36.150  34.533  29.399  1.00  0.00     0.059 A 
ATOM     80  F   UNL A   1      38.454  34.364  29.808  1.00  0.00    -0.206 F 
ATOM     81  C   UNL A   1      34.855  34.074  29.636  1.00  0.00     0.060 A 
BRANCH  81  82
ATOM     82  S   UNL A   1      33.450  34.848  28.805  1.00  0.00     0.124 S 
ATOM     83  O   UNL A   1      34.078  36.013  28.191  1.00  0.00    -0.237 OA
ATOM     84  O   UNL A   1      33.016  33.800  27.886  1.00  0.00    -0.237 OA
ATOM     85  O   UNL A   1      32.528  35.131  29.901  1.00  0.00    -0.744 OA
ENDBRANCH  81  82
ENDBRANCH  49  74
BRANCH  61  86
ATOM     86  C   UNL A   1      39.956  33.786  37.223  1.00  0.00     0.058 A 
ATOM     87  C   UNL A   1      40.578  35.042  37.293  1.00  0.00     0.135 A 
ATOM     88  C   UNL A   1      39.011  33.465  38.210  1.00  0.00     0.135 A 
ATOM     89  F   UNL A   1      41.492  35.395  36.376  1.00  0.00    -0.206 F 
ATOM     90  C   UNL A   1      40.285  35.941  38.314  1.00  0.00     0.059 A 
ATOM     91  C   UNL A   1      38.686  34.358  39.227  1.00  0.00     0.059 A 
ATOM     92  F   UNL A   1      38.378  32.282  38.181  1.00  0.00    -0.206 F 
ATOM     93  C   UNL A   1      39.336  35.591  39.276  1.00  0.00     0.060 A 
BRANCH  93  94
ATOM     94  S   UNL A   1      38.931  36.780  40.574  1.00  0.00     0.124 S 
ATOM     95  O   UNL A   1      40.255  37.118  41.086  1.00  0.00    -0.237 OA
ATOM     96  O   UNL A   1      38.249  37.836  39.832  1.00  0.00    -0.237 OA
ATOM     97  O   UNL A   1      38.082  36.014  41.481  1.00  0.00    -0.744 OA
ENDBRANCH  93  94
ENDBRANCH  61  86
ENDBRANCH  35  36
ENDBRANCH  28  30
ENDBRANCH  27  28
ENDBRANCH  26  27
ENDBRANCH  25  26
ENDBRANCH  24  25
ENDBRANCH   1  24
TORSDOF 22
ENDMDL
MODEL 2
REMARK VINA RESULT:     -10.2      2.142      4.119
REMARK SMILES Cc1cc(C[NH+]2C[C@@H](C)[C@H](C)C2)oc1C(=O)OCCOCCOCCOC(=O)c1ccc(-c2c3nc(c(-c4c(F)cc(S(=O)(=O)[O-])cc4F)c4ccc([nH]4)c(-c4c(F)cc(S(=O)(=O)[O-])cc4F)c4nc(c(-c5c(F)cc(S(=O)(=O)[O-])cc5F)c5ccc2[nH]5)C=C4)C=C3)cc1
REMARK SMILES IDX 22 1 21 2 20 3 19 4 18 5 17 6 15 7 16 8 14 9 1 10 2 11 3 12
REMARK SMILES IDX 4 13 13 14 5 15 6 16 7 17 12 18 8 20 10 21 9 22 11 23 23 24
REMARK SMILES IDX 24 25 25 26 26 27 27 28 28 29 29 30 30 31 94 32 31 33 93 34
REMARK SMILES IDX 32 35 33 36 34 37 87 38 35 39 92 40 86 41 88 42 36 43 91 44
REMARK SMILES IDX 85 45 84 46 37 48 71 49 50 50 70 51 51 52 54 53 69 54 89 55
REMARK SMILES IDX 52 56 53 57 68 59 90 60 55 61 38 62 39 63 48 64 40 65 41 66
REMARK SMILES IDX 47 67 49 68 42 69 43 70 44 71 45 72 46 73 72 74 73 75 82 76
REMARK SMILES IDX 74 77 75 78 81 79 83 80 76 81 77 82 78 83 79 84 80 85 56 86
REMARK SMILES IDX 57 87 66 88 58 89 59 90 65 91 67 92 60 93 61 94 62 95 63 96
REMARK SMILES IDX 64 97
REMARK H PARENT 6 19 88 47 54 58
REMARK Flexibility Score: inf
ROOT
ATOM      1  C   UNL A   1      41.786  20.553  26.511  1.00  0.00     0.188 C 
ENDROOT
BRANCH   1   2
ATOM      2  C   UNL A   1      40.293  20.641  26.142  1.00  0.00     0.188 C 
BRANCH   2   3
ATOM      3  O   UNL A   1      39.706  21.930  25.996  1.00  0.00    -0.376 OA
BRANCH   3   4
ATOM      4  C   UNL A   1      38.290  22.055  26.077  1.00  0.00     0.202 C 
BRANCH   4   5
ATOM      5  C   UNL A   1      37.538  22.155  24.749  1.00  0.00     0.261 C 
BRANCH   5   6
ATOM      6  O   UNL A   1      37.055  23.491  24.523  1.00  0.00    -0.457 OA
BRANCH   6   7
ATOM      7  C   UNL A   1      35.874  23.592  23.843  1.00  0.00     0.374 C 
ATOM      8  O   UNL A   1      35.670  23.103  22.740  1.00  0.00    -0.242 OA
BRANCH   7   9
ATOM      9  C   UNL A   1      34.884  24.247  24.671  1.00  0.00     0.215 A 
ATOM     10  C   UNL A   1      34.443  22.736  26.732  1.00  0.00     0.049 C 
ATOM     11  C   UNL A   1      34.239  23.920  25.859  1.00  0.00     0.003 A 
ATOM     12  C   UNL A   1      33.315  24.977  26.104  1.00  0.00     0.056 A 
ATOM     13  C   UNL A   1      33.413  25.863  25.053  1.00  0.00     0.159 A 
ATOM     14  O   UNL A   1      34.387  25.434  24.202  1.00  0.00    -0.448 OA
BRANCH  13  15
ATOM     15  C   UNL A   1      32.733  27.140  24.665  1.00  0.00     0.338 C 
BRANCH  15  16
ATOM     16  N   UNL A   1      32.496  28.102  25.739  1.00  0.00    -0.328 N 
ATOM     17  C   UNL A   1      33.672  28.569  26.465  1.00  0.00     0.266 C 
ATOM     18  C   UNL A   1      31.600  29.216  25.447  1.00  0.00     0.266 C 
ATOM     19  H   UNL A   1      31.982  27.487  26.371  1.00  0.00     0.348 HD
ATOM     20  C   UNL A   1      33.188  29.863  27.119  1.00  0.00     0.049 C 
ATOM     21  C   UNL A   1      32.303  30.452  26.017  1.00  0.00     0.049 C 
ATOM     22  C   UNL A   1      34.333  30.769  27.545  1.00  0.00     0.014 C 
ATOM     23  C   UNL A   1      31.330  31.518  26.492  1.00  0.00     0.014 C 
ENDBRANCH  15  16
ENDBRANCH  13  15
ENDBRANCH   7   9
ENDBRANCH   6   7
ENDBRANCH   5   6
ENDBRANCH   4   5
ENDBRANCH   3   4
ENDBRANCH   2   3
ENDBRANCH   1   2
BRANCH   1  24
ATOM     24  O   UNL A   1      42.661  21.100  25.532  1.00  0.00    -0.376 OA
BRANCH  24  25
ATOM     25  C   UNL A   1      43.573  22.081  26.004  1.00  0.00     0.202 C 
BRANCH  25  26
ATOM     26  C   UNL A   1      43.171  23.515  25.649  1.00  0.00     0.261 C 
BRANCH  26  27
ATOM     27  O   UNL A   1      42.164  24.090  26.497  1.00  0.00    -0.460 OA
BRANCH  27  28
ATOM     28  C   UNL A   1      41.667  25.293  26.132  1.00  0.00     0.338 C 
ATOM     29  O   UNL A   1      41.249  25.613  25.035  1.00  0.00    -0.246 OA
BRANCH  28  30
ATOM     30  C   UNL A   1      41.562  26.125  27.348  1.00  0.00     0.060 A 
ATOM     31  C   UNL A   1      40.491  25.914  28.224  1.00  0.00     0.016 A 
ATOM     32  C   UNL A   1      42.521  27.104  27.622  1.00  0.00     0.016 A 
ATOM     33  C   UNL A   1      40.364  26.704  29.368  1.00  0.00     0.010 A 
ATOM     34  C   UNL A   1      42.384  27.903  28.759  1.00  0.00     0.010 A 
ATOM     35  C   UNL A   1      41.294  27.723  29.626  1.00  0.00    -0.014 A 
BRANCH  35  36
ATOM     36  C   UNL A   1      41.050  28.702  30.713  1.00  0.00     0.031 A 
ATOM     37  C   UNL A   1      41.877  28.610  31.966  1.00  0.00     0.074 A 
ATOM     38  C   UNL A   1      40.103  29.650  30.597  1.00  0.00     0.049 A 
ATOM     39  N   UNL A   1      41.816  29.329  33.055  1.00  0.00    -0.248 NA
ATOM     40  C   UNL A   1      42.909  27.560  31.993  1.00  0.00     0.031 C 
ATOM     41  C   UNL A   1      39.246  29.856  29.429  1.00  0.00     0.029 A 
ATOM     42  N   UNL A   1      39.695  30.614  31.486  1.00  0.00    -0.354 N 
ATOM     43  C   UNL A   1      42.799  28.824  33.897  1.00  0.00     0.074 A 
ATOM     44  C   UNL A   1      43.427  27.720  33.202  1.00  0.00     0.031 C 
ATOM     45  C   UNL A   1      38.404  30.874  29.680  1.00  0.00     0.029 A 
ATOM     46  C   UNL A   1      38.647  31.379  31.031  1.00  0.00     0.049 A 
ATOM     47  H   UNL A   1      40.114  30.745  32.367  1.00  0.00     0.167 HD
ATOM     48  C   UNL A   1      43.156  29.246  35.132  1.00  0.00     0.037 A 
ATOM     49  C   UNL A   1      37.956  32.361  31.642  1.00  0.00     0.037 A 
ATOM     50  C   UNL A   1      42.527  30.337  35.829  1.00  0.00     0.049 A 
ATOM     51  C   UNL A   1      38.331  32.775  33.043  1.00  0.00     0.074 A 
ATOM     52  C   UNL A   1      42.833  30.851  37.078  1.00  0.00     0.029 A 
ATOM     53  N   UNL A   1      41.459  31.075  35.342  1.00  0.00    -0.354 N 
ATOM     54  N   UNL A   1      39.289  32.314  33.811  1.00  0.00    -0.248 NA
ATOM     55  C   UNL A   1      37.530  33.843  33.659  1.00  0.00     0.031 C 
ATOM     56  C   UNL A   1      41.924  31.877  37.361  1.00  0.00     0.029 A 
ATOM     57  C   UNL A   1      41.078  32.026  36.273  1.00  0.00     0.049 A 
ATOM     58  H   UNL A   1      41.035  30.942  34.463  1.00  0.00     0.167 HD
ATOM     59  C   UNL A   1      39.223  33.053  34.989  1.00  0.00     0.074 A 
ATOM     60  C   UNL A   1      38.134  33.994  34.831  1.00  0.00     0.031 C 
ATOM     61  C   UNL A   1      39.997  32.963  36.098  1.00  0.00     0.037 A 
BRANCH  48  62
ATOM     62  C   UNL A   1      44.269  28.509  35.816  1.00  0.00     0.058 A 
ATOM     63  C   UNL A   1      44.016  27.420  36.664  1.00  0.00     0.135 A 
ATOM     64  C   UNL A   1      45.606  28.884  35.609  1.00  0.00     0.135 A 
ATOM     65  F   UNL A   1      42.753  27.035  36.911  1.00  0.00    -0.206 F 
ATOM     66  C   UNL A   1      45.048  26.741  37.302  1.00  0.00     0.059 A 
ATOM     67  C   UNL A   1      46.656  28.207  36.222  1.00  0.00     0.059 A 
ATOM     68  F   UNL A   1      45.900  29.923  34.812  1.00  0.00    -0.206 F 
ATOM     69  C   UNL A   1      46.366  27.146  37.079  1.00  0.00     0.060 A 
BRANCH  69  70
ATOM     70  S   UNL A   1      47.697  26.260  37.917  1.00  0.00     0.124 S 
ATOM     71  O   UNL A   1      47.802  27.011  39.164  1.00  0.00    -0.237 OA
ATOM     72  O   UNL A   1      47.153  24.912  38.034  1.00  0.00    -0.237 OA
ATOM     73  O   UNL A   1      48.826  26.401  37.002  1.00  0.00    -0.744 OA
ENDBRANCH  69  70
ENDBRANCH  48  62
BRANCH  49  74
ATOM     74  C   UNL A   1      36.825  33.026  30.941  1.00  0.00     0.058 A 
ATOM     75  C   UNL A   1      37.056  33.996  29.954  1.00  0.00     0.135 A 
ATOM     76  C   UNL A   1      35.493  32.716  31.256  1.00  0.00     0.135 A 
ATOM     77  F   UNL A   1      38.313  34.336  29.629  1.00  0.00    -0.206 F 
ATOM     78  C   UNL A   1      36.006  34.648  29.315  1.00  0.00     0.059 A 
ATOM     79  C   UNL A   1      34.427  33.340  30.616  1.00  0.00     0.059 A 
ATOM     80  F   UNL A   1      35.222  31.792  32.190  1.00  0.00    -0.206 F 
ATOM     81  C   UNL A   1      34.694  34.315  29.655  1.00  0.00     0.060 A 
BRANCH  81  82
ATOM     82  S   UNL A   1      33.336  35.141  28.797  1.00  0.00     0.124 S 
ATOM     83  O   UNL A   1      32.798  34.054  27.986  1.00  0.00    -0.237 OA
ATOM     84  O   UNL A   1      32.495  35.587  29.904  1.00  0.00    -0.237 OA
ATOM     85  O   UNL A   1      34.006  36.208  28.060  1.00  0.00    -0.744 OA
ENDBRANCH  81  82
ENDBRANCH  49  74
BRANCH  61  86
ATOM     86  C   UNL A   1      39.721  33.925  37.220  1.00  0.00     0.058 A 
ATOM     87  C   UNL A   1      38.976  33.547  38.347  1.00  0.00     0.135 A 
ATOM     88  C   UNL A   1      40.261  35.221  37.193  1.00  0.00     0.135 A 
ATOM     89  F   UNL A   1      38.435  32.322  38.418  1.00  0.00    -0.206 F 
ATOM     90  C   UNL A   1      38.762  34.427  39.403  1.00  0.00     0.059 A 
ATOM     91  C   UNL A   1      40.078  36.110  38.249  1.00  0.00     0.059 A 
ATOM     92  F   UNL A   1      40.992  35.628  36.143  1.00  0.00    -0.206 F 
ATOM     93  C   UNL A   1      39.318  35.707  39.346  1.00  0.00     0.060 A 
BRANCH  93  94
ATOM     94  S   UNL A   1      39.071  36.828  40.740  1.00  0.00     0.124 S 
ATOM     95  O   UNL A   1      38.326  37.916  40.113  1.00  0.00    -0.237 OA
ATOM     96  O   UNL A   1      38.319  36.003  41.679  1.00  0.00    -0.237 OA
ATOM     97  O   UNL A   1      40.431  37.156  41.156  1.00  0.00    -0.744 OA
ENDBRANCH  93  94
ENDBRANCH  61  86
ENDBRANCH  35  36
ENDBRANCH  28  30
ENDBRANCH  27  28
ENDBRANCH  26  27
ENDBRANCH  25  26
ENDBRANCH  24  25
ENDBRANCH   1  24
TORSDOF 22
ENDMDL
MODEL 3
REMARK VINA RESULT:     -10.1      0.919      2.030
REMARK SMILES Cc1cc(C[NH+]2C[C@@H](C)[C@H](C)C2)oc1C(=O)OCCOCCOCCOC(=O)c1ccc(-c2c3nc(c(-c4c(F)cc(S(=O)(=O)[O-])cc4F)c4ccc([nH]4)c(-c4c(F)cc(S(=O)(=O)[O-])cc4F)c4nc(c(-c5c(F)cc(S(=O)(=O)[O-])cc5F)c5ccc2[nH]5)C=C4)C=C3)cc1
REMARK SMILES IDX 22 1 21 2 20 3 19 4 18 5 17 6 15 7 16 8 14 9 1 10 2 11 3 12
REMARK SMILES IDX 4 13 13 14 5 15 6 16 7 17 12 18 8 20 10 21 9 22 11 23 23 24
REMARK SMILES IDX 24 25 25 26 26 27 27 28 28 29 29 30 30 31 94 32 31 33 93 34
REMARK SMILES IDX 32 35 33 36 34 37 87 38 35 39 92 40 86 41 88 42 36 43 91 44
REMARK SMILES IDX 85 45 84 46 37 48 71 49 50 50 70 51 51 52 54 53 69 54 89 55
REMARK SMILES IDX 52 56 53 57 68 59 90 60 55 61 38 62 39 63 48 64 40 65 41 66
REMARK SMILES IDX 47 67 49 68 42 69 43 70 44 71 45 72 46 73 72 74 73 75 82 76
REMARK SMILES IDX 74 77 75 78 81 79 83 80 76 81 77 82 78 83 79 84 80 85 56 86
REMARK SMILES IDX 57 87 66 88 58 89 59 90 65 91 67 92 60 93 61 94 62 95 63 96
REMARK SMILES IDX 64 97
REMARK H PARENT 6 19 88 47 54 58
REMARK Flexibility Score: inf
ROOT
ATOM      1  C   UNL A   1      39.896  21.046  26.281  1.00  0.00     0.188 C 
ENDROOT
BRANCH   1   2
ATOM      2  C   UNL A   1      39.109  22.361  26.129  1.00  0.00     0.188 C 
BRANCH   2   3
ATOM      3  O   UNL A   1      37.730  22.289  25.780  1.00  0.00    -0.376 OA
BRANCH   3   4
ATOM      4  C   UNL A   1      37.051  23.484  25.407  1.00  0.00     0.202 C 
BRANCH   4   5
ATOM      5  C   UNL A   1      35.720  23.758  26.110  1.00  0.00     0.261 C 
BRANCH   5   6
ATOM      6  O   UNL A   1      34.791  22.679  25.904  1.00  0.00    -0.457 OA
BRANCH   6   7
ATOM      7  C   UNL A   1      33.489  23.043  25.704  1.00  0.00     0.374 C 
ATOM      8  O   UNL A   1      32.901  23.891  26.363  1.00  0.00    -0.242 OA
BRANCH   7   9
ATOM      9  C   UNL A   1      32.965  22.372  24.534  1.00  0.00     0.215 A 
ATOM     10  C   UNL A   1      31.842  24.158  23.027  1.00  0.00     0.049 C 
ATOM     11  C   UNL A   1      32.251  22.784  23.415  1.00  0.00     0.003 A 
ATOM     12  C   UNL A   1      31.981  21.600  22.667  1.00  0.00     0.056 A 
ATOM     13  C   UNL A   1      32.502  20.538  23.374  1.00  0.00     0.159 A 
ATOM     14  O   UNL A   1      33.125  21.011  24.489  1.00  0.00    -0.448 OA
BRANCH  13  15
ATOM     15  C   UNL A   1      32.549  19.053  23.189  1.00  0.00     0.338 C 
BRANCH  15  16
ATOM     16  N   UNL A   1      33.057  18.273  24.316  1.00  0.00    -0.328 N 
ATOM     17  C   UNL A   1      32.161  17.258  24.860  1.00  0.00     0.266 C 
ATOM     18  C   UNL A   1      34.414  17.749  24.204  1.00  0.00     0.266 C 
ATOM     19  H   UNL A   1      33.103  19.027  25.002  1.00  0.00     0.348 HD
ATOM     20  C   UNL A   1      33.107  16.330  25.622  1.00  0.00     0.049 C 
ATOM     21  C   UNL A   1      34.323  16.301  24.693  1.00  0.00     0.049 C 
ATOM     22  C   UNL A   1      32.498  14.962  25.889  1.00  0.00     0.014 C 
ATOM     23  C   UNL A   1      35.606  15.818  25.349  1.00  0.00     0.014 C 
ENDBRANCH  15  16
ENDBRANCH  13  15
ENDBRANCH   7   9
ENDBRANCH   6   7
ENDBRANCH   5   6
ENDBRANCH   4   5
ENDBRANCH   3   4
ENDBRANCH   2   3
ENDBRANCH   1   2
BRANCH   1  24
ATOM     24  O   UNL A   1      40.950  21.105  27.234  1.00  0.00    -0.376 OA
BRANCH  24  25
ATOM     25  C   UNL A   1      42.263  21.001  26.703  1.00  0.00     0.202 C 
BRANCH  25  26
ATOM     26  C   UNL A   1      42.981  22.347  26.571  1.00  0.00     0.261 C 
BRANCH  26  27
ATOM     27  O   UNL A   1      42.310  23.455  27.192  1.00  0.00    -0.460 OA
BRANCH  27  28
ATOM     28  C   UNL A   1      42.364  24.644  26.549  1.00  0.00     0.338 C 
ATOM     29  O   UNL A   1      42.572  24.829  25.364  1.00  0.00    -0.246 OA
BRANCH  28  30
ATOM     30  C   UNL A   1      41.963  25.693  27.507  1.00  0.00     0.060 A 
ATOM     31  C   UNL A   1      42.708  26.876  27.568  1.00  0.00     0.016 A 
ATOM     32  C   UNL A   1      40.853  25.509  28.337  1.00  0.00     0.016 A 
ATOM     33  C   UNL A   1      42.355  27.872  28.481  1.00  0.00     0.010 A 
ATOM     34  C   UNL A   1      40.511  26.500  29.259  1.00  0.00     0.010 A 
ATOM     35  C   UNL A   1      41.273  27.677  29.353  1.00  0.00    -0.014 A 
BRANCH  35  36
ATOM     36  C   UNL A   1      41.026  28.625  30.466  1.00  0.00     0.031 A 
ATOM     37  C   UNL A   1      41.865  28.511  31.709  1.00  0.00     0.074 A 
ATOM     38  C   UNL A   1      40.065  29.562  30.382  1.00  0.00     0.049 A 
ATOM     39  N   UNL A   1      41.805  29.202  32.816  1.00  0.00    -0.248 NA
ATOM     40  C   UNL A   1      42.912  27.475  31.700  1.00  0.00     0.031 C 
ATOM     41  C   UNL A   1      39.196  29.786  29.228  1.00  0.00     0.029 A 
ATOM     42  N   UNL A   1      39.653  30.497  31.300  1.00  0.00    -0.354 N 
ATOM     43  C   UNL A   1      42.803  28.689  33.637  1.00  0.00     0.074 A 
ATOM     44  C   UNL A   1      43.438  27.612  32.908  1.00  0.00     0.031 C 
ATOM     45  C   UNL A   1      38.343  30.786  29.512  1.00  0.00     0.029 A 
ATOM     46  C   UNL A   1      38.591  31.259  30.874  1.00  0.00     0.049 A 
ATOM     47  H   UNL A   1      40.078  30.611  32.180  1.00  0.00     0.167 HD
ATOM     48  C   UNL A   1      43.165  29.084  34.879  1.00  0.00     0.037 A 
ATOM     49  C   UNL A   1      37.892  32.216  31.516  1.00  0.00     0.037 A 
ATOM     50  C   UNL A   1      42.528  30.148  35.609  1.00  0.00     0.049 A 
ATOM     51  C   UNL A   1      38.275  32.599  32.923  1.00  0.00     0.074 A 
ATOM     52  C   UNL A   1      42.839  30.634  36.868  1.00  0.00     0.029 A 
ATOM     53  N   UNL A   1      41.446  30.884  35.150  1.00  0.00    -0.354 N 
ATOM     54  N   UNL A   1      39.246  32.132  33.671  1.00  0.00    -0.248 NA
ATOM     55  C   UNL A   1      37.465  33.640  33.574  1.00  0.00     0.031 C 
ATOM     56  C   UNL A   1      41.919  31.640  37.186  1.00  0.00     0.029 A 
ATOM     57  C   UNL A   1      41.061  31.806  36.110  1.00  0.00     0.049 A 
ATOM     58  H   UNL A   1      41.016  30.768  34.273  1.00  0.00     0.167 HD
ATOM     59  C   UNL A   1      39.181  32.840  34.868  1.00  0.00     0.074 A 
ATOM     60  C   UNL A   1      38.078  33.769  34.744  1.00  0.00     0.031 C 
ATOM     61  C   UNL A   1      39.966  32.732  35.968  1.00  0.00     0.037 A 
BRANCH  48  62
ATOM     62  C   UNL A   1      44.294  28.345  35.534  1.00  0.00     0.058 A 
ATOM     63  C   UNL A   1      44.067  27.204  36.318  1.00  0.00     0.135 A 
ATOM     64  C   UNL A   1      45.620  28.772  35.363  1.00  0.00     0.135 A 
ATOM     65  F   UNL A   1      42.814  26.767  36.529  1.00  0.00    -0.206 F 
ATOM     66  C   UNL A   1      45.114  26.523  36.930  1.00  0.00     0.059 A 
ATOM     67  C   UNL A   1      46.685  28.095  35.950  1.00  0.00     0.059 A 
ATOM     68  F   UNL A   1      45.890  29.862  34.627  1.00  0.00    -0.206 F 
ATOM     69  C   UNL A   1      46.420  26.979  36.744  1.00  0.00     0.060 A 
BRANCH  69  70
ATOM     70  S   UNL A   1      47.771  26.090  37.547  1.00  0.00     0.124 S 
ATOM     71  O   UNL A   1      48.505  25.578  36.394  1.00  0.00    -0.237 OA
ATOM     72  O   UNL A   1      48.436  27.146  38.302  1.00  0.00    -0.237 OA
ATOM     73  O   UNL A   1      47.084  25.085  38.352  1.00  0.00    -0.744 OA
ENDBRANCH  69  70
ENDBRANCH  48  62
BRANCH  49  74
ATOM     74  C   UNL A   1      36.747  32.883  30.842  1.00  0.00     0.058 A 
ATOM     75  C   UNL A   1      36.955  33.826  29.824  1.00  0.00     0.135 A 
ATOM     76  C   UNL A   1      35.423  32.603  31.214  1.00  0.00     0.135 A 
ATOM     77  F   UNL A   1      38.204  34.138  29.445  1.00  0.00    -0.206 F 
ATOM     78  C   UNL A   1      35.892  34.481  29.210  1.00  0.00     0.059 A 
ATOM     79  C   UNL A   1      34.343  33.230  30.599  1.00  0.00     0.059 A 
ATOM     80  F   UNL A   1      35.172  31.705  32.179  1.00  0.00    -0.206 F 
ATOM     81  C   UNL A   1      34.589  34.177  29.606  1.00  0.00     0.060 A 
BRANCH  81  82
ATOM     82  S   UNL A   1      33.212  35.006  28.781  1.00  0.00     0.124 S 
ATOM     83  O   UNL A   1      32.349  35.335  29.910  1.00  0.00    -0.237 OA
ATOM     84  O   UNL A   1      33.873  36.136  28.133  1.00  0.00    -0.237 OA
ATOM     85  O   UNL A   1      32.703  33.983  27.872  1.00  0.00    -0.744 OA
ENDBRANCH  81  82
ENDBRANCH  49  74
BRANCH  61  86
ATOM     86  C   UNL A   1      39.687  33.662  37.116  1.00  0.00     0.058 A 
ATOM     87  C   UNL A   1      38.774  33.328  38.128  1.00  0.00     0.135 A 
ATOM     88  C   UNL A   1      40.389  34.872  37.237  1.00  0.00     0.135 A 
ATOM     89  F   UNL A   1      38.075  32.185  38.056  1.00  0.00    -0.206 F 
ATOM     90  C   UNL A   1      38.553  34.171  39.212  1.00  0.00     0.059 A 
ATOM     91  C   UNL A   1      40.199  35.720  38.324  1.00  0.00     0.059 A 
ATOM     92  F   UNL A   1      41.283  35.231  36.302  1.00  0.00    -0.206 F 
ATOM     93  C   UNL A   1      39.272  35.365  39.303  1.00  0.00     0.060 A 
BRANCH  93  94
ATOM     94  S   UNL A   1      39.010  36.434  40.735  1.00  0.00     0.124 S 
ATOM     95  O   UNL A   1      38.027  35.669  41.496  1.00  0.00    -0.237 OA
ATOM     96  O   UNL A   1      40.345  36.510  41.320  1.00  0.00    -0.237 OA
ATOM     97  O   UNL A   1      38.520  37.676  40.146  1.00  0.00    -0.744 OA
ENDBRANCH  93  94
ENDBRANCH  61  86
ENDBRANCH  35  36
ENDBRANCH  28  30
ENDBRANCH  27  28
ENDBRANCH  26  27
ENDBRANCH  25  26
ENDBRANCH  24  25
ENDBRANCH   1  24
TORSDOF 22
ENDMDL
