MODEL 1
REMARK VINA RESULT:     -10.5      0.000      0.000
REMARK SMILES O=C(OCCOCCOCCOC(=O)[C@@]1(Cl)C=CC=C(c2ccccc2)[C@H]1Cl)c1ccc(-c2c3nc(c(-c4c(F)cc(S(=O)(=O)[O-])cc4F)c4ccc([nH]4)c(-c4c(F)cc(S(=O)(=O)[O-])cc4F)c4nc(c(-c5c(F)cc(S(=O)(=O)[O-])cc5F)c5ccc2[nH]5)C=C4)C=C3)cc1
REMARK SMILES IDX 7 1 6 2 5 3 4 4 3 5 2 6 1 7 29 8 30 9 94 10 31 11 93 12
REMARK SMILES IDX 32 13 33 14 34 15 87 16 35 17 92 18 86 19 88 20 36 21 91 22
REMARK SMILES IDX 85 23 84 24 37 26 71 27 50 28 70 29 51 30 54 31 69 32 89 33
REMARK SMILES IDX 52 34 53 35 68 37 90 38 55 39 38 40 39 41 48 42 40 43 41 44
REMARK SMILES IDX 47 45 49 46 42 47 43 48 44 49 45 50 46 51 72 52 73 53 82 54
REMARK SMILES IDX 74 55 75 56 81 57 83 58 76 59 77 60 78 61 79 62 80 63 56 64
REMARK SMILES IDX 57 65 66 66 58 67 59 68 65 69 67 70 60 71 61 72 62 73 63 74
REMARK SMILES IDX 64 75 8 76 9 77 10 78 11 79 12 80 13 81 14 82 15 83 16 84
REMARK SMILES IDX 17 85 27 86 18 87 20 88 28 89 19 90 21 91 22 92 26 93 23 94
REMARK SMILES IDX 25 95 24 96
REMARK H PARENT 88 25 54 36
REMARK Flexibility Score: inf
ROOT
ATOM      1  C   UNL A   1      32.286  28.412  23.847  1.00  0.00     0.188 C 
ENDROOT
BRANCH   1   2
ATOM      2  O   UNL A   1      32.816  29.411  24.721  1.00  0.00    -0.376 OA
BRANCH   2   3
ATOM      3  C   UNL A   1      31.837  29.998  25.579  1.00  0.00     0.202 C 
BRANCH   3   4
ATOM      4  C   UNL A   1      32.377  30.604  26.888  1.00  0.00     0.261 C 
BRANCH   4   5
ATOM      5  O   UNL A   1      33.675  30.118  27.280  1.00  0.00    -0.460 OA
BRANCH   5   6
ATOM      6  C   UNL A   1      34.596  30.673  28.110  1.00  0.00     0.338 C 
ATOM      7  O   UNL A   1      34.308  31.733  28.666  1.00  0.00    -0.246 OA
BRANCH   6   8
ATOM      8  C   UNL A   1      35.942  30.082  28.388  1.00  0.00     0.060 A 
ATOM      9  C   UNL A   1      36.341  29.556  29.614  1.00  0.00     0.016 A 
ATOM     10  C   UNL A   1      36.859  30.017  27.322  1.00  0.00     0.016 A 
ATOM     11  C   UNL A   1      37.623  29.075  29.821  1.00  0.00     0.010 A 
ATOM     12  C   UNL A   1      38.150  29.503  27.508  1.00  0.00     0.010 A 
ATOM     13  C   UNL A   1      38.544  29.079  28.780  1.00  0.00    -0.014 A 
BRANCH  13  14
ATOM     14  C   UNL A   1      39.955  28.879  29.158  1.00  0.00     0.031 A 
ATOM     15  C   UNL A   1      40.586  27.577  28.758  1.00  0.00     0.074 A 
ATOM     16  C   UNL A   1      40.681  29.907  29.630  1.00  0.00     0.049 A 
ATOM     17  N   UNL A   1      41.820  27.180  28.888  1.00  0.00    -0.248 NA
ATOM     18  C   UNL A   1      39.707  26.597  28.091  1.00  0.00     0.031 C 
ATOM     19  C   UNL A   1      40.161  31.250  29.900  1.00  0.00     0.029 A 
ATOM     20  N   UNL A   1      42.015  30.006  29.917  1.00  0.00    -0.354 N 
ATOM     21  C   UNL A   1      41.858  25.900  28.346  1.00  0.00     0.074 A 
ATOM     22  C   UNL A   1      40.527  25.579  27.894  1.00  0.00     0.031 C 
ATOM     23  C   UNL A   1      41.170  32.046  30.286  1.00  0.00     0.029 A 
ATOM     24  C   UNL A   1      42.394  31.255  30.352  1.00  0.00     0.049 A 
ATOM     25  H   UNL A   1      42.644  29.255  29.822  1.00  0.00     0.167 HD
ATOM     26  C   UNL A   1      42.919  25.069  28.244  1.00  0.00     0.037 A 
ATOM     27  C   UNL A   1      43.596  31.690  30.776  1.00  0.00     0.037 A 
ATOM     28  C   UNL A   1      44.232  25.426  28.708  1.00  0.00     0.049 A 
ATOM     29  C   UNL A   1      44.739  30.710  30.751  1.00  0.00     0.074 A 
ATOM     30  C   UNL A   1      45.380  24.659  28.726  1.00  0.00     0.029 A 
ATOM     31  N   UNL A   1      44.562  26.666  29.241  1.00  0.00    -0.354 N 
ATOM     32  N   UNL A   1      44.752  29.473  30.305  1.00  0.00    -0.248 NA
ATOM     33  C   UNL A   1      46.024  31.173  31.285  1.00  0.00     0.031 C 
ATOM     34  C   UNL A   1      46.391  25.418  29.325  1.00  0.00     0.029 A 
ATOM     35  C   UNL A   1      45.893  26.681  29.613  1.00  0.00     0.049 A 
ATOM     36  H   UNL A   1      43.940  27.423  29.339  1.00  0.00     0.167 HD
ATOM     37  C   UNL A   1      46.054  29.020  30.474  1.00  0.00     0.074 A 
ATOM     38  C   UNL A   1      46.799  30.122  31.055  1.00  0.00     0.031 C 
ATOM     39  C   UNL A   1      46.592  27.810  30.176  1.00  0.00     0.037 A 
BRANCH  26  40
ATOM     40  C   UNL A   1      42.662  23.691  27.704  1.00  0.00     0.058 A 
ATOM     41  C   UNL A   1      42.389  22.593  28.536  1.00  0.00     0.135 A 
ATOM     42  C   UNL A   1      42.742  23.457  26.322  1.00  0.00     0.135 A 
ATOM     43  F   UNL A   1      42.341  22.749  29.870  1.00  0.00    -0.206 F 
ATOM     44  C   UNL A   1      42.235  21.309  28.020  1.00  0.00     0.059 A 
ATOM     45  C   UNL A   1      42.564  22.188  25.780  1.00  0.00     0.059 A 
ATOM     46  F   UNL A   1      43.020  24.466  25.482  1.00  0.00    -0.206 F 
ATOM     47  C   UNL A   1      42.327  21.116  26.640  1.00  0.00     0.060 A 
BRANCH  47  48
ATOM     48  S   UNL A   1      42.142  19.446  25.981  1.00  0.00     0.124 S 
ATOM     49  O   UNL A   1      42.936  19.525  24.757  1.00  0.00    -0.237 OA
ATOM     50  O   UNL A   1      42.711  18.627  27.050  1.00  0.00    -0.237 OA
ATOM     51  O   UNL A   1      40.706  19.310  25.790  1.00  0.00    -0.744 OA
ENDBRANCH  47  48
ENDBRANCH  26  40
BRANCH  27  52
ATOM     52  C   UNL A   1      43.763  33.080  31.285  1.00  0.00     0.058 A 
ATOM     53  C   UNL A   1      44.123  34.138  30.436  1.00  0.00     0.135 A 
ATOM     54  C   UNL A   1      43.570  33.381  32.644  1.00  0.00     0.135 A 
ATOM     55  F   UNL A   1      44.326  33.910  29.130  1.00  0.00    -0.206 F 
ATOM     56  C   UNL A   1      44.301  35.434  30.915  1.00  0.00     0.059 A 
ATOM     57  C   UNL A   1      43.711  34.672  33.142  1.00  0.00     0.059 A 
ATOM     58  F   UNL A   1      43.215  32.413  33.503  1.00  0.00    -0.206 F 
ATOM     59  C   UNL A   1      44.090  35.691  32.271  1.00  0.00     0.060 A 
BRANCH  59  60
ATOM     60  S   UNL A   1      44.285  37.382  32.878  1.00  0.00     0.124 S 
ATOM     61  O   UNL A   1      43.127  37.514  33.754  1.00  0.00    -0.237 OA
ATOM     62  O   UNL A   1      45.585  37.319  33.539  1.00  0.00    -0.237 OA
ATOM     63  O   UNL A   1      44.249  38.182  31.658  1.00  0.00    -0.744 OA
ENDBRANCH  59  60
ENDBRANCH  27  52
BRANCH  39  64
ATOM     64  C   UNL A   1      48.065  27.646  30.417  1.00  0.00     0.058 A 
ATOM     65  C   UNL A   1      48.571  27.194  31.644  1.00  0.00     0.135 A 
ATOM     66  C   UNL A   1      48.974  27.899  29.377  1.00  0.00     0.135 A 
ATOM     67  F   UNL A   1      47.740  26.942  32.668  1.00  0.00    -0.206 F 
ATOM     68  C   UNL A   1      49.936  27.032  31.845  1.00  0.00     0.059 A 
ATOM     69  C   UNL A   1      50.340  27.709  29.544  1.00  0.00     0.059 A 
ATOM     70  F   UNL A   1      48.535  28.317  28.179  1.00  0.00    -0.206 F 
ATOM     71  C   UNL A   1      50.812  27.292  30.788  1.00  0.00     0.060 A 
BRANCH  71  72
ATOM     72  S   UNL A   1      52.579  27.058  31.053  1.00  0.00     0.124 S 
ATOM     73  O   UNL A   1      52.814  27.902  32.219  1.00  0.00    -0.237 OA
ATOM     74  O   UNL A   1      52.674  25.620  31.281  1.00  0.00    -0.237 OA
ATOM     75  O   UNL A   1      53.175  27.529  29.806  1.00  0.00    -0.744 OA
ENDBRANCH  71  72
ENDBRANCH  39  64
ENDBRANCH  13  14
ENDBRANCH   6   8
ENDBRANCH   5   6
ENDBRANCH   4   5
ENDBRANCH   3   4
ENDBRANCH   2   3
ENDBRANCH   1   2
BRANCH   1  76
ATOM     76  C   UNL A   1      31.008  27.779  24.384  1.00  0.00     0.188 C 
BRANCH  76  77
ATOM     77  O   UNL A   1      31.157  26.674  25.269  1.00  0.00    -0.376 OA
BRANCH  77  78
ATOM     78  C   UNL A   1      32.235  25.781  24.999  1.00  0.00     0.202 C 
BRANCH  78  79
ATOM     79  C   UNL A   1      32.140  24.346  25.551  1.00  0.00     0.261 C 
BRANCH  79  80
ATOM     80  O   UNL A   1      31.498  23.412  24.666  1.00  0.00    -0.462 OA
BRANCH  80  81
ATOM     81  C   UNL A   1      31.714  22.076  24.882  1.00  0.00     0.333 C 
ATOM     82  O   UNL A   1      31.158  21.445  25.778  1.00  0.00    -0.250 OA
BRANCH  81  83
ATOM     83  C   UNL A   1      32.750  21.452  23.915  1.00  0.00     0.180 C 
ATOM     84  Cl  UNL A   1      32.286  19.757  23.491  1.00  0.00    -0.100 Cl
ATOM     85  C   UNL A   1      32.648  22.261  22.633  1.00  0.00     0.009 C 
ATOM     86  C   UNL A   1      34.202  21.403  24.497  1.00  0.00     0.148 C 
ATOM     87  C   UNL A   1      33.605  23.110  22.231  1.00  0.00    -0.002 C 
ATOM     88  C   UNL A   1      35.129  22.520  24.036  1.00  0.00    -0.020 C 
ATOM     89  Cl  UNL A   1      34.257  21.240  26.296  1.00  0.00    -0.115 Cl
ATOM     90  C   UNL A   1      34.820  23.301  22.987  1.00  0.00     0.006 C 
BRANCH  88  91
ATOM     91  C   UNL A   1      36.430  22.662  24.717  1.00  0.00    -0.021 A 
ATOM     92  C   UNL A   1      36.717  23.823  25.445  1.00  0.00     0.008 A 
ATOM     93  C   UNL A   1      37.332  21.589  24.757  1.00  0.00     0.008 A 
ATOM     94  C   UNL A   1      37.869  23.894  26.230  1.00  0.00     0.001 A 
ATOM     95  C   UNL A   1      38.485  21.663  25.540  1.00  0.00     0.001 A 
ATOM     96  C   UNL A   1      38.747  22.812  26.284  1.00  0.00     0.000 A 
ENDBRANCH  88  91
ENDBRANCH  81  83
ENDBRANCH  80  81
ENDBRANCH  79  80
ENDBRANCH  78  79
ENDBRANCH  77  78
ENDBRANCH  76  77
ENDBRANCH   1  76
TORSDOF 21
ENDMDL
MODEL 2
REMARK VINA RESULT:     -10.1      2.456      8.245
REMARK SMILES O=C(OCCOCCOCCOC(=O)[C@@]1(Cl)C=CC=C(c2ccccc2)[C@H]1Cl)c1ccc(-c2c3nc(c(-c4c(F)cc(S(=O)(=O)[O-])cc4F)c4ccc([nH]4)c(-c4c(F)cc(S(=O)(=O)[O-])cc4F)c4nc(c(-c5c(F)cc(S(=O)(=O)[O-])cc5F)c5ccc2[nH]5)C=C4)C=C3)cc1
REMARK SMILES IDX 7 1 6 2 5 3 4 4 3 5 2 6 1 7 29 8 30 9 94 10 31 11 93 12
REMARK SMILES IDX 32 13 33 14 34 15 87 16 35 17 92 18 86 19 88 20 36 21 91 22
REMARK SMILES IDX 85 23 84 24 37 26 71 27 50 28 70 29 51 30 54 31 69 32 89 33
REMARK SMILES IDX 52 34 53 35 68 37 90 38 55 39 38 40 39 41 48 42 40 43 41 44
REMARK SMILES IDX 47 45 49 46 42 47 43 48 44 49 45 50 46 51 72 52 73 53 82 54
REMARK SMILES IDX 74 55 75 56 81 57 83 58 76 59 77 60 78 61 79 62 80 63 56 64
REMARK SMILES IDX 57 65 66 66 58 67 59 68 65 69 67 70 60 71 61 72 62 73 63 74
REMARK SMILES IDX 64 75 8 76 9 77 10 78 11 79 12 80 13 81 14 82 15 83 16 84
REMARK SMILES IDX 17 85 27 86 18 87 20 88 28 89 19 90 21 91 22 92 26 93 23 94
REMARK SMILES IDX 25 95 24 96
REMARK H PARENT 88 25 54 36
REMARK Flexibility Score: inf
ROOT
ATOM      1  C   UNL A   1      32.126  28.677  23.691  1.00  0.00     0.188 C 
ENDROOT
BRANCH   1   2
ATOM      2  O   UNL A   1      32.666  29.586  24.653  1.00  0.00    -0.376 OA
BRANCH   2   3
ATOM      3  C   UNL A   1      31.696  30.085  25.575  1.00  0.00     0.202 C 
BRANCH   3   4
ATOM      4  C   UNL A   1      32.264  30.768  26.834  1.00  0.00     0.261 C 
BRANCH   4   5
ATOM      5  O   UNL A   1      33.561  30.289  27.239  1.00  0.00    -0.460 OA
BRANCH   5   6
ATOM      6  C   UNL A   1      34.552  30.929  27.912  1.00  0.00     0.338 C 
ATOM      7  O   UNL A   1      34.375  32.109  28.215  1.00  0.00    -0.246 OA
BRANCH   6   8
ATOM      8  C   UNL A   1      35.849  30.295  28.304  1.00  0.00     0.060 A 
ATOM      9  C   UNL A   1      36.046  29.533  29.453  1.00  0.00     0.016 A 
ATOM     10  C   UNL A   1      36.941  30.446  27.428  1.00  0.00     0.016 A 
ATOM     11  C   UNL A   1      37.288  29.021  29.786  1.00  0.00     0.010 A 
ATOM     12  C   UNL A   1      38.197  29.906  27.736  1.00  0.00     0.010 A 
ATOM     13  C   UNL A   1      38.377  29.235  28.949  1.00  0.00    -0.014 A 
BRANCH  13  14
ATOM     14  C   UNL A   1      39.706  28.963  29.526  1.00  0.00     0.031 A 
ATOM     15  C   UNL A   1      40.066  29.707  30.780  1.00  0.00     0.074 A 
ATOM     16  C   UNL A   1      40.443  27.936  29.071  1.00  0.00     0.049 A 
ATOM     17  N   UNL A   1      41.123  29.597  31.534  1.00  0.00    -0.248 NA
ATOM     18  C   UNL A   1      39.081  30.691  31.267  1.00  0.00     0.031 C 
ATOM     19  C   UNL A   1      40.078  27.073  27.945  1.00  0.00     0.029 A 
ATOM     20  N   UNL A   1      41.622  27.408  29.522  1.00  0.00    -0.354 N 
ATOM     21  C   UNL A   1      40.943  30.512  32.564  1.00  0.00     0.074 A 
ATOM     22  C   UNL A   1      39.683  31.178  32.338  1.00  0.00     0.031 C 
ATOM     23  C   UNL A   1      40.999  26.105  27.812  1.00  0.00     0.029 A 
ATOM     24  C   UNL A   1      42.050  26.318  28.800  1.00  0.00     0.049 A 
ATOM     25  H   UNL A   1      42.117  27.774  30.290  1.00  0.00     0.167 HD
ATOM     26  C   UNL A   1      41.767  30.772  33.603  1.00  0.00     0.037 A 
ATOM     27  C   UNL A   1      43.181  25.597  28.921  1.00  0.00     0.037 A 
ATOM     28  C   UNL A   1      43.015  30.087  33.793  1.00  0.00     0.049 A 
ATOM     29  C   UNL A   1      44.134  25.976  30.024  1.00  0.00     0.074 A 
ATOM     30  C   UNL A   1      43.976  30.295  34.763  1.00  0.00     0.029 A 
ATOM     31  N   UNL A   1      43.471  29.054  32.982  1.00  0.00    -0.354 N 
ATOM     32  N   UNL A   1      43.992  26.896  30.953  1.00  0.00    -0.248 NA
ATOM     33  C   UNL A   1      45.395  25.232  30.098  1.00  0.00     0.031 C 
ATOM     34  C   UNL A   1      45.041  29.425  34.502  1.00  0.00     0.029 A 
ATOM     35  C   UNL A   1      44.712  28.627  33.415  1.00  0.00     0.049 A 
ATOM     36  H   UNL A   1      42.983  28.682  32.212  1.00  0.00     0.167 HD
ATOM     37  C   UNL A   1      45.132  26.819  31.743  1.00  0.00     0.074 A 
ATOM     38  C   UNL A   1      45.947  25.755  31.184  1.00  0.00     0.031 C 
ATOM     39  C   UNL A   1      45.478  27.552  32.831  1.00  0.00     0.037 A 
BRANCH  26  40
ATOM     40  C   UNL A   1      41.377  31.892  34.526  1.00  0.00     0.058 A 
ATOM     41  C   UNL A   1      40.514  31.705  35.618  1.00  0.00     0.135 A 
ATOM     42  C   UNL A   1      41.839  33.194  34.276  1.00  0.00     0.135 A 
ATOM     43  F   UNL A   1      40.008  30.489  35.880  1.00  0.00    -0.206 F 
ATOM     44  C   UNL A   1      40.101  32.772  36.411  1.00  0.00     0.059 A 
ATOM     45  C   UNL A   1      41.463  34.272  35.071  1.00  0.00     0.059 A 
ATOM     46  F   UNL A   1      42.650  33.434  33.234  1.00  0.00    -0.206 F 
ATOM     47  C   UNL A   1      40.579  34.054  36.127  1.00  0.00     0.060 A 
BRANCH  47  48
ATOM     48  S   UNL A   1      40.027  35.434  37.150  1.00  0.00     0.124 S 
ATOM     49  O   UNL A   1      41.246  35.758  37.888  1.00  0.00    -0.237 OA
ATOM     50  O   UNL A   1      39.617  36.417  36.148  1.00  0.00    -0.237 OA
ATOM     51  O   UNL A   1      38.947  34.864  37.941  1.00  0.00    -0.744 OA
ENDBRANCH  47  48
ENDBRANCH  26  40
BRANCH  27  52
ATOM     52  C   UNL A   1      43.482  24.493  27.967  1.00  0.00     0.058 A 
ATOM     53  C   UNL A   1      42.856  23.241  28.066  1.00  0.00     0.135 A 
ATOM     54  C   UNL A   1      44.416  24.668  26.930  1.00  0.00     0.135 A 
ATOM     55  F   UNL A   1      41.960  23.015  29.038  1.00  0.00    -0.206 F 
ATOM     56  C   UNL A   1      43.153  22.202  27.187  1.00  0.00     0.059 A 
ATOM     57  C   UNL A   1      44.707  23.655  26.022  1.00  0.00     0.059 A 
ATOM     58  F   UNL A   1      45.040  25.846  26.779  1.00  0.00    -0.206 F 
ATOM     59  C   UNL A   1      44.080  22.420  26.166  1.00  0.00     0.060 A 
BRANCH  59  60
ATOM     60  S   UNL A   1      44.432  21.080  25.007  1.00  0.00     0.124 S 
ATOM     61  O   UNL A   1      43.358  20.140  25.309  1.00  0.00    -0.237 OA
ATOM     62  O   UNL A   1      44.345  21.760  23.719  1.00  0.00    -0.237 OA
ATOM     63  O   UNL A   1      45.774  20.650  25.390  1.00  0.00    -0.744 OA
ENDBRANCH  59  60
ENDBRANCH  27  52
BRANCH  39  64
ATOM     64  C   UNL A   1      46.760  27.182  33.518  1.00  0.00     0.058 A 
ATOM     65  C   UNL A   1      46.808  26.211  34.529  1.00  0.00     0.135 A 
ATOM     66  C   UNL A   1      47.966  27.778  33.116  1.00  0.00     0.135 A 
ATOM     67  F   UNL A   1      45.680  25.615  34.950  1.00  0.00    -0.206 F 
ATOM     68  C   UNL A   1      48.005  25.868  35.144  1.00  0.00     0.059 A 
ATOM     69  C   UNL A   1      49.179  27.426  33.691  1.00  0.00     0.059 A 
ATOM     70  F   UNL A   1      47.972  28.701  32.140  1.00  0.00    -0.206 F 
ATOM     71  C   UNL A   1      49.186  26.481  34.717  1.00  0.00     0.060 A 
BRANCH  71  72
ATOM     72  S   UNL A   1      50.737  26.014  35.507  1.00  0.00     0.124 S 
ATOM     73  O   UNL A   1      50.888  24.633  35.060  1.00  0.00    -0.237 OA
ATOM     74  O   UNL A   1      51.679  26.972  34.938  1.00  0.00    -0.237 OA
ATOM     75  O   UNL A   1      50.459  26.187  36.929  1.00  0.00    -0.744 OA
ENDBRANCH  71  72
ENDBRANCH  39  64
ENDBRANCH  13  14
ENDBRANCH   6   8
ENDBRANCH   5   6
ENDBRANCH   4   5
ENDBRANCH   3   4
ENDBRANCH   2   3
ENDBRANCH   1   2
BRANCH   1  76
ATOM     76  C   UNL A   1      30.857  27.989  24.179  1.00  0.00     0.188 C 
BRANCH  76  77
ATOM     77  O   UNL A   1      30.975  26.628  24.581  1.00  0.00    -0.376 OA
BRANCH  77  78
ATOM     78  C   UNL A   1      31.691  26.378  25.789  1.00  0.00     0.202 C 
BRANCH  78  79
ATOM     79  C   UNL A   1      31.887  24.914  26.223  1.00  0.00     0.261 C 
BRANCH  79  80
ATOM     80  O   UNL A   1      32.182  24.010  25.144  1.00  0.00    -0.462 OA
BRANCH  80  81
ATOM     81  C   UNL A   1      32.045  22.667  25.381  1.00  0.00     0.333 C 
ATOM     82  O   UNL A   1      31.277  22.211  26.225  1.00  0.00    -0.250 OA
BRANCH  81  83
ATOM     83  C   UNL A   1      32.977  21.787  24.511  1.00  0.00     0.180 C 
ATOM     84  Cl  UNL A   1      32.325  20.105  24.378  1.00  0.00    -0.100 Cl
ATOM     85  C   UNL A   1      32.914  22.385  23.115  1.00  0.00     0.009 C 
ATOM     86  C   UNL A   1      34.436  21.676  25.067  1.00  0.00     0.148 C 
ATOM     87  C   UNL A   1      33.939  23.050  22.563  1.00  0.00    -0.002 C 
ATOM     88  C   UNL A   1      35.456  22.597  24.413  1.00  0.00    -0.020 C 
ATOM     89  Cl  UNL A   1      34.537  21.800  26.867  1.00  0.00    -0.115 Cl
ATOM     90  C   UNL A   1      35.193  23.227  23.255  1.00  0.00     0.006 C 
BRANCH  88  91
ATOM     91  C   UNL A   1      36.788  22.705  25.038  1.00  0.00    -0.021 A 
ATOM     92  C   UNL A   1      37.153  23.877  25.711  1.00  0.00     0.008 A 
ATOM     93  C   UNL A   1      37.644  21.595  25.082  1.00  0.00     0.008 A 
ATOM     94  C   UNL A   1      38.338  23.925  26.447  1.00  0.00     0.001 A 
ATOM     95  C   UNL A   1      38.830  21.646  25.818  1.00  0.00     0.001 A 
ATOM     96  C   UNL A   1      39.171  22.808  26.507  1.00  0.00     0.000 A 
ENDBRANCH  88  91
ENDBRANCH  81  83
ENDBRANCH  80  81
ENDBRANCH  79  80
ENDBRANCH  78  79
ENDBRANCH  77  78
ENDBRANCH  76  77
ENDBRANCH   1  76
TORSDOF 21
ENDMDL
MODEL 3
REMARK VINA RESULT:     -10.1      2.902      8.917
REMARK SMILES O=C(OCCOCCOCCOC(=O)[C@@]1(Cl)C=CC=C(c2ccccc2)[C@H]1Cl)c1ccc(-c2c3nc(c(-c4c(F)cc(S(=O)(=O)[O-])cc4F)c4ccc([nH]4)c(-c4c(F)cc(S(=O)(=O)[O-])cc4F)c4nc(c(-c5c(F)cc(S(=O)(=O)[O-])cc5F)c5ccc2[nH]5)C=C4)C=C3)cc1
REMARK SMILES IDX 7 1 6 2 5 3 4 4 3 5 2 6 1 7 29 8 30 9 94 10 31 11 93 12
REMARK SMILES IDX 32 13 33 14 34 15 87 16 35 17 92 18 86 19 88 20 36 21 91 22
REMARK SMILES IDX 85 23 84 24 37 26 71 27 50 28 70 29 51 30 54 31 69 32 89 33
REMARK SMILES IDX 52 34 53 35 68 37 90 38 55 39 38 40 39 41 48 42 40 43 41 44
REMARK SMILES IDX 47 45 49 46 42 47 43 48 44 49 45 50 46 51 72 52 73 53 82 54
REMARK SMILES IDX 74 55 75 56 81 57 83 58 76 59 77 60 78 61 79 62 80 63 56 64
REMARK SMILES IDX 57 65 66 66 58 67 59 68 65 69 67 70 60 71 61 72 62 73 63 74
REMARK SMILES IDX 64 75 8 76 9 77 10 78 11 79 12 80 13 81 14 82 15 83 16 84
REMARK SMILES IDX 17 85 27 86 18 87 20 88 28 89 19 90 21 91 22 92 26 93 23 94
REMARK SMILES IDX 25 95 24 96
REMARK H PARENT 88 25 54 36
REMARK Flexibility Score: inf
ROOT
ATOM      1  C   UNL A   1      32.883  29.729  25.646  1.00  0.00     0.188 C 
ENDROOT
BRANCH   1   2
ATOM      2  O   UNL A   1      33.116  29.733  27.057  1.00  0.00    -0.376 OA
BRANCH   2   3
ATOM      3  C   UNL A   1      33.644  30.967  27.545  1.00  0.00     0.202 C 
BRANCH   3   4
ATOM      4  C   UNL A   1      35.111  30.925  28.013  1.00  0.00     0.261 C 
BRANCH   4   5
ATOM      5  O   UNL A   1      35.454  29.766  28.797  1.00  0.00    -0.460 OA
BRANCH   5   6
ATOM      6  C   UNL A   1      36.512  29.558  29.623  1.00  0.00     0.338 C 
ATOM      7  O   UNL A   1      36.286  29.406  30.823  1.00  0.00    -0.246 OA
BRANCH   6   8
ATOM      8  C   UNL A   1      37.937  29.507  29.169  1.00  0.00     0.060 A 
ATOM      9  C   UNL A   1      38.351  29.569  27.841  1.00  0.00     0.016 A 
ATOM     10  C   UNL A   1      38.935  29.433  30.160  1.00  0.00     0.016 A 
ATOM     11  C   UNL A   1      39.685  29.460  27.486  1.00  0.00     0.010 A 
ATOM     12  C   UNL A   1      40.291  29.354  29.817  1.00  0.00     0.010 A 
ATOM     13  C   UNL A   1      40.658  29.315  28.468  1.00  0.00    -0.014 A 
BRANCH  13  14
ATOM     14  C   UNL A   1      41.986  28.869  28.010  1.00  0.00     0.031 A 
ATOM     15  C   UNL A   1      43.104  29.866  28.097  1.00  0.00     0.074 A 
ATOM     16  C   UNL A   1      42.209  27.569  27.750  1.00  0.00     0.049 A 
ATOM     17  N   UNL A   1      44.373  29.713  27.843  1.00  0.00    -0.248 NA
ATOM     18  C   UNL A   1      42.745  31.219  28.564  1.00  0.00     0.031 C 
ATOM     19  C   UNL A   1      41.192  26.516  27.795  1.00  0.00     0.029 A 
ATOM     20  N   UNL A   1      43.363  26.900  27.447  1.00  0.00    -0.354 N 
ATOM     21  C   UNL A   1      44.955  30.950  28.093  1.00  0.00     0.074 A 
ATOM     22  C   UNL A   1      43.906  31.848  28.508  1.00  0.00     0.031 C 
ATOM     23  C   UNL A   1      41.773  25.329  27.558  1.00  0.00     0.029 A 
ATOM     24  C   UNL A   1      43.188  25.546  27.281  1.00  0.00     0.049 A 
ATOM     25  H   UNL A   1      44.236  27.346  27.356  1.00  0.00     0.167 HD
ATOM     26  C   UNL A   1      46.256  31.298  27.977  1.00  0.00     0.037 A 
ATOM     27  C   UNL A   1      44.078  24.601  26.923  1.00  0.00     0.037 A 
ATOM     28  C   UNL A   1      47.272  30.373  27.559  1.00  0.00     0.049 A 
ATOM     29  C   UNL A   1      45.503  25.037  26.697  1.00  0.00     0.074 A 
ATOM     30  C   UNL A   1      48.615  30.607  27.337  1.00  0.00     0.029 A 
ATOM     31  N   UNL A   1      47.045  29.027  27.298  1.00  0.00    -0.354 N 
ATOM     32  N   UNL A   1      46.034  26.227  26.863  1.00  0.00    -0.248 NA
ATOM     33  C   UNL A   1      46.446  24.014  26.235  1.00  0.00     0.031 C 
ATOM     34  C   UNL A   1      49.188  29.413  26.885  1.00  0.00     0.029 A 
ATOM     35  C   UNL A   1      48.218  28.419  26.895  1.00  0.00     0.049 A 
ATOM     36  H   UNL A   1      46.176  28.574  27.387  1.00  0.00     0.167 HD
ATOM     37  C   UNL A   1      47.382  26.090  26.557  1.00  0.00     0.074 A 
ATOM     38  C   UNL A   1      47.582  24.696  26.205  1.00  0.00     0.031 C 
ATOM     39  C   UNL A   1      48.368  27.022  26.568  1.00  0.00     0.037 A 
BRANCH  26  40
ATOM     40  C   UNL A   1      46.604  32.741  28.213  1.00  0.00     0.058 A 
ATOM     41  C   UNL A   1      47.063  33.214  29.453  1.00  0.00     0.135 A 
ATOM     42  C   UNL A   1      46.423  33.679  27.184  1.00  0.00     0.135 A 
ATOM     43  F   UNL A   1      47.216  32.369  30.486  1.00  0.00    -0.206 F 
ATOM     44  C   UNL A   1      47.301  34.568  29.672  1.00  0.00     0.059 A 
ATOM     45  C   UNL A   1      46.681  35.033  27.371  1.00  0.00     0.059 A 
ATOM     46  F   UNL A   1      45.967  33.285  25.984  1.00  0.00    -0.206 F 
ATOM     47  C   UNL A   1      47.104  35.471  28.625  1.00  0.00     0.060 A 
BRANCH  47  48
ATOM     48  S   UNL A   1      47.400  37.227  28.923  1.00  0.00     0.124 S 
ATOM     49  O   UNL A   1      48.838  37.325  28.685  1.00  0.00    -0.237 OA
ATOM     50  O   UNL A   1      46.551  37.858  27.914  1.00  0.00    -0.237 OA
ATOM     51  O   UNL A   1      46.976  37.417  30.302  1.00  0.00    -0.744 OA
ENDBRANCH  47  48
ENDBRANCH  26  40
BRANCH  27  52
ATOM     52  C   UNL A   1      43.647  23.189  26.723  1.00  0.00     0.058 A 
ATOM     53  C   UNL A   1      43.563  22.617  25.446  1.00  0.00     0.135 A 
ATOM     54  C   UNL A   1      43.303  22.377  27.818  1.00  0.00     0.135 A 
ATOM     55  F   UNL A   1      43.874  23.346  24.363  1.00  0.00    -0.206 F 
ATOM     56  C   UNL A   1      43.139  21.303  25.257  1.00  0.00     0.059 A 
ATOM     57  C   UNL A   1      42.907  21.053  27.659  1.00  0.00     0.059 A 
ATOM     58  F   UNL A   1      43.374  22.865  29.066  1.00  0.00    -0.206 F 
ATOM     59  C   UNL A   1      42.815  20.528  26.372  1.00  0.00     0.060 A 
BRANCH  59  60
ATOM     60  S   UNL A   1      42.304  18.813  26.123  1.00  0.00     0.124 S 
ATOM     61  O   UNL A   1      42.529  18.244  27.447  1.00  0.00    -0.237 OA
ATOM     62  O   UNL A   1      40.909  18.967  25.721  1.00  0.00    -0.237 OA
ATOM     63  O   UNL A   1      43.203  18.344  25.073  1.00  0.00    -0.744 OA
ENDBRANCH  59  60
ENDBRANCH  27  52
BRANCH  39  64
ATOM     64  C   UNL A   1      49.755  26.545  26.249  1.00  0.00     0.058 A 
ATOM     65  C   UNL A   1      50.293  26.632  24.957  1.00  0.00     0.135 A 
ATOM     66  C   UNL A   1      50.572  26.039  27.273  1.00  0.00     0.135 A 
ATOM     67  F   UNL A   1      49.548  27.105  23.944  1.00  0.00    -0.206 F 
ATOM     68  C   UNL A   1      51.584  26.199  24.682  1.00  0.00     0.059 A 
ATOM     69  C   UNL A   1      51.878  25.635  27.029  1.00  0.00     0.059 A 
ATOM     70  F   UNL A   1      50.107  25.953  28.530  1.00  0.00    -0.206 F 
ATOM     71  C   UNL A   1      52.368  25.703  25.726  1.00  0.00     0.060 A 
BRANCH  71  72
ATOM     72  S   UNL A   1      54.050  25.165  25.362  1.00  0.00     0.124 S 
ATOM     73  O   UNL A   1      54.703  25.354  26.653  1.00  0.00    -0.237 OA
ATOM     74  O   UNL A   1      53.852  23.780  24.948  1.00  0.00    -0.237 OA
ATOM     75  O   UNL A   1      54.476  26.075  24.303  1.00  0.00    -0.744 OA
ENDBRANCH  71  72
ENDBRANCH  39  64
ENDBRANCH  13  14
ENDBRANCH   6   8
ENDBRANCH   5   6
ENDBRANCH   4   5
ENDBRANCH   3   4
ENDBRANCH   2   3
ENDBRANCH   1   2
BRANCH   1  76
ATOM     76  C   UNL A   1      31.629  28.954  25.259  1.00  0.00     0.188 C 
BRANCH  76  77
ATOM     77  O   UNL A   1      31.031  29.277  24.008  1.00  0.00    -0.376 OA
BRANCH  77  78
ATOM     78  C   UNL A   1      31.611  28.684  22.850  1.00  0.00     0.202 C 
BRANCH  78  79
ATOM     79  C   UNL A   1      31.212  27.238  22.502  1.00  0.00     0.261 C 
BRANCH  79  80
ATOM     80  O   UNL A   1      32.135  26.238  22.968  1.00  0.00    -0.462 OA
BRANCH  80  81
ATOM     81  C   UNL A   1      31.616  25.064  23.448  1.00  0.00     0.333 C 
ATOM     82  O   UNL A   1      30.637  24.513  22.950  1.00  0.00    -0.250 OA
BRANCH  81  83
ATOM     83  C   UNL A   1      32.357  24.523  24.695  1.00  0.00     0.180 C 
ATOM     84  Cl  UNL A   1      33.557  25.733  25.299  1.00  0.00    -0.100 Cl
ATOM     85  C   UNL A   1      31.295  24.394  25.774  1.00  0.00     0.009 C 
ATOM     86  C   UNL A   1      33.135  23.190  24.435  1.00  0.00     0.148 C 
ATOM     87  C   UNL A   1      30.843  23.209  26.210  1.00  0.00    -0.002 C 
ATOM     88  C   UNL A   1      32.421  21.920  24.876  1.00  0.00    -0.020 C 
ATOM     89  Cl  UNL A   1      33.733  23.019  22.738  1.00  0.00    -0.115 Cl
ATOM     90  C   UNL A   1      31.354  21.962  25.694  1.00  0.00     0.006 C 
BRANCH  88  91
ATOM     91  C   UNL A   1      32.992  20.626  24.458  1.00  0.00    -0.021 A 
ATOM     92  C   UNL A   1      34.240  20.220  24.945  1.00  0.00     0.008 A 
ATOM     93  C   UNL A   1      32.237  19.734  23.683  1.00  0.00     0.008 A 
ATOM     94  C   UNL A   1      34.708  18.930  24.691  1.00  0.00     0.001 A 
ATOM     95  C   UNL A   1      32.708  18.444  23.428  1.00  0.00     0.001 A 
ATOM     96  C   UNL A   1      33.939  18.041  23.941  1.00  0.00     0.000 A 
ENDBRANCH  88  91
ENDBRANCH  81  83
ENDBRANCH  80  81
ENDBRANCH  79  80
ENDBRANCH  78  79
ENDBRANCH  77  78
ENDBRANCH  76  77
ENDBRANCH   1  76
TORSDOF 21
ENDMDL
