MODEL 1
REMARK VINA RESULT:     -10.1      0.000      0.000
REMARK SMILES C[C@@H](C(=O)OCCOCCOCCOC(=O)c1ccc(-c2c3nc(c(-c4c(F)cc(S(=O)(=O)[O-])cc4F)c4ccc([nH]4)c(-c4c(F)cc(S(=O)(=O)[O-])cc4F)c4nc(c(-c5c(F)cc(S(=O)(=O)[O-])cc5F)c5ccc2[nH]5)C=C4)C=C3)cc1)c1ccc(C[C@H]2CCC[C@H]2O)cc1
REMARK SMILES IDX 9 1 8 2 7 3 6 4 5 5 3 6 4 7 2 8 1 9 83 10 84 11 95 12 85 13
REMARK SMILES IDX 94 14 86 15 87 16 88 17 89 18 92 19 90 20 91 21 93 22 10 24
REMARK SMILES IDX 11 25 12 26 13 27 14 28 15 29 16 30 17 31 18 32 82 33 19 34
REMARK SMILES IDX 81 35 20 36 21 37 22 38 75 39 23 40 80 41 74 42 76 43 24 44
REMARK SMILES IDX 79 45 73 46 72 47 25 49 59 50 38 51 58 52 39 53 42 54 57 55
REMARK SMILES IDX 77 56 40 57 41 58 56 60 78 61 43 62 26 63 27 64 36 65 28 66
REMARK SMILES IDX 29 67 35 68 37 69 30 70 31 71 32 72 33 73 34 74 60 75 61 76
REMARK SMILES IDX 70 77 62 78 63 79 69 80 71 81 64 82 65 83 66 84 67 85 68 86
REMARK SMILES IDX 44 87 45 88 54 89 46 90 47 91 53 92 55 93 48 94 49 95 50 96
REMARK SMILES IDX 51 97 52 98
REMARK H PARENT 93 23 76 48 42 59
REMARK Flexibility Score: inf
ROOT
ATOM      1  C   UNL A   1      36.258  23.280  24.153  1.00  0.00     0.188 C 
ENDROOT
BRANCH   1   2
ATOM      2  O   UNL A   1      34.914  23.632  24.413  1.00  0.00    -0.376 OA
BRANCH   2   3
ATOM      3  C   UNL A   1      34.662  24.769  25.235  1.00  0.00     0.202 C 
BRANCH   3   4
ATOM      4  C   UNL A   1      33.802  25.952  24.744  1.00  0.00     0.261 C 
BRANCH   4   5
ATOM      5  O   UNL A   1      32.407  25.650  24.539  1.00  0.00    -0.463 OA
BRANCH   5   6
ATOM      6  C   UNL A   1      31.686  25.341  25.655  1.00  0.00     0.313 C 
ATOM      7  O   UNL A   1      31.677  26.040  26.665  1.00  0.00    -0.252 OA
BRANCH   6   8
ATOM      8  C   UNL A   1      30.814  24.079  25.521  1.00  0.00     0.126 C 
ATOM      9  C   UNL A   1      29.928  23.757  26.733  1.00  0.00     0.025 C 
BRANCH   8  10
ATOM     10  C   UNL A   1      31.546  22.847  24.980  1.00  0.00    -0.034 A 
ATOM     11  C   UNL A   1      31.632  22.570  23.612  1.00  0.00     0.005 A 
ATOM     12  C   UNL A   1      32.103  21.902  25.857  1.00  0.00     0.005 A 
ATOM     13  C   UNL A   1      32.234  21.407  23.137  1.00  0.00     0.004 A 
ATOM     14  C   UNL A   1      32.606  20.681  25.382  1.00  0.00     0.004 A 
ATOM     15  C   UNL A   1      32.605  20.395  24.013  1.00  0.00    -0.048 A 
BRANCH  15  16
ATOM     16  C   UNL A   1      32.879  19.005  23.484  1.00  0.00     0.041 C 
BRANCH  16  17
ATOM     17  C   UNL A   1      33.489  17.986  24.480  1.00  0.00     0.022 C 
ATOM     18  C   UNL A   1      32.461  17.181  25.296  1.00  0.00     0.007 C 
ATOM     19  C   UNL A   1      34.516  16.937  23.999  1.00  0.00     0.117 C 
ATOM     20  C   UNL A   1      33.085  15.807  25.552  1.00  0.00     0.003 C 
ATOM     21  C   UNL A   1      34.548  15.930  25.142  1.00  0.00     0.032 C 
BRANCH  19  22
ATOM     22  O   UNL A   1      34.169  16.242  22.813  1.00  0.00    -0.393 OA
ATOM     23  H   UNL A   1      33.231  15.996  22.846  1.00  0.00     0.210 HD
ENDBRANCH  19  22
ENDBRANCH  16  17
ENDBRANCH  15  16
ENDBRANCH   8  10
ENDBRANCH   6   8
ENDBRANCH   5   6
ENDBRANCH   4   5
ENDBRANCH   3   4
ENDBRANCH   2   3
ENDBRANCH   1   2
BRANCH   1  24
ATOM     24  C   UNL A   1      36.724  21.860  24.493  1.00  0.00     0.188 C 
BRANCH  24  25
ATOM     25  O   UNL A   1      38.003  21.679  25.047  1.00  0.00    -0.376 OA
BRANCH  25  26
ATOM     26  C   UNL A   1      38.534  20.374  25.194  1.00  0.00     0.202 C 
BRANCH  26  27
ATOM     27  C   UNL A   1      39.674  19.961  26.149  1.00  0.00     0.261 C 
BRANCH  27  28
ATOM     28  O   UNL A   1      40.886  19.439  25.599  1.00  0.00    -0.460 OA
BRANCH  28  29
ATOM     29  C   UNL A   1      41.961  19.439  26.425  1.00  0.00     0.338 C 
ATOM     30  O   UNL A   1      42.629  18.472  26.760  1.00  0.00    -0.246 OA
BRANCH  29  31
ATOM     31  C   UNL A   1      42.332  20.844  26.696  1.00  0.00     0.060 A 
ATOM     32  C   UNL A   1      42.463  21.736  25.622  1.00  0.00     0.016 A 
ATOM     33  C   UNL A   1      42.554  21.274  28.004  1.00  0.00     0.016 A 
ATOM     34  C   UNL A   1      42.839  23.061  25.854  1.00  0.00     0.010 A 
ATOM     35  C   UNL A   1      42.960  22.592  28.231  1.00  0.00     0.010 A 
ATOM     36  C   UNL A   1      43.133  23.482  27.156  1.00  0.00    -0.014 A 
BRANCH  36  37
ATOM     37  C   UNL A   1      43.787  24.795  27.381  1.00  0.00     0.031 A 
ATOM     38  C   UNL A   1      42.950  25.934  27.889  1.00  0.00     0.074 A 
ATOM     39  C   UNL A   1      45.094  24.979  27.124  1.00  0.00     0.049 A 
ATOM     40  N   UNL A   1      43.283  27.182  28.091  1.00  0.00    -0.248 NA
ATOM     41  C   UNL A   1      41.540  25.630  28.182  1.00  0.00     0.031 C 
ATOM     42  C   UNL A   1      45.999  23.953  26.616  1.00  0.00     0.029 A 
ATOM     43  N   UNL A   1      45.884  26.095  27.249  1.00  0.00    -0.354 N 
ATOM     44  C   UNL A   1      42.118  27.821  28.498  1.00  0.00     0.074 A 
ATOM     45  C   UNL A   1      41.069  26.826  28.508  1.00  0.00     0.031 C 
ATOM     46  C   UNL A   1      47.229  24.482  26.492  1.00  0.00     0.029 A 
ATOM     47  C   UNL A   1      47.193  25.890  26.881  1.00  0.00     0.049 A 
ATOM     48  H   UNL A   1      45.544  26.961  27.573  1.00  0.00     0.167 HD
ATOM     49  C   UNL A   1      41.939  29.124  28.821  1.00  0.00     0.037 A 
ATOM     50  C   UNL A   1      48.235  26.748  26.850  1.00  0.00     0.037 A 
ATOM     51  C   UNL A   1      42.989  30.110  28.809  1.00  0.00     0.049 A 
ATOM     52  C   UNL A   1      48.007  28.196  27.216  1.00  0.00     0.074 A 
ATOM     53  C   UNL A   1      42.910  31.451  29.141  1.00  0.00     0.029 A 
ATOM     54  N   UNL A   1      44.303  29.867  28.439  1.00  0.00    -0.354 N 
ATOM     55  N   UNL A   1      46.907  28.784  27.625  1.00  0.00    -0.248 NA
ATOM     56  C   UNL A   1      49.158  29.103  27.091  1.00  0.00     0.031 C 
ATOM     57  C   UNL A   1      44.162  32.031  28.915  1.00  0.00     0.029 A 
ATOM     58  C   UNL A   1      45.039  31.038  28.510  1.00  0.00     0.049 A 
ATOM     59  H   UNL A   1      44.661  28.991  28.165  1.00  0.00     0.167 HD
ATOM     60  C   UNL A   1      47.238  30.123  27.819  1.00  0.00     0.074 A 
ATOM     61  C   UNL A   1      48.646  30.252  27.510  1.00  0.00     0.031 C 
ATOM     62  C   UNL A   1      46.445  31.154  28.208  1.00  0.00     0.037 A 
BRANCH  49  63
ATOM     63  C   UNL A   1      40.547  29.569  29.172  1.00  0.00     0.058 A 
ATOM     64  C   UNL A   1      39.530  29.664  28.209  1.00  0.00     0.135 A 
ATOM     65  C   UNL A   1      40.218  29.876  30.504  1.00  0.00     0.135 A 
ATOM     66  F   UNL A   1      39.793  29.404  26.919  1.00  0.00    -0.206 F 
ATOM     67  C   UNL A   1      38.243  30.069  28.550  1.00  0.00     0.059 A 
ATOM     68  C   UNL A   1      38.930  30.252  30.872  1.00  0.00     0.059 A 
ATOM     69  F   UNL A   1      41.154  29.807  31.463  1.00  0.00    -0.206 F 
ATOM     70  C   UNL A   1      37.953  30.358  29.885  1.00  0.00     0.060 A 
BRANCH  70  71
ATOM     71  S   UNL A   1      36.274  30.867  30.310  1.00  0.00     0.124 S 
ATOM     72  O   UNL A   1      36.487  32.247  30.736  1.00  0.00    -0.237 OA
ATOM     73  O   UNL A   1      35.568  30.695  29.045  1.00  0.00    -0.237 OA
ATOM     74  O   UNL A   1      35.894  29.937  31.369  1.00  0.00    -0.744 OA
ENDBRANCH  70  71
ENDBRANCH  49  63
BRANCH  50  75
ATOM     75  C   UNL A   1      49.592  26.276  26.456  1.00  0.00     0.058 A 
ATOM     76  C   UNL A   1      50.442  25.668  27.396  1.00  0.00     0.135 A 
ATOM     77  C   UNL A   1      50.079  26.434  25.150  1.00  0.00     0.135 A 
ATOM     78  F   UNL A   1      50.030  25.499  28.662  1.00  0.00    -0.206 F 
ATOM     79  C   UNL A   1      51.727  25.255  27.061  1.00  0.00     0.059 A 
ATOM     80  C   UNL A   1      51.348  25.994  24.781  1.00  0.00     0.059 A 
ATOM     81  F   UNL A   1      49.310  27.005  24.210  1.00  0.00    -0.206 F 
ATOM     82  C   UNL A   1      52.170  25.419  25.748  1.00  0.00     0.060 A 
BRANCH  82  83
ATOM     83  S   UNL A   1      53.824  24.840  25.317  1.00  0.00     0.124 S 
ATOM     84  O   UNL A   1      53.571  23.440  24.996  1.00  0.00    -0.237 OA
ATOM     85  O   UNL A   1      54.164  25.702  24.189  1.00  0.00    -0.237 OA
ATOM     86  O   UNL A   1      54.593  25.079  26.535  1.00  0.00    -0.744 OA
ENDBRANCH  82  83
ENDBRANCH  50  75
BRANCH  62  87
ATOM     87  C   UNL A   1      47.082  32.511  28.361  1.00  0.00     0.058 A 
ATOM     88  C   UNL A   1      47.022  33.479  27.345  1.00  0.00     0.135 A 
ATOM     89  C   UNL A   1      47.707  32.870  29.567  1.00  0.00     0.135 A 
ATOM     90  F   UNL A   1      46.442  33.190  26.170  1.00  0.00    -0.206 F 
ATOM     91  C   UNL A   1      47.580  34.744  27.511  1.00  0.00     0.059 A 
ATOM     92  C   UNL A   1      48.243  34.138  29.766  1.00  0.00     0.059 A 
ATOM     93  F   UNL A   1      47.782  31.989  30.577  1.00  0.00    -0.206 F 
ATOM     94  C   UNL A   1      48.185  35.065  28.727  1.00  0.00     0.060 A 
BRANCH  94  95
ATOM     95  S   UNL A   1      48.874  36.720  28.940  1.00  0.00     0.124 S 
ATOM     96  O   UNL A   1      50.232  36.542  28.439  1.00  0.00    -0.237 OA
ATOM     97  O   UNL A   1      47.994  37.534  28.109  1.00  0.00    -0.237 OA
ATOM     98  O   UNL A   1      48.762  36.954  30.377  1.00  0.00    -0.744 OA
ENDBRANCH  94  95
ENDBRANCH  62  87
ENDBRANCH  36  37
ENDBRANCH  29  31
ENDBRANCH  28  29
ENDBRANCH  27  28
ENDBRANCH  26  27
ENDBRANCH  25  26
ENDBRANCH  24  25
ENDBRANCH   1  24
TORSDOF 24
ENDMDL
MODEL 2
REMARK VINA RESULT:     -10.1      6.339      8.607
REMARK SMILES C[C@@H](C(=O)OCCOCCOCCOC(=O)c1ccc(-c2c3nc(c(-c4c(F)cc(S(=O)(=O)[O-])cc4F)c4ccc([nH]4)c(-c4c(F)cc(S(=O)(=O)[O-])cc4F)c4nc(c(-c5c(F)cc(S(=O)(=O)[O-])cc5F)c5ccc2[nH]5)C=C4)C=C3)cc1)c1ccc(C[C@H]2CCC[C@H]2O)cc1
REMARK SMILES IDX 9 1 8 2 7 3 6 4 5 5 3 6 4 7 2 8 1 9 83 10 84 11 95 12 85 13
REMARK SMILES IDX 94 14 86 15 87 16 88 17 89 18 92 19 90 20 91 21 93 22 10 24
REMARK SMILES IDX 11 25 12 26 13 27 14 28 15 29 16 30 17 31 18 32 82 33 19 34
REMARK SMILES IDX 81 35 20 36 21 37 22 38 75 39 23 40 80 41 74 42 76 43 24 44
REMARK SMILES IDX 79 45 73 46 72 47 25 49 59 50 38 51 58 52 39 53 42 54 57 55
REMARK SMILES IDX 77 56 40 57 41 58 56 60 78 61 43 62 26 63 27 64 36 65 28 66
REMARK SMILES IDX 29 67 35 68 37 69 30 70 31 71 32 72 33 73 34 74 60 75 61 76
REMARK SMILES IDX 70 77 62 78 63 79 69 80 71 81 64 82 65 83 66 84 67 85 68 86
REMARK SMILES IDX 44 87 45 88 54 89 46 90 47 91 53 92 55 93 48 94 49 95 50 96
REMARK SMILES IDX 51 97 52 98
REMARK H PARENT 93 23 76 48 42 59
REMARK Flexibility Score: inf
ROOT
ATOM      1  C   UNL A   1      35.600  22.705  25.818  1.00  0.00     0.188 C 
ENDROOT
BRANCH   1   2
ATOM      2  O   UNL A   1      34.597  23.699  25.737  1.00  0.00    -0.376 OA
BRANCH   2   3
ATOM      3  C   UNL A   1      34.895  24.900  25.032  1.00  0.00     0.202 C 
BRANCH   3   4
ATOM      4  C   UNL A   1      33.784  25.854  24.545  1.00  0.00     0.261 C 
BRANCH   4   5
ATOM      5  O   UNL A   1      33.404  25.694  23.163  1.00  0.00    -0.463 OA
BRANCH   5   6
ATOM      6  C   UNL A   1      32.148  26.108  22.830  1.00  0.00     0.313 C 
ATOM      7  O   UNL A   1      31.918  27.169  22.259  1.00  0.00    -0.252 OA
BRANCH   6   8
ATOM      8  C   UNL A   1      31.036  25.093  23.158  1.00  0.00     0.126 C 
ATOM      9  C   UNL A   1      29.838  25.656  23.937  1.00  0.00     0.025 C 
BRANCH   8  10
ATOM     10  C   UNL A   1      31.531  23.757  23.720  1.00  0.00    -0.034 A 
ATOM     11  C   UNL A   1      32.244  22.839  22.943  1.00  0.00     0.005 A 
ATOM     12  C   UNL A   1      31.219  23.372  25.034  1.00  0.00     0.005 A 
ATOM     13  C   UNL A   1      32.622  21.595  23.443  1.00  0.00     0.004 A 
ATOM     14  C   UNL A   1      31.501  22.078  25.496  1.00  0.00     0.004 A 
ATOM     15  C   UNL A   1      32.144  21.151  24.669  1.00  0.00    -0.048 A 
BRANCH  15  16
ATOM     16  C   UNL A   1      32.222  19.682  25.021  1.00  0.00     0.041 C 
BRANCH  16  17
ATOM     17  C   UNL A   1      33.142  18.800  24.140  1.00  0.00     0.022 C 
ATOM     18  C   UNL A   1      34.577  18.623  24.672  1.00  0.00     0.007 C 
ATOM     19  C   UNL A   1      32.702  17.380  23.722  1.00  0.00     0.117 C 
ATOM     20  C   UNL A   1      35.035  17.230  24.237  1.00  0.00     0.003 C 
ATOM     21  C   UNL A   1      33.997  16.742  23.234  1.00  0.00     0.032 C 
BRANCH  19  22
ATOM     22  O   UNL A   1      32.180  16.571  24.762  1.00  0.00    -0.393 OA
ATOM     23  H   UNL A   1      32.540  16.868  25.613  1.00  0.00     0.210 HD
ENDBRANCH  19  22
ENDBRANCH  16  17
ENDBRANCH  15  16
ENDBRANCH   8  10
ENDBRANCH   6   8
ENDBRANCH   5   6
ENDBRANCH   4   5
ENDBRANCH   3   4
ENDBRANCH   2   3
ENDBRANCH   1   2
BRANCH   1  24
ATOM     24  C   UNL A   1      37.068  23.136  25.729  1.00  0.00     0.188 C 
BRANCH  24  25
ATOM     25  O   UNL A   1      38.050  22.158  25.490  1.00  0.00    -0.376 OA
BRANCH  25  26
ATOM     26  C   UNL A   1      39.230  22.130  26.274  1.00  0.00     0.202 C 
BRANCH  26  27
ATOM     27  C   UNL A   1      40.123  23.342  26.612  1.00  0.00     0.261 C 
BRANCH  27  28
ATOM     28  O   UNL A   1      39.615  24.661  26.399  1.00  0.00    -0.460 OA
BRANCH  28  29
ATOM     29  C   UNL A   1      40.541  25.645  26.295  1.00  0.00     0.338 C 
ATOM     30  O   UNL A   1      41.103  26.018  25.276  1.00  0.00    -0.246 OA
BRANCH  29  31
ATOM     31  C   UNL A   1      40.614  26.348  27.592  1.00  0.00     0.060 A 
ATOM     32  C   UNL A   1      39.593  26.153  28.535  1.00  0.00     0.016 A 
ATOM     33  C   UNL A   1      41.683  27.199  27.874  1.00  0.00     0.016 A 
ATOM     34  C   UNL A   1      39.629  26.828  29.756  1.00  0.00     0.010 A 
ATOM     35  C   UNL A   1      41.702  27.897  29.085  1.00  0.00     0.010 A 
ATOM     36  C   UNL A   1      40.661  27.738  30.017  1.00  0.00    -0.014 A 
BRANCH  36  37
ATOM     37  C   UNL A   1      40.567  28.653  31.182  1.00  0.00     0.031 A 
ATOM     38  C   UNL A   1      39.511  29.722  31.170  1.00  0.00     0.074 A 
ATOM     39  C   UNL A   1      41.412  28.549  32.222  1.00  0.00     0.049 A 
ATOM     40  N   UNL A   1      39.287  30.674  32.037  1.00  0.00    -0.248 NA
ATOM     41  C   UNL A   1      38.605  29.733  30.010  1.00  0.00     0.031 C 
ATOM     42  C   UNL A   1      42.482  27.563  32.336  1.00  0.00     0.029 A 
ATOM     43  N   UNL A   1      41.507  29.285  33.377  1.00  0.00    -0.354 N 
ATOM     44  C   UNL A   1      38.240  31.421  31.511  1.00  0.00     0.074 A 
ATOM     45  C   UNL A   1      37.878  30.816  30.248  1.00  0.00     0.031 C 
ATOM     46  C   UNL A   1      43.115  27.742  33.508  1.00  0.00     0.029 A 
ATOM     47  C   UNL A   1      42.517  28.873  34.215  1.00  0.00     0.049 A 
ATOM     48  H   UNL A   1      40.907  30.038  33.586  1.00  0.00     0.167 HD
ATOM     49  C   UNL A   1      37.644  32.521  32.030  1.00  0.00     0.037 A 
ATOM     50  C   UNL A   1      42.917  29.365  35.406  1.00  0.00     0.037 A 
ATOM     51  C   UNL A   1      38.009  33.118  33.289  1.00  0.00     0.049 A 
ATOM     52  C   UNL A   1      42.234  30.593  35.963  1.00  0.00     0.074 A 
ATOM     53  C   UNL A   1      37.450  34.221  33.909  1.00  0.00     0.029 A 
ATOM     54  N   UNL A   1      39.030  32.671  34.114  1.00  0.00    -0.354 N 
ATOM     55  N   UNL A   1      41.228  31.276  35.470  1.00  0.00    -0.248 NA
ATOM     56  C   UNL A   1      42.760  31.132  37.226  1.00  0.00     0.031 C 
ATOM     57  C   UNL A   1      38.170  34.476  35.081  1.00  0.00     0.029 A 
ATOM     58  C   UNL A   1      39.134  33.491  35.226  1.00  0.00     0.049 A 
ATOM     59  H   UNL A   1      39.598  31.887  33.937  1.00  0.00     0.167 HD
ATOM     60  C   UNL A   1      40.992  32.313  36.369  1.00  0.00     0.074 A 
ATOM     61  C   UNL A   1      41.943  32.151  37.449  1.00  0.00     0.031 C 
ATOM     62  C   UNL A   1      40.079  33.315  36.302  1.00  0.00     0.037 A 
BRANCH  49  63
ATOM     63  C   UNL A   1      36.563  33.177  31.217  1.00  0.00     0.058 A 
ATOM     64  C   UNL A   1      35.203  33.051  31.545  1.00  0.00     0.135 A 
ATOM     65  C   UNL A   1      36.899  33.973  30.108  1.00  0.00     0.135 A 
ATOM     66  F   UNL A   1      34.825  32.285  32.580  1.00  0.00    -0.206 F 
ATOM     67  C   UNL A   1      34.214  33.671  30.788  1.00  0.00     0.059 A 
ATOM     68  C   UNL A   1      35.927  34.628  29.357  1.00  0.00     0.059 A 
ATOM     69  F   UNL A   1      38.183  34.123  29.748  1.00  0.00    -0.206 F 
ATOM     70  C   UNL A   1      34.587  34.460  29.697  1.00  0.00     0.060 A 
BRANCH  70  71
ATOM     71  S   UNL A   1      33.290  35.269  28.738  1.00  0.00     0.124 S 
ATOM     72  O   UNL A   1      32.480  35.871  29.792  1.00  0.00    -0.237 OA
ATOM     73  O   UNL A   1      34.051  36.202  27.912  1.00  0.00    -0.237 OA
ATOM     74  O   UNL A   1      32.661  34.167  28.017  1.00  0.00    -0.744 OA
ENDBRANCH  70  71
ENDBRANCH  49  63
BRANCH  50  75
ATOM     75  C   UNL A   1      44.020  28.709  36.164  1.00  0.00     0.058 A 
ATOM     76  C   UNL A   1      45.339  29.186  36.069  1.00  0.00     0.135 A 
ATOM     77  C   UNL A   1      43.793  27.590  36.979  1.00  0.00     0.135 A 
ATOM     78  F   UNL A   1      45.614  30.249  35.298  1.00  0.00    -0.206 F 
ATOM     79  C   UNL A   1      46.390  28.566  36.736  1.00  0.00     0.059 A 
ATOM     80  C   UNL A   1      44.823  26.976  37.687  1.00  0.00     0.059 A 
ATOM     81  F   UNL A   1      42.553  27.094  37.109  1.00  0.00    -0.206 F 
ATOM     82  C   UNL A   1      46.121  27.463  37.547  1.00  0.00     0.060 A 
BRANCH  82  83
ATOM     83  S   UNL A   1      47.489  26.695  38.440  1.00  0.00     0.124 S 
ATOM     84  O   UNL A   1      48.552  27.674  38.247  1.00  0.00    -0.237 OA
ATOM     85  O   UNL A   1      46.951  26.596  39.793  1.00  0.00    -0.237 OA
ATOM     86  O   UNL A   1      47.670  25.422  37.749  1.00  0.00    -0.744 OA
ENDBRANCH  82  83
ENDBRANCH  50  75
BRANCH  62  87
ATOM     87  C   UNL A   1      40.030  34.299  37.442  1.00  0.00     0.058 A 
ATOM     88  C   UNL A   1      40.786  35.483  37.434  1.00  0.00     0.135 A 
ATOM     89  C   UNL A   1      39.166  34.085  38.528  1.00  0.00     0.135 A 
ATOM     90  F   UNL A   1      41.631  35.740  36.424  1.00  0.00    -0.206 F 
ATOM     91  C   UNL A   1      40.704  36.405  38.475  1.00  0.00     0.059 A 
ATOM     92  C   UNL A   1      39.045  35.007  39.562  1.00  0.00     0.059 A 
ATOM     93  F   UNL A   1      38.411  32.976  38.582  1.00  0.00    -0.206 F 
ATOM     94  C   UNL A   1      39.827  36.160  39.532  1.00  0.00     0.060 A 
BRANCH  94  95
ATOM     95  S   UNL A   1      39.706  37.380  40.858  1.00  0.00     0.124 S 
ATOM     96  O   UNL A   1      38.979  36.635  41.880  1.00  0.00    -0.237 OA
ATOM     97  O   UNL A   1      41.107  37.660  41.153  1.00  0.00    -0.237 OA
ATOM     98  O   UNL A   1      38.970  38.481  40.242  1.00  0.00    -0.744 OA
ENDBRANCH  94  95
ENDBRANCH  62  87
ENDBRANCH  36  37
ENDBRANCH  29  31
ENDBRANCH  28  29
ENDBRANCH  27  28
ENDBRANCH  26  27
ENDBRANCH  25  26
ENDBRANCH  24  25
ENDBRANCH   1  24
TORSDOF 24
ENDMDL
MODEL 3
REMARK VINA RESULT:     -10.0      5.038     10.417
REMARK SMILES C[C@@H](C(=O)OCCOCCOCCOC(=O)c1ccc(-c2c3nc(c(-c4c(F)cc(S(=O)(=O)[O-])cc4F)c4ccc([nH]4)c(-c4c(F)cc(S(=O)(=O)[O-])cc4F)c4nc(c(-c5c(F)cc(S(=O)(=O)[O-])cc5F)c5ccc2[nH]5)C=C4)C=C3)cc1)c1ccc(C[C@H]2CCC[C@H]2O)cc1
REMARK SMILES IDX 9 1 8 2 7 3 6 4 5 5 3 6 4 7 2 8 1 9 83 10 84 11 95 12 85 13
REMARK SMILES IDX 94 14 86 15 87 16 88 17 89 18 92 19 90 20 91 21 93 22 10 24
REMARK SMILES IDX 11 25 12 26 13 27 14 28 15 29 16 30 17 31 18 32 82 33 19 34
REMARK SMILES IDX 81 35 20 36 21 37 22 38 75 39 23 40 80 41 74 42 76 43 24 44
REMARK SMILES IDX 79 45 73 46 72 47 25 49 59 50 38 51 58 52 39 53 42 54 57 55
REMARK SMILES IDX 77 56 40 57 41 58 56 60 78 61 43 62 26 63 27 64 36 65 28 66
REMARK SMILES IDX 29 67 35 68 37 69 30 70 31 71 32 72 33 73 34 74 60 75 61 76
REMARK SMILES IDX 70 77 62 78 63 79 69 80 71 81 64 82 65 83 66 84 67 85 68 86
REMARK SMILES IDX 44 87 45 88 54 89 46 90 47 91 53 92 55 93 48 94 49 95 50 96
REMARK SMILES IDX 51 97 52 98
REMARK H PARENT 93 23 76 48 42 59
REMARK Flexibility Score: inf
ROOT
ATOM      1  C   UNL A   1      35.927  33.829  30.882  1.00  0.00     0.188 C 
ENDROOT
BRANCH   1   2
ATOM      2  O   UNL A   1      36.706  34.107  32.029  1.00  0.00    -0.376 OA
BRANCH   2   3
ATOM      3  C   UNL A   1      37.523  33.067  32.557  1.00  0.00     0.202 C 
BRANCH   3   4
ATOM      4  C   UNL A   1      37.543  32.733  34.064  1.00  0.00     0.261 C 
BRANCH   4   5
ATOM      5  O   UNL A   1      38.760  32.121  34.538  1.00  0.00    -0.463 OA
BRANCH   5   6
ATOM      6  C   UNL A   1      38.731  30.768  34.700  1.00  0.00     0.313 C 
ATOM      7  O   UNL A   1      38.520  30.223  35.780  1.00  0.00    -0.252 OA
BRANCH   6   8
ATOM      8  C   UNL A   1      38.905  29.967  33.395  1.00  0.00     0.126 C 
ATOM      9  C   UNL A   1      37.792  28.954  33.090  1.00  0.00     0.025 C 
BRANCH   8  10
ATOM     10  C   UNL A   1      40.307  29.388  33.180  1.00  0.00    -0.034 A 
ATOM     11  C   UNL A   1      40.535  28.260  32.386  1.00  0.00     0.005 A 
ATOM     12  C   UNL A   1      41.419  29.938  33.839  1.00  0.00     0.005 A 
ATOM     13  C   UNL A   1      41.804  27.698  32.260  1.00  0.00     0.004 A 
ATOM     14  C   UNL A   1      42.670  29.304  33.801  1.00  0.00     0.004 A 
ATOM     15  C   UNL A   1      42.851  28.129  33.064  1.00  0.00    -0.048 A 
BRANCH  15  16
ATOM     16  C   UNL A   1      44.089  27.274  33.211  1.00  0.00     0.041 C 
BRANCH  16  17
ATOM     17  C   UNL A   1      43.872  25.787  33.591  1.00  0.00     0.022 C 
ATOM     18  C   UNL A   1      44.590  24.773  32.680  1.00  0.00     0.007 C 
ATOM     19  C   UNL A   1      44.155  25.294  35.027  1.00  0.00     0.117 C 
ATOM     20  C   UNL A   1      44.953  23.576  33.561  1.00  0.00     0.003 C 
ATOM     21  C   UNL A   1      44.202  23.779  34.872  1.00  0.00     0.032 C 
BRANCH  19  22
ATOM     22  O   UNL A   1      45.388  25.716  35.585  1.00  0.00    -0.393 OA
ATOM     23  H   UNL A   1      45.725  25.028  36.179  1.00  0.00     0.210 HD
ENDBRANCH  19  22
ENDBRANCH  16  17
ENDBRANCH  15  16
ENDBRANCH   8  10
ENDBRANCH   6   8
ENDBRANCH   5   6
ENDBRANCH   4   5
ENDBRANCH   3   4
ENDBRANCH   2   3
ENDBRANCH   1   2
BRANCH   1  24
ATOM     24  C   UNL A   1      34.430  34.154  30.915  1.00  0.00     0.188 C 
BRANCH  24  25
ATOM     25  O   UNL A   1      33.632  33.795  29.815  1.00  0.00    -0.376 OA
BRANCH  25  26
ATOM     26  C   UNL A   1      34.224  33.589  28.545  1.00  0.00     0.202 C 
BRANCH  26  27
ATOM     27  C   UNL A   1      34.711  32.239  27.979  1.00  0.00     0.261 C 
BRANCH  27  28
ATOM     28  O   UNL A   1      33.879  31.085  28.122  1.00  0.00    -0.460 OA
BRANCH  28  29
ATOM     29  C   UNL A   1      34.366  29.933  27.599  1.00  0.00     0.338 C 
ATOM     30  O   UNL A   1      33.803  29.192  26.807  1.00  0.00    -0.246 OA
BRANCH  29  31
ATOM     31  C   UNL A   1      35.788  29.819  27.982  1.00  0.00     0.060 A 
ATOM     32  C   UNL A   1      36.776  29.962  26.995  1.00  0.00     0.016 A 
ATOM     33  C   UNL A   1      36.144  29.567  29.306  1.00  0.00     0.016 A 
ATOM     34  C   UNL A   1      38.124  29.831  27.331  1.00  0.00     0.010 A 
ATOM     35  C   UNL A   1      37.493  29.406  29.635  1.00  0.00     0.010 A 
ATOM     36  C   UNL A   1      38.486  29.508  28.644  1.00  0.00    -0.014 A 
BRANCH  36  37
ATOM     37  C   UNL A   1      39.881  29.104  28.952  1.00  0.00     0.031 A 
ATOM     38  C   UNL A   1      40.784  30.101  29.620  1.00  0.00     0.074 A 
ATOM     39  C   UNL A   1      40.343  27.884  28.629  1.00  0.00     0.049 A 
ATOM     40  N   UNL A   1      42.053  30.000  29.919  1.00  0.00    -0.248 NA
ATOM     41  C   UNL A   1      40.181  31.397  29.973  1.00  0.00     0.031 C 
ATOM     42  C   UNL A   1      39.564  26.842  27.967  1.00  0.00     0.029 A 
ATOM     43  N   UNL A   1      41.580  27.317  28.810  1.00  0.00    -0.354 N 
ATOM     44  C   UNL A   1      42.410  31.229  30.461  1.00  0.00     0.074 A 
ATOM     45  C   UNL A   1      41.227  32.061  30.443  1.00  0.00     0.031 C 
ATOM     46  C   UNL A   1      40.336  25.752  27.814  1.00  0.00     0.029 A 
ATOM     47  C   UNL A   1      41.673  26.027  28.339  1.00  0.00     0.049 A 
ATOM     48  H   UNL A   1      42.332  27.789  29.237  1.00  0.00     0.167 HD
ATOM     49  C   UNL A   1      43.620  31.629  30.918  1.00  0.00     0.037 A 
ATOM     50  C   UNL A   1      42.721  25.178  28.323  1.00  0.00     0.037 A 
ATOM     51  C   UNL A   1      44.794  30.795  30.933  1.00  0.00     0.049 A 
ATOM     52  C   UNL A   1      44.060  25.651  28.841  1.00  0.00     0.074 A 
ATOM     53  C   UNL A   1      46.060  31.104  31.397  1.00  0.00     0.029 A 
ATOM     54  N   UNL A   1      44.850  29.494  30.457  1.00  0.00    -0.354 N 
ATOM     55  N   UNL A   1      44.380  26.806  29.375  1.00  0.00    -0.248 NA
ATOM     56  C   UNL A   1      45.186  24.712  28.729  1.00  0.00     0.031 C 
ATOM     57  C   UNL A   1      46.896  30.011  31.148  1.00  0.00     0.029 A 
ATOM     58  C   UNL A   1      46.135  28.995  30.592  1.00  0.00     0.049 A 
ATOM     59  H   UNL A   1      44.089  28.997  30.077  1.00  0.00     0.167 HD
ATOM     60  C   UNL A   1      45.738  26.725  29.675  1.00  0.00     0.074 A 
ATOM     61  C   UNL A   1      46.171  25.399  29.289  1.00  0.00     0.031 C 
ATOM     62  C   UNL A   1      46.554  27.668  30.212  1.00  0.00     0.037 A 
BRANCH  49  63
ATOM     63  C   UNL A   1      43.747  33.047  31.401  1.00  0.00     0.058 A 
ATOM     64  C   UNL A   1      43.925  34.123  30.515  1.00  0.00     0.135 A 
ATOM     65  C   UNL A   1      43.658  33.338  32.773  1.00  0.00     0.135 A 
ATOM     66  F   UNL A   1      44.039  33.901  29.196  1.00  0.00    -0.206 F 
ATOM     67  C   UNL A   1      44.032  35.431  30.974  1.00  0.00     0.059 A 
ATOM     68  C   UNL A   1      43.731  34.642  33.251  1.00  0.00     0.059 A 
ATOM     69  F   UNL A   1      43.494  32.347  33.663  1.00  0.00    -0.206 F 
ATOM     70  C   UNL A   1      43.932  35.681  32.345  1.00  0.00     0.060 A 
BRANCH  70  71
ATOM     71  S   UNL A   1      44.058  37.387  32.921  1.00  0.00     0.124 S 
ATOM     72  O   UNL A   1      45.367  37.381  33.565  1.00  0.00    -0.237 OA
ATOM     73  O   UNL A   1      43.967  38.142  31.675  1.00  0.00    -0.237 OA
ATOM     74  O   UNL A   1      42.918  37.528  33.821  1.00  0.00    -0.744 OA
ENDBRANCH  70  71
ENDBRANCH  49  63
BRANCH  50  75
ATOM     75  C   UNL A   1      42.564  23.792  27.799  1.00  0.00     0.058 A 
ATOM     76  C   UNL A   1      42.492  23.551  26.416  1.00  0.00     0.135 A 
ATOM     77  C   UNL A   1      42.466  22.685  28.656  1.00  0.00     0.135 A 
ATOM     78  F   UNL A   1      42.574  24.574  25.551  1.00  0.00    -0.206 F 
ATOM     79  C   UNL A   1      42.306  22.271  25.905  1.00  0.00     0.059 A 
ATOM     80  C   UNL A   1      42.318  21.390  28.166  1.00  0.00     0.059 A 
ATOM     81  F   UNL A   1      42.532  22.855  29.984  1.00  0.00    -0.206 F 
ATOM     82  C   UNL A   1      42.225  21.194  26.790  1.00  0.00     0.060 A 
BRANCH  82  83
ATOM     83  S   UNL A   1      42.027  19.534  26.111  1.00  0.00     0.124 S 
ATOM     84  O   UNL A   1      42.524  18.708  27.206  1.00  0.00    -0.237 OA
ATOM     85  O   UNL A   1      40.589  19.474  25.869  1.00  0.00    -0.237 OA
ATOM     86  O   UNL A   1      42.858  19.558  24.911  1.00  0.00    -0.744 OA
ENDBRANCH  82  83
ENDBRANCH  50  75
BRANCH  62  87
ATOM     87  C   UNL A   1      47.994  27.295  30.453  1.00  0.00     0.058 A 
ATOM     88  C   UNL A   1      48.992  27.521  29.490  1.00  0.00     0.135 A 
ATOM     89  C   UNL A   1      48.392  26.763  31.691  1.00  0.00     0.135 A 
ATOM     90  F   UNL A   1      48.669  28.023  28.288  1.00  0.00    -0.206 F 
ATOM     91  C   UNL A   1      50.326  27.209  29.738  1.00  0.00     0.059 A 
ATOM     92  C   UNL A   1      49.723  26.473  31.971  1.00  0.00     0.059 A 
ATOM     93  F   UNL A   1      47.483  26.538  32.653  1.00  0.00    -0.206 F 
ATOM     94  C   UNL A   1      50.682  26.689  30.983  1.00  0.00     0.060 A 
BRANCH  94  95
ATOM     95  S   UNL A   1      52.421  26.321  31.302  1.00  0.00     0.124 S 
ATOM     96  O   UNL A   1      53.034  26.655  30.021  1.00  0.00    -0.237 OA
ATOM     97  O   UNL A   1      52.732  27.220  32.408  1.00  0.00    -0.237 OA
ATOM     98  O   UNL A   1      52.413  24.901  31.641  1.00  0.00    -0.744 OA
ENDBRANCH  94  95
ENDBRANCH  62  87
ENDBRANCH  36  37
ENDBRANCH  29  31
ENDBRANCH  28  29
ENDBRANCH  27  28
ENDBRANCH  26  27
ENDBRANCH  25  26
ENDBRANCH  24  25
ENDBRANCH   1  24
TORSDOF 24
ENDMDL
