MODEL 1
REMARK VINA RESULT:      -8.9      0.000      0.000
REMARK SMILES O=C(OCCOCCOCCOC(=O)[C@H]1CCCCN1c1cc(-c2ccccc2)nc(-c2cccc(Cl)c2)n1)c1ccc(-c2c3nc(c(-c4c(F)cc(S(=O)(=O)[O-])cc4F)c4ccc([nH]4)c(-c4c(F)cc(S(=O)(=O)[O-])cc4F)c4nc(c(-c5c(F)cc(S(=O)(=O)[O-])cc5F)c5ccc2[nH]5)C=C4)C=C3)cc1
REMARK SMILES IDX 7 1 6 2 5 3 4 4 3 5 2 6 1 7 40 8 41 9 105 10 42 11 104 12
REMARK SMILES IDX 43 13 44 14 45 15 98 16 46 17 103 18 97 19 99 20 47 21
REMARK SMILES IDX 102 22 96 23 95 24 48 26 82 27 61 28 81 29 62 30 65 31 80 32
REMARK SMILES IDX 100 33 63 34 64 35 79 37 101 38 66 39 49 40 50 41 59 42
REMARK SMILES IDX 51 43 52 44 58 45 60 46 53 47 54 48 55 49 56 50 57 51 83 52
REMARK SMILES IDX 84 53 93 54 85 55 86 56 92 57 94 58 87 59 88 60 89 61 90 62
REMARK SMILES IDX 91 63 67 64 68 65 77 66 69 67 70 68 76 69 78 70 71 71 72 72
REMARK SMILES IDX 73 73 74 74 75 75 8 76 9 77 10 78 11 79 12 80 13 81 14 82
REMARK SMILES IDX 15 83 16 84 20 85 17 86 19 87 18 88 21 89 22 90 39 91 23 92
REMARK SMILES IDX 31 93 30 94 24 95 25 96 29 97 26 98 28 99 27 100 32 101
REMARK SMILES IDX 33 102 38 103 34 104 36 105 35 106 37 107
REMARK H PARENT 99 25 65 36
REMARK Flexibility Score: inf
ROOT
ATOM      1  C   UNL A   1      37.489  32.831  36.271  1.00  0.00     0.188 C 
ENDROOT
BRANCH   1   2
ATOM      2  O   UNL A   1      36.903  33.087  37.558  1.00  0.00    -0.376 OA
BRANCH   2   3
ATOM      3  C   UNL A   1      37.533  32.374  38.627  1.00  0.00     0.202 C 
BRANCH   3   4
ATOM      4  C   UNL A   1      38.352  33.219  39.614  1.00  0.00     0.261 C 
BRANCH   4   5
ATOM      5  O   UNL A   1      39.597  33.686  39.078  1.00  0.00    -0.460 OA
BRANCH   5   6
ATOM      6  C   UNL A   1      40.827  33.122  39.135  1.00  0.00     0.338 C 
ATOM      7  O   UNL A   1      41.424  33.183  40.211  1.00  0.00    -0.246 OA
BRANCH   6   8
ATOM      8  C   UNL A   1      41.531  32.451  37.988  1.00  0.00     0.060 A 
ATOM      9  C   UNL A   1      42.909  32.291  37.841  1.00  0.00     0.016 A 
ATOM     10  C   UNL A   1      40.708  31.934  36.962  1.00  0.00     0.016 A 
ATOM     11  C   UNL A   1      43.454  31.728  36.688  1.00  0.00     0.010 A 
ATOM     12  C   UNL A   1      41.246  31.341  35.813  1.00  0.00     0.010 A 
ATOM     13  C   UNL A   1      42.628  31.271  35.660  1.00  0.00    -0.014 A 
BRANCH  13  14
ATOM     14  C   UNL A   1      43.266  30.929  34.374  1.00  0.00     0.031 A 
ATOM     15  C   UNL A   1      43.645  29.498  34.159  1.00  0.00     0.074 A 
ATOM     16  C   UNL A   1      43.368  31.840  33.391  1.00  0.00     0.049 A 
ATOM     17  N   UNL A   1      44.135  28.924  33.097  1.00  0.00    -0.248 NA
ATOM     18  C   UNL A   1      43.444  28.590  35.303  1.00  0.00     0.031 C 
ATOM     19  C   UNL A   1      42.997  33.242  33.525  1.00  0.00     0.029 A 
ATOM     20  N   UNL A   1      43.761  31.727  32.084  1.00  0.00    -0.354 N 
ATOM     21  C   UNL A   1      44.349  27.602  33.458  1.00  0.00     0.074 A 
ATOM     22  C   UNL A   1      43.892  27.444  34.819  1.00  0.00     0.031 C 
ATOM     23  C   UNL A   1      43.076  33.842  32.328  1.00  0.00     0.029 A 
ATOM     24  C   UNL A   1      43.592  32.885  31.356  1.00  0.00     0.049 A 
ATOM     25  H   UNL A   1      44.130  30.899  31.701  1.00  0.00     0.167 HD
ATOM     26  C   UNL A   1      44.928  26.625  32.725  1.00  0.00     0.037 A 
ATOM     27  C   UNL A   1      43.847  33.134  30.056  1.00  0.00     0.037 A 
ATOM     28  C   UNL A   1      45.428  26.841  31.395  1.00  0.00     0.049 A 
ATOM     29  C   UNL A   1      44.477  32.026  29.252  1.00  0.00     0.074 A 
ATOM     30  C   UNL A   1      46.140  25.978  30.585  1.00  0.00     0.029 A 
ATOM     31  N   UNL A   1      45.276  28.029  30.686  1.00  0.00    -0.354 N 
ATOM     32  N   UNL A   1      44.740  30.792  29.621  1.00  0.00    -0.248 NA
ATOM     33  C   UNL A   1      44.893  32.346  27.882  1.00  0.00     0.031 C 
ATOM     34  C   UNL A   1      46.453  26.659  29.403  1.00  0.00     0.029 A 
ATOM     35  C   UNL A   1      45.887  27.925  29.452  1.00  0.00     0.049 A 
ATOM     36  H   UNL A   1      44.802  28.826  31.017  1.00  0.00     0.167 HD
ATOM     37  C   UNL A   1      45.375  30.195  28.540  1.00  0.00     0.074 A 
ATOM     38  C   UNL A   1      45.416  31.192  27.486  1.00  0.00     0.031 C 
ATOM     39  C   UNL A   1      45.899  28.949  28.432  1.00  0.00     0.037 A 
BRANCH  26  40
ATOM     40  C   UNL A   1      45.156  25.313  33.418  1.00  0.00     0.058 A 
ATOM     41  C   UNL A   1      46.176  25.137  34.367  1.00  0.00     0.135 A 
ATOM     42  C   UNL A   1      44.402  24.188  33.048  1.00  0.00     0.135 A 
ATOM     43  F   UNL A   1      46.953  26.171  34.726  1.00  0.00    -0.206 F 
ATOM     44  C   UNL A   1      46.470  23.881  34.890  1.00  0.00     0.059 A 
ATOM     45  C   UNL A   1      44.663  22.928  33.576  1.00  0.00     0.059 A 
ATOM     46  F   UNL A   1      43.429  24.297  32.131  1.00  0.00    -0.206 F 
ATOM     47  C   UNL A   1      45.716  22.780  34.477  1.00  0.00     0.060 A 
BRANCH  47  48
ATOM     48  S   UNL A   1      46.149  21.146  35.110  1.00  0.00     0.124 S 
ATOM     49  O   UNL A   1      46.548  21.461  36.478  1.00  0.00    -0.237 OA
ATOM     50  O   UNL A   1      44.896  20.412  34.968  1.00  0.00    -0.237 OA
ATOM     51  O   UNL A   1      47.228  20.714  34.225  1.00  0.00    -0.744 OA
ENDBRANCH  47  48
ENDBRANCH  26  40
BRANCH  27  52
ATOM     52  C   UNL A   1      43.548  34.469  29.460  1.00  0.00     0.058 A 
ATOM     53  C   UNL A   1      44.568  35.404  29.223  1.00  0.00     0.135 A 
ATOM     54  C   UNL A   1      42.244  34.834  29.084  1.00  0.00     0.135 A 
ATOM     55  F   UNL A   1      45.832  35.121  29.574  1.00  0.00    -0.206 F 
ATOM     56  C   UNL A   1      44.310  36.642  28.635  1.00  0.00     0.059 A 
ATOM     57  C   UNL A   1      41.965  36.051  28.466  1.00  0.00     0.059 A 
ATOM     58  F   UNL A   1      41.223  33.985  29.286  1.00  0.00    -0.206 F 
ATOM     59  C   UNL A   1      43.005  36.952  28.252  1.00  0.00     0.060 A 
BRANCH  59  60
ATOM     60  S   UNL A   1      42.688  38.527  27.423  1.00  0.00     0.124 S 
ATOM     61  O   UNL A   1      43.982  38.798  26.806  1.00  0.00    -0.237 OA
ATOM     62  O   UNL A   1      41.605  38.182  26.508  1.00  0.00    -0.237 OA
ATOM     63  O   UNL A   1      42.314  39.412  28.522  1.00  0.00    -0.744 OA
ENDBRANCH  59  60
ENDBRANCH  27  52
BRANCH  39  64
ATOM     64  C   UNL A   1      46.551  28.591  27.130  1.00  0.00     0.058 A 
ATOM     65  C   UNL A   1      47.942  28.667  26.962  1.00  0.00     0.135 A 
ATOM     66  C   UNL A   1      45.783  28.069  26.078  1.00  0.00     0.135 A 
ATOM     67  F   UNL A   1      48.716  29.162  27.941  1.00  0.00    -0.206 F 
ATOM     68  C   UNL A   1      48.551  28.242  25.788  1.00  0.00     0.059 A 
ATOM     69  C   UNL A   1      46.372  27.617  24.905  1.00  0.00     0.059 A 
ATOM     70  F   UNL A   1      44.450  27.968  26.201  1.00  0.00    -0.206 F 
ATOM     71  C   UNL A   1      47.757  27.712  24.768  1.00  0.00     0.060 A 
BRANCH  71  72
ATOM     72  S   UNL A   1      48.564  27.101  23.274  1.00  0.00     0.124 S 
ATOM     73  O   UNL A   1      49.971  27.327  23.586  1.00  0.00    -0.237 OA
ATOM     74  O   UNL A   1      48.139  25.704  23.237  1.00  0.00    -0.237 OA
ATOM     75  O   UNL A   1      48.010  27.946  22.220  1.00  0.00    -0.744 OA
ENDBRANCH  71  72
ENDBRANCH  39  64
ENDBRANCH  13  14
ENDBRANCH   6   8
ENDBRANCH   5   6
ENDBRANCH   4   5
ENDBRANCH   3   4
ENDBRANCH   2   3
ENDBRANCH   1   2
BRANCH   1  76
ATOM     76  C   UNL A   1      36.961  33.782  35.194  1.00  0.00     0.188 C 
BRANCH  76  77
ATOM     77  O   UNL A   1      36.204  33.179  34.143  1.00  0.00    -0.376 OA
BRANCH  77  78
ATOM     78  C   UNL A   1      36.680  31.948  33.612  1.00  0.00     0.202 C 
BRANCH  78  79
ATOM     79  C   UNL A   1      37.890  32.026  32.680  1.00  0.00     0.261 C 
BRANCH  79  80
ATOM     80  O   UNL A   1      38.560  30.772  32.531  1.00  0.00    -0.462 OA
BRANCH  80  81
ATOM     81  C   UNL A   1      38.284  30.073  31.390  1.00  0.00     0.328 C 
ATOM     82  O   UNL A   1      37.827  28.939  31.376  1.00  0.00    -0.250 OA
BRANCH  81  83
ATOM     83  C   UNL A   1      38.650  30.869  30.117  1.00  0.00     0.193 C 
ATOM     84  C   UNL A   1      40.146  31.038  29.851  1.00  0.00     0.037 C 
ATOM     85  N   UNL A   1      38.062  30.247  28.926  1.00  0.00    -0.343 N 
ATOM     86  C   UNL A   1      40.825  29.767  29.323  1.00  0.00     0.005 C 
ATOM     87  C   UNL A   1      38.541  28.928  28.555  1.00  0.00     0.119 C 
ATOM     88  C   UNL A   1      40.030  29.039  28.239  1.00  0.00     0.022 C 
BRANCH  85  89
ATOM     89  C   UNL A   1      36.785  30.651  28.613  1.00  0.00     0.134 A 
ATOM     90  C   UNL A   1      36.007  29.937  27.738  1.00  0.00     0.076 A 
ATOM     91  N   UNL A   1      36.309  31.725  29.255  1.00  0.00    -0.211 NA
ATOM     92  C   UNL A   1      34.697  30.340  27.582  1.00  0.00     0.076 A 
ATOM     93  C   UNL A   1      35.043  32.096  28.988  1.00  0.00     0.162 A 
ATOM     94  N   UNL A   1      34.185  31.418  28.205  1.00  0.00    -0.228 NA
BRANCH  92  95
ATOM     95  C   UNL A   1      33.799  29.566  26.726  1.00  0.00     0.000 A 
ATOM     96  C   UNL A   1      34.122  28.257  26.345  1.00  0.00     0.010 A 
ATOM     97  C   UNL A   1      32.547  30.086  26.351  1.00  0.00     0.010 A 
ATOM     98  C   UNL A   1      33.206  27.476  25.637  1.00  0.00     0.001 A 
ATOM     99  C   UNL A   1      31.634  29.309  25.636  1.00  0.00     0.001 A 
ATOM    100  C   UNL A   1      31.961  28.000  25.288  1.00  0.00     0.000 A 
ENDBRANCH  92  95
BRANCH  93 101
ATOM    101  C   UNL A   1      34.568  33.321  29.640  1.00  0.00     0.021 A 
ATOM    102  C   UNL A   1      34.478  33.401  31.043  1.00  0.00     0.012 A 
ATOM    103  C   UNL A   1      34.175  34.442  28.890  1.00  0.00     0.032 A 
ATOM    104  C   UNL A   1      34.015  34.556  31.678  1.00  0.00     0.002 A 
ATOM    105  C   UNL A   1      33.695  35.588  29.526  1.00  0.00     0.041 A 
ATOM    106  C   UNL A   1      33.616  35.652  30.916  1.00  0.00     0.020 A 
ATOM    107  Cl  UNL A   1      33.181  36.936  28.583  1.00  0.00    -0.084 Cl
ENDBRANCH  93 101
ENDBRANCH  85  89
ENDBRANCH  81  83
ENDBRANCH  80  81
ENDBRANCH  79  80
ENDBRANCH  78  79
ENDBRANCH  77  78
ENDBRANCH  76  77
ENDBRANCH   1  76
TORSDOF 23
ENDMDL
MODEL 2
REMARK VINA RESULT:      -8.6      4.259     10.278
REMARK SMILES O=C(OCCOCCOCCOC(=O)[C@H]1CCCCN1c1cc(-c2ccccc2)nc(-c2cccc(Cl)c2)n1)c1ccc(-c2c3nc(c(-c4c(F)cc(S(=O)(=O)[O-])cc4F)c4ccc([nH]4)c(-c4c(F)cc(S(=O)(=O)[O-])cc4F)c4nc(c(-c5c(F)cc(S(=O)(=O)[O-])cc5F)c5ccc2[nH]5)C=C4)C=C3)cc1
REMARK SMILES IDX 7 1 6 2 5 3 4 4 3 5 2 6 1 7 40 8 41 9 105 10 42 11 104 12
REMARK SMILES IDX 43 13 44 14 45 15 98 16 46 17 103 18 97 19 99 20 47 21
REMARK SMILES IDX 102 22 96 23 95 24 48 26 82 27 61 28 81 29 62 30 65 31 80 32
REMARK SMILES IDX 100 33 63 34 64 35 79 37 101 38 66 39 49 40 50 41 59 42
REMARK SMILES IDX 51 43 52 44 58 45 60 46 53 47 54 48 55 49 56 50 57 51 83 52
REMARK SMILES IDX 84 53 93 54 85 55 86 56 92 57 94 58 87 59 88 60 89 61 90 62
REMARK SMILES IDX 91 63 67 64 68 65 77 66 69 67 70 68 76 69 78 70 71 71 72 72
REMARK SMILES IDX 73 73 74 74 75 75 8 76 9 77 10 78 11 79 12 80 13 81 14 82
REMARK SMILES IDX 15 83 16 84 20 85 17 86 19 87 18 88 21 89 22 90 39 91 23 92
REMARK SMILES IDX 31 93 30 94 24 95 25 96 29 97 26 98 28 99 27 100 32 101
REMARK SMILES IDX 33 102 38 103 34 104 36 105 35 106 37 107
REMARK H PARENT 99 25 65 36
REMARK Flexibility Score: inf
ROOT
ATOM      1  C   UNL A   1      37.692  34.558  33.456  1.00  0.00     0.188 C 
ENDROOT
BRANCH   1   2
ATOM      2  O   UNL A   1      36.411  33.992  33.776  1.00  0.00    -0.376 OA
BRANCH   2   3
ATOM      3  C   UNL A   1      36.323  32.588  33.520  1.00  0.00     0.202 C 
BRANCH   3   4
ATOM      4  C   UNL A   1      35.371  32.164  32.392  1.00  0.00     0.261 C 
BRANCH   4   5
ATOM      5  O   UNL A   1      35.847  31.052  31.622  1.00  0.00    -0.460 OA
BRANCH   5   6
ATOM      6  C   UNL A   1      36.371  31.028  30.373  1.00  0.00     0.338 C 
ATOM      7  O   UNL A   1      35.750  31.624  29.493  1.00  0.00    -0.246 OA
BRANCH   6   8
ATOM      8  C   UNL A   1      37.632  30.314  29.972  1.00  0.00     0.060 A 
ATOM      9  C   UNL A   1      38.584  29.768  30.833  1.00  0.00     0.016 A 
ATOM     10  C   UNL A   1      37.867  30.186  28.585  1.00  0.00     0.016 A 
ATOM     11  C   UNL A   1      39.763  29.204  30.346  1.00  0.00     0.010 A 
ATOM     12  C   UNL A   1      39.035  29.595  28.085  1.00  0.00     0.010 A 
ATOM     13  C   UNL A   1      40.004  29.135  28.973  1.00  0.00    -0.014 A 
BRANCH  13  14
ATOM     14  C   UNL A   1      41.366  28.768  28.538  1.00  0.00     0.031 A 
ATOM     15  C   UNL A   1      42.448  29.777  28.757  1.00  0.00     0.074 A 
ATOM     16  C   UNL A   1      41.638  27.528  28.096  1.00  0.00     0.049 A 
ATOM     17  N   UNL A   1      43.729  29.673  28.547  1.00  0.00    -0.248 NA
ATOM     18  C   UNL A   1      42.023  31.086  29.287  1.00  0.00     0.031 C 
ATOM     19  C   UNL A   1      40.637  26.493  27.882  1.00  0.00     0.029 A 
ATOM     20  N   UNL A   1      42.822  26.910  27.795  1.00  0.00    -0.354 N 
ATOM     21  C   UNL A   1      44.258  30.915  28.868  1.00  0.00     0.074 A 
ATOM     22  C   UNL A   1      43.170  31.743  29.334  1.00  0.00     0.031 C 
ATOM     23  C   UNL A   1      41.248  25.335  27.586  1.00  0.00     0.029 A 
ATOM     24  C   UNL A   1      42.685  25.570  27.503  1.00  0.00     0.049 A 
ATOM     25  H   UNL A   1      43.688  27.377  27.788  1.00  0.00     0.167 HD
ATOM     26  C   UNL A   1      45.536  31.333  28.730  1.00  0.00     0.037 A 
ATOM     27  C   UNL A   1      43.621  24.655  27.185  1.00  0.00     0.037 A 
ATOM     28  C   UNL A   1      46.577  30.496  28.202  1.00  0.00     0.049 A 
ATOM     29  C   UNL A   1      45.043  25.138  27.054  1.00  0.00     0.074 A 
ATOM     30  C   UNL A   1      47.884  30.824  27.898  1.00  0.00     0.029 A 
ATOM     31  N   UNL A   1      46.413  29.152  27.881  1.00  0.00    -0.354 N 
ATOM     32  N   UNL A   1      45.527  26.336  27.294  1.00  0.00    -0.248 NA
ATOM     33  C   UNL A   1      46.035  24.176  26.561  1.00  0.00     0.031 C 
ATOM     34  C   UNL A   1      48.497  29.689  27.356  1.00  0.00     0.029 A 
ATOM     35  C   UNL A   1      47.591  28.638  27.375  1.00  0.00     0.049 A 
ATOM     36  H   UNL A   1      45.578  28.643  27.997  1.00  0.00     0.167 HD
ATOM     37  C   UNL A   1      46.873  26.280  26.960  1.00  0.00     0.074 A 
ATOM     38  C   UNL A   1      47.137  24.915  26.542  1.00  0.00     0.031 C 
ATOM     39  C   UNL A   1      47.804  27.267  26.972  1.00  0.00     0.037 A 
BRANCH  26  40
ATOM     40  C   UNL A   1      45.803  32.780  29.031  1.00  0.00     0.058 A 
ATOM     41  C   UNL A   1      45.606  33.790  28.076  1.00  0.00     0.135 A 
ATOM     42  C   UNL A   1      46.363  33.144  30.266  1.00  0.00     0.135 A 
ATOM     43  F   UNL A   1      45.113  33.489  26.864  1.00  0.00    -0.206 F 
ATOM     44  C   UNL A   1      45.998  35.103  28.318  1.00  0.00     0.059 A 
ATOM     45  C   UNL A   1      46.739  34.455  30.539  1.00  0.00     0.059 A 
ATOM     46  F   UNL A   1      46.591  32.214  31.206  1.00  0.00    -0.206 F 
ATOM     47  C   UNL A   1      46.577  35.423  29.549  1.00  0.00     0.060 A 
BRANCH  47  48
ATOM     48  S   UNL A   1      47.143  37.114  29.828  1.00  0.00     0.124 S 
ATOM     49  O   UNL A   1      48.431  36.885  30.474  1.00  0.00    -0.237 OA
ATOM     50  O   UNL A   1      47.202  37.652  28.473  1.00  0.00    -0.237 OA
ATOM     51  O   UNL A   1      46.105  37.684  30.682  1.00  0.00    -0.744 OA
ENDBRANCH  47  48
ENDBRANCH  26  40
BRANCH  27  52
ATOM     52  C   UNL A   1      43.247  23.231  26.940  1.00  0.00     0.058 A 
ATOM     53  C   UNL A   1      43.255  22.691  25.644  1.00  0.00     0.135 A 
ATOM     54  C   UNL A   1      42.902  22.367  27.993  1.00  0.00     0.135 A 
ATOM     55  F   UNL A   1      43.561  23.469  24.595  1.00  0.00    -0.206 F 
ATOM     56  C   UNL A   1      42.941  21.354  25.403  1.00  0.00     0.059 A 
ATOM     57  C   UNL A   1      42.616  21.020  27.782  1.00  0.00     0.059 A 
ATOM     58  F   UNL A   1      42.874  22.822  29.256  1.00  0.00    -0.206 F 
ATOM     59  C   UNL A   1      42.631  20.523  26.481  1.00  0.00     0.060 A 
BRANCH  59  60
ATOM     60  S   UNL A   1      42.298  18.775  26.169  1.00  0.00     0.124 S 
ATOM     61  O   UNL A   1      42.648  18.177  27.453  1.00  0.00    -0.237 OA
ATOM     62  O   UNL A   1      40.878  18.785  25.836  1.00  0.00    -0.237 OA
ATOM     63  O   UNL A   1      43.193  18.458  25.060  1.00  0.00    -0.744 OA
ENDBRANCH  59  60
ENDBRANCH  27  52
BRANCH  39  64
ATOM     64  C   UNL A   1      49.191  26.906  26.530  1.00  0.00     0.058 A 
ATOM     65  C   UNL A   1      50.172  26.506  27.451  1.00  0.00     0.135 A 
ATOM     66  C   UNL A   1      49.506  26.863  25.164  1.00  0.00     0.135 A 
ATOM     67  F   UNL A   1      49.915  26.534  28.768  1.00  0.00    -0.206 F 
ATOM     68  C   UNL A   1      51.425  26.079  27.029  1.00  0.00     0.059 A 
ATOM     69  C   UNL A   1      50.744  26.419  24.719  1.00  0.00     0.059 A 
ATOM     70  F   UNL A   1      48.593  27.226  24.249  1.00  0.00    -0.206 F 
ATOM     71  C   UNL A   1      51.698  26.033  25.660  1.00  0.00     0.060 A 
BRANCH  71  72
ATOM     72  S   UNL A   1      53.305  25.414  25.120  1.00  0.00     0.124 S 
ATOM     73  O   UNL A   1      53.212  24.002  25.478  1.00  0.00    -0.237 OA
ATOM     74  O   UNL A   1      53.290  25.708  23.690  1.00  0.00    -0.237 OA
ATOM     75  O   UNL A   1      54.252  26.200  25.905  1.00  0.00    -0.744 OA
ENDBRANCH  71  72
ENDBRANCH  39  64
ENDBRANCH  13  14
ENDBRANCH   6   8
ENDBRANCH   5   6
ENDBRANCH   4   5
ENDBRANCH   3   4
ENDBRANCH   2   3
ENDBRANCH   1   2
BRANCH   1  76
ATOM     76  C   UNL A   1      38.113  34.261  32.014  1.00  0.00     0.188 C 
BRANCH  76  77
ATOM     77  O   UNL A   1      39.198  33.345  31.855  1.00  0.00    -0.376 OA
BRANCH  77  78
ATOM     78  C   UNL A   1      40.371  33.572  32.629  1.00  0.00     0.202 C 
BRANCH  78  79
ATOM     79  C   UNL A   1      41.209  34.796  32.258  1.00  0.00     0.261 C 
BRANCH  79  80
ATOM     80  O   UNL A   1      42.596  34.491  32.089  1.00  0.00    -0.462 OA
BRANCH  80  81
ATOM     81  C   UNL A   1      43.478  35.328  32.711  1.00  0.00     0.328 C 
ATOM     82  O   UNL A   1      43.512  36.538  32.538  1.00  0.00    -0.250 OA
BRANCH  81  83
ATOM     83  C   UNL A   1      44.453  34.563  33.635  1.00  0.00     0.193 C 
ATOM     84  C   UNL A   1      45.859  35.153  33.744  1.00  0.00     0.037 C 
ATOM     85  N   UNL A   1      43.913  34.465  34.996  1.00  0.00    -0.343 N 
ATOM     86  C   UNL A   1      45.932  36.415  34.614  1.00  0.00     0.005 C 
ATOM     87  C   UNL A   1      43.759  35.699  35.744  1.00  0.00     0.119 C 
ATOM     88  C   UNL A   1      45.141  36.320  35.919  1.00  0.00     0.022 C 
BRANCH  85  89
ATOM     89  C   UNL A   1      43.098  33.383  35.235  1.00  0.00     0.134 A 
ATOM     90  C   UNL A   1      41.994  33.490  36.042  1.00  0.00     0.076 A 
ATOM     91  N   UNL A   1      43.384  32.247  34.588  1.00  0.00    -0.211 NA
ATOM     92  C   UNL A   1      41.161  32.394  36.123  1.00  0.00     0.076 A 
ATOM     93  C   UNL A   1      42.560  31.199  34.782  1.00  0.00     0.162 A 
ATOM     94  N   UNL A   1      41.419  31.232  35.493  1.00  0.00    -0.228 NA
BRANCH  92  95
ATOM     95  C   UNL A   1      39.926  32.478  36.902  1.00  0.00     0.000 A 
ATOM     96  C   UNL A   1      39.821  33.361  37.985  1.00  0.00     0.010 A 
ATOM     97  C   UNL A   1      38.788  31.747  36.517  1.00  0.00     0.010 A 
ATOM     98  C   UNL A   1      38.602  33.534  38.645  1.00  0.00     0.001 A 
ATOM     99  C   UNL A   1      37.572  31.914  37.181  1.00  0.00     0.001 A 
ATOM    100  C   UNL A   1      37.478  32.815  38.240  1.00  0.00     0.000 A 
ENDBRANCH  92  95
BRANCH  93 101
ATOM    101  C   UNL A   1      42.935  29.941  34.128  1.00  0.00     0.021 A 
ATOM    102  C   UNL A   1      42.631  29.716  32.772  1.00  0.00     0.012 A 
ATOM    103  C   UNL A   1      43.595  28.921  34.834  1.00  0.00     0.032 A 
ATOM    104  C   UNL A   1      42.970  28.517  32.140  1.00  0.00     0.002 A 
ATOM    105  C   UNL A   1      43.916  27.717  34.205  1.00  0.00     0.041 A 
ATOM    106  C   UNL A   1      43.609  27.511  32.861  1.00  0.00     0.020 A 
ATOM    107  Cl  UNL A   1      44.687  26.464  35.102  1.00  0.00    -0.084 Cl
ENDBRANCH  93 101
ENDBRANCH  85  89
ENDBRANCH  81  83
ENDBRANCH  80  81
ENDBRANCH  79  80
ENDBRANCH  78  79
ENDBRANCH  77  78
ENDBRANCH  76  77
ENDBRANCH   1  76
TORSDOF 23
ENDMDL
MODEL 3
REMARK VINA RESULT:      -8.5      6.784     12.351
REMARK SMILES O=C(OCCOCCOCCOC(=O)[C@H]1CCCCN1c1cc(-c2ccccc2)nc(-c2cccc(Cl)c2)n1)c1ccc(-c2c3nc(c(-c4c(F)cc(S(=O)(=O)[O-])cc4F)c4ccc([nH]4)c(-c4c(F)cc(S(=O)(=O)[O-])cc4F)c4nc(c(-c5c(F)cc(S(=O)(=O)[O-])cc5F)c5ccc2[nH]5)C=C4)C=C3)cc1
REMARK SMILES IDX 7 1 6 2 5 3 4 4 3 5 2 6 1 7 40 8 41 9 105 10 42 11 104 12
REMARK SMILES IDX 43 13 44 14 45 15 98 16 46 17 103 18 97 19 99 20 47 21
REMARK SMILES IDX 102 22 96 23 95 24 48 26 82 27 61 28 81 29 62 30 65 31 80 32
REMARK SMILES IDX 100 33 63 34 64 35 79 37 101 38 66 39 49 40 50 41 59 42
REMARK SMILES IDX 51 43 52 44 58 45 60 46 53 47 54 48 55 49 56 50 57 51 83 52
REMARK SMILES IDX 84 53 93 54 85 55 86 56 92 57 94 58 87 59 88 60 89 61 90 62
REMARK SMILES IDX 91 63 67 64 68 65 77 66 69 67 70 68 76 69 78 70 71 71 72 72
REMARK SMILES IDX 73 73 74 74 75 75 8 76 9 77 10 78 11 79 12 80 13 81 14 82
REMARK SMILES IDX 15 83 16 84 20 85 17 86 19 87 18 88 21 89 22 90 39 91 23 92
REMARK SMILES IDX 31 93 30 94 24 95 25 96 29 97 26 98 28 99 27 100 32 101
REMARK SMILES IDX 33 102 38 103 34 104 36 105 35 106 37 107
REMARK H PARENT 99 25 65 36
REMARK Flexibility Score: inf
ROOT
ATOM      1  C   UNL A   1      34.534  31.951  28.250  1.00  0.00     0.188 C 
ENDROOT
BRANCH   1   2
ATOM      2  O   UNL A   1      34.818  31.730  29.641  1.00  0.00    -0.376 OA
BRANCH   2   3
ATOM      3  C   UNL A   1      36.166  31.325  29.894  1.00  0.00     0.202 C 
BRANCH   3   4
ATOM      4  C   UNL A   1      36.363  29.867  30.338  1.00  0.00     0.261 C 
BRANCH   4   5
ATOM      5  O   UNL A   1      36.346  29.689  31.760  1.00  0.00    -0.460 OA
BRANCH   5   6
ATOM      6  C   UNL A   1      37.380  29.546  32.624  1.00  0.00     0.338 C 
ATOM      7  O   UNL A   1      37.853  28.416  32.751  1.00  0.00    -0.246 OA
BRANCH   6   8
ATOM      8  C   UNL A   1      37.979  30.647  33.456  1.00  0.00     0.060 A 
ATOM      9  C   UNL A   1      37.483  31.944  33.593  1.00  0.00     0.016 A 
ATOM     10  C   UNL A   1      39.158  30.328  34.165  1.00  0.00     0.016 A 
ATOM     11  C   UNL A   1      38.174  32.909  34.325  1.00  0.00     0.010 A 
ATOM     12  C   UNL A   1      39.843  31.283  34.926  1.00  0.00     0.010 A 
ATOM     13  C   UNL A   1      39.367  32.591  34.975  1.00  0.00    -0.014 A 
BRANCH  13  14
ATOM     14  C   UNL A   1      40.172  33.707  35.508  1.00  0.00     0.031 A 
ATOM     15  C   UNL A   1      40.163  33.908  36.990  1.00  0.00     0.074 A 
ATOM     16  C   UNL A   1      40.984  34.416  34.706  1.00  0.00     0.049 A 
ATOM     17  N   UNL A   1      40.843  34.750  37.713  1.00  0.00    -0.248 NA
ATOM     18  C   UNL A   1      39.259  33.036  37.762  1.00  0.00     0.031 C 
ATOM     19  C   UNL A   1      41.058  34.256  33.261  1.00  0.00     0.029 A 
ATOM     20  N   UNL A   1      41.928  35.368  34.982  1.00  0.00    -0.354 N 
ATOM     21  C   UNL A   1      40.415  34.549  39.018  1.00  0.00     0.074 A 
ATOM     22  C   UNL A   1      39.452  33.472  38.996  1.00  0.00     0.031 C 
ATOM     23  C   UNL A   1      42.066  35.000  32.780  1.00  0.00     0.029 A 
ATOM     24  C   UNL A   1      42.654  35.760  33.877  1.00  0.00     0.049 A 
ATOM     25  H   UNL A   1      42.075  35.739  35.882  1.00  0.00     0.167 HD
ATOM     26  C   UNL A   1      40.763  35.245  40.123  1.00  0.00     0.037 A 
ATOM     27  C   UNL A   1      43.662  36.649  33.776  1.00  0.00     0.037 A 
ATOM     28  C   UNL A   1      41.677  36.353  40.090  1.00  0.00     0.049 A 
ATOM     29  C   UNL A   1      44.046  37.402  35.023  1.00  0.00     0.074 A 
ATOM     30  C   UNL A   1      42.027  37.219  41.107  1.00  0.00     0.029 A 
ATOM     31  N   UNL A   1      42.377  36.755  38.957  1.00  0.00    -0.354 N 
ATOM     32  N   UNL A   1      43.586  37.253  36.246  1.00  0.00    -0.248 NA
ATOM     33  C   UNL A   1      45.037  38.474  34.880  1.00  0.00     0.031 C 
ATOM     34  C   UNL A   1      42.907  38.169  40.578  1.00  0.00     0.029 A 
ATOM     35  C   UNL A   1      43.152  37.862  39.247  1.00  0.00     0.049 A 
ATOM     36  H   UNL A   1      42.327  36.315  38.077  1.00  0.00     0.167 HD
ATOM     37  C   UNL A   1      44.213  38.226  37.013  1.00  0.00     0.074 A 
ATOM     38  C   UNL A   1      45.118  38.931  36.124  1.00  0.00     0.031 C 
ATOM     39  C   UNL A   1      44.041  38.529  38.324  1.00  0.00     0.037 A 
BRANCH  26  40
ATOM     40  C   UNL A   1      40.037  34.895  41.390  1.00  0.00     0.058 A 
ATOM     41  C   UNL A   1      40.529  33.940  42.293  1.00  0.00     0.135 A 
ATOM     42  C   UNL A   1      38.776  35.456  41.649  1.00  0.00     0.135 A 
ATOM     43  F   UNL A   1      41.711  33.343  42.070  1.00  0.00    -0.206 F 
ATOM     44  C   UNL A   1      39.775  33.518  43.385  1.00  0.00     0.059 A 
ATOM     45  C   UNL A   1      38.016  35.068  42.747  1.00  0.00     0.059 A 
ATOM     46  F   UNL A   1      38.251  36.358  40.806  1.00  0.00    -0.206 F 
ATOM     47  C   UNL A   1      38.513  34.079  43.595  1.00  0.00     0.060 A 
BRANCH  47  48
ATOM     48  S   UNL A   1      37.516  33.477  44.974  1.00  0.00     0.124 S 
ATOM     49  O   UNL A   1      36.792  34.685  45.357  1.00  0.00    -0.237 OA
ATOM     50  O   UNL A   1      36.714  32.431  44.347  1.00  0.00    -0.237 OA
ATOM     51  O   UNL A   1      38.511  33.010  45.935  1.00  0.00    -0.744 OA
ENDBRANCH  47  48
ENDBRANCH  26  40
BRANCH  27  52
ATOM     52  C   UNL A   1      44.337  36.893  32.468  1.00  0.00     0.058 A 
ATOM     53  C   UNL A   1      43.998  37.998  31.671  1.00  0.00     0.135 A 
ATOM     54  C   UNL A   1      45.358  36.051  31.995  1.00  0.00     0.135 A 
ATOM     55  F   UNL A   1      43.021  38.832  32.060  1.00  0.00    -0.206 F 
ATOM     56  C   UNL A   1      44.644  38.260  30.463  1.00  0.00     0.059 A 
ATOM     57  C   UNL A   1      46.039  36.308  30.808  1.00  0.00     0.059 A 
ATOM     58  F   UNL A   1      45.728  34.976  32.709  1.00  0.00    -0.206 F 
ATOM     59  C   UNL A   1      45.670  37.413  30.044  1.00  0.00     0.060 A 
BRANCH  59  60
ATOM     60  S   UNL A   1      46.553  37.799  28.515  1.00  0.00     0.124 S 
ATOM     61  O   UNL A   1      47.683  38.573  29.017  1.00  0.00    -0.237 OA
ATOM     62  O   UNL A   1      46.869  36.472  27.997  1.00  0.00    -0.237 OA
ATOM     63  O   UNL A   1      45.568  38.549  27.742  1.00  0.00    -0.744 OA
ENDBRANCH  59  60
ENDBRANCH  27  52
BRANCH  39  64
ATOM     64  C   UNL A   1      44.853  39.663  38.876  1.00  0.00     0.058 A 
ATOM     65  C   UNL A   1      44.319  40.955  38.999  1.00  0.00     0.135 A 
ATOM     66  C   UNL A   1      46.140  39.426  39.381  1.00  0.00     0.135 A 
ATOM     67  F   UNL A   1      43.092  41.227  38.527  1.00  0.00    -0.206 F 
ATOM     68  C   UNL A   1      45.039  41.979  39.600  1.00  0.00     0.059 A 
ATOM     69  C   UNL A   1      46.869  40.429  40.007  1.00  0.00     0.059 A 
ATOM     70  F   UNL A   1      46.684  38.202  39.295  1.00  0.00    -0.206 F 
ATOM     71  C   UNL A   1      46.311  41.703  40.108  1.00  0.00     0.060 A 
BRANCH  71  72
ATOM     72  S   UNL A   1      47.211  43.023  40.947  1.00  0.00     0.124 S 
ATOM     73  O   UNL A   1      47.438  43.964  39.855  1.00  0.00    -0.237 OA
ATOM     74  O   UNL A   1      46.259  43.452  41.968  1.00  0.00    -0.237 OA
ATOM     75  O   UNL A   1      48.403  42.351  41.455  1.00  0.00    -0.744 OA
ENDBRANCH  71  72
ENDBRANCH  39  64
ENDBRANCH  13  14
ENDBRANCH   6   8
ENDBRANCH   5   6
ENDBRANCH   4   5
ENDBRANCH   3   4
ENDBRANCH   2   3
ENDBRANCH   1   2
BRANCH   1  76
ATOM     76  C   UNL A   1      34.316  30.641  27.487  1.00  0.00     0.188 C 
BRANCH  76  77
ATOM     77  O   UNL A   1      32.957  30.291  27.219  1.00  0.00    -0.376 OA
BRANCH  77  78
ATOM     78  C   UNL A   1      32.674  28.927  26.927  1.00  0.00     0.202 C 
BRANCH  78  79
ATOM     79  C   UNL A   1      33.654  28.209  25.999  1.00  0.00     0.261 C 
BRANCH  79  80
ATOM     80  O   UNL A   1      33.754  26.808  26.272  1.00  0.00    -0.462 OA
BRANCH  80  81
ATOM     81  C   UNL A   1      33.510  25.970  25.221  1.00  0.00     0.328 C 
ATOM     82  O   UNL A   1      33.902  26.170  24.081  1.00  0.00    -0.250 OA
BRANCH  81  83
ATOM     83  C   UNL A   1      32.650  24.754  25.635  1.00  0.00     0.193 C 
ATOM     84  C   UNL A   1      31.177  25.051  25.912  1.00  0.00     0.037 C 
ATOM     85  N   UNL A   1      32.700  23.707  24.609  1.00  0.00    -0.343 N 
ATOM     86  C   UNL A   1      30.346  25.281  24.643  1.00  0.00     0.005 C 
ATOM     87  C   UNL A   1      32.116  24.011  23.316  1.00  0.00     0.119 C 
ATOM     88  C   UNL A   1      30.629  24.281  23.521  1.00  0.00     0.022 C 
BRANCH  85  89
ATOM     89  C   UNL A   1      33.734  22.808  24.727  1.00  0.00     0.134 A 
ATOM     90  C   UNL A   1      34.997  23.218  25.072  1.00  0.00     0.076 A 
ATOM     91  N   UNL A   1      33.439  21.511  24.568  1.00  0.00    -0.211 NA
ATOM     92  C   UNL A   1      35.941  22.238  25.296  1.00  0.00     0.076 A 
ATOM     93  C   UNL A   1      34.438  20.624  24.731  1.00  0.00     0.162 A 
ATOM     94  N   UNL A   1      35.684  20.925  25.138  1.00  0.00    -0.228 NA
BRANCH  92  95
ATOM     95  C   UNL A   1      37.281  22.612  25.745  1.00  0.00     0.000 A 
ATOM     96  C   UNL A   1      37.538  23.897  26.242  1.00  0.00     0.010 A 
ATOM     97  C   UNL A   1      38.314  21.659  25.782  1.00  0.00     0.010 A 
ATOM     98  C   UNL A   1      38.783  24.212  26.790  1.00  0.00     0.001 A 
ATOM     99  C   UNL A   1      39.562  21.975  26.322  1.00  0.00     0.001 A 
ATOM    100  C   UNL A   1      39.792  23.250  26.835  1.00  0.00     0.000 A 
ENDBRANCH  92  95
BRANCH  93 101
ATOM    101  C   UNL A   1      34.113  19.217  24.472  1.00  0.00     0.021 A 
ATOM    102  C   UNL A   1      32.936  18.866  23.785  1.00  0.00     0.012 A 
ATOM    103  C   UNL A   1      34.953  18.181  24.913  1.00  0.00     0.032 A 
ATOM    104  C   UNL A   1      32.606  17.530  23.544  1.00  0.00     0.002 A 
ATOM    105  C   UNL A   1      34.612  16.847  24.686  1.00  0.00     0.041 A 
ATOM    106  C   UNL A   1      33.444  16.516  24.002  1.00  0.00     0.020 A 
ATOM    107  Cl  UNL A   1      35.638  15.592  25.271  1.00  0.00    -0.084 Cl
ENDBRANCH  93 101
ENDBRANCH  85  89
ENDBRANCH  81  83
ENDBRANCH  80  81
ENDBRANCH  79  80
ENDBRANCH  78  79
ENDBRANCH  77  78
ENDBRANCH  76  77
ENDBRANCH   1  76
TORSDOF 23
ENDMDL
