MODEL 1
REMARK VINA RESULT:     -11.0      0.000      0.000
REMARK SMILES CC[C@H]1CCCCN1S(=O)(=O)c1ccc2oc(C(=O)OCCOCCOCCOC(=O)c3ccc(-c4c5nc(c(-c6c(F)cc(S(=O)(=O)[O-])cc6F)c6ccc([nH]6)c(-c6c(F)cc(S(=O)(=O)[O-])cc6F)c6nc(c(-c7c(F)cc(S(=O)(=O)[O-])cc7F)c7ccc4[nH]7)C=C6)C=C5)cc3)c(C)c2c1
REMARK SMILES IDX 24 1 23 2 22 3 21 4 20 5 18 6 19 7 17 8 12 9 13 10 101 11
REMARK SMILES IDX 14 12 100 13 15 14 98 15 16 16 99 17 9 18 10 19 11 20 8 21
REMARK SMILES IDX 3 22 4 23 5 24 7 25 6 26 2 27 1 28 25 29 26 30 27 31 28 32
REMARK SMILES IDX 29 33 30 34 31 35 32 36 33 37 97 38 34 39 96 40 35 41 36 42
REMARK SMILES IDX 37 43 90 44 38 45 95 46 89 47 91 48 39 49 94 50 88 51 87 52
REMARK SMILES IDX 40 54 74 55 53 56 73 57 54 58 57 59 72 60 92 61 55 62 56 63
REMARK SMILES IDX 71 65 93 66 58 67 41 68 42 69 51 70 43 71 44 72 50 73 52 74
REMARK SMILES IDX 45 75 46 76 47 77 48 78 49 79 75 80 76 81 85 82 77 83 78 84
REMARK SMILES IDX 84 85 86 86 79 87 80 88 81 89 82 90 83 91 59 92 60 93 69 94
REMARK SMILES IDX 61 95 62 96 68 97 70 98 63 99 64 100 65 101 66 102 67 103
REMARK H PARENT 91 53 57 64
REMARK Flexibility Score: inf
ROOT
ATOM      1  C   UNL A   1      37.604  22.635  25.246  1.00  0.00     0.188 C 
ENDROOT
BRANCH   1   2
ATOM      2  O   UNL A   1      36.206  22.616  25.517  1.00  0.00    -0.376 OA
BRANCH   2   3
ATOM      3  C   UNL A   1      35.584  21.405  25.928  1.00  0.00     0.202 C 
BRANCH   3   4
ATOM      4  C   UNL A   1      34.316  21.521  26.774  1.00  0.00     0.261 C 
BRANCH   4   5
ATOM      5  O   UNL A   1      33.296  20.596  26.363  1.00  0.00    -0.457 OA
BRANCH   5   6
ATOM      6  C   UNL A   1      33.069  20.527  25.019  1.00  0.00     0.374 C 
ATOM      7  O   UNL A   1      33.266  19.529  24.335  1.00  0.00    -0.242 OA
BRANCH   6   8
ATOM      8  C   UNL A   1      32.488  21.762  24.537  1.00  0.00     0.215 A 
ATOM      9  C   UNL A   1      31.143  25.855  23.027  1.00  0.00     0.083 A 
ATOM     10  C   UNL A   1      32.114  25.558  22.065  1.00  0.00     0.025 A 
ATOM     11  C   UNL A   1      30.711  24.893  23.956  1.00  0.00     0.034 A 
ATOM     12  C   UNL A   1      32.763  24.317  22.078  1.00  0.00     0.049 A 
ATOM     13  C   UNL A   1      31.434  23.694  24.052  1.00  0.00     0.025 A 
ATOM     14  C   UNL A   1      32.430  23.454  23.121  1.00  0.00     0.135 A 
ATOM     15  C   UNL A   1      31.448  22.587  24.961  1.00  0.00     0.010 A 
ATOM     16  O   UNL A   1      33.049  22.282  23.399  1.00  0.00    -0.449 OA
ATOM     17  C   UNL A   1      30.576  22.451  26.158  1.00  0.00     0.049 C 
BRANCH   9  18
ATOM     18  S   UNL A   1      30.430  27.484  23.115  1.00  0.00     0.243 S 
ATOM     19  O   UNL A   1      29.066  27.329  23.576  1.00  0.00    -0.207 OA
ATOM     20  O   UNL A   1      30.730  28.173  21.877  1.00  0.00    -0.207 OA
BRANCH  18  21
ATOM     21  N   UNL A   1      31.328  28.262  24.377  1.00  0.00    -0.195 NA
ATOM     22  C   UNL A   1      32.829  28.213  24.184  1.00  0.00     0.073 C 
ATOM     23  C   UNL A   1      33.509  28.728  25.466  1.00  0.00     0.020 C 
ATOM     24  C   UNL A   1      33.060  30.137  25.825  1.00  0.00     0.003 C 
ATOM     25  C   UNL A   1      30.828  29.610  24.778  1.00  0.00     0.103 C 
ATOM     26  C   UNL A   1      31.552  30.149  26.005  1.00  0.00     0.017 C 
BRANCH  22  27
ATOM     27  C   UNL A   1      33.270  28.944  22.897  1.00  0.00     0.017 C 
ATOM     28  C   UNL A   1      34.334  28.216  22.087  1.00  0.00     0.005 C 
ENDBRANCH  22  27
ENDBRANCH  18  21
ENDBRANCH   9  18
ENDBRANCH   6   8
ENDBRANCH   5   6
ENDBRANCH   4   5
ENDBRANCH   3   4
ENDBRANCH   2   3
ENDBRANCH   1   2
BRANCH   1  29
ATOM     29  C   UNL A   1      38.438  21.362  25.495  1.00  0.00     0.188 C 
BRANCH  29  30
ATOM     30  O   UNL A   1      39.687  21.588  26.128  1.00  0.00    -0.376 OA
BRANCH  30  31
ATOM     31  C   UNL A   1      39.824  22.839  26.791  1.00  0.00     0.202 C 
BRANCH  31  32
ATOM     32  C   UNL A   1      41.203  23.073  27.419  1.00  0.00     0.261 C 
BRANCH  32  33
ATOM     33  O   UNL A   1      42.044  24.002  26.716  1.00  0.00    -0.460 OA
BRANCH  33  34
ATOM     34  C   UNL A   1      41.486  25.175  26.342  1.00  0.00     0.338 C 
ATOM     35  O   UNL A   1      41.022  25.451  25.250  1.00  0.00    -0.246 OA
BRANCH  34  36
ATOM     36  C   UNL A   1      41.377  26.025  27.545  1.00  0.00     0.060 A 
ATOM     37  C   UNL A   1      40.185  26.017  28.280  1.00  0.00     0.016 A 
ATOM     38  C   UNL A   1      42.452  26.823  27.948  1.00  0.00     0.016 A 
ATOM     39  C   UNL A   1      40.059  26.828  29.411  1.00  0.00     0.010 A 
ATOM     40  C   UNL A   1      42.318  27.644  29.070  1.00  0.00     0.010 A 
ATOM     41  C   UNL A   1      41.113  27.671  29.793  1.00  0.00    -0.014 A 
BRANCH  41  42
ATOM     42  C   UNL A   1      40.909  28.696  30.845  1.00  0.00     0.031 A 
ATOM     43  C   UNL A   1      41.766  28.639  32.081  1.00  0.00     0.074 A 
ATOM     44  C   UNL A   1      39.976  29.657  30.715  1.00  0.00     0.049 A 
ATOM     45  N   UNL A   1      41.738  29.395  33.148  1.00  0.00    -0.248 NA
ATOM     46  C   UNL A   1      42.790  27.582  32.119  1.00  0.00     0.031 C 
ATOM     47  C   UNL A   1      39.098  29.835  29.560  1.00  0.00     0.029 A 
ATOM     48  N   UNL A   1      39.606  30.662  31.576  1.00  0.00    -0.354 N 
ATOM     49  C   UNL A   1      42.740  28.911  33.980  1.00  0.00     0.074 A 
ATOM     50  C   UNL A   1      43.338  27.777  33.308  1.00  0.00     0.031 C 
ATOM     51  C   UNL A   1      38.281  30.879  29.790  1.00  0.00     0.029 A 
ATOM     52  C   UNL A   1      38.562  31.427  31.117  1.00  0.00     0.049 A 
ATOM     53  H   UNL A   1      40.049  30.818  32.441  1.00  0.00     0.167 HD
ATOM     54  C   UNL A   1      43.133  29.374  35.190  1.00  0.00     0.037 A 
ATOM     55  C   UNL A   1      37.899  32.443  31.708  1.00  0.00     0.037 A 
ATOM     56  C   UNL A   1      42.531  30.492  35.866  1.00  0.00     0.049 A 
ATOM     57  C   UNL A   1      38.313  32.900  33.083  1.00  0.00     0.074 A 
ATOM     58  C   UNL A   1      42.863  31.037  37.092  1.00  0.00     0.029 A 
ATOM     59  N   UNL A   1      41.466  31.232  35.373  1.00  0.00    -0.354 N 
ATOM     60  N   UNL A   1      39.280  32.450  33.847  1.00  0.00    -0.248 NA
ATOM     61  C   UNL A   1      37.547  34.007  33.676  1.00  0.00     0.031 C 
ATOM     62  C   UNL A   1      41.975  32.086  37.360  1.00  0.00     0.029 A 
ATOM     63  C   UNL A   1      41.117  32.218  36.280  1.00  0.00     0.049 A 
ATOM     64  H   UNL A   1      41.024  31.078  34.507  1.00  0.00     0.167 HD
ATOM     65  C   UNL A   1      39.256  33.235  34.996  1.00  0.00     0.074 A 
ATOM     66  C   UNL A   1      38.182  34.193  34.827  1.00  0.00     0.031 C 
ATOM     67  C   UNL A   1      40.054  33.173  36.091  1.00  0.00     0.037 A 
BRANCH  54  68
ATOM     68  C   UNL A   1      44.260  28.650  35.869  1.00  0.00     0.058 A 
ATOM     69  C   UNL A   1      44.026  27.546  36.703  1.00  0.00     0.135 A 
ATOM     70  C   UNL A   1      45.590  29.053  35.671  1.00  0.00     0.135 A 
ATOM     71  F   UNL A   1      42.771  27.133  36.942  1.00  0.00    -0.206 F 
ATOM     72  C   UNL A   1      45.069  26.882  37.339  1.00  0.00     0.059 A 
ATOM     73  C   UNL A   1      46.652  28.391  36.280  1.00  0.00     0.059 A 
ATOM     74  F   UNL A   1      45.868  30.107  34.886  1.00  0.00    -0.206 F 
ATOM     75  C   UNL A   1      46.379  27.315  37.124  1.00  0.00     0.060 A 
BRANCH  75  76
ATOM     76  S   UNL A   1      47.724  26.449  37.960  1.00  0.00     0.124 S 
ATOM     77  O   UNL A   1      47.678  27.053  39.288  1.00  0.00    -0.237 OA
ATOM     78  O   UNL A   1      47.298  25.056  37.882  1.00  0.00    -0.237 OA
ATOM     79  O   UNL A   1      48.896  26.788  37.157  1.00  0.00    -0.744 OA
ENDBRANCH  75  76
ENDBRANCH  54  68
BRANCH  55  80
ATOM     80  C   UNL A   1      36.764  33.100  31.006  1.00  0.00     0.058 A 
ATOM     81  C   UNL A   1      36.986  33.998  29.951  1.00  0.00     0.135 A 
ATOM     82  C   UNL A   1      35.436  32.856  31.387  1.00  0.00     0.135 A 
ATOM     83  F   UNL A   1      38.240  34.275  29.561  1.00  0.00    -0.206 F 
ATOM     84  C   UNL A   1      35.935  34.643  29.309  1.00  0.00     0.059 A 
ATOM     85  C   UNL A   1      34.366  33.471  30.745  1.00  0.00     0.059 A 
ATOM     86  F   UNL A   1      35.169  32.001  32.387  1.00  0.00    -0.206 F 
ATOM     87  C   UNL A   1      34.626  34.373  29.714  1.00  0.00     0.060 A 
BRANCH  87  88
ATOM     88  S   UNL A   1      33.263  35.186  28.849  1.00  0.00     0.124 S 
ATOM     89  O   UNL A   1      32.423  35.610  29.962  1.00  0.00    -0.237 OA
ATOM     90  O   UNL A   1      33.948  36.251  28.124  1.00  0.00    -0.237 OA
ATOM     91  O   UNL A   1      32.716  34.121  28.013  1.00  0.00    -0.744 OA
ENDBRANCH  87  88
ENDBRANCH  55  80
BRANCH  67  92
ATOM     92  C   UNL A   1      39.830  34.189  37.177  1.00  0.00     0.058 A 
ATOM     93  C   UNL A   1      38.971  33.936  38.257  1.00  0.00     0.135 A 
ATOM     94  C   UNL A   1      40.531  35.405  37.166  1.00  0.00     0.135 A 
ATOM     95  F   UNL A   1      38.273  32.791  38.313  1.00  0.00    -0.206 F 
ATOM     96  C   UNL A   1      38.802  34.863  39.282  1.00  0.00     0.059 A 
ATOM     97  C   UNL A   1      40.395  36.336  38.191  1.00  0.00     0.059 A 
ATOM     98  F   UNL A   1      41.374  35.690  36.161  1.00  0.00    -0.206 F 
ATOM     99  C   UNL A   1      39.519  36.061  39.240  1.00  0.00     0.060 A 
BRANCH  99 100
ATOM    100  S   UNL A   1      39.324  37.240  40.595  1.00  0.00     0.124 S 
ATOM    101  O   UNL A   1      40.656  37.829  40.665  1.00  0.00    -0.237 OA
ATOM    102  O   UNL A   1      38.267  38.118  40.100  1.00  0.00    -0.237 OA
ATOM    103  O   UNL A   1      38.948  36.396  41.726  1.00  0.00    -0.744 OA
ENDBRANCH  99 100
ENDBRANCH  67  92
ENDBRANCH  41  42
ENDBRANCH  34  36
ENDBRANCH  33  34
ENDBRANCH  32  33
ENDBRANCH  31  32
ENDBRANCH  30  31
ENDBRANCH  29  30
ENDBRANCH   1  29
TORSDOF 23
ENDMDL
MODEL 2
REMARK VINA RESULT:     -10.8      0.678      7.899
REMARK SMILES CC[C@H]1CCCCN1S(=O)(=O)c1ccc2oc(C(=O)OCCOCCOCCOC(=O)c3ccc(-c4c5nc(c(-c6c(F)cc(S(=O)(=O)[O-])cc6F)c6ccc([nH]6)c(-c6c(F)cc(S(=O)(=O)[O-])cc6F)c6nc(c(-c7c(F)cc(S(=O)(=O)[O-])cc7F)c7ccc4[nH]7)C=C6)C=C5)cc3)c(C)c2c1
REMARK SMILES IDX 24 1 23 2 22 3 21 4 20 5 18 6 19 7 17 8 12 9 13 10 101 11
REMARK SMILES IDX 14 12 100 13 15 14 98 15 16 16 99 17 9 18 10 19 11 20 8 21
REMARK SMILES IDX 3 22 4 23 5 24 7 25 6 26 2 27 1 28 25 29 26 30 27 31 28 32
REMARK SMILES IDX 29 33 30 34 31 35 32 36 33 37 97 38 34 39 96 40 35 41 36 42
REMARK SMILES IDX 37 43 90 44 38 45 95 46 89 47 91 48 39 49 94 50 88 51 87 52
REMARK SMILES IDX 40 54 74 55 53 56 73 57 54 58 57 59 72 60 92 61 55 62 56 63
REMARK SMILES IDX 71 65 93 66 58 67 41 68 42 69 51 70 43 71 44 72 50 73 52 74
REMARK SMILES IDX 45 75 46 76 47 77 48 78 49 79 75 80 76 81 85 82 77 83 78 84
REMARK SMILES IDX 84 85 86 86 79 87 80 88 81 89 82 90 83 91 59 92 60 93 69 94
REMARK SMILES IDX 61 95 62 96 68 97 70 98 63 99 64 100 65 101 66 102 67 103
REMARK H PARENT 91 53 57 64
REMARK Flexibility Score: inf
ROOT
ATOM      1  C   UNL A   1      37.982  22.010  25.269  1.00  0.00     0.188 C 
ENDROOT
BRANCH   1   2
ATOM      2  O   UNL A   1      36.767  22.227  25.980  1.00  0.00    -0.376 OA
BRANCH   2   3
ATOM      3  C   UNL A   1      35.635  21.411  25.707  1.00  0.00     0.202 C 
BRANCH   3   4
ATOM      4  C   UNL A   1      34.298  21.845  26.307  1.00  0.00     0.261 C 
BRANCH   4   5
ATOM      5  O   UNL A   1      33.366  20.757  26.415  1.00  0.00    -0.457 OA
BRANCH   5   6
ATOM      6  C   UNL A   1      32.528  20.590  25.351  1.00  0.00     0.374 C 
ATOM      7  O   UNL A   1      32.177  19.500  24.913  1.00  0.00    -0.242 OA
BRANCH   6   8
ATOM      8  C   UNL A   1      32.052  21.870  24.872  1.00  0.00     0.215 A 
ATOM      9  C   UNL A   1      31.058  26.047  23.320  1.00  0.00     0.083 A 
ATOM     10  C   UNL A   1      31.898  25.609  22.292  1.00  0.00     0.025 A 
ATOM     11  C   UNL A   1      30.602  25.170  24.321  1.00  0.00     0.034 A 
ATOM     12  C   UNL A   1      32.399  24.301  22.299  1.00  0.00     0.049 A 
ATOM     13  C   UNL A   1      31.188  23.897  24.402  1.00  0.00     0.025 A 
ATOM     14  C   UNL A   1      32.064  23.515  23.400  1.00  0.00     0.135 A 
ATOM     15  C   UNL A   1      31.156  22.824  25.350  1.00  0.00     0.010 A 
ATOM     16  O   UNL A   1      32.566  22.286  23.671  1.00  0.00    -0.449 OA
ATOM     17  C   UNL A   1      30.385  22.826  26.621  1.00  0.00     0.049 C 
BRANCH   9  18
ATOM     18  S   UNL A   1      30.547  27.750  23.404  1.00  0.00     0.243 S 
ATOM     19  O   UNL A   1      29.099  27.763  23.397  1.00  0.00    -0.207 OA
ATOM     20  O   UNL A   1      31.308  28.496  22.424  1.00  0.00    -0.207 OA
BRANCH  18  21
ATOM     21  N   UNL A   1      31.071  28.263  24.975  1.00  0.00    -0.195 NA
ATOM     22  C   UNL A   1      32.093  27.345  25.612  1.00  0.00     0.073 C 
ATOM     23  C   UNL A   1      32.302  27.779  27.074  1.00  0.00     0.020 C 
ATOM     24  C   UNL A   1      32.744  29.231  27.183  1.00  0.00     0.003 C 
ATOM     25  C   UNL A   1      31.425  29.709  25.089  1.00  0.00     0.103 C 
ATOM     26  C   UNL A   1      31.702  30.120  26.529  1.00  0.00     0.017 C 
BRANCH  22  27
ATOM     27  C   UNL A   1      33.394  27.263  24.784  1.00  0.00     0.017 C 
ATOM     28  C   UNL A   1      34.272  26.060  25.099  1.00  0.00     0.005 C 
ENDBRANCH  22  27
ENDBRANCH  18  21
ENDBRANCH   9  18
ENDBRANCH   6   8
ENDBRANCH   5   6
ENDBRANCH   4   5
ENDBRANCH   3   4
ENDBRANCH   2   3
ENDBRANCH   1   2
BRANCH   1  29
ATOM     29  C   UNL A   1      39.055  21.085  25.875  1.00  0.00     0.188 C 
BRANCH  29  30
ATOM     30  O   UNL A   1      40.289  21.723  26.167  1.00  0.00    -0.376 OA
BRANCH  30  31
ATOM     31  C   UNL A   1      40.198  22.917  26.935  1.00  0.00     0.202 C 
BRANCH  31  32
ATOM     32  C   UNL A   1      41.546  23.454  27.430  1.00  0.00     0.261 C 
BRANCH  32  33
ATOM     33  O   UNL A   1      42.196  24.381  26.544  1.00  0.00    -0.460 OA
BRANCH  33  34
ATOM     34  C   UNL A   1      41.570  25.557  26.319  1.00  0.00     0.338 C 
ATOM     35  O   UNL A   1      41.047  25.924  25.283  1.00  0.00    -0.246 OA
BRANCH  34  36
ATOM     36  C   UNL A   1      41.475  26.271  27.610  1.00  0.00     0.060 A 
ATOM     37  C   UNL A   1      40.238  26.341  28.261  1.00  0.00     0.016 A 
ATOM     38  C   UNL A   1      42.608  26.862  28.176  1.00  0.00     0.016 A 
ATOM     39  C   UNL A   1      40.128  27.026  29.474  1.00  0.00     0.010 A 
ATOM     40  C   UNL A   1      42.493  27.560  29.381  1.00  0.00     0.010 A 
ATOM     41  C   UNL A   1      41.248  27.667  30.024  1.00  0.00    -0.014 A 
BRANCH  41  42
ATOM     42  C   UNL A   1      41.094  28.583  31.181  1.00  0.00     0.031 A 
ATOM     43  C   UNL A   1      40.034  29.650  31.116  1.00  0.00     0.074 A 
ATOM     44  C   UNL A   1      41.883  28.480  32.266  1.00  0.00     0.049 A 
ATOM     45  N   UNL A   1      39.746  30.588  31.981  1.00  0.00    -0.248 NA
ATOM     46  C   UNL A   1      39.188  29.660  29.911  1.00  0.00     0.031 C 
ATOM     47  C   UNL A   1      42.929  27.479  32.461  1.00  0.00     0.029 A 
ATOM     48  N   UNL A   1      41.929  29.241  33.409  1.00  0.00    -0.354 N 
ATOM     49  C   UNL A   1      38.685  31.297  31.429  1.00  0.00     0.074 A 
ATOM     50  C   UNL A   1      38.401  30.699  30.142  1.00  0.00     0.031 C 
ATOM     51  C   UNL A   1      43.524  27.696  33.648  1.00  0.00     0.029 A 
ATOM     52  C   UNL A   1      42.917  28.864  34.285  1.00  0.00     0.049 A 
ATOM     53  H   UNL A   1      41.311  29.988  33.582  1.00  0.00     0.167 HD
ATOM     54  C   UNL A   1      38.004  32.345  31.950  1.00  0.00     0.037 A 
ATOM     55  C   UNL A   1      43.298  29.411  35.458  1.00  0.00     0.037 A 
ATOM     56  C   UNL A   1      38.294  32.948  33.222  1.00  0.00     0.049 A 
ATOM     57  C   UNL A   1      42.566  30.617  35.989  1.00  0.00     0.074 A 
ATOM     58  C   UNL A   1      37.657  34.011  33.836  1.00  0.00     0.029 A 
ATOM     59  N   UNL A   1      39.313  32.546  34.073  1.00  0.00    -0.354 N 
ATOM     60  N   UNL A   1      41.547  31.260  35.468  1.00  0.00    -0.248 NA
ATOM     61  C   UNL A   1      43.033  31.170  37.269  1.00  0.00     0.031 C 
ATOM     62  C   UNL A   1      38.313  34.276  35.044  1.00  0.00     0.029 A 
ATOM     63  C   UNL A   1      39.333  33.351  35.200  1.00  0.00     0.049 A 
ATOM     64  H   UNL A   1      39.931  31.799  33.902  1.00  0.00     0.167 HD
ATOM     65  C   UNL A   1      41.235  32.273  36.370  1.00  0.00     0.074 A 
ATOM     66  C   UNL A   1      42.169  32.157  37.471  1.00  0.00     0.031 C 
ATOM     67  C   UNL A   1      40.260  33.214  36.295  1.00  0.00     0.037 A 
BRANCH  54  68
ATOM     68  C   UNL A   1      36.887  32.915  31.125  1.00  0.00     0.058 A 
ATOM     69  C   UNL A   1      37.134  33.823  30.083  1.00  0.00     0.135 A 
ATOM     70  C   UNL A   1      35.556  32.539  31.366  1.00  0.00     0.135 A 
ATOM     71  F   UNL A   1      38.387  34.231  29.825  1.00  0.00    -0.206 F 
ATOM     72  C   UNL A   1      36.098  34.360  29.325  1.00  0.00     0.059 A 
ATOM     73  C   UNL A   1      34.505  33.046  30.607  1.00  0.00     0.059 A 
ATOM     74  F   UNL A   1      35.265  31.678  32.354  1.00  0.00    -0.206 F 
ATOM     75  C   UNL A   1      34.786  33.967  29.599  1.00  0.00     0.060 A 
BRANCH  75  76
ATOM     76  S   UNL A   1      33.450  34.675  28.612  1.00  0.00     0.124 S 
ATOM     77  O   UNL A   1      33.045  33.529  27.805  1.00  0.00    -0.237 OA
ATOM     78  O   UNL A   1      32.497  35.100  29.632  1.00  0.00    -0.237 OA
ATOM     79  O   UNL A   1      34.105  35.757  27.882  1.00  0.00    -0.744 OA
ENDBRANCH  75  76
ENDBRANCH  54  68
BRANCH  55  80
ATOM     80  C   UNL A   1      44.437  28.828  36.217  1.00  0.00     0.058 A 
ATOM     81  C   UNL A   1      45.739  29.328  36.068  1.00  0.00     0.135 A 
ATOM     82  C   UNL A   1      44.249  27.748  37.093  1.00  0.00     0.135 A 
ATOM     83  F   UNL A   1      45.971  30.350  35.230  1.00  0.00    -0.206 F 
ATOM     84  C   UNL A   1      46.817  28.771  36.747  1.00  0.00     0.059 A 
ATOM     85  C   UNL A   1      45.307  27.187  37.801  1.00  0.00     0.059 A 
ATOM     86  F   UNL A   1      43.021  27.235  37.275  1.00  0.00    -0.206 F 
ATOM     87  C   UNL A   1      46.590  27.699  37.613  1.00  0.00     0.060 A 
BRANCH  87  88
ATOM     88  S   UNL A   1      47.989  27.005  38.521  1.00  0.00     0.124 S 
ATOM     89  O   UNL A   1      48.091  25.676  37.931  1.00  0.00    -0.237 OA
ATOM     90  O   UNL A   1      49.065  27.934  38.191  1.00  0.00    -0.237 OA
ATOM     91  O   UNL A   1      47.540  27.047  39.910  1.00  0.00    -0.744 OA
ENDBRANCH  87  88
ENDBRANCH  55  80
BRANCH  67  92
ATOM     92  C   UNL A   1      40.121  34.168  37.449  1.00  0.00     0.058 A 
ATOM     93  C   UNL A   1      40.895  35.334  37.539  1.00  0.00     0.135 A 
ATOM     94  C   UNL A   1      39.156  33.942  38.444  1.00  0.00     0.135 A 
ATOM     95  F   UNL A   1      41.834  35.595  36.617  1.00  0.00    -0.206 F 
ATOM     96  C   UNL A   1      40.730  36.236  38.587  1.00  0.00     0.059 A 
ATOM     97  C   UNL A   1      38.958  34.839  39.487  1.00  0.00     0.059 A 
ATOM     98  F   UNL A   1      38.381  32.846  38.396  1.00  0.00    -0.206 F 
ATOM     99  C   UNL A   1      39.758  35.980  39.557  1.00  0.00     0.060 A 
BRANCH  99 100
ATOM    100  S   UNL A   1      39.522  37.175  40.890  1.00  0.00     0.124 S 
ATOM    101  O   UNL A   1      40.816  37.847  40.914  1.00  0.00    -0.237 OA
ATOM    102  O   UNL A   1      38.402  37.975  40.402  1.00  0.00    -0.237 OA
ATOM    103  O   UNL A   1      39.226  36.337  42.048  1.00  0.00    -0.744 OA
ENDBRANCH  99 100
ENDBRANCH  67  92
ENDBRANCH  41  42
ENDBRANCH  34  36
ENDBRANCH  33  34
ENDBRANCH  32  33
ENDBRANCH  31  32
ENDBRANCH  30  31
ENDBRANCH  29  30
ENDBRANCH   1  29
TORSDOF 23
ENDMDL
MODEL 3
REMARK VINA RESULT:     -10.4      6.021     10.324
REMARK SMILES CC[C@H]1CCCCN1S(=O)(=O)c1ccc2oc(C(=O)OCCOCCOCCOC(=O)c3ccc(-c4c5nc(c(-c6c(F)cc(S(=O)(=O)[O-])cc6F)c6ccc([nH]6)c(-c6c(F)cc(S(=O)(=O)[O-])cc6F)c6nc(c(-c7c(F)cc(S(=O)(=O)[O-])cc7F)c7ccc4[nH]7)C=C6)C=C5)cc3)c(C)c2c1
REMARK SMILES IDX 24 1 23 2 22 3 21 4 20 5 18 6 19 7 17 8 12 9 13 10 101 11
REMARK SMILES IDX 14 12 100 13 15 14 98 15 16 16 99 17 9 18 10 19 11 20 8 21
REMARK SMILES IDX 3 22 4 23 5 24 7 25 6 26 2 27 1 28 25 29 26 30 27 31 28 32
REMARK SMILES IDX 29 33 30 34 31 35 32 36 33 37 97 38 34 39 96 40 35 41 36 42
REMARK SMILES IDX 37 43 90 44 38 45 95 46 89 47 91 48 39 49 94 50 88 51 87 52
REMARK SMILES IDX 40 54 74 55 53 56 73 57 54 58 57 59 72 60 92 61 55 62 56 63
REMARK SMILES IDX 71 65 93 66 58 67 41 68 42 69 51 70 43 71 44 72 50 73 52 74
REMARK SMILES IDX 45 75 46 76 47 77 48 78 49 79 75 80 76 81 85 82 77 83 78 84
REMARK SMILES IDX 84 85 86 86 79 87 80 88 81 89 82 90 83 91 59 92 60 93 69 94
REMARK SMILES IDX 61 95 62 96 68 97 70 98 63 99 64 100 65 101 66 102 67 103
REMARK H PARENT 91 53 57 64
REMARK Flexibility Score: inf
ROOT
ATOM      1  C   UNL A   1      37.700  21.115  24.852  1.00  0.00     0.188 C 
ENDROOT
BRANCH   1   2
ATOM      2  O   UNL A   1      36.655  21.643  25.663  1.00  0.00    -0.376 OA
BRANCH   2   3
ATOM      3  C   UNL A   1      35.367  21.043  25.632  1.00  0.00     0.202 C 
BRANCH   3   4
ATOM      4  C   UNL A   1      34.269  21.698  26.472  1.00  0.00     0.261 C 
BRANCH   4   5
ATOM      5  O   UNL A   1      33.084  20.891  26.550  1.00  0.00    -0.457 OA
BRANCH   5   6
ATOM      6  C   UNL A   1      32.407  20.721  25.377  1.00  0.00     0.374 C 
ATOM      7  O   UNL A   1      32.176  19.631  24.865  1.00  0.00    -0.242 OA
BRANCH   6   8
ATOM      8  C   UNL A   1      31.933  21.992  24.874  1.00  0.00     0.215 A 
ATOM      9  C   UNL A   1      30.945  26.138  23.238  1.00  0.00     0.083 A 
ATOM     10  C   UNL A   1      31.773  25.673  22.212  1.00  0.00     0.025 A 
ATOM     11  C   UNL A   1      30.495  25.287  24.262  1.00  0.00     0.034 A 
ATOM     12  C   UNL A   1      32.267  24.363  22.243  1.00  0.00     0.049 A 
ATOM     13  C   UNL A   1      31.075  24.013  24.367  1.00  0.00     0.025 A 
ATOM     14  C   UNL A   1      31.938  23.603  23.365  1.00  0.00     0.135 A 
ATOM     15  C   UNL A   1      31.047  22.962  25.339  1.00  0.00     0.010 A 
ATOM     16  O   UNL A   1      32.437  22.379  23.659  1.00  0.00    -0.449 OA
ATOM     17  C   UNL A   1      30.287  22.997  26.617  1.00  0.00     0.049 C 
BRANCH   9  18
ATOM     18  S   UNL A   1      30.444  27.846  23.288  1.00  0.00     0.243 S 
ATOM     19  O   UNL A   1      29.050  27.871  23.680  1.00  0.00    -0.207 OA
ATOM     20  O   UNL A   1      30.890  28.481  22.066  1.00  0.00    -0.207 OA
BRANCH  18  21
ATOM     21  N   UNL A   1      31.370  28.512  24.593  1.00  0.00    -0.195 NA
ATOM     22  C   UNL A   1      32.860  28.272  24.473  1.00  0.00     0.073 C 
ATOM     23  C   UNL A   1      33.537  28.704  25.787  1.00  0.00     0.020 C 
ATOM     24  C   UNL A   1      33.253  30.161  26.124  1.00  0.00     0.003 C 
ATOM     25  C   UNL A   1      31.026  29.915  24.969  1.00  0.00     0.103 C 
ATOM     26  C   UNL A   1      31.753  30.365  26.230  1.00  0.00     0.017 C 
BRANCH  22  27
ATOM     27  C   UNL A   1      33.453  28.933  23.209  1.00  0.00     0.017 C 
ATOM     28  C   UNL A   1      34.341  28.022  22.374  1.00  0.00     0.005 C 
ENDBRANCH  22  27
ENDBRANCH  18  21
ENDBRANCH   9  18
ENDBRANCH   6   8
ENDBRANCH   5   6
ENDBRANCH   4   5
ENDBRANCH   3   4
ENDBRANCH   2   3
ENDBRANCH   1   2
BRANCH   1  29
ATOM     29  C   UNL A   1      37.996  19.603  24.895  1.00  0.00     0.188 C 
BRANCH  29  30
ATOM     30  O   UNL A   1      39.272  19.265  25.416  1.00  0.00    -0.376 OA
BRANCH  30  31
ATOM     31  C   UNL A   1      39.984  20.327  26.039  1.00  0.00     0.202 C 
BRANCH  31  32
ATOM     32  C   UNL A   1      40.816  19.901  27.254  1.00  0.00     0.261 C 
BRANCH  32  33
ATOM     33  O   UNL A   1      42.062  19.257  26.946  1.00  0.00    -0.460 OA
BRANCH  33  34
ATOM     34  C   UNL A   1      42.775  19.760  25.913  1.00  0.00     0.338 C 
ATOM     35  O   UNL A   1      43.011  19.213  24.851  1.00  0.00    -0.246 OA
BRANCH  34  36
ATOM     36  C   UNL A   1      43.083  21.171  26.224  1.00  0.00     0.060 A 
ATOM     37  C   UNL A   1      43.081  22.113  25.188  1.00  0.00     0.016 A 
ATOM     38  C   UNL A   1      43.366  21.562  27.536  1.00  0.00     0.016 A 
ATOM     39  C   UNL A   1      43.387  23.448  25.461  1.00  0.00     0.010 A 
ATOM     40  C   UNL A   1      43.686  22.894  27.804  1.00  0.00     0.010 A 
ATOM     41  C   UNL A   1      43.723  23.840  26.765  1.00  0.00    -0.014 A 
BRANCH  41  42
ATOM     42  C   UNL A   1      44.269  25.195  27.023  1.00  0.00     0.031 A 
ATOM     43  C   UNL A   1      43.331  26.269  27.504  1.00  0.00     0.074 A 
ATOM     44  C   UNL A   1      45.571  25.475  26.827  1.00  0.00     0.049 A 
ATOM     45  N   UNL A   1      43.569  27.531  27.751  1.00  0.00    -0.248 NA
ATOM     46  C   UNL A   1      41.935  25.863  27.734  1.00  0.00     0.031 C 
ATOM     47  C   UNL A   1      46.585  24.520  26.385  1.00  0.00     0.029 A 
ATOM     48  N   UNL A   1      46.259  26.655  26.967  1.00  0.00    -0.354 N 
ATOM     49  C   UNL A   1      42.358  28.069  28.169  1.00  0.00     0.074 A 
ATOM     50  C   UNL A   1      41.379  27.004  28.113  1.00  0.00     0.031 C 
ATOM     51  C   UNL A   1      47.766  25.157  26.277  1.00  0.00     0.029 A 
ATOM     52  C   UNL A   1      47.585  26.568  26.620  1.00  0.00     0.049 A 
ATOM     53  H   UNL A   1      45.840  27.487  27.287  1.00  0.00     0.167 HD
ATOM     54  C   UNL A   1      42.085  29.333  28.571  1.00  0.00     0.037 A 
ATOM     55  C   UNL A   1      48.538  27.521  26.567  1.00  0.00     0.037 A 
ATOM     56  C   UNL A   1      43.053  30.396  28.614  1.00  0.00     0.049 A 
ATOM     57  C   UNL A   1      48.197  28.936  26.959  1.00  0.00     0.074 A 
ATOM     58  C   UNL A   1      42.872  31.709  29.010  1.00  0.00     0.029 A 
ATOM     59  N   UNL A   1      44.382  30.270  28.239  1.00  0.00    -0.354 N 
ATOM     60  N   UNL A   1      47.053  29.424  27.377  1.00  0.00    -0.248 NA
ATOM     61  C   UNL A   1      49.277  29.930  26.874  1.00  0.00     0.031 C 
ATOM     62  C   UNL A   1      44.085  32.387  28.842  1.00  0.00     0.029 A 
ATOM     63  C   UNL A   1      45.030  31.486  28.379  1.00  0.00     0.049 A 
ATOM     64  H   UNL A   1      44.803  29.439  27.921  1.00  0.00     0.167 HD
ATOM     65  C   UNL A   1      47.284  30.773  27.631  1.00  0.00     0.074 A 
ATOM     66  C   UNL A   1      48.677  31.024  27.325  1.00  0.00     0.031 C 
ATOM     67  C   UNL A   1      46.422  31.718  28.083  1.00  0.00     0.037 A 
BRANCH  54  68
ATOM     68  C   UNL A   1      40.672  29.634  28.978  1.00  0.00     0.058 A 
ATOM     69  C   UNL A   1      40.331  29.882  30.317  1.00  0.00     0.135 A 
ATOM     70  C   UNL A   1      39.649  29.692  28.018  1.00  0.00     0.135 A 
ATOM     71  F   UNL A   1      41.268  29.818  31.276  1.00  0.00    -0.206 F 
ATOM     72  C   UNL A   1      39.020  30.151  30.695  1.00  0.00     0.059 A 
ATOM     73  C   UNL A   1      38.334  29.981  28.370  1.00  0.00     0.059 A 
ATOM     74  F   UNL A   1      39.921  29.459  26.725  1.00  0.00    -0.206 F 
ATOM     75  C   UNL A   1      38.028  30.195  29.713  1.00  0.00     0.060 A 
BRANCH  75  76
ATOM     76  S   UNL A   1      36.328  30.539  30.218  1.00  0.00     0.124 S 
ATOM     77  O   UNL A   1      36.007  29.344  30.991  1.00  0.00    -0.237 OA
ATOM     78  O   UNL A   1      36.472  31.772  30.986  1.00  0.00    -0.237 OA
ATOM     79  O   UNL A   1      35.619  30.675  28.948  1.00  0.00    -0.744 OA
ENDBRANCH  75  76
ENDBRANCH  54  68
BRANCH  55  80
ATOM     80  C   UNL A   1      49.914  27.175  26.120  1.00  0.00     0.058 A 
ATOM     81  C   UNL A   1      50.247  27.143  24.758  1.00  0.00     0.135 A 
ATOM     82  C   UNL A   1      50.919  26.853  27.045  1.00  0.00     0.135 A 
ATOM     83  F   UNL A   1      49.316  27.429  23.834  1.00  0.00    -0.206 F 
ATOM     84  C   UNL A   1      51.522  26.791  24.327  1.00  0.00     0.059 A 
ATOM     85  C   UNL A   1      52.207  26.518  26.641  1.00  0.00     0.059 A 
ATOM     86  F   UNL A   1      50.652  26.873  28.361  1.00  0.00    -0.206 F 
ATOM     87  C   UNL A   1      52.496  26.479  25.277  1.00  0.00     0.060 A 
BRANCH  87  88
ATOM     88  S   UNL A   1      54.159  26.058  24.711  1.00  0.00     0.124 S 
ATOM     89  O   UNL A   1      53.996  24.659  24.337  1.00  0.00    -0.237 OA
ATOM     90  O   UNL A   1      54.357  26.995  23.608  1.00  0.00    -0.237 OA
ATOM     91  O   UNL A   1      54.986  26.306  25.889  1.00  0.00    -0.744 OA
ENDBRANCH  87  88
ENDBRANCH  55  80
BRANCH  67  92
ATOM     92  C   UNL A   1      46.961  33.102  28.314  1.00  0.00     0.058 A 
ATOM     93  C   UNL A   1      46.895  34.094  27.324  1.00  0.00     0.135 A 
ATOM     94  C   UNL A   1      47.494  33.456  29.564  1.00  0.00     0.135 A 
ATOM     95  F   UNL A   1      46.400  33.806  26.110  1.00  0.00    -0.206 F 
ATOM     96  C   UNL A   1      47.357  35.386  27.559  1.00  0.00     0.059 A 
ATOM     97  C   UNL A   1      47.940  34.747  29.829  1.00  0.00     0.059 A 
ATOM     98  F   UNL A   1      47.567  32.546  30.549  1.00  0.00    -0.206 F 
ATOM     99  C   UNL A   1      47.877  35.703  28.816  1.00  0.00     0.060 A 
BRANCH  99 100
ATOM    100  S   UNL A   1      48.435  37.393  29.126  1.00  0.00     0.124 S 
ATOM    101  O   UNL A   1      49.741  37.164  29.734  1.00  0.00    -0.237 OA
ATOM    102  O   UNL A   1      48.453  37.970  27.784  1.00  0.00    -0.237 OA
ATOM    103  O   UNL A   1      47.411  37.930  30.017  1.00  0.00    -0.744 OA
ENDBRANCH  99 100
ENDBRANCH  67  92
ENDBRANCH  41  42
ENDBRANCH  34  36
ENDBRANCH  33  34
ENDBRANCH  32  33
ENDBRANCH  31  32
ENDBRANCH  30  31
ENDBRANCH  29  30
ENDBRANCH   1  29
TORSDOF 23
ENDMDL
