MODEL 1
REMARK VINA RESULT:      -9.9      0.000      0.000
REMARK SMILES C[C@@H]1CC[C@@]1(SC1CCCCC1)C(=O)OCCOCCOCCOC(=O)c1ccc(-c2c3nc(c(-c4c(F)cc(S(=O)(=O)[O-])cc4F)c4ccc([nH]4)c(-c4c(F)cc(S(=O)(=O)[O-])cc4F)c4nc(c(-c5c(F)cc(S(=O)(=O)[O-])cc5F)c5ccc2[nH]5)C=C4)C=C3)cc1
REMARK SMILES IDX 20 1 19 2 18 3 17 4 16 5 15 6 13 7 14 8 5 9 1 10 2 11 3 12
REMARK SMILES IDX 4 13 6 14 7 15 8 16 12 17 9 18 11 19 10 20 21 21 22 22 23 23
REMARK SMILES IDX 24 24 25 25 26 26 27 27 28 28 92 29 29 30 91 31 30 32 31 33
REMARK SMILES IDX 32 34 85 35 33 36 90 37 84 38 86 39 34 40 89 41 83 42 82 43
REMARK SMILES IDX 35 45 69 46 48 47 68 48 49 49 52 50 67 51 87 52 50 53 51 54
REMARK SMILES IDX 66 56 88 57 53 58 36 59 37 60 46 61 38 62 39 63 45 64 47 65
REMARK SMILES IDX 40 66 41 67 42 68 43 69 44 70 70 71 71 72 80 73 72 74 73 75
REMARK SMILES IDX 79 76 81 77 74 78 75 79 76 80 77 81 78 82 54 83 55 84 64 85
REMARK SMILES IDX 56 86 57 87 63 88 65 89 58 90 59 91 60 92 61 93 62 94
REMARK H PARENT 86 44 52 55
REMARK Flexibility Score: inf
ROOT
ATOM      1  C   UNL A   1      35.093  33.285  29.475  1.00  0.00     0.188 C 
ENDROOT
BRANCH   1   2
ATOM      2  C   UNL A   1      34.750  32.677  28.099  1.00  0.00     0.188 C 
BRANCH   2   3
ATOM      3  O   UNL A   1      33.591  31.896  27.928  1.00  0.00    -0.376 OA
BRANCH   3   4
ATOM      4  C   UNL A   1      33.576  30.718  27.156  1.00  0.00     0.202 C 
BRANCH   4   5
ATOM      5  C   UNL A   1      32.404  29.732  27.096  1.00  0.00     0.261 C 
BRANCH   5   6
ATOM      6  O   UNL A   1      32.087  29.128  25.842  1.00  0.00    -0.462 OA
BRANCH   6   7
ATOM      7  C   UNL A   1      31.441  27.917  25.906  1.00  0.00     0.322 C 
ATOM      8  O   UNL A   1      31.250  27.345  26.978  1.00  0.00    -0.251 OA
BRANCH   7   9
ATOM      9  C   UNL A   1      31.016  27.392  24.474  1.00  0.00     0.116 C 
ATOM     10  C   UNL A   1      32.848  25.734  23.248  1.00  0.00     0.010 C 
ATOM     11  C   UNL A   1      31.628  25.967  24.119  1.00  0.00     0.013 C 
ATOM     12  C   UNL A   1      30.282  25.575  23.486  1.00  0.00     0.007 C 
ATOM     13  C   UNL A   1      29.617  26.734  24.239  1.00  0.00     0.030 C 
BRANCH   9  14
ATOM     14  S   UNL A   1      31.391  28.655  23.154  1.00  0.00    -0.140 SA
BRANCH  14  15
ATOM     15  C   UNL A   1      29.800  29.527  22.870  1.00  0.00     0.048 C 
ATOM     16  C   UNL A   1      29.617  30.679  23.863  1.00  0.00     0.014 C 
ATOM     17  C   UNL A   1      29.475  29.982  21.444  1.00  0.00     0.014 C 
ATOM     18  C   UNL A   1      28.223  31.292  23.753  1.00  0.00     0.001 C 
ATOM     19  C   UNL A   1      28.091  30.619  21.333  1.00  0.00     0.001 C 
ATOM     20  C   UNL A   1      27.939  31.763  22.329  1.00  0.00     0.000 C 
ENDBRANCH  14  15
ENDBRANCH   9  14
ENDBRANCH   7   9
ENDBRANCH   6   7
ENDBRANCH   5   6
ENDBRANCH   4   5
ENDBRANCH   3   4
ENDBRANCH   2   3
ENDBRANCH   1   2
BRANCH   1  21
ATOM     21  O   UNL A   1      34.272  33.031  30.598  1.00  0.00    -0.376 OA
BRANCH  21  22
ATOM     22  C   UNL A   1      34.901  32.702  31.825  1.00  0.00     0.202 C 
BRANCH  22  23
ATOM     23  C   UNL A   1      36.274  32.014  31.794  1.00  0.00     0.261 C 
BRANCH  23  24
ATOM     24  O   UNL A   1      36.228  30.573  31.805  1.00  0.00    -0.460 OA
BRANCH  24  25
ATOM     25  C   UNL A   1      36.367  29.957  30.606  1.00  0.00     0.338 C 
ATOM     26  O   UNL A   1      35.468  29.702  29.808  1.00  0.00    -0.246 OA
BRANCH  25  27
ATOM     27  C   UNL A   1      37.796  29.790  30.267  1.00  0.00     0.060 A 
ATOM     28  C   UNL A   1      38.188  29.906  28.923  1.00  0.00     0.016 A 
ATOM     29  C   UNL A   1      38.742  29.469  31.241  1.00  0.00     0.016 A 
ATOM     30  C   UNL A   1      39.517  29.691  28.551  1.00  0.00     0.010 A 
ATOM     31  C   UNL A   1      40.071  29.228  30.860  1.00  0.00     0.010 A 
ATOM     32  C   UNL A   1      40.465  29.318  29.512  1.00  0.00    -0.014 A 
BRANCH  32  33
ATOM     33  C   UNL A   1      41.827  28.887  29.092  1.00  0.00     0.031 A 
ATOM     34  C   UNL A   1      42.934  29.906  29.046  1.00  0.00     0.074 A 
ATOM     35  C   UNL A   1      42.089  27.608  28.762  1.00  0.00     0.049 A 
ATOM     36  N   UNL A   1      44.161  29.782  28.608  1.00  0.00    -0.248 NA
ATOM     37  C   UNL A   1      42.613  31.242  29.569  1.00  0.00     0.031 C 
ATOM     38  C   UNL A   1      41.130  26.506  28.827  1.00  0.00     0.029 A 
ATOM     39  N   UNL A   1      43.241  27.025  28.290  1.00  0.00    -0.354 N 
ATOM     40  C   UNL A   1      44.751  31.030  28.779  1.00  0.00     0.074 A 
ATOM     41  C   UNL A   1      43.744  31.897  29.354  1.00  0.00     0.031 C 
ATOM     42  C   UNL A   1      41.726  25.385  28.381  1.00  0.00     0.029 A 
ATOM     43  C   UNL A   1      43.091  25.699  27.956  1.00  0.00     0.049 A 
ATOM     44  H   UNL A   1      44.092  27.510  28.198  1.00  0.00     0.167 HD
ATOM     45  C   UNL A   1      46.014  31.419  28.478  1.00  0.00     0.037 A 
ATOM     46  C   UNL A   1      43.936  24.846  27.339  1.00  0.00     0.037 A 
ATOM     47  C   UNL A   1      47.016  30.554  27.908  1.00  0.00     0.049 A 
ATOM     48  C   UNL A   1      45.311  25.321  26.937  1.00  0.00     0.074 A 
ATOM     49  C   UNL A   1      48.331  30.852  27.595  1.00  0.00     0.029 A 
ATOM     50  N   UNL A   1      46.813  29.228  27.552  1.00  0.00    -0.354 N 
ATOM     51  N   UNL A   1      45.863  26.499  27.111  1.00  0.00    -0.248 NA
ATOM     52  C   UNL A   1      46.178  24.352  26.247  1.00  0.00     0.031 C 
ATOM     53  C   UNL A   1      48.903  29.728  26.988  1.00  0.00     0.029 A 
ATOM     54  C   UNL A   1      47.965  28.708  26.982  1.00  0.00     0.049 A 
ATOM     55  H   UNL A   1      45.974  28.730  27.683  1.00  0.00     0.167 HD
ATOM     56  C   UNL A   1      47.142  26.408  26.568  1.00  0.00     0.074 A 
ATOM     57  C   UNL A   1      47.290  25.054  26.075  1.00  0.00     0.031 C 
ATOM     58  C   UNL A   1      48.106  27.360  26.486  1.00  0.00     0.037 A 
BRANCH  45  59
ATOM     59  C   UNL A   1      46.371  32.863  28.708  1.00  0.00     0.058 A 
ATOM     60  C   UNL A   1      46.170  33.848  27.730  1.00  0.00     0.135 A 
ATOM     61  C   UNL A   1      46.904  33.267  29.945  1.00  0.00     0.135 A 
ATOM     62  F   UNL A   1      45.678  33.517  26.526  1.00  0.00    -0.206 F 
ATOM     63  C   UNL A   1      46.517  35.178  27.955  1.00  0.00     0.059 A 
ATOM     64  C   UNL A   1      47.230  34.595  30.202  1.00  0.00     0.059 A 
ATOM     65  F   UNL A   1      47.116  32.366  30.916  1.00  0.00    -0.206 F 
ATOM     66  C   UNL A   1      47.050  35.541  29.194  1.00  0.00     0.060 A 
BRANCH  66  67
ATOM     67  S   UNL A   1      47.508  37.265  29.466  1.00  0.00     0.124 S 
ATOM     68  O   UNL A   1      46.272  37.955  29.108  1.00  0.00    -0.237 OA
ATOM     69  O   UNL A   1      47.853  37.276  30.884  1.00  0.00    -0.237 OA
ATOM     70  O   UNL A   1      48.626  37.469  28.550  1.00  0.00    -0.744 OA
ENDBRANCH  66  67
ENDBRANCH  45  59
BRANCH  46  71
ATOM     71  C   UNL A   1      43.485  23.464  27.013  1.00  0.00     0.058 A 
ATOM     72  C   UNL A   1      43.150  23.091  25.704  1.00  0.00     0.135 A 
ATOM     73  C   UNL A   1      43.386  22.483  28.014  1.00  0.00     0.135 A 
ATOM     74  F   UNL A   1      43.204  23.997  24.714  1.00  0.00    -0.206 F 
ATOM     75  C   UNL A   1      42.734  21.799  25.396  1.00  0.00     0.059 A 
ATOM     76  C   UNL A   1      43.001  21.177  27.728  1.00  0.00     0.059 A 
ATOM     77  F   UNL A   1      43.692  22.787  29.285  1.00  0.00    -0.206 F 
ATOM     78  C   UNL A   1      42.671  20.846  26.415  1.00  0.00     0.060 A 
BRANCH  78  79
ATOM     79  S   UNL A   1      42.195  19.154  25.994  1.00  0.00     0.124 S 
ATOM     80  O   UNL A   1      42.975  18.921  24.783  1.00  0.00    -0.237 OA
ATOM     81  O   UNL A   1      42.619  18.413  27.177  1.00  0.00    -0.237 OA
ATOM     82  O   UNL A   1      40.751  19.248  25.806  1.00  0.00    -0.744 OA
ENDBRANCH  78  79
ENDBRANCH  46  71
BRANCH  58  83
ATOM     83  C   UNL A   1      49.420  26.978  25.854  1.00  0.00     0.058 A 
ATOM     84  C   UNL A   1      49.711  27.280  24.514  1.00  0.00     0.135 A 
ATOM     85  C   UNL A   1      50.426  26.361  26.617  1.00  0.00     0.135 A 
ATOM     86  F   UNL A   1      48.786  27.864  23.736  1.00  0.00    -0.206 F 
ATOM     87  C   UNL A   1      50.944  26.967  23.949  1.00  0.00     0.059 A 
ATOM     88  C   UNL A   1      51.676  26.066  26.080  1.00  0.00     0.059 A 
ATOM     89  F   UNL A   1      50.208  26.059  27.906  1.00  0.00    -0.206 F 
ATOM     90  C   UNL A   1      51.923  26.364  24.741  1.00  0.00     0.060 A 
BRANCH  90  91
ATOM     91  S   UNL A   1      53.532  26.002  24.005  1.00  0.00     0.124 S 
ATOM     92  O   UNL A   1      53.877  24.742  24.653  1.00  0.00    -0.237 OA
ATOM     93  O   UNL A   1      53.214  25.918  22.583  1.00  0.00    -0.237 OA
ATOM     94  O   UNL A   1      54.349  27.150  24.391  1.00  0.00    -0.744 OA
ENDBRANCH  90  91
ENDBRANCH  58  83
ENDBRANCH  32  33
ENDBRANCH  25  27
ENDBRANCH  24  25
ENDBRANCH  23  24
ENDBRANCH  22  23
ENDBRANCH  21  22
ENDBRANCH   1  21
TORSDOF 22
ENDMDL
MODEL 2
REMARK VINA RESULT:      -9.6      1.525      3.181
REMARK SMILES C[C@@H]1CC[C@@]1(SC1CCCCC1)C(=O)OCCOCCOCCOC(=O)c1ccc(-c2c3nc(c(-c4c(F)cc(S(=O)(=O)[O-])cc4F)c4ccc([nH]4)c(-c4c(F)cc(S(=O)(=O)[O-])cc4F)c4nc(c(-c5c(F)cc(S(=O)(=O)[O-])cc5F)c5ccc2[nH]5)C=C4)C=C3)cc1
REMARK SMILES IDX 20 1 19 2 18 3 17 4 16 5 15 6 13 7 14 8 5 9 1 10 2 11 3 12
REMARK SMILES IDX 4 13 6 14 7 15 8 16 12 17 9 18 11 19 10 20 21 21 22 22 23 23
REMARK SMILES IDX 24 24 25 25 26 26 27 27 28 28 92 29 29 30 91 31 30 32 31 33
REMARK SMILES IDX 32 34 85 35 33 36 90 37 84 38 86 39 34 40 89 41 83 42 82 43
REMARK SMILES IDX 35 45 69 46 48 47 68 48 49 49 52 50 67 51 87 52 50 53 51 54
REMARK SMILES IDX 66 56 88 57 53 58 36 59 37 60 46 61 38 62 39 63 45 64 47 65
REMARK SMILES IDX 40 66 41 67 42 68 43 69 44 70 70 71 71 72 80 73 72 74 73 75
REMARK SMILES IDX 79 76 81 77 74 78 75 79 76 80 77 81 78 82 54 83 55 84 64 85
REMARK SMILES IDX 56 86 57 87 63 88 65 89 58 90 59 91 60 92 61 93 62 94
REMARK H PARENT 86 44 52 55
REMARK Flexibility Score: inf
ROOT
ATOM      1  C   UNL A   1      34.695  31.715  27.676  1.00  0.00     0.188 C 
ENDROOT
BRANCH   1   2
ATOM      2  C   UNL A   1      34.004  30.446  27.136  1.00  0.00     0.188 C 
BRANCH   2   3
ATOM      3  O   UNL A   1      32.600  30.345  27.116  1.00  0.00    -0.376 OA
BRANCH   3   4
ATOM      4  C   UNL A   1      31.869  30.146  25.929  1.00  0.00     0.202 C 
BRANCH   4   5
ATOM      5  C   UNL A   1      32.200  29.088  24.871  1.00  0.00     0.261 C 
BRANCH   5   6
ATOM      6  O   UNL A   1      32.468  27.754  25.303  1.00  0.00    -0.462 OA
BRANCH   6   7
ATOM      7  C   UNL A   1      32.876  26.878  24.326  1.00  0.00     0.322 C 
ATOM      8  O   UNL A   1      33.699  27.203  23.471  1.00  0.00    -0.251 OA
BRANCH   7   9
ATOM      9  C   UNL A   1      32.158  25.472  24.449  1.00  0.00     0.116 C 
ATOM     10  C   UNL A   1      29.770  25.499  25.829  1.00  0.00     0.010 C 
ATOM     11  C   UNL A   1      30.574  25.581  24.545  1.00  0.00     0.013 C 
ATOM     12  C   UNL A   1      30.459  24.360  23.617  1.00  0.00     0.007 C 
ATOM     13  C   UNL A   1      31.916  24.577  23.190  1.00  0.00     0.030 C 
BRANCH   9  14
ATOM     14  S   UNL A   1      32.870  24.472  25.853  1.00  0.00    -0.140 SA
BRANCH  14  15
ATOM     15  C   UNL A   1      34.303  23.587  25.122  1.00  0.00     0.048 C 
ATOM     16  C   UNL A   1      35.623  24.264  25.504  1.00  0.00     0.014 C 
ATOM     17  C   UNL A   1      34.391  22.071  25.327  1.00  0.00     0.014 C 
ATOM     18  C   UNL A   1      36.802  23.645  24.757  1.00  0.00     0.001 C 
ATOM     19  C   UNL A   1      35.583  21.450  24.600  1.00  0.00     0.001 C 
ATOM     20  C   UNL A   1      36.882  22.141  25.002  1.00  0.00     0.000 C 
ENDBRANCH  14  15
ENDBRANCH   9  14
ENDBRANCH   7   9
ENDBRANCH   6   7
ENDBRANCH   5   6
ENDBRANCH   4   5
ENDBRANCH   3   4
ENDBRANCH   2   3
ENDBRANCH   1   2
BRANCH   1  21
ATOM     21  O   UNL A   1      33.991  32.619  28.504  1.00  0.00    -0.376 OA
BRANCH  21  22
ATOM     22  C   UNL A   1      34.674  33.772  28.967  1.00  0.00     0.202 C 
BRANCH  22  23
ATOM     23  C   UNL A   1      35.484  33.683  30.269  1.00  0.00     0.261 C 
BRANCH  23  24
ATOM     24  O   UNL A   1      36.732  32.971  30.156  1.00  0.00    -0.460 OA
BRANCH  24  25
ATOM     25  C   UNL A   1      36.780  31.744  30.729  1.00  0.00     0.338 C 
ATOM     26  O   UNL A   1      35.890  31.211  31.388  1.00  0.00    -0.246 OA
BRANCH  25  27
ATOM     27  C   UNL A   1      37.990  31.012  30.299  1.00  0.00     0.060 A 
ATOM     28  C   UNL A   1      38.929  30.632  31.272  1.00  0.00     0.016 A 
ATOM     29  C   UNL A   1      38.237  30.743  28.952  1.00  0.00     0.016 A 
ATOM     30  C   UNL A   1      40.117  29.998  30.900  1.00  0.00     0.010 A 
ATOM     31  C   UNL A   1      39.442  30.129  28.581  1.00  0.00     0.010 A 
ATOM     32  C   UNL A   1      40.400  29.768  29.549  1.00  0.00    -0.014 A 
BRANCH  32  33
ATOM     33  C   UNL A   1      41.746  29.286  29.136  1.00  0.00     0.031 A 
ATOM     34  C   UNL A   1      42.884  30.270  29.062  1.00  0.00     0.074 A 
ATOM     35  C   UNL A   1      41.969  27.992  28.837  1.00  0.00     0.049 A 
ATOM     36  N   UNL A   1      44.105  30.099  28.625  1.00  0.00    -0.248 NA
ATOM     37  C   UNL A   1      42.604  31.628  29.554  1.00  0.00     0.031 C 
ATOM     38  C   UNL A   1      40.978  26.921  28.930  1.00  0.00     0.029 A 
ATOM     39  N   UNL A   1      43.102  27.364  28.376  1.00  0.00    -0.354 N 
ATOM     40  C   UNL A   1      44.733  31.332  28.763  1.00  0.00     0.074 A 
ATOM     41  C   UNL A   1      43.754  32.242  29.320  1.00  0.00     0.031 C 
ATOM     42  C   UNL A   1      41.539  25.773  28.511  1.00  0.00     0.029 A 
ATOM     43  C   UNL A   1      42.911  26.035  28.075  1.00  0.00     0.049 A 
ATOM     44  H   UNL A   1      43.967  27.821  28.271  1.00  0.00     0.167 HD
ATOM     45  C   UNL A   1      46.006  31.676  28.451  1.00  0.00     0.037 A 
ATOM     46  C   UNL A   1      43.728  25.142  27.477  1.00  0.00     0.037 A 
ATOM     47  C   UNL A   1      46.979  30.767  27.899  1.00  0.00     0.049 A 
ATOM     48  C   UNL A   1      45.116  25.566  27.059  1.00  0.00     0.074 A 
ATOM     49  C   UNL A   1      48.301  31.018  27.575  1.00  0.00     0.029 A 
ATOM     50  N   UNL A   1      46.736  29.440  27.576  1.00  0.00    -0.354 N 
ATOM     51  N   UNL A   1      45.703  26.731  27.204  1.00  0.00    -0.248 NA
ATOM     52  C   UNL A   1      45.951  24.556  26.391  1.00  0.00     0.031 C 
ATOM     53  C   UNL A   1      48.838  29.864  26.994  1.00  0.00     0.029 A 
ATOM     54  C   UNL A   1      47.870  28.872  27.016  1.00  0.00     0.049 A 
ATOM     55  H   UNL A   1      45.882  28.971  27.721  1.00  0.00     0.167 HD
ATOM     56  C   UNL A   1      46.977  26.588  26.660  1.00  0.00     0.074 A 
ATOM     57  C   UNL A   1      47.083  25.219  26.200  1.00  0.00     0.031 C 
ATOM     58  C   UNL A   1      47.968  27.509  26.553  1.00  0.00     0.037 A 
BRANCH  45  59
ATOM     59  C   UNL A   1      46.406  33.114  28.644  1.00  0.00     0.058 A 
ATOM     60  C   UNL A   1      46.249  34.077  27.636  1.00  0.00     0.135 A 
ATOM     61  C   UNL A   1      46.936  33.536  29.876  1.00  0.00     0.135 A 
ATOM     62  F   UNL A   1      45.762  33.727  26.435  1.00  0.00    -0.206 F 
ATOM     63  C   UNL A   1      46.637  35.401  27.828  1.00  0.00     0.059 A 
ATOM     64  C   UNL A   1      47.302  34.859  30.100  1.00  0.00     0.059 A 
ATOM     65  F   UNL A   1      47.107  32.657  30.875  1.00  0.00    -0.206 F 
ATOM     66  C   UNL A   1      47.165  35.781  29.064  1.00  0.00     0.060 A 
BRANCH  66  67
ATOM     67  S   UNL A   1      47.676  37.497  29.293  1.00  0.00     0.124 S 
ATOM     68  O   UNL A   1      48.993  37.496  28.663  1.00  0.00    -0.237 OA
ATOM     69  O   UNL A   1      46.633  38.230  28.582  1.00  0.00    -0.237 OA
ATOM     70  O   UNL A   1      47.676  37.662  30.743  1.00  0.00    -0.744 OA
ENDBRANCH  66  67
ENDBRANCH  45  59
BRANCH  46  71
ATOM     71  C   UNL A   1      43.235  23.767  27.185  1.00  0.00     0.058 A 
ATOM     72  C   UNL A   1      42.848  23.385  25.894  1.00  0.00     0.135 A 
ATOM     73  C   UNL A   1      43.149  22.802  28.203  1.00  0.00     0.135 A 
ATOM     74  F   UNL A   1      42.888  24.276  24.890  1.00  0.00    -0.206 F 
ATOM     75  C   UNL A   1      42.392  22.099  25.619  1.00  0.00     0.059 A 
ATOM     76  C   UNL A   1      42.725  21.502  27.948  1.00  0.00     0.059 A 
ATOM     77  F   UNL A   1      43.505  23.115  29.458  1.00  0.00    -0.206 F 
ATOM     78  C   UNL A   1      42.342  21.160  26.652  1.00  0.00     0.060 A 
BRANCH  78  79
ATOM     79  S   UNL A   1      41.814  19.475  26.271  1.00  0.00     0.124 S 
ATOM     80  O   UNL A   1      42.535  19.213  25.031  1.00  0.00    -0.237 OA
ATOM     81  O   UNL A   1      42.274  18.738  27.443  1.00  0.00    -0.237 OA
ATOM     82  O   UNL A   1      40.365  19.597  26.145  1.00  0.00    -0.744 OA
ENDBRANCH  78  79
ENDBRANCH  46  71
BRANCH  58  83
ATOM     83  C   UNL A   1      49.268  27.073  25.926  1.00  0.00     0.058 A 
ATOM     84  C   UNL A   1      49.517  27.230  24.554  1.00  0.00     0.135 A 
ATOM     85  C   UNL A   1      50.304  26.552  26.721  1.00  0.00     0.135 A 
ATOM     86  F   UNL A   1      48.563  27.717  23.745  1.00  0.00    -0.206 F 
ATOM     87  C   UNL A   1      50.738  26.869  23.989  1.00  0.00     0.059 A 
ATOM     88  C   UNL A   1      51.542  26.212  26.183  1.00  0.00     0.059 A 
ATOM     89  F   UNL A   1      50.126  26.390  28.042  1.00  0.00    -0.206 F 
ATOM     90  C   UNL A   1      51.746  26.365  24.812  1.00  0.00     0.060 A 
BRANCH  90  91
ATOM     91  S   UNL A   1      53.338  25.940  24.071  1.00  0.00     0.124 S 
ATOM     92  O   UNL A   1      54.195  27.004  24.582  1.00  0.00    -0.237 OA
ATOM     93  O   UNL A   1      53.589  24.608  24.613  1.00  0.00    -0.237 OA
ATOM     94  O   UNL A   1      53.069  25.986  22.637  1.00  0.00    -0.744 OA
ENDBRANCH  90  91
ENDBRANCH  58  83
ENDBRANCH  32  33
ENDBRANCH  25  27
ENDBRANCH  24  25
ENDBRANCH  23  24
ENDBRANCH  22  23
ENDBRANCH  21  22
ENDBRANCH   1  21
TORSDOF 22
ENDMDL
MODEL 3
REMARK VINA RESULT:      -9.6      6.365     12.210
REMARK SMILES C[C@@H]1CC[C@@]1(SC1CCCCC1)C(=O)OCCOCCOCCOC(=O)c1ccc(-c2c3nc(c(-c4c(F)cc(S(=O)(=O)[O-])cc4F)c4ccc([nH]4)c(-c4c(F)cc(S(=O)(=O)[O-])cc4F)c4nc(c(-c5c(F)cc(S(=O)(=O)[O-])cc5F)c5ccc2[nH]5)C=C4)C=C3)cc1
REMARK SMILES IDX 20 1 19 2 18 3 17 4 16 5 15 6 13 7 14 8 5 9 1 10 2 11 3 12
REMARK SMILES IDX 4 13 6 14 7 15 8 16 12 17 9 18 11 19 10 20 21 21 22 22 23 23
REMARK SMILES IDX 24 24 25 25 26 26 27 27 28 28 92 29 29 30 91 31 30 32 31 33
REMARK SMILES IDX 32 34 85 35 33 36 90 37 84 38 86 39 34 40 89 41 83 42 82 43
REMARK SMILES IDX 35 45 69 46 48 47 68 48 49 49 52 50 67 51 87 52 50 53 51 54
REMARK SMILES IDX 66 56 88 57 53 58 36 59 37 60 46 61 38 62 39 63 45 64 47 65
REMARK SMILES IDX 40 66 41 67 42 68 43 69 44 70 70 71 71 72 80 73 72 74 73 75
REMARK SMILES IDX 79 76 81 77 74 78 75 79 76 80 77 81 78 82 54 83 55 84 64 85
REMARK SMILES IDX 56 86 57 87 63 88 65 89 58 90 59 91 60 92 61 93 62 94
REMARK H PARENT 86 44 52 55
REMARK Flexibility Score: inf
ROOT
ATOM      1  C   UNL A   1      38.091  21.230  25.390  1.00  0.00     0.188 C 
ENDROOT
BRANCH   1   2
ATOM      2  C   UNL A   1      36.767  20.541  25.000  1.00  0.00     0.188 C 
BRANCH   2   3
ATOM      3  O   UNL A   1      35.565  20.872  25.654  1.00  0.00    -0.376 OA
BRANCH   3   4
ATOM      4  C   UNL A   1      34.685  21.861  25.172  1.00  0.00     0.202 C 
BRANCH   4   5
ATOM      5  C   UNL A   1      33.438  22.352  25.914  1.00  0.00     0.261 C 
BRANCH   5   6
ATOM      6  O   UNL A   1      33.288  23.754  26.139  1.00  0.00    -0.462 OA
BRANCH   6   7
ATOM      7  C   UNL A   1      31.995  24.221  26.173  1.00  0.00     0.322 C 
ATOM      8  O   UNL A   1      31.332  24.208  27.209  1.00  0.00    -0.251 OA
BRANCH   7   9
ATOM      9  C   UNL A   1      31.511  24.736  24.756  1.00  0.00     0.116 C 
ATOM     10  C   UNL A   1      33.296  26.375  23.438  1.00  0.00     0.010 C 
ATOM     11  C   UNL A   1      32.707  25.010  23.744  1.00  0.00     0.013 C 
ATOM     12  C   UNL A   1      31.862  24.390  22.618  1.00  0.00     0.007 C 
ATOM     13  C   UNL A   1      30.965  23.741  23.680  1.00  0.00     0.030 C 
BRANCH   9  14
ATOM     14  S   UNL A   1      30.392  26.219  24.925  1.00  0.00    -0.140 SA
BRANCH  14  15
ATOM     15  C   UNL A   1      31.462  27.541  25.618  1.00  0.00     0.048 C 
ATOM     16  C   UNL A   1      31.234  28.871  24.894  1.00  0.00     0.014 C 
ATOM     17  C   UNL A   1      31.462  27.741  27.136  1.00  0.00     0.014 C 
ATOM     18  C   UNL A   1      32.244  29.927  25.340  1.00  0.00     0.001 C 
ATOM     19  C   UNL A   1      32.454  28.813  27.585  1.00  0.00     0.001 C 
ATOM     20  C   UNL A   1      32.202  30.126  26.852  1.00  0.00     0.000 C 
ENDBRANCH  14  15
ENDBRANCH   9  14
ENDBRANCH   7   9
ENDBRANCH   6   7
ENDBRANCH   5   6
ENDBRANCH   4   5
ENDBRANCH   3   4
ENDBRANCH   2   3
ENDBRANCH   1   2
BRANCH   1  21
ATOM     21  O   UNL A   1      39.218  20.462  25.765  1.00  0.00    -0.376 OA
BRANCH  21  22
ATOM     22  C   UNL A   1      40.231  21.092  26.530  1.00  0.00     0.202 C 
BRANCH  22  23
ATOM     23  C   UNL A   1      40.156  22.609  26.756  1.00  0.00     0.261 C 
BRANCH  23  24
ATOM     24  O   UNL A   1      41.317  23.184  27.389  1.00  0.00    -0.460 OA
BRANCH  24  25
ATOM     25  C   UNL A   1      41.794  24.330  26.845  1.00  0.00     0.338 C 
ATOM     26  O   UNL A   1      42.280  24.459  25.724  1.00  0.00    -0.246 OA
BRANCH  25  27
ATOM     27  C   UNL A   1      41.481  25.488  27.709  1.00  0.00     0.060 A 
ATOM     28  C   UNL A   1      42.400  26.548  27.774  1.00  0.00     0.016 A 
ATOM     29  C   UNL A   1      40.326  25.520  28.492  1.00  0.00     0.016 A 
ATOM     30  C   UNL A   1      42.174  27.631  28.628  1.00  0.00     0.010 A 
ATOM     31  C   UNL A   1      40.115  26.596  29.366  1.00  0.00     0.010 A 
ATOM     32  C   UNL A   1      41.045  27.650  29.455  1.00  0.00    -0.014 A 
BRANCH  32  33
ATOM     33  C   UNL A   1      40.907  28.692  30.510  1.00  0.00     0.031 A 
ATOM     34  C   UNL A   1      41.807  28.633  31.716  1.00  0.00     0.074 A 
ATOM     35  C   UNL A   1      40.005  29.685  30.404  1.00  0.00     0.049 A 
ATOM     36  N   UNL A   1      41.791  29.362  32.803  1.00  0.00    -0.248 NA
ATOM     37  C   UNL A   1      42.870  27.617  31.688  1.00  0.00     0.031 C 
ATOM     38  C   UNL A   1      39.118  29.902  29.263  1.00  0.00     0.029 A 
ATOM     39  N   UNL A   1      39.675  30.690  31.283  1.00  0.00    -0.354 N 
ATOM     40  C   UNL A   1      42.823  28.877  33.599  1.00  0.00     0.074 A 
ATOM     41  C   UNL A   1      43.439  27.788  32.872  1.00  0.00     0.031 C 
ATOM     42  C   UNL A   1      38.324  30.957  29.524  1.00  0.00     0.029 A 
ATOM     43  C   UNL A   1      38.613  31.459  30.867  1.00  0.00     0.049 A 
ATOM     44  H   UNL A   1      40.153  30.844  32.129  1.00  0.00     0.167 HD
ATOM     45  C   UNL A   1      43.217  29.299  34.826  1.00  0.00     0.037 A 
ATOM     46  C   UNL A   1      37.921  32.425  31.509  1.00  0.00     0.037 A 
ATOM     47  C   UNL A   1      42.603  30.385  35.547  1.00  0.00     0.049 A 
ATOM     48  C   UNL A   1      38.323  32.824  32.908  1.00  0.00     0.074 A 
ATOM     49  C   UNL A   1      42.951  30.900  36.784  1.00  0.00     0.029 A 
ATOM     50  N   UNL A   1      41.508  31.114  35.106  1.00  0.00    -0.354 N 
ATOM     51  N   UNL A   1      39.306  32.367  33.648  1.00  0.00    -0.248 NA
ATOM     52  C   UNL A   1      37.517  33.866  33.563  1.00  0.00     0.031 C 
ATOM     53  C   UNL A   1      42.026  31.894  37.121  1.00  0.00     0.029 A 
ATOM     54  C   UNL A   1      41.140  32.045  36.066  1.00  0.00     0.049 A 
ATOM     55  H   UNL A   1      41.057  30.988  34.240  1.00  0.00     0.167 HD
ATOM     56  C   UNL A   1      39.246  33.075  34.846  1.00  0.00     0.074 A 
ATOM     57  C   UNL A   1      38.141  34.004  34.726  1.00  0.00     0.031 C 
ATOM     58  C   UNL A   1      40.035  32.964  35.945  1.00  0.00     0.037 A 
BRANCH  45  59
ATOM     59  C   UNL A   1      44.333  28.543  35.495  1.00  0.00     0.058 A 
ATOM     60  C   UNL A   1      44.096  27.436  36.325  1.00  0.00     0.135 A 
ATOM     61  C   UNL A   1      45.669  28.925  35.279  1.00  0.00     0.135 A 
ATOM     62  F   UNL A   1      42.840  27.036  36.578  1.00  0.00    -0.206 F 
ATOM     63  C   UNL A   1      45.141  26.757  36.946  1.00  0.00     0.059 A 
ATOM     64  C   UNL A   1      46.729  28.242  35.866  1.00  0.00     0.059 A 
ATOM     65  F   UNL A   1      45.953  29.976  34.494  1.00  0.00    -0.206 F 
ATOM     66  C   UNL A   1      46.455  27.169  36.713  1.00  0.00     0.060 A 
BRANCH  66  67
ATOM     67  S   UNL A   1      47.797  26.287  37.536  1.00  0.00     0.124 S 
ATOM     68  O   UNL A   1      47.652  26.755  38.911  1.00  0.00    -0.237 OA
ATOM     69  O   UNL A   1      47.443  24.891  37.301  1.00  0.00    -0.237 OA
ATOM     70  O   UNL A   1      48.990  26.755  36.838  1.00  0.00    -0.744 OA
ENDBRANCH  66  67
ENDBRANCH  45  59
BRANCH  46  71
ATOM     71  C   UNL A   1      36.739  33.048  30.852  1.00  0.00     0.058 A 
ATOM     72  C   UNL A   1      35.430  32.701  31.215  1.00  0.00     0.135 A 
ATOM     73  C   UNL A   1      36.899  34.016  29.846  1.00  0.00     0.135 A 
ATOM     74  F   UNL A   1      35.220  31.764  32.154  1.00  0.00    -0.206 F 
ATOM     75  C   UNL A   1      34.323  33.286  30.607  1.00  0.00     0.059 A 
ATOM     76  C   UNL A   1      35.810  34.637  29.243  1.00  0.00     0.059 A 
ATOM     77  F   UNL A   1      38.130  34.384  29.458  1.00  0.00    -0.206 F 
ATOM     78  C   UNL A   1      34.524  34.261  29.627  1.00  0.00     0.060 A 
BRANCH  78  79
ATOM     79  S   UNL A   1      33.082  35.064  28.891  1.00  0.00     0.124 S 
ATOM     80  O   UNL A   1      32.596  34.027  27.987  1.00  0.00    -0.237 OA
ATOM     81  O   UNL A   1      32.251  35.331  30.060  1.00  0.00    -0.237 OA
ATOM     82  O   UNL A   1      33.647  36.246  28.249  1.00  0.00    -0.744 OA
ENDBRANCH  78  79
ENDBRANCH  46  71
BRANCH  58  83
ATOM     83  C   UNL A   1      39.750  33.877  37.110  1.00  0.00     0.058 A 
ATOM     84  C   UNL A   1      38.875  33.508  38.143  1.00  0.00     0.135 A 
ATOM     85  C   UNL A   1      40.413  35.111  37.227  1.00  0.00     0.135 A 
ATOM     86  F   UNL A   1      38.210  32.344  38.081  1.00  0.00    -0.206 F 
ATOM     87  C   UNL A   1      38.653  34.336  39.240  1.00  0.00     0.059 A 
ATOM     88  C   UNL A   1      40.228  35.941  38.329  1.00  0.00     0.059 A 
ATOM     89  F   UNL A   1      41.270  35.512  36.274  1.00  0.00    -0.206 F 
ATOM     90  C   UNL A   1      39.337  35.549  39.327  1.00  0.00     0.060 A 
BRANCH  90  91
ATOM     91  S   UNL A   1      39.069  36.593  40.777  1.00  0.00     0.124 S 
ATOM     92  O   UNL A   1      38.365  37.731  40.195  1.00  0.00    -0.237 OA
ATOM     93  O   UNL A   1      38.273  35.729  41.642  1.00  0.00    -0.237 OA
ATOM     94  O   UNL A   1      40.423  36.870  41.252  1.00  0.00    -0.744 OA
ENDBRANCH  90  91
ENDBRANCH  58  83
ENDBRANCH  32  33
ENDBRANCH  25  27
ENDBRANCH  24  25
ENDBRANCH  23  24
ENDBRANCH  22  23
ENDBRANCH  21  22
ENDBRANCH   1  21
TORSDOF 22
ENDMDL
