MODEL 1
REMARK VINA RESULT:      -8.6      0.000      0.000
REMARK SMILES CCc1ccc(C(=O)NCc2ccc(C(=O)OCCOCCOCCOC(=O)c3ccc(-c4c5nc(c(-c6c(F)cc(S(=O)(=O)[O-])cc6F)c6ccc([nH]6)c(-c6c(F)cc(S(=O)(=O)[O-])cc6F)c6nc(c(-c7c(F)cc(S(=O)(=O)[O-])cc7F)c7ccc4[nH]7)C=C6)C=C5)cc3)cc2)cc1
REMARK SMILES IDX 21 1 20 2 19 3 18 4 17 5 15 6 16 7 14 8 11 9 12 10 96 11
REMARK SMILES IDX 13 12 95 13 10 14 9 15 7 16 8 17 6 19 3 20 4 21 98 22 5 23
REMARK SMILES IDX 97 24 2 25 1 26 22 27 23 28 24 29 25 30 26 31 27 32 28 33
REMARK SMILES IDX 29 34 30 35 94 36 31 37 93 38 32 39 33 40 34 41 87 42 35 43
REMARK SMILES IDX 92 44 86 45 88 46 36 47 91 48 85 49 84 50 37 52 71 53 50 54
REMARK SMILES IDX 70 55 51 56 54 57 69 58 89 59 52 60 53 61 68 63 90 64 55 65
REMARK SMILES IDX 38 66 39 67 48 68 40 69 41 70 47 71 49 72 42 73 43 74 44 75
REMARK SMILES IDX 45 76 46 77 72 78 73 79 82 80 74 81 75 82 81 83 83 84 76 85
REMARK SMILES IDX 77 86 78 87 79 88 80 89 56 90 57 91 66 92 58 93 59 94 65 95
REMARK SMILES IDX 67 96 60 97 61 98 62 99 63 100 64 101
REMARK H PARENT 9 18 88 51 54 62
REMARK Flexibility Score: inf
ROOT
ATOM      1  C   UNL A   1      43.869  23.341  28.466  1.00  0.00     0.188 C 
ENDROOT
BRANCH   1   2
ATOM      2  O   UNL A   1      44.483  23.170  29.722  1.00  0.00    -0.376 OA
BRANCH   2   3
ATOM      3  C   UNL A   1      44.037  23.891  30.857  1.00  0.00     0.202 C 
BRANCH   3   4
ATOM      4  C   UNL A   1      44.923  24.509  31.958  1.00  0.00     0.261 C 
BRANCH   4   5
ATOM      5  O   UNL A   1      45.473  25.807  31.727  1.00  0.00    -0.460 OA
BRANCH   5   6
ATOM      6  C   UNL A   1      46.827  25.881  31.763  1.00  0.00     0.338 C 
ATOM      7  O   UNL A   1      47.556  25.484  32.657  1.00  0.00    -0.246 OA
BRANCH   6   8
ATOM      8  C   UNL A   1      47.335  26.365  30.461  1.00  0.00     0.060 A 
ATOM      9  C   UNL A   1      48.405  27.179  27.986  1.00  0.00    -0.029 A 
ATOM     10  C   UNL A   1      48.292  25.817  28.305  1.00  0.00     0.006 A 
ATOM     11  C   UNL A   1      47.892  28.121  28.895  1.00  0.00     0.006 A 
ATOM     12  C   UNL A   1      47.766  25.413  29.533  1.00  0.00     0.016 A 
ATOM     13  C   UNL A   1      47.370  27.721  30.132  1.00  0.00     0.016 A 
BRANCH   9  14
ATOM     14  C   UNL A   1      49.134  27.586  26.724  1.00  0.00     0.152 C 
BRANCH  14  15
ATOM     15  N   UNL A   1      48.311  28.340  25.808  1.00  0.00    -0.348 N 
ATOM     16  C   UNL A   1      47.118  28.104  25.184  1.00  0.00     0.251 C 
ATOM     17  O   UNL A   1      46.565  29.082  24.673  1.00  0.00    -0.269 OA
ATOM     18  H   UNL A   1      48.696  29.219  25.582  1.00  0.00     0.164 HD
BRANCH  16  19
ATOM     19  C   UNL A   1      46.455  26.770  25.053  1.00  0.00     0.039 A 
ATOM     20  C   UNL A   1      45.439  24.119  24.922  1.00  0.00    -0.048 A 
ATOM     21  C   UNL A   1      46.772  24.384  24.599  1.00  0.00     0.004 A 
ATOM     22  C   UNL A   1      44.626  25.185  25.313  1.00  0.00     0.004 A 
ATOM     23  C   UNL A   1      47.270  25.691  24.663  1.00  0.00     0.014 A 
ATOM     24  C   UNL A   1      45.127  26.490  25.372  1.00  0.00     0.014 A 
BRANCH  20  25
ATOM     25  C   UNL A   1      44.892  22.716  24.886  1.00  0.00     0.032 C 
ATOM     26  C   UNL A   1      45.920  21.674  25.307  1.00  0.00     0.009 C 
ENDBRANCH  20  25
ENDBRANCH  16  19
ENDBRANCH  14  15
ENDBRANCH   9  14
ENDBRANCH   6   8
ENDBRANCH   5   6
ENDBRANCH   4   5
ENDBRANCH   3   4
ENDBRANCH   2   3
ENDBRANCH   1   2
BRANCH   1  27
ATOM     27  C   UNL A   1      42.575  22.540  28.220  1.00  0.00     0.188 C 
BRANCH  27  28
ATOM     28  O   UNL A   1      42.280  22.056  26.924  1.00  0.00    -0.376 OA
BRANCH  28  29
ATOM     29  C   UNL A   1      40.965  22.174  26.405  1.00  0.00     0.202 C 
BRANCH  29  30
ATOM     30  C   UNL A   1      39.837  22.989  27.068  1.00  0.00     0.261 C 
BRANCH  30  31
ATOM     31  O   UNL A   1      39.495  24.247  26.478  1.00  0.00    -0.460 OA
BRANCH  31  32
ATOM     32  C   UNL A   1      40.515  25.130  26.362  1.00  0.00     0.338 C 
ATOM     33  O   UNL A   1      41.209  25.333  25.372  1.00  0.00    -0.246 OA
BRANCH  32  34
ATOM     34  C   UNL A   1      40.576  25.963  27.574  1.00  0.00     0.060 A 
ATOM     35  C   UNL A   1      39.472  25.980  28.437  1.00  0.00     0.016 A 
ATOM     36  C   UNL A   1      41.695  26.755  27.835  1.00  0.00     0.016 A 
ATOM     37  C   UNL A   1      39.477  26.807  29.560  1.00  0.00     0.010 A 
ATOM     38  C   UNL A   1      41.688  27.599  28.949  1.00  0.00     0.010 A 
ATOM     39  C   UNL A   1      40.569  27.649  29.801  1.00  0.00    -0.014 A 
BRANCH  39  40
ATOM     40  C   UNL A   1      40.475  28.703  30.840  1.00  0.00     0.031 A 
ATOM     41  C   UNL A   1      41.379  28.612  32.039  1.00  0.00     0.074 A 
ATOM     42  C   UNL A   1      39.610  29.725  30.719  1.00  0.00     0.049 A 
ATOM     43  N   UNL A   1      41.430  29.375  33.101  1.00  0.00    -0.248 NA
ATOM     44  C   UNL A   1      42.354  27.510  32.042  1.00  0.00     0.031 C 
ATOM     45  C   UNL A   1      38.713  29.943  29.586  1.00  0.00     0.029 A 
ATOM     46  N   UNL A   1      39.337  30.766  31.571  1.00  0.00    -0.354 N 
ATOM     47  C   UNL A   1      42.431  28.840  33.902  1.00  0.00     0.074 A 
ATOM     48  C   UNL A   1      42.943  27.672  33.218  1.00  0.00     0.031 C 
ATOM     49  C   UNL A   1      37.974  31.042  29.822  1.00  0.00     0.029 A 
ATOM     50  C   UNL A   1      38.321  31.583  31.136  1.00  0.00     0.049 A 
ATOM     51  H   UNL A   1      39.822  30.913  32.416  1.00  0.00     0.167 HD
ATOM     52  C   UNL A   1      42.888  29.285  35.096  1.00  0.00     0.037 A 
ATOM     53  C   UNL A   1      37.724  32.630  31.741  1.00  0.00     0.037 A 
ATOM     54  C   UNL A   1      42.370  30.445  35.775  1.00  0.00     0.049 A 
ATOM     55  C   UNL A   1      38.198  33.065  33.105  1.00  0.00     0.074 A 
ATOM     56  C   UNL A   1      42.777  30.989  36.981  1.00  0.00     0.029 A 
ATOM     57  N   UNL A   1      41.326  31.233  35.314  1.00  0.00    -0.354 N 
ATOM     58  N   UNL A   1      39.163  32.567  33.843  1.00  0.00    -0.248 NA
ATOM     59  C   UNL A   1      37.504  34.207  33.719  1.00  0.00     0.031 C 
ATOM     60  C   UNL A   1      41.941  32.071  37.277  1.00  0.00     0.029 A 
ATOM     61  C   UNL A   1      41.054  32.242  36.225  1.00  0.00     0.049 A 
ATOM     62  H   UNL A   1      40.846  31.095  34.465  1.00  0.00     0.167 HD
ATOM     63  C   UNL A   1      39.210  33.352  34.992  1.00  0.00     0.074 A 
ATOM     64  C   UNL A   1      38.184  34.363  34.846  1.00  0.00     0.031 C 
ATOM     65  C   UNL A   1      40.033  33.248  36.066  1.00  0.00     0.037 A 
BRANCH  52  66
ATOM     66  C   UNL A   1      43.980  28.493  35.762  1.00  0.00     0.058 A 
ATOM     67  C   UNL A   1      45.339  28.767  35.536  1.00  0.00     0.135 A 
ATOM     68  C   UNL A   1      43.664  27.456  36.654  1.00  0.00     0.135 A 
ATOM     69  F   UNL A   1      45.700  29.734  34.678  1.00  0.00    -0.206 F 
ATOM     70  C   UNL A   1      46.343  28.021  36.145  1.00  0.00     0.059 A 
ATOM     71  C   UNL A   1      44.651  26.718  37.299  1.00  0.00     0.059 A 
ATOM     72  F   UNL A   1      42.381  27.150  36.908  1.00  0.00    -0.206 F 
ATOM     73  C   UNL A   1      45.988  26.997  37.025  1.00  0.00     0.060 A 
BRANCH  73  74
ATOM     74  S   UNL A   1      47.303  26.035  37.805  1.00  0.00     0.124 S 
ATOM     75  O   UNL A   1      48.446  26.366  36.961  1.00  0.00    -0.237 OA
ATOM     76  O   UNL A   1      47.332  26.586  39.155  1.00  0.00    -0.237 OA
ATOM     77  O   UNL A   1      46.825  24.660  37.702  1.00  0.00    -0.744 OA
ENDBRANCH  73  74
ENDBRANCH  52  66
BRANCH  53  78
ATOM     78  C   UNL A   1      36.603  33.338  31.065  1.00  0.00     0.058 A 
ATOM     79  C   UNL A   1      36.840  34.217  29.998  1.00  0.00     0.135 A 
ATOM     80  C   UNL A   1      35.273  33.148  31.471  1.00  0.00     0.135 A 
ATOM     81  F   UNL A   1      38.094  34.444  29.581  1.00  0.00    -0.206 F 
ATOM     82  C   UNL A   1      35.800  34.890  29.364  1.00  0.00     0.059 A 
ATOM     83  C   UNL A   1      34.214  33.787  30.834  1.00  0.00     0.059 A 
ATOM     84  F   UNL A   1      34.991  32.313  32.484  1.00  0.00    -0.206 F 
ATOM     85  C   UNL A   1      34.489  34.662  29.785  1.00  0.00     0.060 A 
BRANCH  85  86
ATOM     86  S   UNL A   1      33.144  35.495  28.913  1.00  0.00     0.124 S 
ATOM     87  O   UNL A   1      33.877  36.416  28.051  1.00  0.00    -0.237 OA
ATOM     88  O   UNL A   1      32.482  34.382  28.242  1.00  0.00    -0.237 OA
ATOM     89  O   UNL A   1      32.377  36.113  29.990  1.00  0.00    -0.744 OA
ENDBRANCH  85  86
ENDBRANCH  53  78
BRANCH  65  90
ATOM     90  C   UNL A   1      39.891  34.276  37.158  1.00  0.00     0.058 A 
ATOM     91  C   UNL A   1      40.645  35.460  37.166  1.00  0.00     0.135 A 
ATOM     92  C   UNL A   1      38.943  34.099  38.180  1.00  0.00     0.135 A 
ATOM     93  F   UNL A   1      41.568  35.680  36.217  1.00  0.00    -0.206 F 
ATOM     94  C   UNL A   1      40.482  36.420  38.162  1.00  0.00     0.059 A 
ATOM     95  C   UNL A   1      38.742  35.059  39.167  1.00  0.00     0.059 A 
ATOM     96  F   UNL A   1      38.186  32.990  38.216  1.00  0.00    -0.206 F 
ATOM     97  C   UNL A   1      39.525  36.212  39.156  1.00  0.00     0.060 A 
BRANCH  97  98
ATOM     98  S   UNL A   1      39.300  37.480  40.421  1.00  0.00     0.124 S 
ATOM     99  O   UNL A   1      38.968  36.674  41.590  1.00  0.00    -0.237 OA
ATOM    100  O   UNL A   1      40.606  38.130  40.447  1.00  0.00    -0.237 OA
ATOM    101  O   UNL A   1      38.210  38.298  39.894  1.00  0.00    -0.744 OA
ENDBRANCH  97  98
ENDBRANCH  65  90
ENDBRANCH  39  40
ENDBRANCH  32  34
ENDBRANCH  31  32
ENDBRANCH  30  31
ENDBRANCH  29  30
ENDBRANCH  28  29
ENDBRANCH  27  28
ENDBRANCH   1  27
TORSDOF 24
ENDMDL
MODEL 2
REMARK VINA RESULT:      -8.5      9.483     15.423
REMARK SMILES CCc1ccc(C(=O)NCc2ccc(C(=O)OCCOCCOCCOC(=O)c3ccc(-c4c5nc(c(-c6c(F)cc(S(=O)(=O)[O-])cc6F)c6ccc([nH]6)c(-c6c(F)cc(S(=O)(=O)[O-])cc6F)c6nc(c(-c7c(F)cc(S(=O)(=O)[O-])cc7F)c7ccc4[nH]7)C=C6)C=C5)cc3)cc2)cc1
REMARK SMILES IDX 21 1 20 2 19 3 18 4 17 5 15 6 16 7 14 8 11 9 12 10 96 11
REMARK SMILES IDX 13 12 95 13 10 14 9 15 7 16 8 17 6 19 3 20 4 21 98 22 5 23
REMARK SMILES IDX 97 24 2 25 1 26 22 27 23 28 24 29 25 30 26 31 27 32 28 33
REMARK SMILES IDX 29 34 30 35 94 36 31 37 93 38 32 39 33 40 34 41 87 42 35 43
REMARK SMILES IDX 92 44 86 45 88 46 36 47 91 48 85 49 84 50 37 52 71 53 50 54
REMARK SMILES IDX 70 55 51 56 54 57 69 58 89 59 52 60 53 61 68 63 90 64 55 65
REMARK SMILES IDX 38 66 39 67 48 68 40 69 41 70 47 71 49 72 42 73 43 74 44 75
REMARK SMILES IDX 45 76 46 77 72 78 73 79 82 80 74 81 75 82 81 83 83 84 76 85
REMARK SMILES IDX 77 86 78 87 79 88 80 89 56 90 57 91 66 92 58 93 59 94 65 95
REMARK SMILES IDX 67 96 60 97 61 98 62 99 63 100 64 101
REMARK H PARENT 9 18 88 51 54 62
REMARK Flexibility Score: inf
ROOT
ATOM      1  C   UNL A   1      47.161  41.990  27.435  1.00  0.00     0.188 C 
ENDROOT
BRANCH   1   2
ATOM      2  O   UNL A   1      45.876  42.308  27.917  1.00  0.00    -0.376 OA
BRANCH   2   3
ATOM      3  C   UNL A   1      44.760  42.356  27.047  1.00  0.00     0.202 C 
BRANCH   3   4
ATOM      4  C   UNL A   1      44.416  41.340  25.938  1.00  0.00     0.261 C 
BRANCH   4   5
ATOM      5  O   UNL A   1      44.549  41.760  24.579  1.00  0.00    -0.460 OA
BRANCH   5   6
ATOM      6  C   UNL A   1      44.170  43.037  24.323  1.00  0.00     0.338 C 
ATOM      7  O   UNL A   1      44.494  44.033  24.947  1.00  0.00    -0.246 OA
BRANCH   6   8
ATOM      8  C   UNL A   1      43.427  43.090  23.045  1.00  0.00     0.060 A 
ATOM      9  C   UNL A   1      42.071  43.326  20.587  1.00  0.00    -0.029 A 
ATOM     10  C   UNL A   1      43.393  43.780  20.724  1.00  0.00     0.006 A 
ATOM     11  C   UNL A   1      41.474  42.676  21.681  1.00  0.00     0.006 A 
ATOM     12  C   UNL A   1      44.063  43.668  21.943  1.00  0.00     0.016 A 
ATOM     13  C   UNL A   1      42.140  42.567  22.909  1.00  0.00     0.016 A 
BRANCH   9  14
ATOM     14  C   UNL A   1      41.317  43.617  19.308  1.00  0.00     0.152 C 
BRANCH  14  15
ATOM     15  N   UNL A   1      42.056  43.267  18.118  1.00  0.00    -0.348 N 
ATOM     16  C   UNL A   1      42.945  43.931  17.319  1.00  0.00     0.251 C 
ATOM     17  O   UNL A   1      43.595  43.238  16.531  1.00  0.00    -0.269 OA
ATOM     18  H   UNL A   1      41.880  42.347  17.814  1.00  0.00     0.164 HD
BRANCH  16  19
ATOM     19  C   UNL A   1      43.168  45.410  17.309  1.00  0.00     0.039 A 
ATOM     20  C   UNL A   1      43.302  48.248  17.340  1.00  0.00    -0.048 A 
ATOM     21  C   UNL A   1      42.242  47.596  16.707  1.00  0.00     0.004 A 
ATOM     22  C   UNL A   1      44.287  47.473  17.957  1.00  0.00     0.004 A 
ATOM     23  C   UNL A   1      42.178  46.198  16.693  1.00  0.00     0.014 A 
ATOM     24  C   UNL A   1      44.220  46.075  17.936  1.00  0.00     0.014 A 
BRANCH  20  25
ATOM     25  C   UNL A   1      43.374  49.753  17.391  1.00  0.00     0.032 C 
ATOM     26  C   UNL A   1      43.503  50.285  18.812  1.00  0.00     0.009 C 
ENDBRANCH  20  25
ENDBRANCH  16  19
ENDBRANCH  14  15
ENDBRANCH   9  14
ENDBRANCH   6   8
ENDBRANCH   5   6
ENDBRANCH   4   5
ENDBRANCH   3   4
ENDBRANCH   2   3
ENDBRANCH   1   2
BRANCH   1  27
ATOM     27  C   UNL A   1      47.699  40.590  27.788  1.00  0.00     0.188 C 
BRANCH  27  28
ATOM     28  O   UNL A   1      48.943  40.161  27.271  1.00  0.00    -0.376 OA
BRANCH  28  29
ATOM     29  C   UNL A   1      49.814  39.379  28.073  1.00  0.00     0.202 C 
BRANCH  29  30
ATOM     30  C   UNL A   1      50.216  37.924  27.757  1.00  0.00     0.261 C 
BRANCH  30  31
ATOM     31  O   UNL A   1      49.211  36.915  27.895  1.00  0.00    -0.460 OA
BRANCH  31  32
ATOM     32  C   UNL A   1      49.099  36.373  29.130  1.00  0.00     0.338 C 
ATOM     33  O   UNL A   1      49.452  36.871  30.192  1.00  0.00    -0.246 OA
BRANCH  32  34
ATOM     34  C   UNL A   1      48.317  35.128  29.044  1.00  0.00     0.060 A 
ATOM     35  C   UNL A   1      48.376  34.219  30.108  1.00  0.00     0.016 A 
ATOM     36  C   UNL A   1      47.569  34.839  27.902  1.00  0.00     0.016 A 
ATOM     37  C   UNL A   1      47.695  33.004  30.028  1.00  0.00     0.010 A 
ATOM     38  C   UNL A   1      46.906  33.611  27.814  1.00  0.00     0.010 A 
ATOM     39  C   UNL A   1      46.988  32.678  28.864  1.00  0.00    -0.014 A 
BRANCH  39  40
ATOM     40  C   UNL A   1      46.478  31.299  28.671  1.00  0.00     0.031 A 
ATOM     41  C   UNL A   1      47.328  30.317  27.913  1.00  0.00     0.074 A 
ATOM     42  C   UNL A   1      45.286  30.923  29.165  1.00  0.00     0.049 A 
ATOM     43  N   UNL A   1      47.064  29.085  27.564  1.00  0.00    -0.248 NA
ATOM     44  C   UNL A   1      48.655  30.792  27.487  1.00  0.00     0.031 C 
ATOM     45  C   UNL A   1      44.390  31.770  29.950  1.00  0.00     0.029 A 
ATOM     46  N   UNL A   1      44.617  29.728  29.065  1.00  0.00    -0.354 N 
ATOM     47  C   UNL A   1      48.183  28.640  26.870  1.00  0.00     0.074 A 
ATOM     48  C   UNL A   1      49.118  29.744  26.822  1.00  0.00     0.031 C 
ATOM     49  C   UNL A   1      43.279  31.072  30.246  1.00  0.00     0.029 A 
ATOM     50  C   UNL A   1      43.370  29.743  29.643  1.00  0.00     0.049 A 
ATOM     51  H   UNL A   1      44.995  28.934  28.621  1.00  0.00     0.167 HD
ATOM     52  C   UNL A   1      48.414  27.422  26.327  1.00  0.00     0.037 A 
ATOM     53  C   UNL A   1      42.405  28.801  29.659  1.00  0.00     0.037 A 
ATOM     54  C   UNL A   1      47.477  26.329  26.373  1.00  0.00     0.049 A 
ATOM     55  C   UNL A   1      42.653  27.476  28.984  1.00  0.00     0.074 A 
ATOM     56  C   UNL A   1      47.623  25.048  25.869  1.00  0.00     0.029 A 
ATOM     57  N   UNL A   1      46.215  26.391  26.946  1.00  0.00    -0.354 N 
ATOM     58  N   UNL A   1      43.725  27.057  28.352  1.00  0.00    -0.248 NA
ATOM     59  C   UNL A   1      41.561  26.491  29.026  1.00  0.00     0.031 C 
ATOM     60  C   UNL A   1      46.428  24.354  26.085  1.00  0.00     0.029 A 
ATOM     61  C   UNL A   1      45.560  25.180  26.782  1.00  0.00     0.049 A 
ATOM     62  H   UNL A   1      45.839  27.178  27.401  1.00  0.00     0.167 HD
ATOM     63  C   UNL A   1      43.448  25.754  27.949  1.00  0.00     0.074 A 
ATOM     64  C   UNL A   1      42.112  25.450  28.417  1.00  0.00     0.031 C 
ATOM     65  C   UNL A   1      44.230  24.887  27.259  1.00  0.00     0.037 A 
BRANCH  52  66
ATOM     66  C   UNL A   1      49.719  27.217  25.606  1.00  0.00     0.058 A 
ATOM     67  C   UNL A   1      49.840  27.414  24.221  1.00  0.00     0.135 A 
ATOM     68  C   UNL A   1      50.870  26.836  26.315  1.00  0.00     0.135 A 
ATOM     69  F   UNL A   1      48.769  27.761  23.491  1.00  0.00    -0.206 F 
ATOM     70  C   UNL A   1      51.047  27.209  23.560  1.00  0.00     0.059 A 
ATOM     71  C   UNL A   1      52.095  26.656  25.679  1.00  0.00     0.059 A 
ATOM     72  F   UNL A   1      50.812  26.633  27.641  1.00  0.00    -0.206 F 
ATOM     73  C   UNL A   1      52.169  26.829  24.299  1.00  0.00     0.060 A 
BRANCH  73  74
ATOM     74  S   UNL A   1      53.727  26.564  23.426  1.00  0.00     0.124 S 
ATOM     75  O   UNL A   1      53.260  26.023  22.153  1.00  0.00    -0.237 OA
ATOM     76  O   UNL A   1      54.288  27.909  23.375  1.00  0.00    -0.237 OA
ATOM     77  O   UNL A   1      54.441  25.622  24.282  1.00  0.00    -0.744 OA
ENDBRANCH  73  74
ENDBRANCH  52  66
BRANCH  53  78
ATOM     78  C   UNL A   1      41.106  29.080  30.331  1.00  0.00     0.058 A 
ATOM     79  C   UNL A   1      40.874  28.677  31.654  1.00  0.00     0.135 A 
ATOM     80  C   UNL A   1      40.074  29.758  29.664  1.00  0.00     0.135 A 
ATOM     81  F   UNL A   1      41.824  28.013  32.329  1.00  0.00    -0.206 F 
ATOM     82  C   UNL A   1      39.662  28.925  32.289  1.00  0.00     0.059 A 
ATOM     83  C   UNL A   1      38.863  30.044  30.288  1.00  0.00     0.059 A 
ATOM     84  F   UNL A   1      40.247  30.171  28.399  1.00  0.00    -0.206 F 
ATOM     85  C   UNL A   1      38.664  29.616  31.599  1.00  0.00     0.060 A 
BRANCH  85  86
ATOM     86  S   UNL A   1      37.118  29.986  32.457  1.00  0.00     0.124 S 
ATOM     87  O   UNL A   1      37.323  31.374  32.851  1.00  0.00    -0.237 OA
ATOM     88  O   UNL A   1      36.128  29.759  31.408  1.00  0.00    -0.237 OA
ATOM     89  O   UNL A   1      37.098  29.015  33.546  1.00  0.00    -0.744 OA
ENDBRANCH  85  86
ENDBRANCH  53  78
BRANCH  65  90
ATOM     90  C   UNL A   1      43.685  23.507  26.999  1.00  0.00     0.058 A 
ATOM     91  C   UNL A   1      43.643  22.523  27.999  1.00  0.00     0.135 A 
ATOM     92  C   UNL A   1      43.142  23.184  25.743  1.00  0.00     0.135 A 
ATOM     93  F   UNL A   1      44.152  22.775  29.216  1.00  0.00    -0.206 F 
ATOM     94  C   UNL A   1      43.105  21.261  27.758  1.00  0.00     0.059 A 
ATOM     95  C   UNL A   1      42.572  21.940  25.489  1.00  0.00     0.059 A 
ATOM     96  F   UNL A   1      43.145  24.089  24.752  1.00  0.00    -0.206 F 
ATOM     97  C   UNL A   1      42.569  20.981  26.500  1.00  0.00     0.060 A 
BRANCH  97  98
ATOM     98  S   UNL A   1      41.844  19.353  26.212  1.00  0.00     0.124 S 
ATOM     99  O   UNL A   1      42.771  18.786  25.238  1.00  0.00    -0.237 OA
ATOM    100  O   UNL A   1      41.879  18.755  27.543  1.00  0.00    -0.237 OA
ATOM    101  O   UNL A   1      40.510  19.658  25.703  1.00  0.00    -0.744 OA
ENDBRANCH  97  98
ENDBRANCH  65  90
ENDBRANCH  39  40
ENDBRANCH  32  34
ENDBRANCH  31  32
ENDBRANCH  30  31
ENDBRANCH  29  30
ENDBRANCH  28  29
ENDBRANCH  27  28
ENDBRANCH   1  27
TORSDOF 24
ENDMDL
MODEL 3
REMARK VINA RESULT:      -8.3      6.628     10.524
REMARK SMILES CCc1ccc(C(=O)NCc2ccc(C(=O)OCCOCCOCCOC(=O)c3ccc(-c4c5nc(c(-c6c(F)cc(S(=O)(=O)[O-])cc6F)c6ccc([nH]6)c(-c6c(F)cc(S(=O)(=O)[O-])cc6F)c6nc(c(-c7c(F)cc(S(=O)(=O)[O-])cc7F)c7ccc4[nH]7)C=C6)C=C5)cc3)cc2)cc1
REMARK SMILES IDX 21 1 20 2 19 3 18 4 17 5 15 6 16 7 14 8 11 9 12 10 96 11
REMARK SMILES IDX 13 12 95 13 10 14 9 15 7 16 8 17 6 19 3 20 4 21 98 22 5 23
REMARK SMILES IDX 97 24 2 25 1 26 22 27 23 28 24 29 25 30 26 31 27 32 28 33
REMARK SMILES IDX 29 34 30 35 94 36 31 37 93 38 32 39 33 40 34 41 87 42 35 43
REMARK SMILES IDX 92 44 86 45 88 46 36 47 91 48 85 49 84 50 37 52 71 53 50 54
REMARK SMILES IDX 70 55 51 56 54 57 69 58 89 59 52 60 53 61 68 63 90 64 55 65
REMARK SMILES IDX 38 66 39 67 48 68 40 69 41 70 47 71 49 72 42 73 43 74 44 75
REMARK SMILES IDX 45 76 46 77 72 78 73 79 82 80 74 81 75 82 81 83 83 84 76 85
REMARK SMILES IDX 77 86 78 87 79 88 80 89 56 90 57 91 66 92 58 93 59 94 65 95
REMARK SMILES IDX 67 96 60 97 61 98 62 99 63 100 64 101
REMARK H PARENT 9 18 88 51 54 62
REMARK Flexibility Score: inf
ROOT
ATOM      1  C   UNL A   1      40.389  22.741  26.802  1.00  0.00     0.188 C 
ENDROOT
BRANCH   1   2
ATOM      2  O   UNL A   1      39.105  22.532  26.262  1.00  0.00    -0.376 OA
BRANCH   2   3
ATOM      3  C   UNL A   1      38.802  21.357  25.531  1.00  0.00     0.202 C 
BRANCH   3   4
ATOM      4  C   UNL A   1      37.414  20.929  25.013  1.00  0.00     0.261 C 
BRANCH   4   5
ATOM      5  O   UNL A   1      36.342  21.867  25.114  1.00  0.00    -0.460 OA
BRANCH   5   6
ATOM      6  C   UNL A   1      36.216  22.724  24.071  1.00  0.00     0.338 C 
ATOM      7  O   UNL A   1      36.685  22.587  22.953  1.00  0.00    -0.246 OA
BRANCH   6   8
ATOM      8  C   UNL A   1      35.262  23.800  24.421  1.00  0.00     0.060 A 
ATOM      9  C   UNL A   1      33.378  25.751  25.178  1.00  0.00    -0.029 A 
ATOM     10  C   UNL A   1      33.903  24.857  26.123  1.00  0.00     0.006 A 
ATOM     11  C   UNL A   1      33.880  25.704  23.865  1.00  0.00     0.006 A 
ATOM     12  C   UNL A   1      34.833  23.886  25.748  1.00  0.00     0.016 A 
ATOM     13  C   UNL A   1      34.808  24.727  23.482  1.00  0.00     0.016 A 
BRANCH   9  14
ATOM     14  C   UNL A   1      32.248  26.675  25.580  1.00  0.00     0.152 C 
BRANCH  14  15
ATOM     15  N   UNL A   1      31.049  26.483  24.797  1.00  0.00    -0.348 N 
ATOM     16  C   UNL A   1      30.366  25.384  24.355  1.00  0.00     0.251 C 
ATOM     17  O   UNL A   1      29.223  25.584  23.935  1.00  0.00    -0.269 OA
ATOM     18  H   UNL A   1      30.633  27.332  24.520  1.00  0.00     0.164 HD
BRANCH  16  19
ATOM     19  C   UNL A   1      30.898  23.987  24.319  1.00  0.00     0.039 A 
ATOM     20  C   UNL A   1      32.123  21.434  24.077  1.00  0.00    -0.048 A 
ATOM     21  C   UNL A   1      32.016  22.276  22.968  1.00  0.00     0.004 A 
ATOM     22  C   UNL A   1      31.619  21.879  25.302  1.00  0.00     0.004 A 
ATOM     23  C   UNL A   1      31.411  23.533  23.090  1.00  0.00     0.014 A 
ATOM     24  C   UNL A   1      31.012  23.135  25.417  1.00  0.00     0.014 A 
BRANCH  20  25
ATOM     25  C   UNL A   1      32.795  20.090  23.974  1.00  0.00     0.032 C 
ATOM     26  C   UNL A   1      32.787  19.327  25.292  1.00  0.00     0.009 C 
ENDBRANCH  20  25
ENDBRANCH  16  19
ENDBRANCH  14  15
ENDBRANCH   9  14
ENDBRANCH   6   8
ENDBRANCH   5   6
ENDBRANCH   4   5
ENDBRANCH   3   4
ENDBRANCH   2   3
ENDBRANCH   1   2
BRANCH   1  27
ATOM     27  C   UNL A   1      41.548  21.977  26.133  1.00  0.00     0.188 C 
BRANCH  27  28
ATOM     28  O   UNL A   1      42.868  22.476  26.226  1.00  0.00    -0.376 OA
BRANCH  28  29
ATOM     29  C   UNL A   1      43.346  23.402  25.262  1.00  0.00     0.202 C 
BRANCH  29  30
ATOM     30  C   UNL A   1      44.656  23.233  24.468  1.00  0.00     0.261 C 
BRANCH  30  31
ATOM     31  O   UNL A   1      45.610  24.297  24.529  1.00  0.00    -0.460 OA
BRANCH  31  32
ATOM     32  C   UNL A   1      46.219  24.462  25.727  1.00  0.00     0.338 C 
ATOM     33  O   UNL A   1      46.853  23.623  26.356  1.00  0.00    -0.246 OA
BRANCH  32  34
ATOM     34  C   UNL A   1      46.157  25.882  26.111  1.00  0.00     0.060 A 
ATOM     35  C   UNL A   1      46.565  26.251  27.400  1.00  0.00     0.016 A 
ATOM     36  C   UNL A   1      45.656  26.835  25.224  1.00  0.00     0.016 A 
ATOM     37  C   UNL A   1      46.459  27.579  27.813  1.00  0.00     0.010 A 
ATOM     38  C   UNL A   1      45.530  28.162  25.647  1.00  0.00     0.010 A 
ATOM     39  C   UNL A   1      45.905  28.534  26.952  1.00  0.00    -0.014 A 
BRANCH  39  40
ATOM     40  C   UNL A   1      45.559  29.880  27.466  1.00  0.00     0.031 A 
ATOM     41  C   UNL A   1      46.545  31.000  27.272  1.00  0.00     0.074 A 
ATOM     42  C   UNL A   1      44.389  30.109  28.089  1.00  0.00     0.049 A 
ATOM     43  N   UNL A   1      46.491  32.237  27.692  1.00  0.00    -0.248 NA
ATOM     44  C   UNL A   1      47.757  30.678  26.502  1.00  0.00     0.031 C 
ATOM     45  C   UNL A   1      43.338  29.116  28.302  1.00  0.00     0.029 A 
ATOM     46  N   UNL A   1      43.897  31.251  28.670  1.00  0.00    -0.354 N 
ATOM     47  C   UNL A   1      47.663  32.838  27.249  1.00  0.00     0.074 A 
ATOM     48  C   UNL A   1      48.422  31.822  26.551  1.00  0.00     0.031 C 
ATOM     49  C   UNL A   1      42.330  29.690  28.984  1.00  0.00     0.029 A 
ATOM     50  C   UNL A   1      42.680  31.078  29.284  1.00  0.00     0.049 A 
ATOM     51  H   UNL A   1      44.373  32.114  28.649  1.00  0.00     0.167 HD
ATOM     52  C   UNL A   1      48.067  34.121  27.402  1.00  0.00     0.037 A 
ATOM     53  C   UNL A   1      41.948  31.933  30.026  1.00  0.00     0.037 A 
ATOM     54  C   UNL A   1      47.309  35.125  28.103  1.00  0.00     0.049 A 
ATOM     55  C   UNL A   1      42.451  33.337  30.249  1.00  0.00     0.074 A 
ATOM     56  C   UNL A   1      47.624  36.459  28.299  1.00  0.00     0.029 A 
ATOM     57  N   UNL A   1      46.093  34.906  28.732  1.00  0.00    -0.354 N 
ATOM     58  N   UNL A   1      43.550  33.903  29.804  1.00  0.00    -0.248 NA
ATOM     59  C   UNL A   1      41.615  34.223  31.072  1.00  0.00     0.031 C 
ATOM     60  C   UNL A   1      46.626  37.031  29.095  1.00  0.00     0.029 A 
ATOM     61  C   UNL A   1      45.657  36.071  29.342  1.00  0.00     0.049 A 
ATOM     62  H   UNL A   1      45.610  34.048  28.745  1.00  0.00     0.167 HD
ATOM     63  C   UNL A   1      43.521  35.214  30.268  1.00  0.00     0.074 A 
ATOM     64  C   UNL A   1      42.292  35.362  31.019  1.00  0.00     0.031 C 
ATOM     65  C   UNL A   1      44.426  36.208  30.083  1.00  0.00     0.037 A 
BRANCH  52  66
ATOM     66  C   UNL A   1      49.406  34.501  26.832  1.00  0.00     0.058 A 
ATOM     67  C   UNL A   1      49.554  34.922  25.500  1.00  0.00     0.135 A 
ATOM     68  C   UNL A   1      50.558  34.462  27.635  1.00  0.00     0.135 A 
ATOM     69  F   UNL A   1      48.490  34.960  24.681  1.00  0.00    -0.206 F 
ATOM     70  C   UNL A   1      50.798  35.258  24.976  1.00  0.00     0.059 A 
ATOM     71  C   UNL A   1      51.807  34.825  27.141  1.00  0.00     0.059 A 
ATOM     72  F   UNL A   1      50.476  34.067  28.915  1.00  0.00    -0.206 F 
ATOM     73  C   UNL A   1      51.920  35.206  25.806  1.00  0.00     0.060 A 
BRANCH  73  74
ATOM     74  S   UNL A   1      53.528  35.643  25.110  1.00  0.00     0.124 S 
ATOM     75  O   UNL A   1      53.301  37.024  24.698  1.00  0.00    -0.237 OA
ATOM     76  O   UNL A   1      54.420  35.460  26.251  1.00  0.00    -0.237 OA
ATOM     77  O   UNL A   1      53.700  34.684  24.024  1.00  0.00    -0.744 OA
ENDBRANCH  73  74
ENDBRANCH  52  66
BRANCH  53  78
ATOM     78  C   UNL A   1      40.660  31.485  30.622  1.00  0.00     0.058 A 
ATOM     79  C   UNL A   1      40.630  30.784  31.837  1.00  0.00     0.135 A 
ATOM     80  C   UNL A   1      39.435  31.749  29.991  1.00  0.00     0.135 A 
ATOM     81  F   UNL A   1      41.775  30.494  32.472  1.00  0.00    -0.206 F 
ATOM     82  C   UNL A   1      39.434  30.353  32.400  1.00  0.00     0.059 A 
ATOM     83  C   UNL A   1      38.223  31.354  30.548  1.00  0.00     0.059 A 
ATOM     84  F   UNL A   1      39.407  32.421  28.829  1.00  0.00    -0.206 F 
ATOM     85  C   UNL A   1      38.233  30.649  31.751  1.00  0.00     0.060 A 
BRANCH  85  86
ATOM     86  S   UNL A   1      36.683  30.137  32.524  1.00  0.00     0.124 S 
ATOM     87  O   UNL A   1      36.296  31.347  33.239  1.00  0.00    -0.237 OA
ATOM     88  O   UNL A   1      35.866  29.790  31.365  1.00  0.00    -0.237 OA
ATOM     89  O   UNL A   1      37.082  29.009  33.359  1.00  0.00    -0.744 OA
ENDBRANCH  85  86
ENDBRANCH  53  78
BRANCH  65  90
ATOM     90  C   UNL A   1      44.110  37.560  30.667  1.00  0.00     0.058 A 
ATOM     91  C   UNL A   1      44.374  37.871  32.010  1.00  0.00     0.135 A 
ATOM     92  C   UNL A   1      43.589  38.580  29.851  1.00  0.00     0.135 A 
ATOM     93  F   UNL A   1      44.867  36.934  32.835  1.00  0.00    -0.206 F 
ATOM     94  C   UNL A   1      44.110  39.135  32.531  1.00  0.00     0.059 A 
ATOM     95  C   UNL A   1      43.347  39.859  30.343  1.00  0.00     0.059 A 
ATOM     96  F   UNL A   1      43.328  38.343  28.556  1.00  0.00    -0.206 F 
ATOM     97  C   UNL A   1      43.599  40.123  31.688  1.00  0.00     0.060 A 
BRANCH  97  98
ATOM     98  S   UNL A   1      43.294  41.768  32.367  1.00  0.00     0.124 S 
ATOM     99  O   UNL A   1      41.896  41.665  32.771  1.00  0.00    -0.237 OA
ATOM    100  O   UNL A   1      44.265  41.842  33.455  1.00  0.00    -0.237 OA
ATOM    101  O   UNL A   1      43.557  42.658  31.239  1.00  0.00    -0.744 OA
ENDBRANCH  97  98
ENDBRANCH  65  90
ENDBRANCH  39  40
ENDBRANCH  32  34
ENDBRANCH  31  32
ENDBRANCH  30  31
ENDBRANCH  29  30
ENDBRANCH  28  29
ENDBRANCH  27  28
ENDBRANCH   1  27
TORSDOF 24
ENDMDL
