MODEL 1
REMARK VINA RESULT:      -8.9      0.000      0.000
REMARK SMILES C#CC[C@@]1(C(=O)OCCOCCOCCOC(=O)c2ccc(-c3c4nc(c(-c5c(F)cc(S(=O)(=O)[O-])cc5F)c5ccc([nH]5)c(-c5c(F)cc(S(=O)(=O)[O-])cc5F)c5nc(c(-c6c(F)cc(S(=O)(=O)[O-])cc6F)c6ccc3[nH]6)C=C5)C=C4)cc2)CCCN1C(=O)OC(C)(C)C
REMARK SMILES IDX 11 1 10 2 9 3 8 4 7 5 5 6 6 7 4 8 85 9 88 10 86 11 87 12
REMARK SMILES IDX 3 13 2 14 1 15 89 16 90 17 91 18 92 19 93 20 94 21 95 22
REMARK SMILES IDX 12 23 13 24 14 25 15 26 16 27 17 28 18 29 19 30 20 31 84 32
REMARK SMILES IDX 21 33 83 34 22 35 23 36 24 37 77 38 25 39 82 40 76 41 78 42
REMARK SMILES IDX 26 43 81 44 75 45 74 46 27 48 61 49 40 50 60 51 41 52 44 53
REMARK SMILES IDX 59 54 79 55 42 56 43 57 58 59 80 60 45 61 28 62 29 63 38 64
REMARK SMILES IDX 30 65 31 66 37 67 39 68 32 69 33 70 34 71 35 72 36 73 62 74
REMARK SMILES IDX 63 75 72 76 64 77 65 78 71 79 73 80 66 81 67 82 68 83 69 84
REMARK SMILES IDX 70 85 46 86 47 87 56 88 48 89 49 90 55 91 57 92 50 93 51 94
REMARK SMILES IDX 52 95 53 96 54 97
REMARK H PARENT 78 47 44 58
REMARK Flexibility Score: inf
ROOT
ATOM      1  C   UNL A   1      33.833  31.806  27.927  1.00  0.00     0.188 C 
ENDROOT
BRANCH   1   2
ATOM      2  O   UNL A   1      34.959  31.208  27.326  1.00  0.00    -0.376 OA
BRANCH   2   3
ATOM      3  C   UNL A   1      35.086  29.799  27.413  1.00  0.00     0.202 C 
BRANCH   3   4
ATOM      4  C   UNL A   1      34.222  28.778  26.630  1.00  0.00     0.261 C 
BRANCH   4   5
ATOM      5  O   UNL A   1      33.326  29.256  25.611  1.00  0.00    -0.461 OA
BRANCH   5   6
ATOM      6  C   UNL A   1      33.227  28.502  24.484  1.00  0.00     0.333 C 
ATOM      7  O   UNL A   1      33.999  28.635  23.537  1.00  0.00    -0.249 OA
BRANCH   6   8
ATOM      8  C   UNL A   1      32.085  27.427  24.512  1.00  0.00     0.154 C 
ATOM      9  C   UNL A   1      30.960  27.710  25.555  1.00  0.00     0.044 C 
ATOM     10  N   UNL A   1      32.517  26.052  24.903  1.00  0.00    -0.291 N 
ATOM     11  C   UNL A   1      30.393  26.341  25.950  1.00  0.00     0.025 C 
ATOM     12  C   UNL A   1      31.452  25.323  25.569  1.00  0.00     0.124 C 
BRANCH   8  13
ATOM     13  C   UNL A   1      31.482  27.511  23.080  1.00  0.00     0.130 C 
BRANCH  13  14
ATOM     14  C   UNL A   1      30.127  28.072  22.973  1.00  0.00    -0.104 C 
ATOM     15  C   UNL A   1      29.004  28.497  22.866  1.00  0.00     0.004 C 
ENDBRANCH  13  14
ENDBRANCH   8  13
BRANCH  10  16
ATOM     16  C   UNL A   1      33.654  25.334  24.579  1.00  0.00     0.411 C 
ATOM     17  O   UNL A   1      34.656  25.364  25.286  1.00  0.00    -0.224 OA
BRANCH  16  18
ATOM     18  O   UNL A   1      33.609  24.753  23.354  1.00  0.00    -0.444 OA
BRANCH  18  19
ATOM     19  C   UNL A   1      33.887  23.325  23.201  1.00  0.00     0.106 C 
ATOM     20  C   UNL A   1      35.395  23.010  23.212  1.00  0.00     0.056 C 
ATOM     21  C   UNL A   1      33.110  22.509  24.239  1.00  0.00     0.056 C 
ATOM     22  C   UNL A   1      33.379  22.941  21.802  1.00  0.00     0.056 C 
ENDBRANCH  18  19
ENDBRANCH  16  18
ENDBRANCH  10  16
ENDBRANCH   6   8
ENDBRANCH   5   6
ENDBRANCH   4   5
ENDBRANCH   3   4
ENDBRANCH   2   3
ENDBRANCH   1   2
BRANCH   1  23
ATOM     23  C   UNL A   1      34.166  33.075  28.715  1.00  0.00     0.188 C 
BRANCH  23  24
ATOM     24  O   UNL A   1      35.519  33.440  28.882  1.00  0.00    -0.376 OA
BRANCH  24  25
ATOM     25  C   UNL A   1      36.170  33.050  30.084  1.00  0.00     0.202 C 
BRANCH  25  26
ATOM     26  C   UNL A   1      35.723  31.853  30.970  1.00  0.00     0.261 C 
BRANCH  26  27
ATOM     27  O   UNL A   1      36.116  30.517  30.602  1.00  0.00    -0.460 OA
BRANCH  27  28
ATOM     28  C   UNL A   1      37.010  29.907  31.425  1.00  0.00     0.338 C 
ATOM     29  O   UNL A   1      36.741  29.214  32.392  1.00  0.00    -0.246 OA
BRANCH  28  30
ATOM     30  C   UNL A   1      38.377  29.993  30.842  1.00  0.00     0.060 A 
ATOM     31  C   UNL A   1      38.523  29.976  29.445  1.00  0.00     0.016 A 
ATOM     32  C   UNL A   1      39.509  30.034  31.654  1.00  0.00     0.016 A 
ATOM     33  C   UNL A   1      39.792  29.957  28.857  1.00  0.00     0.010 A 
ATOM     34  C   UNL A   1      40.781  29.985  31.062  1.00  0.00     0.010 A 
ATOM     35  C   UNL A   1      40.934  29.905  29.661  1.00  0.00    -0.014 A 
BRANCH  35  36
ATOM     36  C   UNL A   1      42.258  29.564  29.064  1.00  0.00     0.031 A 
ATOM     37  C   UNL A   1      42.486  28.153  28.593  1.00  0.00     0.074 A 
ATOM     38  C   UNL A   1      43.244  30.469  28.914  1.00  0.00     0.049 A 
ATOM     39  N   UNL A   1      43.564  27.615  28.086  1.00  0.00    -0.248 NA
ATOM     40  C   UNL A   1      41.341  27.233  28.688  1.00  0.00     0.031 C 
ATOM     41  C   UNL A   1      43.122  31.887  29.199  1.00  0.00     0.029 A 
ATOM     42  N   UNL A   1      44.549  30.336  28.500  1.00  0.00    -0.354 N 
ATOM     43  C   UNL A   1      43.227  26.301  27.792  1.00  0.00     0.074 A 
ATOM     44  C   UNL A   1      41.861  26.106  28.228  1.00  0.00     0.031 C 
ATOM     45  C   UNL A   1      44.312  32.488  29.049  1.00  0.00     0.029 A 
ATOM     46  C   UNL A   1      45.284  31.495  28.619  1.00  0.00     0.049 A 
ATOM     47  H   UNL A   1      44.921  29.495  28.150  1.00  0.00     0.167 HD
ATOM     48  C   UNL A   1      43.983  25.351  27.193  1.00  0.00     0.037 A 
ATOM     49  C   UNL A   1      46.591  31.745  28.401  1.00  0.00     0.037 A 
ATOM     50  C   UNL A   1      45.347  25.556  26.771  1.00  0.00     0.049 A 
ATOM     51  C   UNL A   1      47.443  30.647  27.832  1.00  0.00     0.074 A 
ATOM     52  C   UNL A   1      46.193  24.659  26.142  1.00  0.00     0.029 A 
ATOM     53  N   UNL A   1      46.070  26.728  26.947  1.00  0.00    -0.354 N 
ATOM     54  N   UNL A   1      47.102  29.416  27.532  1.00  0.00    -0.248 NA
ATOM     55  C   UNL A   1      48.841  30.977  27.530  1.00  0.00     0.031 C 
ATOM     56  C   UNL A   1      47.448  25.262  26.007  1.00  0.00     0.029 A 
ATOM     57  C   UNL A   1      47.364  26.564  26.475  1.00  0.00     0.049 A 
ATOM     58  H   UNL A   1      45.716  27.555  27.347  1.00  0.00     0.167 HD
ATOM     59  C   UNL A   1      48.228  28.838  26.963  1.00  0.00     0.074 A 
ATOM     60  C   UNL A   1      49.257  29.859  26.952  1.00  0.00     0.031 C 
ATOM     61  C   UNL A   1      48.388  27.580  26.481  1.00  0.00     0.037 A 
BRANCH  48  62
ATOM     62  C   UNL A   1      43.364  23.995  26.990  1.00  0.00     0.058 A 
ATOM     63  C   UNL A   1      42.654  23.664  25.824  1.00  0.00     0.135 A 
ATOM     64  C   UNL A   1      43.508  22.999  27.970  1.00  0.00     0.135 A 
ATOM     65  F   UNL A   1      42.466  24.582  24.862  1.00  0.00    -0.206 F 
ATOM     66  C   UNL A   1      42.089  22.405  25.649  1.00  0.00     0.059 A 
ATOM     67  C   UNL A   1      42.981  21.723  27.801  1.00  0.00     0.059 A 
ATOM     68  F   UNL A   1      44.171  23.261  29.108  1.00  0.00    -0.206 F 
ATOM     69  C   UNL A   1      42.262  21.439  26.642  1.00  0.00     0.060 A 
BRANCH  69  70
ATOM     70  S   UNL A   1      41.535  19.807  26.392  1.00  0.00     0.124 S 
ATOM     71  O   UNL A   1      41.731  19.194  27.703  1.00  0.00    -0.237 OA
ATOM     72  O   UNL A   1      40.155  20.132  26.044  1.00  0.00    -0.237 OA
ATOM     73  O   UNL A   1      42.334  19.239  25.310  1.00  0.00    -0.744 OA
ENDBRANCH  69  70
ENDBRANCH  48  62
BRANCH  49  74
ATOM     74  C   UNL A   1      47.156  33.095  28.687  1.00  0.00     0.058 A 
ATOM     75  C   UNL A   1      47.748  33.396  29.922  1.00  0.00     0.135 A 
ATOM     76  C   UNL A   1      47.118  34.115  27.721  1.00  0.00     0.135 A 
ATOM     77  F   UNL A   1      47.807  32.461  30.882  1.00  0.00    -0.206 F 
ATOM     78  C   UNL A   1      48.259  34.660  30.200  1.00  0.00     0.059 A 
ATOM     79  C   UNL A   1      47.648  35.379  27.965  1.00  0.00     0.059 A 
ATOM     80  F   UNL A   1      46.575  33.881  26.516  1.00  0.00    -0.206 F 
ATOM     81  C   UNL A   1      48.207  35.646  29.213  1.00  0.00     0.060 A 
BRANCH  81  82
ATOM     82  S   UNL A   1      48.906  37.272  29.577  1.00  0.00     0.124 S 
ATOM     83  O   UNL A   1      47.746  38.138  29.406  1.00  0.00    -0.237 OA
ATOM     84  O   UNL A   1      49.379  37.101  30.947  1.00  0.00    -0.237 OA
ATOM     85  O   UNL A   1      49.956  37.421  28.572  1.00  0.00    -0.744 OA
ENDBRANCH  81  82
ENDBRANCH  49  74
BRANCH  61  86
ATOM     86  C   UNL A   1      49.722  27.246  25.868  1.00  0.00     0.058 A 
ATOM     87  C   UNL A   1      49.959  27.363  24.489  1.00  0.00     0.135 A 
ATOM     88  C   UNL A   1      50.787  26.819  26.679  1.00  0.00     0.135 A 
ATOM     89  F   UNL A   1      48.977  27.763  23.665  1.00  0.00    -0.206 F 
ATOM     90  C   UNL A   1      51.188  27.025  23.931  1.00  0.00     0.059 A 
ATOM     91  C   UNL A   1      52.036  26.515  26.148  1.00  0.00     0.059 A 
ATOM     92  F   UNL A   1      50.623  26.700  28.007  1.00  0.00    -0.206 F 
ATOM     93  C   UNL A   1      52.220  26.602  24.770  1.00  0.00     0.060 A 
BRANCH  93  94
ATOM     94  S   UNL A   1      53.810  26.176  24.032  1.00  0.00     0.124 S 
ATOM     95  O   UNL A   1      54.575  27.400  24.253  1.00  0.00    -0.237 OA
ATOM     96  O   UNL A   1      54.221  25.020  24.823  1.00  0.00    -0.237 OA
ATOM     97  O   UNL A   1      53.475  25.889  22.641  1.00  0.00    -0.744 OA
ENDBRANCH  93  94
ENDBRANCH  61  86
ENDBRANCH  35  36
ENDBRANCH  28  30
ENDBRANCH  27  28
ENDBRANCH  26  27
ENDBRANCH  25  26
ENDBRANCH  24  25
ENDBRANCH  23  24
ENDBRANCH   1  23
TORSDOF 25
ENDMDL
MODEL 2
REMARK VINA RESULT:      -8.8      1.221      8.291
REMARK SMILES C#CC[C@@]1(C(=O)OCCOCCOCCOC(=O)c2ccc(-c3c4nc(c(-c5c(F)cc(S(=O)(=O)[O-])cc5F)c5ccc([nH]5)c(-c5c(F)cc(S(=O)(=O)[O-])cc5F)c5nc(c(-c6c(F)cc(S(=O)(=O)[O-])cc6F)c6ccc3[nH]6)C=C5)C=C4)cc2)CCCN1C(=O)OC(C)(C)C
REMARK SMILES IDX 11 1 10 2 9 3 8 4 7 5 5 6 6 7 4 8 85 9 88 10 86 11 87 12
REMARK SMILES IDX 3 13 2 14 1 15 89 16 90 17 91 18 92 19 93 20 94 21 95 22
REMARK SMILES IDX 12 23 13 24 14 25 15 26 16 27 17 28 18 29 19 30 20 31 84 32
REMARK SMILES IDX 21 33 83 34 22 35 23 36 24 37 77 38 25 39 82 40 76 41 78 42
REMARK SMILES IDX 26 43 81 44 75 45 74 46 27 48 61 49 40 50 60 51 41 52 44 53
REMARK SMILES IDX 59 54 79 55 42 56 43 57 58 59 80 60 45 61 28 62 29 63 38 64
REMARK SMILES IDX 30 65 31 66 37 67 39 68 32 69 33 70 34 71 35 72 36 73 62 74
REMARK SMILES IDX 63 75 72 76 64 77 65 78 71 79 73 80 66 81 67 82 68 83 69 84
REMARK SMILES IDX 70 85 46 86 47 87 56 88 48 89 49 90 55 91 57 92 50 93 51 94
REMARK SMILES IDX 52 95 53 96 54 97
REMARK H PARENT 78 47 44 58
REMARK Flexibility Score: inf
ROOT
ATOM      1  C   UNL A   1      34.015  32.324  27.827  1.00  0.00     0.188 C 
ENDROOT
BRANCH   1   2
ATOM      2  O   UNL A   1      34.915  31.261  28.041  1.00  0.00    -0.376 OA
BRANCH   2   3
ATOM      3  C   UNL A   1      34.712  30.064  27.311  1.00  0.00     0.202 C 
BRANCH   3   4
ATOM      4  C   UNL A   1      33.546  29.068  27.543  1.00  0.00     0.261 C 
BRANCH   4   5
ATOM      5  O   UNL A   1      33.354  27.987  26.613  1.00  0.00    -0.461 OA
BRANCH   5   6
ATOM      6  C   UNL A   1      32.129  27.397  26.609  1.00  0.00     0.333 C 
ATOM      7  O   UNL A   1      31.307  27.590  27.501  1.00  0.00    -0.249 OA
BRANCH   6   8
ATOM      8  C   UNL A   1      31.841  26.495  25.358  1.00  0.00     0.154 C 
ATOM      9  C   UNL A   1      30.562  26.890  24.559  1.00  0.00     0.044 C 
ATOM     10  N   UNL A   1      31.572  25.057  25.662  1.00  0.00    -0.291 N 
ATOM     11  C   UNL A   1      30.054  25.601  23.903  1.00  0.00     0.025 C 
ATOM     12  C   UNL A   1      30.679  24.460  24.685  1.00  0.00     0.124 C 
BRANCH   8  13
ATOM     13  C   UNL A   1      33.092  26.722  24.460  1.00  0.00     0.130 C 
BRANCH  13  14
ATOM     14  C   UNL A   1      33.268  25.789  23.337  1.00  0.00    -0.104 C 
ATOM     15  C   UNL A   1      33.439  25.050  22.400  1.00  0.00     0.004 C 
ENDBRANCH  13  14
ENDBRANCH   8  13
BRANCH  10  16
ATOM     16  C   UNL A   1      32.158  24.200  26.576  1.00  0.00     0.411 C 
ATOM     17  O   UNL A   1      31.516  23.706  27.496  1.00  0.00    -0.224 OA
BRANCH  16  18
ATOM     18  O   UNL A   1      33.505  24.102  26.455  1.00  0.00    -0.444 OA
BRANCH  18  19
ATOM     19  C   UNL A   1      34.145  22.793  26.326  1.00  0.00     0.106 C 
ATOM     20  C   UNL A   1      35.640  22.896  25.972  1.00  0.00     0.056 C 
ATOM     21  C   UNL A   1      33.897  21.945  27.579  1.00  0.00     0.056 C 
ATOM     22  C   UNL A   1      33.468  22.103  25.132  1.00  0.00     0.056 C 
ENDBRANCH  18  19
ENDBRANCH  16  18
ENDBRANCH  10  16
ENDBRANCH   6   8
ENDBRANCH   5   6
ENDBRANCH   4   5
ENDBRANCH   3   4
ENDBRANCH   2   3
ENDBRANCH   1   2
BRANCH   1  23
ATOM     23  C   UNL A   1      34.194  33.481  28.812  1.00  0.00     0.188 C 
BRANCH  23  24
ATOM     24  O   UNL A   1      33.916  33.264  30.179  1.00  0.00    -0.376 OA
BRANCH  24  25
ATOM     25  C   UNL A   1      35.012  33.003  31.046  1.00  0.00     0.202 C 
BRANCH  25  26
ATOM     26  C   UNL A   1      35.560  31.583  31.359  1.00  0.00     0.261 C 
BRANCH  26  27
ATOM     27  O   UNL A   1      36.650  31.436  32.289  1.00  0.00    -0.460 OA
BRANCH  27  28
ATOM     28  C   UNL A   1      37.752  32.193  32.044  1.00  0.00     0.338 C 
ATOM     29  O   UNL A   1      37.968  33.312  32.480  1.00  0.00    -0.246 OA
BRANCH  28  30
ATOM     30  C   UNL A   1      38.790  31.372  31.364  1.00  0.00     0.060 A 
ATOM     31  C   UNL A   1      39.675  30.610  32.145  1.00  0.00     0.016 A 
ATOM     32  C   UNL A   1      38.935  31.390  29.978  1.00  0.00     0.016 A 
ATOM     33  C   UNL A   1      40.726  29.901  31.555  1.00  0.00     0.010 A 
ATOM     34  C   UNL A   1      40.008  30.701  29.390  1.00  0.00     0.010 A 
ATOM     35  C   UNL A   1      40.936  29.984  30.176  1.00  0.00    -0.014 A 
BRANCH  35  36
ATOM     36  C   UNL A   1      42.219  29.507  29.580  1.00  0.00     0.031 A 
ATOM     37  C   UNL A   1      43.342  30.494  29.421  1.00  0.00     0.074 A 
ATOM     38  C   UNL A   1      42.414  28.229  29.201  1.00  0.00     0.049 A 
ATOM     39  N   UNL A   1      44.526  30.321  28.893  1.00  0.00    -0.248 NA
ATOM     40  C   UNL A   1      43.109  31.849  29.946  1.00  0.00     0.031 C 
ATOM     41  C   UNL A   1      41.472  27.145  29.414  1.00  0.00     0.029 A 
ATOM     42  N   UNL A   1      43.458  27.623  28.543  1.00  0.00    -0.354 N 
ATOM     43  C   UNL A   1      45.181  31.537  29.029  1.00  0.00     0.074 A 
ATOM     44  C   UNL A   1      44.245  32.457  29.641  1.00  0.00     0.031 C 
ATOM     45  C   UNL A   1      41.921  26.027  28.822  1.00  0.00     0.029 A 
ATOM     46  C   UNL A   1      43.210  26.308  28.212  1.00  0.00     0.049 A 
ATOM     47  H   UNL A   1      44.301  28.083  28.330  1.00  0.00     0.167 HD
ATOM     48  C   UNL A   1      46.454  31.851  28.694  1.00  0.00     0.037 A 
ATOM     49  C   UNL A   1      43.936  25.418  27.506  1.00  0.00     0.037 A 
ATOM     50  C   UNL A   1      47.374  30.928  28.077  1.00  0.00     0.049 A 
ATOM     51  C   UNL A   1      45.309  25.816  27.050  1.00  0.00     0.074 A 
ATOM     52  C   UNL A   1      48.691  31.146  27.711  1.00  0.00     0.029 A 
ATOM     53  N   UNL A   1      47.074  29.620  27.719  1.00  0.00    -0.354 N 
ATOM     54  N   UNL A   1      45.927  26.963  27.212  1.00  0.00    -0.248 NA
ATOM     55  C   UNL A   1      46.104  24.797  26.355  1.00  0.00     0.031 C 
ATOM     56  C   UNL A   1      49.162  29.998  27.065  1.00  0.00     0.029 A 
ATOM     57  C   UNL A   1      48.168  29.034  27.101  1.00  0.00     0.049 A 
ATOM     58  H   UNL A   1      46.211  29.175  27.882  1.00  0.00     0.167 HD
ATOM     59  C   UNL A   1      47.198  26.789  26.683  1.00  0.00     0.074 A 
ATOM     60  C   UNL A   1      47.263  25.421  26.204  1.00  0.00     0.031 C 
ATOM     61  C   UNL A   1      48.221  27.676  26.614  1.00  0.00     0.037 A 
BRANCH  48  62
ATOM     62  C   UNL A   1      46.916  33.259  28.956  1.00  0.00     0.058 A 
ATOM     63  C   UNL A   1      47.483  33.644  30.182  1.00  0.00     0.135 A 
ATOM     64  C   UNL A   1      46.813  34.234  27.950  1.00  0.00     0.135 A 
ATOM     65  F   UNL A   1      47.588  32.760  31.187  1.00  0.00    -0.206 F 
ATOM     66  C   UNL A   1      47.909  34.949  30.409  1.00  0.00     0.059 A 
ATOM     67  C   UNL A   1      47.263  35.536  28.143  1.00  0.00     0.059 A 
ATOM     68  F   UNL A   1      46.272  33.925  26.761  1.00  0.00    -0.206 F 
ATOM     69  C   UNL A   1      47.798  35.887  29.381  1.00  0.00     0.060 A 
BRANCH  69  70
ATOM     70  S   UNL A   1      48.368  37.572  29.688  1.00  0.00     0.124 S 
ATOM     71  O   UNL A   1      49.748  37.342  30.109  1.00  0.00    -0.237 OA
ATOM     72  O   UNL A   1      48.200  38.198  28.381  1.00  0.00    -0.237 OA
ATOM     73  O   UNL A   1      47.468  38.052  30.731  1.00  0.00    -0.744 OA
ENDBRANCH  69  70
ENDBRANCH  48  62
BRANCH  49  74
ATOM     74  C   UNL A   1      43.389  24.059  27.224  1.00  0.00     0.058 A 
ATOM     75  C   UNL A   1      43.410  23.044  28.193  1.00  0.00     0.135 A 
ATOM     76  C   UNL A   1      42.827  23.750  25.974  1.00  0.00     0.135 A 
ATOM     77  F   UNL A   1      43.940  23.283  29.402  1.00  0.00    -0.206 F 
ATOM     78  C   UNL A   1      42.919  21.769  27.927  1.00  0.00     0.059 A 
ATOM     79  C   UNL A   1      42.303  22.491  25.694  1.00  0.00     0.059 A 
ATOM     80  F   UNL A   1      42.767  24.685  25.013  1.00  0.00    -0.206 F 
ATOM     81  C   UNL A   1      42.364  21.503  26.675  1.00  0.00     0.060 A 
BRANCH  81  82
ATOM     82  S   UNL A   1      41.698  19.853  26.357  1.00  0.00     0.124 S 
ATOM     83  O   UNL A   1      42.472  19.441  25.192  1.00  0.00    -0.237 OA
ATOM     84  O   UNL A   1      42.001  19.157  27.604  1.00  0.00    -0.237 OA
ATOM     85  O   UNL A   1      40.279  20.102  26.115  1.00  0.00    -0.744 OA
ENDBRANCH  81  82
ENDBRANCH  49  74
BRANCH  61  86
ATOM     86  C   UNL A   1      49.516  27.184  26.024  1.00  0.00     0.058 A 
ATOM     87  C   UNL A   1      50.562  26.699  26.826  1.00  0.00     0.135 A 
ATOM     88  C   UNL A   1      49.705  27.181  24.632  1.00  0.00     0.135 A 
ATOM     89  F   UNL A   1      50.439  26.682  28.162  1.00  0.00    -0.206 F 
ATOM     90  C   UNL A   1      51.765  26.273  26.271  1.00  0.00     0.059 A 
ATOM     91  C   UNL A   1      50.883  26.722  24.054  1.00  0.00     0.059 A 
ATOM     92  F   UNL A   1      48.735  27.623  23.815  1.00  0.00    -0.206 F 
ATOM     93  C   UNL A   1      51.915  26.288  24.883  1.00  0.00     0.060 A 
BRANCH  93  94
ATOM     94  S   UNL A   1      53.478  25.724  24.180  1.00  0.00     0.124 S 
ATOM     95  O   UNL A   1      54.440  26.569  24.882  1.00  0.00    -0.237 OA
ATOM     96  O   UNL A   1      53.491  24.311  24.544  1.00  0.00    -0.237 OA
ATOM     97  O   UNL A   1      53.328  25.997  22.754  1.00  0.00    -0.744 OA
ENDBRANCH  93  94
ENDBRANCH  61  86
ENDBRANCH  35  36
ENDBRANCH  28  30
ENDBRANCH  27  28
ENDBRANCH  26  27
ENDBRANCH  25  26
ENDBRANCH  24  25
ENDBRANCH  23  24
ENDBRANCH   1  23
TORSDOF 25
ENDMDL
MODEL 3
REMARK VINA RESULT:      -8.0      1.464      2.885
REMARK SMILES C#CC[C@@]1(C(=O)OCCOCCOCCOC(=O)c2ccc(-c3c4nc(c(-c5c(F)cc(S(=O)(=O)[O-])cc5F)c5ccc([nH]5)c(-c5c(F)cc(S(=O)(=O)[O-])cc5F)c5nc(c(-c6c(F)cc(S(=O)(=O)[O-])cc6F)c6ccc3[nH]6)C=C5)C=C4)cc2)CCCN1C(=O)OC(C)(C)C
REMARK SMILES IDX 11 1 10 2 9 3 8 4 7 5 5 6 6 7 4 8 85 9 88 10 86 11 87 12
REMARK SMILES IDX 3 13 2 14 1 15 89 16 90 17 91 18 92 19 93 20 94 21 95 22
REMARK SMILES IDX 12 23 13 24 14 25 15 26 16 27 17 28 18 29 19 30 20 31 84 32
REMARK SMILES IDX 21 33 83 34 22 35 23 36 24 37 77 38 25 39 82 40 76 41 78 42
REMARK SMILES IDX 26 43 81 44 75 45 74 46 27 48 61 49 40 50 60 51 41 52 44 53
REMARK SMILES IDX 59 54 79 55 42 56 43 57 58 59 80 60 45 61 28 62 29 63 38 64
REMARK SMILES IDX 30 65 31 66 37 67 39 68 32 69 33 70 34 71 35 72 36 73 62 74
REMARK SMILES IDX 63 75 72 76 64 77 65 78 71 79 73 80 66 81 67 82 68 83 69 84
REMARK SMILES IDX 70 85 46 86 47 87 56 88 48 89 49 90 55 91 57 92 50 93 51 94
REMARK SMILES IDX 52 95 53 96 54 97
REMARK H PARENT 78 47 44 58
REMARK Flexibility Score: inf
ROOT
ATOM      1  C   UNL A   1      33.495  31.510  27.992  1.00  0.00     0.188 C 
ENDROOT
BRANCH   1   2
ATOM      2  O   UNL A   1      33.788  30.644  26.919  1.00  0.00    -0.376 OA
BRANCH   2   3
ATOM      3  C   UNL A   1      34.226  29.332  27.229  1.00  0.00     0.202 C 
BRANCH   3   4
ATOM      4  C   UNL A   1      34.265  28.148  26.229  1.00  0.00     0.261 C 
BRANCH   4   5
ATOM      5  O   UNL A   1      33.040  27.714  25.612  1.00  0.00    -0.461 OA
BRANCH   5   6
ATOM      6  C   UNL A   1      32.906  27.963  24.282  1.00  0.00     0.333 C 
ATOM      7  O   UNL A   1      33.084  29.081  23.805  1.00  0.00    -0.249 OA
BRANCH   6   8
ATOM      8  C   UNL A   1      32.551  26.706  23.412  1.00  0.00     0.154 C 
ATOM      9  C   UNL A   1      33.642  26.315  22.370  1.00  0.00     0.044 C 
ATOM     10  N   UNL A   1      31.346  26.858  22.542  1.00  0.00    -0.291 N 
ATOM     11  C   UNL A   1      32.902  25.627  21.216  1.00  0.00     0.025 C 
ATOM     12  C   UNL A   1      31.451  26.057  21.335  1.00  0.00     0.124 C 
BRANCH   8  13
ATOM     13  C   UNL A   1      32.423  25.569  24.467  1.00  0.00     0.130 C 
BRANCH  13  14
ATOM     14  C   UNL A   1      33.646  24.803  24.752  1.00  0.00    -0.104 C 
ATOM     15  C   UNL A   1      34.667  24.210  24.991  1.00  0.00     0.004 C 
ENDBRANCH  13  14
ENDBRANCH   8  13
BRANCH  10  16
ATOM     16  C   UNL A   1      30.126  27.464  22.782  1.00  0.00     0.411 C 
ATOM     17  O   UNL A   1      29.302  26.970  23.543  1.00  0.00    -0.224 OA
BRANCH  16  18
ATOM     18  O   UNL A   1      29.875  28.532  21.985  1.00  0.00    -0.444 OA
BRANCH  18  19
ATOM     19  C   UNL A   1      28.953  29.582  22.419  1.00  0.00     0.106 C 
ATOM     20  C   UNL A   1      28.791  30.699  21.371  1.00  0.00     0.056 C 
ATOM     21  C   UNL A   1      27.610  28.978  22.844  1.00  0.00     0.056 C 
ATOM     22  C   UNL A   1      29.602  30.236  23.648  1.00  0.00     0.056 C 
ENDBRANCH  18  19
ENDBRANCH  16  18
ENDBRANCH  10  16
ENDBRANCH   6   8
ENDBRANCH   5   6
ENDBRANCH   4   5
ENDBRANCH   3   4
ENDBRANCH   2   3
ENDBRANCH   1   2
BRANCH   1  23
ATOM     23  C   UNL A   1      33.918  32.959  27.738  1.00  0.00     0.188 C 
BRANCH  23  24
ATOM     24  O   UNL A   1      35.294  33.267  27.677  1.00  0.00    -0.376 OA
BRANCH  24  25
ATOM     25  C   UNL A   1      36.201  32.396  28.340  1.00  0.00     0.202 C 
BRANCH  25  26
ATOM     26  C   UNL A   1      36.061  31.953  29.823  1.00  0.00     0.261 C 
BRANCH  26  27
ATOM     27  O   UNL A   1      36.596  30.681  30.233  1.00  0.00    -0.460 OA
BRANCH  27  28
ATOM     28  C   UNL A   1      37.302  30.674  31.395  1.00  0.00     0.338 C 
ATOM     29  O   UNL A   1      36.836  30.600  32.520  1.00  0.00    -0.246 OA
BRANCH  28  30
ATOM     30  C   UNL A   1      38.754  30.519  31.106  1.00  0.00     0.060 A 
ATOM     31  C   UNL A   1      39.281  31.100  29.940  1.00  0.00     0.016 A 
ATOM     32  C   UNL A   1      39.582  29.766  31.936  1.00  0.00     0.016 A 
ATOM     33  C   UNL A   1      40.617  30.899  29.578  1.00  0.00     0.010 A 
ATOM     34  C   UNL A   1      40.915  29.541  31.556  1.00  0.00     0.010 A 
ATOM     35  C   UNL A   1      41.433  30.071  30.354  1.00  0.00    -0.014 A 
BRANCH  35  36
ATOM     36  C   UNL A   1      42.742  29.592  29.821  1.00  0.00     0.031 A 
ATOM     37  C   UNL A   1      42.822  28.190  29.280  1.00  0.00     0.074 A 
ATOM     38  C   UNL A   1      43.842  30.368  29.788  1.00  0.00     0.049 A 
ATOM     39  N   UNL A   1      43.856  27.545  28.808  1.00  0.00    -0.248 NA
ATOM     40  C   UNL A   1      41.566  27.424  29.247  1.00  0.00     0.031 C 
ATOM     41  C   UNL A   1      43.881  31.773  30.152  1.00  0.00     0.029 A 
ATOM     42  N   UNL A   1      45.145  30.089  29.449  1.00  0.00    -0.354 N 
ATOM     43  C   UNL A   1      43.377  26.303  28.414  1.00  0.00     0.074 A 
ATOM     44  C   UNL A   1      41.970  26.264  28.751  1.00  0.00     0.031 C 
ATOM     45  C   UNL A   1      45.145  32.221  30.113  1.00  0.00     0.029 A 
ATOM     46  C   UNL A   1      46.011  31.134  29.684  1.00  0.00     0.049 A 
ATOM     47  H   UNL A   1      45.431  29.226  29.072  1.00  0.00     0.167 HD
ATOM     48  C   UNL A   1      44.047  25.296  27.806  1.00  0.00     0.037 A 
ATOM     49  C   UNL A   1      47.351  31.223  29.563  1.00  0.00     0.037 A 
ATOM     50  C   UNL A   1      45.451  25.343  27.482  1.00  0.00     0.049 A 
ATOM     51  C   UNL A   1      48.095  30.056  28.982  1.00  0.00     0.074 A 
ATOM     52  C   UNL A   1      46.219  24.379  26.853  1.00  0.00     0.029 A 
ATOM     53  N   UNL A   1      46.302  26.401  27.775  1.00  0.00    -0.354 N 
ATOM     54  N   UNL A   1      47.623  28.897  28.587  1.00  0.00    -0.248 NA
ATOM     55  C   UNL A   1      49.541  30.216  28.788  1.00  0.00     0.031 C 
ATOM     56  C   UNL A   1      47.546  24.820  26.834  1.00  0.00     0.029 A 
ATOM     57  C   UNL A   1      47.595  26.095  27.375  1.00  0.00     0.049 A 
ATOM     58  H   UNL A   1      46.029  27.244  28.202  1.00  0.00     0.167 HD
ATOM     59  C   UNL A   1      48.703  28.208  28.054  1.00  0.00     0.074 A 
ATOM     60  C   UNL A   1      49.851  29.086  28.170  1.00  0.00     0.031 C 
ATOM     61  C   UNL A   1      48.736  26.968  27.506  1.00  0.00     0.037 A 
BRANCH  48  62
ATOM     62  C   UNL A   1      43.277  24.044  27.482  1.00  0.00     0.058 A 
ATOM     63  C   UNL A   1      43.116  23.005  28.414  1.00  0.00     0.135 A 
ATOM     64  C   UNL A   1      42.666  23.894  26.226  1.00  0.00     0.135 A 
ATOM     65  F   UNL A   1      43.695  23.082  29.623  1.00  0.00    -0.206 F 
ATOM     66  C   UNL A   1      42.399  21.853  28.102  1.00  0.00     0.059 A 
ATOM     67  C   UNL A   1      41.917  22.768  25.905  1.00  0.00     0.059 A 
ATOM     68  F   UNL A   1      42.793  24.853  25.294  1.00  0.00    -0.206 F 
ATOM     69  C   UNL A   1      41.800  21.746  26.846  1.00  0.00     0.060 A 
BRANCH  69  70
ATOM     70  S   UNL A   1      40.862  20.252  26.464  1.00  0.00     0.124 S 
ATOM     71  O   UNL A   1      40.790  19.609  27.773  1.00  0.00    -0.237 OA
ATOM     72  O   UNL A   1      39.607  20.796  25.956  1.00  0.00    -0.237 OA
ATOM     73  O   UNL A   1      41.692  19.571  25.477  1.00  0.00    -0.744 OA
ENDBRANCH  69  70
ENDBRANCH  48  62
BRANCH  49  74
ATOM     74  C   UNL A   1      48.060  32.471  29.966  1.00  0.00     0.058 A 
ATOM     75  C   UNL A   1      48.540  32.654  31.272  1.00  0.00     0.135 A 
ATOM     76  C   UNL A   1      48.278  33.510  29.045  1.00  0.00     0.135 A 
ATOM     77  F   UNL A   1      48.355  31.697  32.193  1.00  0.00    -0.206 F 
ATOM     78  C   UNL A   1      49.186  33.825  31.657  1.00  0.00     0.059 A 
ATOM     79  C   UNL A   1      48.946  34.679  29.399  1.00  0.00     0.059 A 
ATOM     80  F   UNL A   1      47.853  33.386  27.778  1.00  0.00    -0.206 F 
ATOM     81  C   UNL A   1      49.387  34.832  30.712  1.00  0.00     0.060 A 
BRANCH  81  82
ATOM     82  S   UNL A   1      50.258  36.332  31.217  1.00  0.00     0.124 S 
ATOM     83  O   UNL A   1      50.444  36.101  32.644  1.00  0.00    -0.237 OA
ATOM     84  O   UNL A   1      51.465  36.275  30.398  1.00  0.00    -0.237 OA
ATOM     85  O   UNL A   1      49.323  37.399  30.869  1.00  0.00    -0.744 OA
ENDBRANCH  81  82
ENDBRANCH  49  74
BRANCH  61  86
ATOM     86  C   UNL A   1      50.057  26.496  26.958  1.00  0.00     0.058 A 
ATOM     87  C   UNL A   1      50.394  26.637  25.603  1.00  0.00     0.135 A 
ATOM     88  C   UNL A   1      51.009  25.909  27.810  1.00  0.00     0.135 A 
ATOM     89  F   UNL A   1      49.522  27.186  24.742  1.00  0.00    -0.206 F 
ATOM     90  C   UNL A   1      51.606  26.171  25.102  1.00  0.00     0.059 A 
ATOM     91  C   UNL A   1      52.243  25.475  27.339  1.00  0.00     0.059 A 
ATOM     92  F   UNL A   1      50.746  25.760  29.118  1.00  0.00    -0.206 F 
ATOM     93  C   UNL A   1      52.524  25.592  25.980  1.00  0.00     0.060 A 
BRANCH  93  94
ATOM     94  S   UNL A   1      54.095  25.002  25.318  1.00  0.00     0.124 S 
ATOM     95  O   UNL A   1      54.490  26.115  24.460  1.00  0.00    -0.237 OA
ATOM     96  O   UNL A   1      54.893  24.820  26.526  1.00  0.00    -0.237 OA
ATOM     97  O   UNL A   1      53.732  23.772  24.621  1.00  0.00    -0.744 OA
ENDBRANCH  93  94
ENDBRANCH  61  86
ENDBRANCH  35  36
ENDBRANCH  28  30
ENDBRANCH  27  28
ENDBRANCH  26  27
ENDBRANCH  25  26
ENDBRANCH  24  25
ENDBRANCH  23  24
ENDBRANCH   1  23
TORSDOF 25
ENDMDL
