MODEL 1
REMARK VINA RESULT:     -10.1      0.000      0.000
REMARK SMILES C[C@@H](NS(=O)(=O)c1ccc2c(c1)CCC2)C(=O)OCCOCCOCCOC(=O)c1ccc(-c2c3nc(c(-c4c(F)cc(S(=O)(=O)[O-])cc4F)c4ccc([nH]4)c(-c4c(F)cc(S(=O)(=O)[O-])cc4F)c4nc(c(-c5c(F)cc(S(=O)(=O)[O-])cc5F)c5ccc2[nH]5)C=C4)C=C3)cc1
REMARK SMILES IDX 22 1 21 2 20 3 19 4 18 5 16 6 17 7 2 8 1 9 3 10 4 12 5 13
REMARK SMILES IDX 6 14 7 15 8 16 12 17 9 18 11 19 10 20 13 21 15 22 14 23
REMARK SMILES IDX 23 24 24 25 25 26 26 27 27 28 28 29 29 30 30 31 31 32 95 33
REMARK SMILES IDX 32 34 94 35 33 36 34 37 35 38 88 39 36 40 93 41 87 42 89 43
REMARK SMILES IDX 37 44 92 45 86 46 85 47 38 49 72 50 51 51 71 52 52 53 55 54
REMARK SMILES IDX 70 55 90 56 53 57 54 58 69 60 91 61 56 62 39 63 40 64 49 65
REMARK SMILES IDX 41 66 42 67 48 68 50 69 43 70 44 71 45 72 46 73 47 74 73 75
REMARK SMILES IDX 74 76 83 77 75 78 76 79 82 80 84 81 77 82 78 83 79 84 80 85
REMARK SMILES IDX 81 86 57 87 58 88 67 89 59 90 60 91 66 92 68 93 61 94 62 95
REMARK SMILES IDX 63 96 64 97 65 98
REMARK H PARENT 3 11 89 48 55 59
REMARK Flexibility Score: inf
ROOT
ATOM      1  C   UNL A   1      43.447  19.434  25.628  1.00  0.00     0.188 C 
ENDROOT
BRANCH   1   2
ATOM      2  O   UNL A   1      42.096  19.823  25.394  1.00  0.00    -0.376 OA
BRANCH   2   3
ATOM      3  C   UNL A   1      41.158  19.704  26.457  1.00  0.00     0.202 C 
BRANCH   3   4
ATOM      4  C   UNL A   1      40.586  21.017  26.970  1.00  0.00     0.261 C 
BRANCH   4   5
ATOM      5  O   UNL A   1      39.927  21.858  26.015  1.00  0.00    -0.462 OA
BRANCH   5   6
ATOM      6  C   UNL A   1      38.640  21.558  25.670  1.00  0.00     0.323 C 
ATOM      7  O   UNL A   1      38.266  20.551  25.092  1.00  0.00    -0.250 OA
BRANCH   6   8
ATOM      8  C   UNL A   1      37.710  22.704  25.974  1.00  0.00     0.176 C 
ATOM      9  C   UNL A   1      38.526  23.933  26.365  1.00  0.00     0.038 C 
BRANCH   8  10
ATOM     10  N   UNL A   1      36.877  22.914  24.759  1.00  0.00    -0.197 NA
ATOM     11  H   UNL A   1      36.990  22.094  24.165  1.00  0.00     0.142 HD
BRANCH  10  12
ATOM     12  S   UNL A   1      35.199  23.155  24.985  1.00  0.00     0.241 S 
ATOM     13  O   UNL A   1      34.994  23.480  26.381  1.00  0.00    -0.207 OA
ATOM     14  O   UNL A   1      34.835  24.081  23.937  1.00  0.00    -0.207 OA
BRANCH  12  15
ATOM     15  C   UNL A   1      34.379  21.605  24.622  1.00  0.00     0.082 A 
ATOM     16  C   UNL A   1      33.086  21.619  24.063  1.00  0.00     0.022 A 
ATOM     17  C   UNL A   1      34.989  20.381  24.947  1.00  0.00     0.025 A 
ATOM     18  C   UNL A   1      32.432  20.418  23.746  1.00  0.00     0.005 A 
ATOM     19  C   UNL A   1      34.379  19.204  24.523  1.00  0.00    -0.043 A 
ATOM     20  C   UNL A   1      33.107  19.223  23.939  1.00  0.00    -0.045 A 
ATOM     21  C   UNL A   1      34.957  17.818  24.488  1.00  0.00     0.036 C 
ATOM     22  C   UNL A   1      32.676  17.834  23.575  1.00  0.00     0.036 C 
ATOM     23  C   UNL A   1      34.039  17.139  23.452  1.00  0.00     0.010 C 
ENDBRANCH  12  15
ENDBRANCH  10  12
ENDBRANCH   8  10
ENDBRANCH   6   8
ENDBRANCH   5   6
ENDBRANCH   4   5
ENDBRANCH   3   4
ENDBRANCH   2   3
ENDBRANCH   1   2
BRANCH   1  24
ATOM     24  C   UNL A   1      44.536  20.129  24.794  1.00  0.00     0.188 C 
BRANCH  24  25
ATOM     25  O   UNL A   1      44.148  21.267  24.026  1.00  0.00    -0.376 OA
BRANCH  25  26
ATOM     26  C   UNL A   1      44.394  22.543  24.600  1.00  0.00     0.202 C 
BRANCH  26  27
ATOM     27  C   UNL A   1      43.156  23.263  25.141  1.00  0.00     0.261 C 
BRANCH  27  28
ATOM     28  O   UNL A   1      43.460  24.366  26.015  1.00  0.00    -0.460 OA
BRANCH  28  29
ATOM     29  C   UNL A   1      42.498  25.323  26.087  1.00  0.00     0.338 C 
ATOM     30  O   UNL A   1      41.568  25.479  25.314  1.00  0.00    -0.246 OA
BRANCH  29  31
ATOM     31  C   UNL A   1      42.619  26.091  27.346  1.00  0.00     0.060 A 
ATOM     32  C   UNL A   1      41.891  25.650  28.463  1.00  0.00     0.016 A 
ATOM     33  C   UNL A   1      43.336  27.287  27.402  1.00  0.00     0.016 A 
ATOM     34  C   UNL A   1      41.807  26.445  29.604  1.00  0.00     0.010 A 
ATOM     35  C   UNL A   1      43.243  28.088  28.546  1.00  0.00     0.010 A 
ATOM     36  C   UNL A   1      42.431  27.698  29.627  1.00  0.00    -0.014 A 
BRANCH  36  37
ATOM     37  C   UNL A   1      42.063  28.678  30.681  1.00  0.00     0.031 A 
ATOM     38  C   UNL A   1      42.892  28.728  31.940  1.00  0.00     0.074 A 
ATOM     39  C   UNL A   1      41.044  29.539  30.508  1.00  0.00     0.049 A 
ATOM     40  N   UNL A   1      42.735  29.459  33.013  1.00  0.00    -0.248 NA
ATOM     41  C   UNL A   1      44.054  27.825  31.998  1.00  0.00     0.031 C 
ATOM     42  C   UNL A   1      40.198  29.618  29.318  1.00  0.00     0.029 A 
ATOM     43  N   UNL A   1      40.544  30.507  31.342  1.00  0.00    -0.354 N 
ATOM     44  C   UNL A   1      43.774  29.107  33.869  1.00  0.00     0.074 A 
ATOM     45  C   UNL A   1      44.527  28.062  33.212  1.00  0.00     0.031 C 
ATOM     46  C   UNL A   1      39.269  30.571  29.507  1.00  0.00     0.029 A 
ATOM     47  C   UNL A   1      39.434  31.146  30.841  1.00  0.00     0.049 A 
ATOM     48  H   UNL A   1      40.941  30.723  32.216  1.00  0.00     0.167 HD
ATOM     49  C   UNL A   1      44.084  29.621  35.084  1.00  0.00     0.037 A 
ATOM     50  C   UNL A   1      38.631  32.069  31.406  1.00  0.00     0.037 A 
ATOM     51  C   UNL A   1      43.327  30.660  35.733  1.00  0.00     0.049 A 
ATOM     52  C   UNL A   1      38.952  32.573  32.792  1.00  0.00     0.074 A 
ATOM     53  C   UNL A   1      43.551  31.247  36.967  1.00  0.00     0.029 A 
ATOM     54  N   UNL A   1      42.200  31.270  35.202  1.00  0.00    -0.354 N 
ATOM     55  N   UNL A   1      39.940  32.236  33.588  1.00  0.00    -0.248 NA
ATOM     56  C   UNL A   1      38.053  33.592  33.353  1.00  0.00     0.031 C 
ATOM     57  C   UNL A   1      42.531  32.174  37.202  1.00  0.00     0.029 A 
ATOM     58  C   UNL A   1      41.707  32.213  36.089  1.00  0.00     0.049 A 
ATOM     59  H   UNL A   1      41.807  31.063  34.322  1.00  0.00     0.167 HD
ATOM     60  C   UNL A   1      39.799  33.024  34.727  1.00  0.00     0.074 A 
ATOM     61  C   UNL A   1      38.642  33.867  34.507  1.00  0.00     0.031 C 
ATOM     62  C   UNL A   1      40.557  33.050  35.853  1.00  0.00     0.037 A 
BRANCH  49  63
ATOM     63  C   UNL A   1      45.288  29.060  35.795  1.00  0.00     0.058 A 
ATOM     64  C   UNL A   1      46.565  29.625  35.643  1.00  0.00     0.135 A 
ATOM     65  C   UNL A   1      45.157  27.972  36.673  1.00  0.00     0.135 A 
ATOM     66  F   UNL A   1      46.753  30.655  34.802  1.00  0.00    -0.206 F 
ATOM     67  C   UNL A   1      47.671  29.118  36.318  1.00  0.00     0.059 A 
ATOM     68  C   UNL A   1      46.245  27.468  37.382  1.00  0.00     0.059 A 
ATOM     69  F   UNL A   1      43.962  27.388  36.855  1.00  0.00    -0.206 F 
ATOM     70  C   UNL A   1      47.500  28.041  37.189  1.00  0.00     0.060 A 
BRANCH  70  71
ATOM     71  S   UNL A   1      48.945  27.410  38.069  1.00  0.00     0.124 S 
ATOM     72  O   UNL A   1      48.814  25.973  37.853  1.00  0.00    -0.237 OA
ATOM     73  O   UNL A   1      50.045  28.059  37.365  1.00  0.00    -0.237 OA
ATOM     74  O   UNL A   1      48.731  27.859  39.441  1.00  0.00    -0.744 OA
ENDBRANCH  70  71
ENDBRANCH  49  63
BRANCH  50  75
ATOM     75  C   UNL A   1      37.428  32.561  30.678  1.00  0.00     0.058 A 
ATOM     76  C   UNL A   1      37.524  33.550  29.688  1.00  0.00     0.135 A 
ATOM     77  C   UNL A   1      36.149  32.067  30.980  1.00  0.00     0.135 A 
ATOM     78  F   UNL A   1      38.722  34.065  29.369  1.00  0.00    -0.206 F 
ATOM     79  C   UNL A   1      36.397  34.055  29.046  1.00  0.00     0.059 A 
ATOM     80  C   UNL A   1      35.010  32.529  30.328  1.00  0.00     0.059 A 
ATOM     81  F   UNL A   1      35.999  31.111  31.910  1.00  0.00    -0.206 F 
ATOM     82  C   UNL A   1      35.143  33.537  29.375  1.00  0.00     0.060 A 
BRANCH  82  83
ATOM     83  S   UNL A   1      33.686  34.187  28.528  1.00  0.00     0.124 S 
ATOM     84  O   UNL A   1      34.264  35.271  27.742  1.00  0.00    -0.237 OA
ATOM     85  O   UNL A   1      33.225  33.027  27.774  1.00  0.00    -0.237 OA
ATOM     86  O   UNL A   1      32.816  34.600  29.625  1.00  0.00    -0.744 OA
ENDBRANCH  82  83
ENDBRANCH  50  75
BRANCH  62  87
ATOM     87  C   UNL A   1      40.187  34.054  36.914  1.00  0.00     0.058 A 
ATOM     88  C   UNL A   1      40.670  35.371  36.894  1.00  0.00     0.135 A 
ATOM     89  C   UNL A   1      39.308  33.697  37.952  1.00  0.00     0.135 A 
ATOM     90  F   UNL A   1      41.512  35.768  35.926  1.00  0.00    -0.206 F 
ATOM     91  C   UNL A   1      40.331  36.286  37.887  1.00  0.00     0.059 A 
ATOM     92  C   UNL A   1      38.929  34.605  38.935  1.00  0.00     0.059 A 
ATOM     93  F   UNL A   1      38.802  32.455  38.013  1.00  0.00    -0.206 F 
ATOM     94  C   UNL A   1      39.461  35.893  38.905  1.00  0.00     0.060 A 
BRANCH  94  95
ATOM     95  S   UNL A   1      39.023  37.092  40.181  1.00  0.00     0.124 S 
ATOM     96  O   UNL A   1      40.331  37.413  40.743  1.00  0.00    -0.237 OA
ATOM     97  O   UNL A   1      38.389  38.154  39.407  1.00  0.00    -0.237 OA
ATOM     98  O   UNL A   1      38.128  36.345  41.060  1.00  0.00    -0.744 OA
ENDBRANCH  94  95
ENDBRANCH  62  87
ENDBRANCH  36  37
ENDBRANCH  29  31
ENDBRANCH  28  29
ENDBRANCH  27  28
ENDBRANCH  26  27
ENDBRANCH  25  26
ENDBRANCH  24  25
ENDBRANCH   1  24
TORSDOF 23
ENDMDL
MODEL 2
REMARK VINA RESULT:      -9.5      1.775      8.446
REMARK SMILES C[C@@H](NS(=O)(=O)c1ccc2c(c1)CCC2)C(=O)OCCOCCOCCOC(=O)c1ccc(-c2c3nc(c(-c4c(F)cc(S(=O)(=O)[O-])cc4F)c4ccc([nH]4)c(-c4c(F)cc(S(=O)(=O)[O-])cc4F)c4nc(c(-c5c(F)cc(S(=O)(=O)[O-])cc5F)c5ccc2[nH]5)C=C4)C=C3)cc1
REMARK SMILES IDX 22 1 21 2 20 3 19 4 18 5 16 6 17 7 2 8 1 9 3 10 4 12 5 13
REMARK SMILES IDX 6 14 7 15 8 16 12 17 9 18 11 19 10 20 13 21 15 22 14 23
REMARK SMILES IDX 23 24 24 25 25 26 26 27 27 28 28 29 29 30 30 31 31 32 95 33
REMARK SMILES IDX 32 34 94 35 33 36 34 37 35 38 88 39 36 40 93 41 87 42 89 43
REMARK SMILES IDX 37 44 92 45 86 46 85 47 38 49 72 50 51 51 71 52 52 53 55 54
REMARK SMILES IDX 70 55 90 56 53 57 54 58 69 60 91 61 56 62 39 63 40 64 49 65
REMARK SMILES IDX 41 66 42 67 48 68 50 69 43 70 44 71 45 72 46 73 47 74 73 75
REMARK SMILES IDX 74 76 83 77 75 78 76 79 82 80 84 81 77 82 78 83 79 84 80 85
REMARK SMILES IDX 81 86 57 87 58 88 67 89 59 90 60 91 66 92 68 93 61 94 62 95
REMARK SMILES IDX 63 96 64 97 65 98
REMARK H PARENT 3 11 89 48 55 59
REMARK Flexibility Score: inf
ROOT
ATOM      1  C   UNL A   1      43.182  19.447  25.983  1.00  0.00     0.188 C 
ENDROOT
BRANCH   1   2
ATOM      2  O   UNL A   1      41.870  19.905  25.669  1.00  0.00    -0.376 OA
BRANCH   2   3
ATOM      3  C   UNL A   1      41.051  20.402  26.720  1.00  0.00     0.202 C 
BRANCH   3   4
ATOM      4  C   UNL A   1      40.437  21.772  26.476  1.00  0.00     0.261 C 
BRANCH   4   5
ATOM      5  O   UNL A   1      39.028  21.817  26.217  1.00  0.00    -0.462 OA
BRANCH   5   6
ATOM      6  C   UNL A   1      38.396  23.026  26.289  1.00  0.00     0.323 C 
ATOM      7  O   UNL A   1      38.755  23.988  26.947  1.00  0.00    -0.250 OA
BRANCH   6   8
ATOM      8  C   UNL A   1      37.088  23.005  25.542  1.00  0.00     0.176 C 
ATOM      9  C   UNL A   1      37.154  21.969  24.424  1.00  0.00     0.038 C 
BRANCH   8  10
ATOM     10  N   UNL A   1      36.026  22.720  26.544  1.00  0.00    -0.197 NA
ATOM     11  H   UNL A   1      36.075  23.448  27.257  1.00  0.00     0.142 HD
BRANCH  10  12
ATOM     12  S   UNL A   1      34.411  22.659  25.986  1.00  0.00     0.241 S 
ATOM     13  O   UNL A   1      34.271  21.454  25.198  1.00  0.00    -0.207 OA
ATOM     14  O   UNL A   1      33.622  22.872  27.178  1.00  0.00    -0.207 OA
BRANCH  12  15
ATOM     15  C   UNL A   1      34.152  24.081  24.928  1.00  0.00     0.082 A 
ATOM     16  C   UNL A   1      33.911  23.887  23.554  1.00  0.00     0.022 A 
ATOM     17  C   UNL A   1      34.250  25.383  25.446  1.00  0.00     0.025 A 
ATOM     18  C   UNL A   1      33.681  24.983  22.708  1.00  0.00     0.005 A 
ATOM     19  C   UNL A   1      33.907  26.451  24.621  1.00  0.00    -0.043 A 
ATOM     20  C   UNL A   1      33.637  26.253  23.262  1.00  0.00    -0.045 A 
ATOM     21  C   UNL A   1      33.652  27.880  25.009  1.00  0.00     0.036 C 
ATOM     22  C   UNL A   1      33.297  27.554  22.600  1.00  0.00     0.036 C 
ATOM     23  C   UNL A   1      32.818  28.369  23.809  1.00  0.00     0.010 C 
ENDBRANCH  12  15
ENDBRANCH  10  12
ENDBRANCH   8  10
ENDBRANCH   6   8
ENDBRANCH   5   6
ENDBRANCH   4   5
ENDBRANCH   3   4
ENDBRANCH   2   3
ENDBRANCH   1   2
BRANCH   1  24
ATOM     24  C   UNL A   1      44.337  19.962  25.108  1.00  0.00     0.188 C 
BRANCH  24  25
ATOM     25  O   UNL A   1      44.318  21.340  24.741  1.00  0.00    -0.376 OA
BRANCH  25  26
ATOM     26  C   UNL A   1      44.938  22.251  25.637  1.00  0.00     0.202 C 
BRANCH  26  27
ATOM     27  C   UNL A   1      44.014  22.850  26.700  1.00  0.00     0.261 C 
BRANCH  27  28
ATOM     28  O   UNL A   1      44.148  24.275  26.851  1.00  0.00    -0.460 OA
BRANCH  28  29
ATOM     29  C   UNL A   1      43.199  25.011  26.216  1.00  0.00     0.338 C 
ATOM     30  O   UNL A   1      42.804  24.857  25.072  1.00  0.00    -0.246 OA
BRANCH  29  31
ATOM     31  C   UNL A   1      42.559  25.960  27.154  1.00  0.00     0.060 A 
ATOM     32  C   UNL A   1      43.051  27.274  27.204  1.00  0.00     0.016 A 
ATOM     33  C   UNL A   1      41.576  25.543  28.053  1.00  0.00     0.016 A 
ATOM     34  C   UNL A   1      42.626  28.145  28.205  1.00  0.00     0.010 A 
ATOM     35  C   UNL A   1      41.158  26.416  29.063  1.00  0.00     0.010 A 
ATOM     36  C   UNL A   1      41.724  27.699  29.179  1.00  0.00    -0.014 A 
BRANCH  36  37
ATOM     37  C   UNL A   1      41.541  28.491  30.422  1.00  0.00     0.031 A 
ATOM     38  C   UNL A   1      40.430  29.511  30.469  1.00  0.00     0.074 A 
ATOM     39  C   UNL A   1      42.310  28.279  31.505  1.00  0.00     0.049 A 
ATOM     40  N   UNL A   1      40.109  30.350  31.419  1.00  0.00    -0.248 NA
ATOM     41  C   UNL A   1      39.568  29.599  29.278  1.00  0.00     0.031 C 
ATOM     42  C   UNL A   1      43.385  27.292  31.597  1.00  0.00     0.029 A 
ATOM     43  N   UNL A   1      42.310  28.893  32.733  1.00  0.00    -0.354 N 
ATOM     44  C   UNL A   1      39.013  31.062  30.944  1.00  0.00     0.074 A 
ATOM     45  C   UNL A   1      38.752  30.591  29.602  1.00  0.00     0.031 C 
ATOM     46  C   UNL A   1      43.954  27.380  32.811  1.00  0.00     0.029 A 
ATOM     47  C   UNL A   1      43.306  28.449  33.569  1.00  0.00     0.049 A 
ATOM     48  H   UNL A   1      41.658  29.584  32.989  1.00  0.00     0.167 HD
ATOM     49  C   UNL A   1      38.276  32.009  31.575  1.00  0.00     0.037 A 
ATOM     50  C   UNL A   1      43.669  28.877  34.795  1.00  0.00     0.037 A 
ATOM     51  C   UNL A   1      38.544  32.476  32.911  1.00  0.00     0.049 A 
ATOM     52  C   UNL A   1      42.882  29.986  35.450  1.00  0.00     0.074 A 
ATOM     53  C   UNL A   1      37.865  33.436  33.641  1.00  0.00     0.029 A 
ATOM     54  N   UNL A   1      39.573  32.015  33.721  1.00  0.00    -0.354 N 
ATOM     55  N   UNL A   1      41.843  30.646  34.991  1.00  0.00    -0.248 NA
ATOM     56  C   UNL A   1      43.309  30.400  36.793  1.00  0.00     0.031 C 
ATOM     57  C   UNL A   1      38.513  33.592  34.870  1.00  0.00     0.029 A 
ATOM     58  C   UNL A   1      39.558  32.684  34.934  1.00  0.00     0.049 A 
ATOM     59  H   UNL A   1      40.219  31.316  33.470  1.00  0.00     0.167 HD
ATOM     60  C   UNL A   1      41.476  31.529  36.003  1.00  0.00     0.074 A 
ATOM     61  C   UNL A   1      42.391  31.304  37.102  1.00  0.00     0.031 C 
ATOM     62  C   UNL A   1      40.472  32.444  36.023  1.00  0.00     0.037 A 
BRANCH  49  63
ATOM     63  C   UNL A   1      37.118  32.612  30.824  1.00  0.00     0.058 A 
ATOM     64  C   UNL A   1      37.304  33.634  29.879  1.00  0.00     0.135 A 
ATOM     65  C   UNL A   1      35.812  32.132  31.018  1.00  0.00     0.135 A 
ATOM     66  F   UNL A   1      38.527  34.144  29.665  1.00  0.00    -0.206 F 
ATOM     67  C   UNL A   1      36.235  34.175  29.171  1.00  0.00     0.059 A 
ATOM     68  C   UNL A   1      34.732  32.638  30.297  1.00  0.00     0.059 A 
ATOM     69  F   UNL A   1      35.574  31.159  31.911  1.00  0.00    -0.206 F 
ATOM     70  C   UNL A   1      34.952  33.667  29.384  1.00  0.00     0.060 A 
BRANCH  70  71
ATOM     71  S   UNL A   1      33.581  34.368  28.442  1.00  0.00     0.124 S 
ATOM     72  O   UNL A   1      33.169  33.227  27.633  1.00  0.00    -0.237 OA
ATOM     73  O   UNL A   1      32.654  34.768  29.494  1.00  0.00    -0.237 OA
ATOM     74  O   UNL A   1      34.201  35.466  27.706  1.00  0.00    -0.744 OA
ENDBRANCH  70  71
ENDBRANCH  49  63
BRANCH  50  75
ATOM     75  C   UNL A   1      44.849  28.277  35.478  1.00  0.00     0.058 A 
ATOM     76  C   UNL A   1      46.151  28.740  35.235  1.00  0.00     0.135 A 
ATOM     77  C   UNL A   1      44.697  27.205  36.373  1.00  0.00     0.135 A 
ATOM     78  F   UNL A   1      46.353  29.754  34.380  1.00  0.00    -0.206 F 
ATOM     79  C   UNL A   1      47.261  28.144  35.827  1.00  0.00     0.059 A 
ATOM     80  C   UNL A   1      45.788  26.615  37.005  1.00  0.00     0.059 A 
ATOM     81  F   UNL A   1      43.473  26.730  36.652  1.00  0.00    -0.206 F 
ATOM     82  C   UNL A   1      47.068  27.081  36.711  1.00  0.00     0.060 A 
BRANCH  82  83
ATOM     83  S   UNL A   1      48.512  26.322  37.485  1.00  0.00     0.124 S 
ATOM     84  O   UNL A   1      48.041  26.121  38.851  1.00  0.00    -0.237 OA
ATOM     85  O   UNL A   1      48.689  25.113  36.687  1.00  0.00    -0.237 OA
ATOM     86  O   UNL A   1      49.552  27.333  37.321  1.00  0.00    -0.744 OA
ENDBRANCH  82  83
ENDBRANCH  50  75
BRANCH  62  87
ATOM     87  C   UNL A   1      40.282  33.237  37.290  1.00  0.00     0.058 A 
ATOM     88  C   UNL A   1      41.060  34.367  37.584  1.00  0.00     0.135 A 
ATOM     89  C   UNL A   1      39.283  32.874  38.211  1.00  0.00     0.135 A 
ATOM     90  F   UNL A   1      42.029  34.759  36.741  1.00  0.00    -0.206 F 
ATOM     91  C   UNL A   1      40.884  35.085  38.764  1.00  0.00     0.059 A 
ATOM     92  C   UNL A   1      39.067  33.598  39.379  1.00  0.00     0.059 A 
ATOM     93  F   UNL A   1      38.498  31.812  37.974  1.00  0.00    -0.206 F 
ATOM     94  C   UNL A   1      39.886  34.691  39.656  1.00  0.00     0.060 A 
BRANCH  94  95
ATOM     95  S   UNL A   1      39.663  35.636  41.179  1.00  0.00     0.124 S 
ATOM     96  O   UNL A   1      39.288  34.588  42.122  1.00  0.00    -0.237 OA
ATOM     97  O   UNL A   1      40.985  36.223  41.377  1.00  0.00    -0.237 OA
ATOM     98  O   UNL A   1      38.607  36.585  40.840  1.00  0.00    -0.744 OA
ENDBRANCH  94  95
ENDBRANCH  62  87
ENDBRANCH  36  37
ENDBRANCH  29  31
ENDBRANCH  28  29
ENDBRANCH  27  28
ENDBRANCH  26  27
ENDBRANCH  25  26
ENDBRANCH  24  25
ENDBRANCH   1  24
TORSDOF 23
ENDMDL
MODEL 3
REMARK VINA RESULT:      -9.3      4.981     12.471
REMARK SMILES C[C@@H](NS(=O)(=O)c1ccc2c(c1)CCC2)C(=O)OCCOCCOCCOC(=O)c1ccc(-c2c3nc(c(-c4c(F)cc(S(=O)(=O)[O-])cc4F)c4ccc([nH]4)c(-c4c(F)cc(S(=O)(=O)[O-])cc4F)c4nc(c(-c5c(F)cc(S(=O)(=O)[O-])cc5F)c5ccc2[nH]5)C=C4)C=C3)cc1
REMARK SMILES IDX 22 1 21 2 20 3 19 4 18 5 16 6 17 7 2 8 1 9 3 10 4 12 5 13
REMARK SMILES IDX 6 14 7 15 8 16 12 17 9 18 11 19 10 20 13 21 15 22 14 23
REMARK SMILES IDX 23 24 24 25 25 26 26 27 27 28 28 29 29 30 30 31 31 32 95 33
REMARK SMILES IDX 32 34 94 35 33 36 34 37 35 38 88 39 36 40 93 41 87 42 89 43
REMARK SMILES IDX 37 44 92 45 86 46 85 47 38 49 72 50 51 51 71 52 52 53 55 54
REMARK SMILES IDX 70 55 90 56 53 57 54 58 69 60 91 61 56 62 39 63 40 64 49 65
REMARK SMILES IDX 41 66 42 67 48 68 50 69 43 70 44 71 45 72 46 73 47 74 73 75
REMARK SMILES IDX 74 76 83 77 75 78 76 79 82 80 84 81 77 82 78 83 79 84 80 85
REMARK SMILES IDX 81 86 57 87 58 88 67 89 59 90 60 91 66 92 68 93 61 94 62 95
REMARK SMILES IDX 63 96 64 97 65 98
REMARK H PARENT 3 11 89 48 55 59
REMARK Flexibility Score: inf
ROOT
ATOM      1  C   UNL A   1      38.424  34.155  34.910  1.00  0.00     0.188 C 
ENDROOT
BRANCH   1   2
ATOM      2  O   UNL A   1      38.002  33.554  36.131  1.00  0.00    -0.376 OA
BRANCH   2   3
ATOM      3  C   UNL A   1      38.033  32.135  36.240  1.00  0.00     0.202 C 
BRANCH   3   4
ATOM      4  C   UNL A   1      38.817  31.416  35.154  1.00  0.00     0.261 C 
BRANCH   4   5
ATOM      5  O   UNL A   1      40.167  31.043  35.463  1.00  0.00    -0.462 OA
BRANCH   5   6
ATOM      6  C   UNL A   1      40.965  30.605  34.446  1.00  0.00     0.323 C 
ATOM      7  O   UNL A   1      41.505  31.303  33.603  1.00  0.00    -0.250 OA
BRANCH   6   8
ATOM      8  C   UNL A   1      41.009  29.100  34.392  1.00  0.00     0.176 C 
ATOM      9  C   UNL A   1      40.725  28.631  32.968  1.00  0.00     0.038 C 
BRANCH   8  10
ATOM     10  N   UNL A   1      42.351  28.692  34.888  1.00  0.00    -0.197 NA
ATOM     11  H   UNL A   1      42.891  29.543  35.044  1.00  0.00     0.142 HD
BRANCH  10  12
ATOM     12  S   UNL A   1      42.415  27.775  36.329  1.00  0.00     0.241 S 
ATOM     13  O   UNL A   1      43.443  28.356  37.166  1.00  0.00    -0.207 OA
ATOM     14  O   UNL A   1      41.038  27.714  36.765  1.00  0.00    -0.207 OA
BRANCH  12  15
ATOM     15  C   UNL A   1      42.896  26.108  35.887  1.00  0.00     0.082 A 
ATOM     16  C   UNL A   1      41.908  25.176  35.516  1.00  0.00     0.022 A 
ATOM     17  C   UNL A   1      44.241  25.709  35.967  1.00  0.00     0.025 A 
ATOM     18  C   UNL A   1      42.261  23.870  35.141  1.00  0.00     0.005 A 
ATOM     19  C   UNL A   1      44.588  24.450  35.484  1.00  0.00    -0.043 A 
ATOM     20  C   UNL A   1      43.605  23.536  35.087  1.00  0.00    -0.045 A 
ATOM     21  C   UNL A   1      45.960  23.912  35.194  1.00  0.00     0.036 C 
ATOM     22  C   UNL A   1      44.236  22.262  34.611  1.00  0.00     0.036 C 
ATOM     23  C   UNL A   1      45.630  22.767  34.216  1.00  0.00     0.010 C 
ENDBRANCH  12  15
ENDBRANCH  10  12
ENDBRANCH   8  10
ENDBRANCH   6   8
ENDBRANCH   5   6
ENDBRANCH   4   5
ENDBRANCH   3   4
ENDBRANCH   2   3
ENDBRANCH   1   2
BRANCH   1  24
ATOM     24  C   UNL A   1      37.430  34.144  33.737  1.00  0.00     0.188 C 
BRANCH  24  25
ATOM     25  O   UNL A   1      36.312  35.026  33.816  1.00  0.00    -0.376 OA
BRANCH  25  26
ATOM     26  C   UNL A   1      35.357  34.949  32.768  1.00  0.00     0.202 C 
BRANCH  26  27
ATOM     27  C   UNL A   1      34.152  34.048  33.050  1.00  0.00     0.261 C 
BRANCH  27  28
ATOM     28  O   UNL A   1      34.225  32.760  32.409  1.00  0.00    -0.460 OA
BRANCH  28  29
ATOM     29  C   UNL A   1      34.416  32.799  31.065  1.00  0.00     0.338 C 
ATOM     30  O   UNL A   1      33.812  33.491  30.264  1.00  0.00    -0.246 OA
BRANCH  29  31
ATOM     31  C   UNL A   1      35.594  31.988  30.682  1.00  0.00     0.060 A 
ATOM     32  C   UNL A   1      36.305  31.331  31.698  1.00  0.00     0.016 A 
ATOM     33  C   UNL A   1      36.065  31.967  29.368  1.00  0.00     0.016 A 
ATOM     34  C   UNL A   1      37.530  30.728  31.421  1.00  0.00     0.010 A 
ATOM     35  C   UNL A   1      37.300  31.369  29.093  1.00  0.00     0.010 A 
ATOM     36  C   UNL A   1      38.064  30.799  30.129  1.00  0.00    -0.014 A 
BRANCH  36  37
ATOM     37  C   UNL A   1      39.497  30.472  29.911  1.00  0.00     0.031 A 
ATOM     38  C   UNL A   1      40.525  31.550  30.147  1.00  0.00     0.074 A 
ATOM     39  C   UNL A   1      39.884  29.233  29.558  1.00  0.00     0.049 A 
ATOM     40  N   UNL A   1      41.821  31.516  29.976  1.00  0.00    -0.248 NA
ATOM     41  C   UNL A   1      40.021  32.844  30.637  1.00  0.00     0.031 C 
ATOM     42  C   UNL A   1      38.989  28.098  29.345  1.00  0.00     0.029 A 
ATOM     43  N   UNL A   1      41.135  28.728  29.308  1.00  0.00    -0.354 N 
ATOM     44  C   UNL A   1      42.286  32.777  30.337  1.00  0.00     0.074 A 
ATOM     45  C   UNL A   1      41.128  33.569  30.690  1.00  0.00     0.031 C 
ATOM     46  C   UNL A   1      39.719  27.031  28.976  1.00  0.00     0.029 A 
ATOM     47  C   UNL A   1      41.127  27.417  28.896  1.00  0.00     0.049 A 
ATOM     48  H   UNL A   1      41.960  29.255  29.413  1.00  0.00     0.167 HD
ATOM     49  C   UNL A   1      43.562  33.230  30.389  1.00  0.00     0.037 A 
ATOM     50  C   UNL A   1      42.137  26.628  28.478  1.00  0.00     0.037 A 
ATOM     51  C   UNL A   1      44.710  32.436  30.032  1.00  0.00     0.049 A 
ATOM     52  C   UNL A   1      43.543  27.177  28.471  1.00  0.00     0.074 A 
ATOM     53  C   UNL A   1      46.046  32.799  30.041  1.00  0.00     0.029 A 
ATOM     54  N   UNL A   1      44.660  31.117  29.603  1.00  0.00    -0.354 N 
ATOM     55  N   UNL A   1      43.969  28.368  28.821  1.00  0.00    -0.248 NA
ATOM     56  C   UNL A   1      44.608  26.268  28.023  1.00  0.00     0.031 C 
ATOM     57  C   UNL A   1      46.797  31.718  29.570  1.00  0.00     0.029 A 
ATOM     58  C   UNL A   1      45.938  30.659  29.327  1.00  0.00     0.049 A 
ATOM     59  H   UNL A   1      43.837  30.585  29.507  1.00  0.00     0.167 HD
ATOM     60  C   UNL A   1      45.352  28.341  28.665  1.00  0.00     0.074 A 
ATOM     61  C   UNL A   1      45.691  27.009  28.209  1.00  0.00     0.031 C 
ATOM     62  C   UNL A   1      46.261  29.326  28.880  1.00  0.00     0.037 A 
BRANCH  49  63
ATOM     63  C   UNL A   1      43.784  34.651  30.836  1.00  0.00     0.058 A 
ATOM     64  C   UNL A   1      43.864  35.710  29.917  1.00  0.00     0.135 A 
ATOM     65  C   UNL A   1      43.875  34.965  32.202  1.00  0.00     0.135 A 
ATOM     66  F   UNL A   1      43.802  35.466  28.598  1.00  0.00    -0.206 F 
ATOM     67  C   UNL A   1      44.048  37.024  30.334  1.00  0.00     0.059 A 
ATOM     68  C   UNL A   1      44.028  36.277  32.643  1.00  0.00     0.059 A 
ATOM     69  F   UNL A   1      43.810  33.994  33.126  1.00  0.00    -0.206 F 
ATOM     70  C   UNL A   1      44.125  37.299  31.700  1.00  0.00     0.060 A 
BRANCH  70  71
ATOM     71  S   UNL A   1      44.345  39.013  32.222  1.00  0.00     0.124 S 
ATOM     72  O   UNL A   1      44.365  39.708  30.939  1.00  0.00    -0.237 OA
ATOM     73  O   UNL A   1      43.164  39.241  33.047  1.00  0.00    -0.237 OA
ATOM     74  O   UNL A   1      45.615  38.990  32.941  1.00  0.00    -0.744 OA
ENDBRANCH  70  71
ENDBRANCH  49  63
BRANCH  50  75
ATOM     75  C   UNL A   1      41.859  25.244  28.004  1.00  0.00     0.058 A 
ATOM     76  C   UNL A   1      41.216  25.001  26.782  1.00  0.00     0.135 A 
ATOM     77  C   UNL A   1      42.212  24.130  28.785  1.00  0.00     0.135 A 
ATOM     78  F   UNL A   1      40.848  26.031  26.003  1.00  0.00    -0.206 F 
ATOM     79  C   UNL A   1      40.902  23.712  26.363  1.00  0.00     0.059 A 
ATOM     80  C   UNL A   1      41.940  22.829  28.372  1.00  0.00     0.059 A 
ATOM     81  F   UNL A   1      42.840  24.302  29.959  1.00  0.00    -0.206 F 
ATOM     82  C   UNL A   1      41.269  22.631  27.167  1.00  0.00     0.060 A 
BRANCH  82  83
ATOM     83  S   UNL A   1      40.871  20.959  26.611  1.00  0.00     0.124 S 
ATOM     84  O   UNL A   1      40.861  20.226  27.871  1.00  0.00    -0.237 OA
ATOM     85  O   UNL A   1      39.572  21.149  25.973  1.00  0.00    -0.237 OA
ATOM     86  O   UNL A   1      41.968  20.637  25.703  1.00  0.00    -0.744 OA
ENDBRANCH  82  83
ENDBRANCH  50  75
BRANCH  62  87
ATOM     87  C   UNL A   1      47.714  28.987  28.670  1.00  0.00     0.058 A 
ATOM     88  C   UNL A   1      48.356  29.193  27.439  1.00  0.00     0.135 A 
ATOM     89  C   UNL A   1      48.483  28.474  29.729  1.00  0.00     0.135 A 
ATOM     90  F   UNL A   1      47.670  29.681  26.392  1.00  0.00    -0.206 F 
ATOM     91  C   UNL A   1      49.695  28.865  27.252  1.00  0.00     0.059 A 
ATOM     92  C   UNL A   1      49.832  28.171  29.574  1.00  0.00     0.059 A 
ATOM     93  F   UNL A   1      47.926  28.270  30.933  1.00  0.00    -0.206 F 
ATOM     94  C   UNL A   1      50.425  28.352  28.326  1.00  0.00     0.060 A 
BRANCH  94  95
ATOM     95  S   UNL A   1      52.164  27.937  28.071  1.00  0.00     0.124 S 
ATOM     96  O   UNL A   1      52.307  26.748  28.906  1.00  0.00    -0.237 OA
ATOM     97  O   UNL A   1      52.223  27.711  26.631  1.00  0.00    -0.237 OA
ATOM     98  O   UNL A   1      52.870  29.124  28.542  1.00  0.00    -0.744 OA
ENDBRANCH  94  95
ENDBRANCH  62  87
ENDBRANCH  36  37
ENDBRANCH  29  31
ENDBRANCH  28  29
ENDBRANCH  27  28
ENDBRANCH  26  27
ENDBRANCH  25  26
ENDBRANCH  24  25
ENDBRANCH   1  24
TORSDOF 23
ENDMDL
