MODEL 1
REMARK VINA RESULT:     -11.3      0.000      0.000
REMARK SMILES Cc1cccc(-c2cccc(C(=O)OCCOCCOCCOC(=O)c3ccc(-c4c5nc(c(-c6c(F)cc(S(=O)(=O)[O-])cc6F)c6ccc([nH]6)c(-c6c(F)cc(S(=O)(=O)[O-])cc6F)c6nc(c(-c7c(F)cc(S(=O)(=O)[O-])cc7F)c7ccc4[nH]7)C=C6)C=C5)cc3)c2)c1
REMARK SMILES IDX 19 1 18 2 17 3 16 4 15 5 14 6 12 7 13 8 11 9 7 10 8 11 92 12
REMARK SMILES IDX 9 13 10 14 6 15 1 16 2 17 3 18 93 19 4 20 5 21 20 22 21 23
REMARK SMILES IDX 22 24 23 25 24 26 25 27 26 28 27 29 91 30 28 31 90 32 29 33
REMARK SMILES IDX 30 34 31 35 84 36 32 37 89 38 83 39 85 40 33 41 88 42 82 43
REMARK SMILES IDX 81 44 34 46 68 47 47 48 67 49 48 50 51 51 66 52 86 53 49 54
REMARK SMILES IDX 50 55 65 57 87 58 52 59 35 60 36 61 45 62 37 63 38 64 44 65
REMARK SMILES IDX 46 66 39 67 40 68 41 69 42 70 43 71 69 72 70 73 79 74 71 75
REMARK SMILES IDX 72 76 78 77 80 78 73 79 74 80 75 81 76 82 77 83 53 84 54 85
REMARK SMILES IDX 63 86 55 87 56 88 62 89 64 90 57 91 58 92 59 93 60 94 61 95
REMARK H PARENT 85 45 51 56
REMARK Flexibility Score: inf
ROOT
ATOM      1  C   UNL A   1      32.419  28.091  23.355  1.00  0.00     0.188 C 
ENDROOT
BRANCH   1   2
ATOM      2  C   UNL A   1      31.557  26.866  23.596  1.00  0.00     0.188 C 
BRANCH   2   3
ATOM      3  O   UNL A   1      30.174  26.949  23.705  1.00  0.00    -0.376 OA
BRANCH   3   4
ATOM      4  C   UNL A   1      29.750  26.389  24.902  1.00  0.00     0.202 C 
BRANCH   4   5
ATOM      5  C   UNL A   1      30.895  25.971  25.904  1.00  0.00     0.261 C 
BRANCH   5   6
ATOM      6  O   UNL A   1      31.320  24.414  26.777  1.00  0.00    -0.460 OA
BRANCH   6   7
ATOM      7  C   UNL A   1      32.502  23.351  27.057  1.00  0.00     0.338 C 
ATOM      8  O   UNL A   1      32.648  22.585  28.025  1.00  0.00    -0.246 OA
BRANCH   7   9
ATOM      9  C   UNL A   1      33.486  22.819  26.116  1.00  0.00     0.060 A 
ATOM     10  C   UNL A   1      35.901  22.709  25.505  1.00  0.00    -0.018 A 
ATOM     11  C   UNL A   1      35.459  22.253  24.260  1.00  0.00     0.009 A 
ATOM     12  C   UNL A   1      34.893  23.018  26.415  1.00  0.00     0.024 A 
ATOM     13  C   UNL A   1      34.086  22.172  23.930  1.00  0.00     0.002 A 
ATOM     14  C   UNL A   1      33.090  22.471  24.853  1.00  0.00     0.016 A 
BRANCH  10  15
ATOM     15  C   UNL A   1      37.345  22.831  25.820  1.00  0.00    -0.018 A 
ATOM     16  C   UNL A   1      40.420  20.585  26.333  1.00  0.00     0.044 C 
ATOM     17  C   UNL A   1      39.540  21.800  26.269  1.00  0.00    -0.051 A 
ATOM     18  C   UNL A   1      40.036  23.036  26.698  1.00  0.00     0.003 A 
ATOM     19  C   UNL A   1      38.205  21.712  25.823  1.00  0.00     0.012 A 
ATOM     20  C   UNL A   1      39.221  24.166  26.650  1.00  0.00     0.001 A 
ATOM     21  C   UNL A   1      37.894  24.064  26.211  1.00  0.00     0.009 A 
ENDBRANCH  10  15
ENDBRANCH   7   9
ENDBRANCH   6   7
ENDBRANCH   5   6
ENDBRANCH   4   5
ENDBRANCH   3   4
ENDBRANCH   2   3
ENDBRANCH   1   2
BRANCH   1  22
ATOM     22  O   UNL A   1      33.312  28.339  24.409  1.00  0.00    -0.376 OA
BRANCH  22  23
ATOM     23  C   UNL A   1      32.869  29.461  25.184  1.00  0.00     0.202 C 
BRANCH  23  24
ATOM     24  C   UNL A   1      33.059  29.355  26.790  1.00  0.00     0.261 C 
BRANCH  24  25
ATOM     25  O   UNL A   1      34.460  28.929  27.294  1.00  0.00    -0.460 OA
BRANCH  25  26
ATOM     26  C   UNL A   1      35.687  29.497  27.527  1.00  0.00     0.338 C 
ATOM     27  O   UNL A   1      36.709  29.097  26.937  1.00  0.00    -0.246 OA
BRANCH  26  28
ATOM     28  C   UNL A   1      35.761  30.577  28.732  1.00  0.00     0.060 A 
ATOM     29  C   UNL A   1      36.644  31.634  28.609  1.00  0.00     0.016 A 
ATOM     30  C   UNL A   1      35.792  30.291  30.065  1.00  0.00     0.016 A 
ATOM     31  C   UNL A   1      37.991  31.570  29.093  1.00  0.00     0.010 A 
ATOM     32  C   UNL A   1      37.097  30.322  30.672  1.00  0.00     0.010 A 
ATOM     33  C   UNL A   1      38.360  30.588  29.957  1.00  0.00    -0.014 A 
BRANCH  33  34
ATOM     34  C   UNL A   1      40.103  30.121  30.099  1.00  0.00     0.031 A 
ATOM     35  C   UNL A   1      40.957  28.513  29.601  1.00  0.00     0.074 A 
ATOM     36  C   UNL A   1      40.780  31.210  30.567  1.00  0.00     0.049 A 
ATOM     37  N   UNL A   1      41.506  27.606  30.386  1.00  0.00    -0.248 NA
ATOM     38  C   UNL A   1      40.702  27.543  28.218  1.00  0.00     0.031 C 
ATOM     39  C   UNL A   1      42.196  31.513  30.760  1.00  0.00     0.029 A 
ATOM     40  N   UNL A   1      40.180  32.382  31.064  1.00  0.00    -0.354 N 
ATOM     41  C   UNL A   1      41.832  26.488  29.558  1.00  0.00     0.074 A 
ATOM     42  C   UNL A   1      40.765  26.312  28.681  1.00  0.00     0.031 C 
ATOM     43  C   UNL A   1      42.297  32.489  31.695  1.00  0.00     0.029 A 
ATOM     44  C   UNL A   1      40.943  32.804  32.154  1.00  0.00     0.049 A 
ATOM     45  H   UNL A   1      39.374  32.823  30.709  1.00  0.00     0.167 HD
ATOM     46  C   UNL A   1      43.127  26.279  29.137  1.00  0.00     0.037 A 
ATOM     47  C   UNL A   1      40.410  32.472  33.371  1.00  0.00     0.037 A 
ATOM     48  C   UNL A   1      43.930  27.193  29.936  1.00  0.00     0.049 A 
ATOM     49  C   UNL A   1      41.195  31.194  33.861  1.00  0.00     0.074 A 
ATOM     50  C   UNL A   1      44.535  28.412  29.703  1.00  0.00     0.029 A 
ATOM     51  N   UNL A   1      43.664  27.162  31.298  1.00  0.00    -0.354 N 
ATOM     52  N   UNL A   1      41.705  30.234  33.098  1.00  0.00    -0.248 NA
ATOM     53  C   UNL A   1      41.717  31.108  35.222  1.00  0.00     0.031 C 
ATOM     54  C   UNL A   1      44.509  29.139  30.952  1.00  0.00     0.029 A 
ATOM     55  C   UNL A   1      43.836  28.390  31.911  1.00  0.00     0.049 A 
ATOM     56  H   UNL A   1      43.381  26.349  31.778  1.00  0.00     0.167 HD
ATOM     57  C   UNL A   1      42.632  29.477  33.802  1.00  0.00     0.074 A 
ATOM     58  C   UNL A   1      42.588  30.087  35.125  1.00  0.00     0.031 C 
ATOM     59  C   UNL A   1      43.462  28.468  33.333  1.00  0.00     0.037 A 
BRANCH  46  60
ATOM     60  C   UNL A   1      43.595  25.515  27.857  1.00  0.00     0.058 A 
ATOM     61  C   UNL A   1      44.048  24.190  28.013  1.00  0.00     0.135 A 
ATOM     62  C   UNL A   1      43.654  25.954  26.493  1.00  0.00     0.135 A 
ATOM     63  F   UNL A   1      44.068  23.621  29.226  1.00  0.00    -0.206 F 
ATOM     64  C   UNL A   1      44.491  23.381  26.949  1.00  0.00     0.059 A 
ATOM     65  C   UNL A   1      44.090  25.162  25.414  1.00  0.00     0.059 A 
ATOM     66  F   UNL A   1      43.320  27.182  26.086  1.00  0.00    -0.206 F 
ATOM     67  C   UNL A   1      44.500  23.868  25.648  1.00  0.00     0.060 A 
BRANCH  67  68
ATOM     68  S   UNL A   1      45.016  22.795  24.292  1.00  0.00     0.124 S 
ATOM     69  O   UNL A   1      45.424  21.585  24.998  1.00  0.00    -0.237 OA
ATOM     70  O   UNL A   1      43.793  22.693  23.503  1.00  0.00    -0.237 OA
ATOM     71  O   UNL A   1      46.102  23.537  23.655  1.00  0.00    -0.744 OA
ENDBRANCH  67  68
ENDBRANCH  46  60
BRANCH  47  72
ATOM     72  C   UNL A   1      38.913  32.912  33.520  1.00  0.00     0.058 A 
ATOM     73  C   UNL A   1      38.518  34.253  33.166  1.00  0.00     0.135 A 
ATOM     74  C   UNL A   1      37.817  32.066  33.749  1.00  0.00     0.135 A 
ATOM     75  F   UNL A   1      39.468  35.190  32.981  1.00  0.00    -0.206 F 
ATOM     76  C   UNL A   1      37.180  34.671  32.909  1.00  0.00     0.059 A 
ATOM     77  C   UNL A   1      36.460  32.470  33.520  1.00  0.00     0.059 A 
ATOM     78  F   UNL A   1      38.027  30.768  34.007  1.00  0.00    -0.206 F 
ATOM     79  C   UNL A   1      36.139  33.763  33.069  1.00  0.00     0.060 A 
BRANCH  79  80
ATOM     80  S   UNL A   1      34.434  34.116  32.388  1.00  0.00     0.124 S 
ATOM     81  O   UNL A   1      34.555  33.674  31.005  1.00  0.00    -0.237 OA
ATOM     82  O   UNL A   1      33.520  33.333  33.214  1.00  0.00    -0.237 OA
ATOM     83  O   UNL A   1      34.300  35.561  32.573  1.00  0.00    -0.744 OA
ENDBRANCH  79  80
ENDBRANCH  47  72
BRANCH  59  84
ATOM     84  C   UNL A   1      43.998  27.304  34.223  1.00  0.00     0.058 A 
ATOM     85  C   UNL A   1      45.348  27.128  34.567  1.00  0.00     0.135 A 
ATOM     86  C   UNL A   1      43.114  26.422  34.927  1.00  0.00     0.135 A 
ATOM     87  F   UNL A   1      46.310  27.945  34.123  1.00  0.00    -0.206 F 
ATOM     88  C   UNL A   1      45.784  26.110  35.419  1.00  0.00     0.059 A 
ATOM     89  C   UNL A   1      43.516  25.523  35.908  1.00  0.00     0.059 A 
ATOM     90  F   UNL A   1      41.794  26.373  34.699  1.00  0.00    -0.206 F 
ATOM     91  C   UNL A   1      44.863  25.318  36.090  1.00  0.00     0.060 A 
BRANCH  91  92
ATOM     92  S   UNL A   1      45.430  23.984  37.146  1.00  0.00     0.124 S 
ATOM     93  O   UNL A   1      44.738  24.299  38.394  1.00  0.00    -0.237 OA
ATOM     94  O   UNL A   1      44.955  22.798  36.441  1.00  0.00    -0.237 OA
ATOM     95  O   UNL A   1      46.878  24.155  37.172  1.00  0.00    -0.744 OA
ENDBRANCH  91  92
ENDBRANCH  59  84
ENDBRANCH  33  34
ENDBRANCH  26  28
ENDBRANCH  25  26
ENDBRANCH  24  25
ENDBRANCH  23  24
ENDBRANCH  22  23
ENDBRANCH   1  22
TORSDOF 21
ENDMDL
MODEL 2
REMARK VINA RESULT:     -11.2      1.421      3.919
REMARK SMILES Cc1cccc(-c2cccc(C(=O)OCCOCCOCCOC(=O)c3ccc(-c4c5nc(c(-c6c(F)cc(S(=O)(=O)[O-])cc6F)c6ccc([nH]6)c(-c6c(F)cc(S(=O)(=O)[O-])cc6F)c6nc(c(-c7c(F)cc(S(=O)(=O)[O-])cc7F)c7ccc4[nH]7)C=C6)C=C5)cc3)c2)c1
REMARK SMILES IDX 19 1 18 2 17 3 16 4 15 5 14 6 12 7 13 8 11 9 7 10 8 11 92 12
REMARK SMILES IDX 9 13 10 14 6 15 1 16 2 17 3 18 93 19 4 20 5 21 20 22 21 23
REMARK SMILES IDX 22 24 23 25 24 26 25 27 26 28 27 29 91 30 28 31 90 32 29 33
REMARK SMILES IDX 30 34 31 35 84 36 32 37 89 38 83 39 85 40 33 41 88 42 82 43
REMARK SMILES IDX 81 44 34 46 68 47 47 48 67 49 48 50 51 51 66 52 86 53 49 54
REMARK SMILES IDX 50 55 65 57 87 58 52 59 35 60 36 61 45 62 37 63 38 64 44 65
REMARK SMILES IDX 46 66 39 67 40 68 41 69 42 70 43 71 69 72 70 73 79 74 71 75
REMARK SMILES IDX 72 76 78 77 80 78 73 79 74 80 75 81 76 82 77 83 53 84 54 85
REMARK SMILES IDX 63 86 55 87 56 88 62 89 64 90 57 91 58 92 59 93 60 94 61 95
REMARK H PARENT 85 45 51 56
REMARK Flexibility Score: inf
ROOT
ATOM      1  C   UNL A   1      34.065  25.355  24.442  1.00  0.00     0.188 C 
ENDROOT
BRANCH   1   2
ATOM      2  C   UNL A   1      35.151  24.350  24.781  1.00  0.00     0.188 C 
BRANCH   2   3
ATOM      3  O   UNL A   1      35.514  24.074  26.093  1.00  0.00    -0.376 OA
BRANCH   3   4
ATOM      4  C   UNL A   1      35.334  22.725  26.370  1.00  0.00     0.202 C 
BRANCH   4   5
ATOM      5  C   UNL A   1      34.193  22.386  27.405  1.00  0.00     0.261 C 
BRANCH   5   6
ATOM      6  O   UNL A   1      32.462  22.955  27.628  1.00  0.00    -0.460 OA
BRANCH   6   7
ATOM      7  C   UNL A   1      31.132  23.434  26.850  1.00  0.00     0.338 C 
ATOM      8  O   UNL A   1      30.002  23.668  27.311  1.00  0.00    -0.246 OA
BRANCH   7   9
ATOM      9  C   UNL A   1      31.020  24.000  25.506  1.00  0.00     0.060 A 
ATOM     10  C   UNL A   1      30.341  25.984  24.158  1.00  0.00    -0.018 A 
ATOM     11  C   UNL A   1      30.361  25.116  23.062  1.00  0.00     0.009 A 
ATOM     12  C   UNL A   1      30.645  25.397  25.383  1.00  0.00     0.024 A 
ATOM     13  C   UNL A   1      30.612  23.732  23.200  1.00  0.00     0.002 A 
ATOM     14  C   UNL A   1      30.927  23.161  24.428  1.00  0.00     0.016 A 
BRANCH  10  15
ATOM     15  C   UNL A   1      30.031  27.426  24.002  1.00  0.00    -0.018 A 
ATOM     16  C   UNL A   1      27.549  29.692  22.139  1.00  0.00     0.044 C 
ATOM     17  C   UNL A   1      28.704  29.240  22.986  1.00  0.00    -0.051 A 
ATOM     18  C   UNL A   1      29.613  30.183  23.477  1.00  0.00     0.003 A 
ATOM     19  C   UNL A   1      28.915  27.873  23.263  1.00  0.00     0.012 A 
ATOM     20  C   UNL A   1      30.692  29.769  24.256  1.00  0.00     0.001 A 
ATOM     21  C   UNL A   1      30.894  28.407  24.519  1.00  0.00     0.009 A 
ENDBRANCH  10  15
ENDBRANCH   7   9
ENDBRANCH   6   7
ENDBRANCH   5   6
ENDBRANCH   4   5
ENDBRANCH   3   4
ENDBRANCH   2   3
ENDBRANCH   1   2
BRANCH   1  22
ATOM     22  O   UNL A   1      34.340  26.637  24.941  1.00  0.00    -0.376 OA
BRANCH  22  23
ATOM     23  C   UNL A   1      33.760  26.800  26.242  1.00  0.00     0.202 C 
BRANCH  23  24
ATOM     24  C   UNL A   1      33.588  28.321  26.776  1.00  0.00     0.261 C 
BRANCH  24  25
ATOM     25  O   UNL A   1      34.866  29.194  26.802  1.00  0.00    -0.460 OA
BRANCH  25  26
ATOM     26  C   UNL A   1      36.007  29.328  27.553  1.00  0.00     0.338 C 
ATOM     27  O   UNL A   1      36.942  28.510  27.462  1.00  0.00    -0.246 OA
BRANCH  26  28
ATOM     28  C   UNL A   1      35.990  30.489  28.682  1.00  0.00     0.060 A 
ATOM     29  C   UNL A   1      36.855  31.557  28.533  1.00  0.00     0.016 A 
ATOM     30  C   UNL A   1      35.953  30.295  30.031  1.00  0.00     0.016 A 
ATOM     31  C   UNL A   1      38.174  31.561  29.093  1.00  0.00     0.010 A 
ATOM     32  C   UNL A   1      37.221  30.401  30.705  1.00  0.00     0.010 A 
ATOM     33  C   UNL A   1      38.516  30.650  30.042  1.00  0.00    -0.014 A 
BRANCH  33  34
ATOM     34  C   UNL A   1      40.258  30.238  30.310  1.00  0.00     0.031 A 
ATOM     35  C   UNL A   1      41.215  28.692  29.805  1.00  0.00     0.074 A 
ATOM     36  C   UNL A   1      40.848  31.324  30.890  1.00  0.00     0.049 A 
ATOM     37  N   UNL A   1      41.733  27.764  30.587  1.00  0.00    -0.248 NA
ATOM     38  C   UNL A   1      41.118  27.792  28.357  1.00  0.00     0.031 C 
ATOM     39  C   UNL A   1      42.230  31.666  31.221  1.00  0.00     0.029 A 
ATOM     40  N   UNL A   1      40.162  32.445  31.393  1.00  0.00    -0.354 N 
ATOM     41  C   UNL A   1      42.172  26.706  29.733  1.00  0.00     0.074 A 
ATOM     42  C   UNL A   1      41.192  26.540  28.759  1.00  0.00     0.031 C 
ATOM     43  C   UNL A   1      42.212  32.593  32.211  1.00  0.00     0.029 A 
ATOM     44  C   UNL A   1      40.812  32.833  32.566  1.00  0.00     0.049 A 
ATOM     45  H   UNL A   1      39.372  32.875  30.993  1.00  0.00     0.167 HD
ATOM     46  C   UNL A   1      43.506  26.567  29.416  1.00  0.00     0.037 A 
ATOM     47  C   UNL A   1      40.192  32.416  33.714  1.00  0.00     0.037 A 
ATOM     48  C   UNL A   1      44.201  27.464  30.328  1.00  0.00     0.049 A 
ATOM     49  C   UNL A   1      40.984  31.141  34.203  1.00  0.00     0.074 A 
ATOM     50  C   UNL A   1      44.774  28.715  30.211  1.00  0.00     0.029 A 
ATOM     51  N   UNL A   1      43.822  27.348  31.657  1.00  0.00    -0.354 N 
ATOM     52  N   UNL A   1      41.595  30.244  33.438  1.00  0.00    -0.248 NA
ATOM     53  C   UNL A   1      41.392  31.000  35.598  1.00  0.00     0.031 C 
ATOM     54  C   UNL A   1      44.613  29.371  31.489  1.00  0.00     0.029 A 
ATOM     55  C   UNL A   1      43.892  28.546  32.346  1.00  0.00     0.049 A 
ATOM     56  H   UNL A   1      43.532  26.501  32.068  1.00  0.00     0.167 HD
ATOM     57  C   UNL A   1      42.489  29.483  34.179  1.00  0.00     0.074 A 
ATOM     58  C   UNL A   1      42.308  30.017  35.523  1.00  0.00     0.031 C 
ATOM     59  C   UNL A   1      43.395  28.532  33.732  1.00  0.00     0.037 A 
BRANCH  46  60
ATOM     60  C   UNL A   1      44.111  25.892  28.142  1.00  0.00     0.058 A 
ATOM     61  C   UNL A   1      44.795  24.672  28.310  1.00  0.00     0.135 A 
ATOM     62  C   UNL A   1      44.096  26.325  26.776  1.00  0.00     0.135 A 
ATOM     63  F   UNL A   1      44.913  24.125  29.528  1.00  0.00    -0.206 F 
ATOM     64  C   UNL A   1      45.384  23.950  27.254  1.00  0.00     0.059 A 
ATOM     65  C   UNL A   1      44.673  25.618  25.704  1.00  0.00     0.059 A 
ATOM     66  F   UNL A   1      43.546  27.469  26.359  1.00  0.00    -0.206 F 
ATOM     67  C   UNL A   1      45.311  24.421  25.950  1.00  0.00     0.060 A 
BRANCH  67  68
ATOM     68  S   UNL A   1      46.019  23.451  24.603  1.00  0.00     0.124 S 
ATOM     69  O   UNL A   1      46.434  22.233  25.291  1.00  0.00    -0.237 OA
ATOM     70  O   UNL A   1      44.884  23.317  23.696  1.00  0.00    -0.237 OA
ATOM     71  O   UNL A   1      47.111  24.287  24.109  1.00  0.00    -0.744 OA
ENDBRANCH  67  68
ENDBRANCH  46  60
BRANCH  47  72
ATOM     72  C   UNL A   1      38.671  32.793  33.754  1.00  0.00     0.058 A 
ATOM     73  C   UNL A   1      38.261  34.157  33.527  1.00  0.00     0.135 A 
ATOM     74  C   UNL A   1      37.592  31.895  33.761  1.00  0.00     0.135 A 
ATOM     75  F   UNL A   1      39.186  35.135  33.560  1.00  0.00    -0.206 F 
ATOM     76  C   UNL A   1      36.941  34.567  33.182  1.00  0.00     0.059 A 
ATOM     77  C   UNL A   1      36.251  32.288  33.439  1.00  0.00     0.059 A 
ATOM     78  F   UNL A   1      37.827  30.582  33.880  1.00  0.00    -0.206 F 
ATOM     79  C   UNL A   1      35.926  33.619  33.118  1.00  0.00     0.060 A 
BRANCH  79  80
ATOM     80  S   UNL A   1      34.287  34.008  32.308  1.00  0.00     0.124 S 
ATOM     81  O   UNL A   1      34.366  33.249  31.067  1.00  0.00    -0.237 OA
ATOM     82  O   UNL A   1      33.272  33.550  33.253  1.00  0.00    -0.237 OA
ATOM     83  O   UNL A   1      34.333  35.462  32.156  1.00  0.00    -0.744 OA
ENDBRANCH  79  80
ENDBRANCH  47  72
BRANCH  59  84
ATOM     84  C   UNL A   1      43.902  27.341  34.604  1.00  0.00     0.058 A 
ATOM     85  C   UNL A   1      43.113  26.242  34.978  1.00  0.00     0.135 A 
ATOM     86  C   UNL A   1      45.289  27.181  34.932  1.00  0.00     0.135 A 
ATOM     87  F   UNL A   1      41.823  26.140  34.637  1.00  0.00    -0.206 F 
ATOM     88  C   UNL A   1      43.618  25.162  35.707  1.00  0.00     0.059 A 
ATOM     89  C   UNL A   1      45.837  26.037  35.499  1.00  0.00     0.059 A 
ATOM     90  F   UNL A   1      46.204  28.139  34.727  1.00  0.00    -0.206 F 
ATOM     91  C   UNL A   1      44.980  25.063  35.956  1.00  0.00     0.060 A 
BRANCH  91  92
ATOM     92  S   UNL A   1      45.616  23.698  36.931  1.00  0.00     0.124 S 
ATOM     93  O   UNL A   1      47.052  23.836  36.703  1.00  0.00    -0.237 OA
ATOM     94  O   UNL A   1      45.153  24.026  38.275  1.00  0.00    -0.237 OA
ATOM     95  O   UNL A   1      44.996  22.524  36.328  1.00  0.00    -0.744 OA
ENDBRANCH  91  92
ENDBRANCH  59  84
ENDBRANCH  33  34
ENDBRANCH  26  28
ENDBRANCH  25  26
ENDBRANCH  24  25
ENDBRANCH  23  24
ENDBRANCH  22  23
ENDBRANCH   1  22
TORSDOF 21
ENDMDL
MODEL 3
REMARK VINA RESULT:     -11.1      3.815     10.607
REMARK SMILES Cc1cccc(-c2cccc(C(=O)OCCOCCOCCOC(=O)c3ccc(-c4c5nc(c(-c6c(F)cc(S(=O)(=O)[O-])cc6F)c6ccc([nH]6)c(-c6c(F)cc(S(=O)(=O)[O-])cc6F)c6nc(c(-c7c(F)cc(S(=O)(=O)[O-])cc7F)c7ccc4[nH]7)C=C6)C=C5)cc3)c2)c1
REMARK SMILES IDX 19 1 18 2 17 3 16 4 15 5 14 6 12 7 13 8 11 9 7 10 8 11 92 12
REMARK SMILES IDX 9 13 10 14 6 15 1 16 2 17 3 18 93 19 4 20 5 21 20 22 21 23
REMARK SMILES IDX 22 24 23 25 24 26 25 27 26 28 27 29 91 30 28 31 90 32 29 33
REMARK SMILES IDX 30 34 31 35 84 36 32 37 89 38 83 39 85 40 33 41 88 42 82 43
REMARK SMILES IDX 81 44 34 46 68 47 47 48 67 49 48 50 51 51 66 52 86 53 49 54
REMARK SMILES IDX 50 55 65 57 87 58 52 59 35 60 36 61 45 62 37 63 38 64 44 65
REMARK SMILES IDX 46 66 39 67 40 68 41 69 42 70 43 71 69 72 70 73 79 74 71 75
REMARK SMILES IDX 72 76 78 77 80 78 73 79 74 80 75 81 76 82 77 83 53 84 54 85
REMARK SMILES IDX 63 86 55 87 56 88 62 89 64 90 57 91 58 92 59 93 60 94 61 95
REMARK H PARENT 85 45 51 56
REMARK Flexibility Score: inf
ROOT
ATOM      1  C   UNL A   1      40.326  28.446  33.013  1.00  0.00     0.188 C 
ENDROOT
BRANCH   1   2
ATOM      2  C   UNL A   1      39.126  28.085  32.156  1.00  0.00     0.188 C 
BRANCH   2   3
ATOM      3  O   UNL A   1      37.854  27.946  32.696  1.00  0.00    -0.376 OA
BRANCH   3   4
ATOM      4  C   UNL A   1      37.088  29.072  32.422  1.00  0.00     0.202 C 
BRANCH   4   5
ATOM      5  C   UNL A   1      36.746  29.311  30.901  1.00  0.00     0.261 C 
BRANCH   5   6
ATOM      6  O   UNL A   1      35.859  30.632  29.985  1.00  0.00    -0.460 OA
BRANCH   6   7
ATOM      7  C   UNL A   1      35.324  31.084  28.532  1.00  0.00     0.338 C 
ATOM      8  O   UNL A   1      35.889  31.788  27.678  1.00  0.00    -0.246 OA
BRANCH   7   9
ATOM      9  C   UNL A   1      34.213  30.527  27.760  1.00  0.00     0.060 A 
ATOM     10  C   UNL A   1      33.523  28.800  26.099  1.00  0.00    -0.018 A 
ATOM     11  C   UNL A   1      32.370  29.573  25.930  1.00  0.00     0.009 A 
ATOM     12  C   UNL A   1      34.452  29.313  27.000  1.00  0.00     0.024 A 
ATOM     13  C   UNL A   1      32.193  30.815  26.582  1.00  0.00     0.002 A 
ATOM     14  C   UNL A   1      33.123  31.309  27.490  1.00  0.00     0.016 A 
BRANCH  10  15
ATOM     15  C   UNL A   1      33.714  27.521  25.373  1.00  0.00    -0.018 A 
ATOM     16  C   UNL A   1      33.227  26.064  21.851  1.00  0.00     0.044 C 
ATOM     17  C   UNL A   1      33.530  26.170  23.318  1.00  0.00    -0.051 A 
ATOM     18  C   UNL A   1      33.810  25.012  24.051  1.00  0.00     0.003 A 
ATOM     19  C   UNL A   1      33.497  27.413  23.983  1.00  0.00     0.012 A 
ATOM     20  C   UNL A   1      34.083  25.102  25.415  1.00  0.00     0.001 A 
ATOM     21  C   UNL A   1      34.041  26.343  26.065  1.00  0.00     0.009 A 
ENDBRANCH  10  15
ENDBRANCH   7   9
ENDBRANCH   6   7
ENDBRANCH   5   6
ENDBRANCH   4   5
ENDBRANCH   3   4
ENDBRANCH   2   3
ENDBRANCH   1   2
BRANCH   1  22
ATOM     22  O   UNL A   1      40.669  27.430  33.918  1.00  0.00    -0.376 OA
BRANCH  22  23
ATOM     23  C   UNL A   1      41.862  27.781  34.633  1.00  0.00     0.202 C 
BRANCH  23  24
ATOM     24  C   UNL A   1      43.263  27.261  34.008  1.00  0.00     0.261 C 
BRANCH  24  25
ATOM     25  O   UNL A   1      43.405  25.733  33.803  1.00  0.00    -0.460 OA
BRANCH  25  26
ATOM     26  C   UNL A   1      44.391  24.816  33.542  1.00  0.00     0.338 C 
ATOM     27  O   UNL A   1      44.965  24.203  34.463  1.00  0.00    -0.246 OA
BRANCH  26  28
ATOM     28  C   UNL A   1      44.888  24.713  32.004  1.00  0.00     0.060 A 
ATOM     29  C   UNL A   1      45.918  25.540  31.593  1.00  0.00     0.016 A 
ATOM     30  C   UNL A   1      44.084  24.637  30.905  1.00  0.00     0.016 A 
ATOM     31  C   UNL A   1      45.684  26.837  31.032  1.00  0.00     0.010 A 
ATOM     32  C   UNL A   1      43.886  25.875  30.198  1.00  0.00     0.010 A 
ATOM     33  C   UNL A   1      44.441  27.182  30.603  1.00  0.00    -0.014 A 
BRANCH  33  34
ATOM     34  C   UNL A   1      43.986  28.929  30.472  1.00  0.00     0.031 A 
ATOM     35  C   UNL A   1      43.906  30.250  31.817  1.00  0.00     0.074 A 
ATOM     36  C   UNL A   1      43.783  29.198  29.149  1.00  0.00     0.049 A 
ATOM     37  N   UNL A   1      42.839  30.862  32.294  1.00  0.00    -0.248 NA
ATOM     38  C   UNL A   1      44.969  30.518  33.126  1.00  0.00     0.031 C 
ATOM     39  C   UNL A   1      43.535  30.425  28.395  1.00  0.00     0.029 A 
ATOM     40  N   UNL A   1      43.712  28.232  28.128  1.00  0.00    -0.354 N 
ATOM     41  C   UNL A   1      43.269  31.616  33.428  1.00  0.00     0.074 A 
ATOM     42  C   UNL A   1      44.167  30.814  34.128  1.00  0.00     0.031 C 
ATOM     43  C   UNL A   1      42.917  30.092  27.235  1.00  0.00     0.029 A 
ATOM     44  C   UNL A   1      42.715  28.642  27.242  1.00  0.00     0.049 A 
ATOM     45  H   UNL A   1      44.263  27.419  28.053  1.00  0.00     0.167 HD
ATOM     46  C   UNL A   1      43.472  32.976  33.333  1.00  0.00     0.037 A 
ATOM     47  C   UNL A   1      41.518  27.999  27.410  1.00  0.00     0.037 A 
ATOM     48  C   UNL A   1      42.889  33.349  32.052  1.00  0.00     0.049 A 
ATOM     49  C   UNL A   1      40.599  28.986  28.230  1.00  0.00     0.074 A 
ATOM     50  C   UNL A   1      43.399  33.647  30.803  1.00  0.00     0.029 A 
ATOM     51  N   UNL A   1      41.613  32.853  31.827  1.00  0.00    -0.354 N 
ATOM     52  N   UNL A   1      40.994  29.861  29.147  1.00  0.00    -0.248 NA
ATOM     53  C   UNL A   1      39.224  29.250  27.818  1.00  0.00     0.031 C 
ATOM     54  C   UNL A   1      42.423  33.201  29.835  1.00  0.00     0.029 A 
ATOM     55  C   UNL A   1      41.366  32.582  30.493  1.00  0.00     0.049 A 
ATOM     56  H   UNL A   1      40.952  32.709  32.544  1.00  0.00     0.167 HD
ATOM     57  C   UNL A   1      40.008  30.807  29.392  1.00  0.00     0.074 A 
ATOM     58  C   UNL A   1      38.929  30.361  28.519  1.00  0.00     0.031 C 
ATOM     59  C   UNL A   1      40.075  31.943  30.186  1.00  0.00     0.037 A 
BRANCH  46  60
ATOM     60  C   UNL A   1      44.420  33.855  34.209  1.00  0.00     0.058 A 
ATOM     61  C   UNL A   1      43.851  34.554  35.292  1.00  0.00     0.135 A 
ATOM     62  C   UNL A   1      45.830  34.092  34.089  1.00  0.00     0.135 A 
ATOM     63  F   UNL A   1      42.539  34.454  35.546  1.00  0.00    -0.206 F 
ATOM     64  C   UNL A   1      44.584  35.376  36.169  1.00  0.00     0.059 A 
ATOM     65  C   UNL A   1      46.583  34.906  34.955  1.00  0.00     0.059 A 
ATOM     66  F   UNL A   1      46.595  33.579  33.121  1.00  0.00    -0.206 F 
ATOM     67  C   UNL A   1      45.953  35.541  36.003  1.00  0.00     0.060 A 
BRANCH  67  68
ATOM     68  S   UNL A   1      46.885  36.552  37.173  1.00  0.00     0.124 S 
ATOM     69  O   UNL A   1      45.824  37.293  37.848  1.00  0.00    -0.237 OA
ATOM     70  O   UNL A   1      47.566  35.540  37.973  1.00  0.00    -0.237 OA
ATOM     71  O   UNL A   1      47.757  37.357  36.320  1.00  0.00    -0.744 OA
ENDBRANCH  67  68
ENDBRANCH  46  60
BRANCH  47  72
ATOM     72  C   UNL A   1      41.663  26.438  27.420  1.00  0.00     0.058 A 
ATOM     73  C   UNL A   1      40.835  25.644  28.294  1.00  0.00     0.135 A 
ATOM     74  C   UNL A   1      42.367  25.662  26.486  1.00  0.00     0.135 A 
ATOM     75  F   UNL A   1      40.153  26.252  29.283  1.00  0.00    -0.206 F 
ATOM     76  C   UNL A   1      40.605  24.245  28.154  1.00  0.00     0.059 A 
ATOM     77  C   UNL A   1      42.169  24.250  26.341  1.00  0.00     0.059 A 
ATOM     78  F   UNL A   1      43.115  26.269  25.555  1.00  0.00    -0.206 F 
ATOM     79  C   UNL A   1      41.265  23.542  27.153  1.00  0.00     0.060 A 
BRANCH  79  80
ATOM     80  S   UNL A   1      40.729  21.818  26.666  1.00  0.00     0.124 S 
ATOM     81  O   UNL A   1      40.750  21.114  27.942  1.00  0.00    -0.237 OA
ATOM     82  O   UNL A   1      39.408  21.980  26.067  1.00  0.00    -0.237 OA
ATOM     83  O   UNL A   1      41.760  21.411  25.711  1.00  0.00    -0.744 OA
ENDBRANCH  79  80
ENDBRANCH  47  72
BRANCH  59  84
ATOM     84  C   UNL A   1      38.835  32.591  30.878  1.00  0.00     0.058 A 
ATOM     85  C   UNL A   1      37.892  33.395  30.219  1.00  0.00     0.135 A 
ATOM     86  C   UNL A   1      38.454  32.250  32.217  1.00  0.00     0.135 A 
ATOM     87  F   UNL A   1      37.999  33.705  28.922  1.00  0.00    -0.206 F 
ATOM     88  C   UNL A   1      36.758  33.907  30.857  1.00  0.00     0.059 A 
ATOM     89  C   UNL A   1      37.246  32.607  32.806  1.00  0.00     0.059 A 
ATOM     90  F   UNL A   1      39.241  31.550  33.047  1.00  0.00    -0.206 F 
ATOM     91  C   UNL A   1      36.439  33.503  32.146  1.00  0.00     0.060 A 
BRANCH  91  92
ATOM     92  S   UNL A   1      35.009  34.198  32.975  1.00  0.00     0.124 S 
ATOM     93  O   UNL A   1      35.530  35.497  33.393  1.00  0.00    -0.237 OA
ATOM     94  O   UNL A   1      34.010  34.229  31.912  1.00  0.00    -0.237 OA
ATOM     95  O   UNL A   1      34.741  33.253  34.054  1.00  0.00    -0.744 OA
ENDBRANCH  91  92
ENDBRANCH  59  84
ENDBRANCH  33  34
ENDBRANCH  26  28
ENDBRANCH  25  26
ENDBRANCH  24  25
ENDBRANCH  23  24
ENDBRANCH  22  23
ENDBRANCH   1  22
TORSDOF 21
ENDMDL
