MODEL 1
REMARK VINA RESULT:     -10.5      0.000      0.000
REMARK SMILES COc1ccccc1C(=O)N1[C@@H](C(=O)OCCOCCOCCOC(=O)c2ccc(-c3c4nc(c(-c5c(F)cc(S(=O)(=O)[O-])cc5F)c5ccc([nH]5)c(-c5c(F)cc(S(=O)(=O)[O-])cc5F)c5nc(c(-c6c(F)cc(S(=O)(=O)[O-])cc6F)c6ccc3[nH]6)C=C5)C=C4)cc2)COC12CC[NH+](Cc1ccccc1)CC2
REMARK SMILES IDX 19 1 18 2 17 3 16 4 15 5 13 6 14 7 12 8 11 9 95 10 93 11
REMARK SMILES IDX 94 12 96 13 107 14 97 15 106 16 98 17 9 19 10 20 8 21 3 22
REMARK SMILES IDX 4 23 5 24 7 25 6 26 2 27 1 28 99 29 100 30 101 31 105 32
REMARK SMILES IDX 102 33 104 34 103 35 20 36 21 37 22 38 23 39 24 40 25 41
REMARK SMILES IDX 26 42 27 43 28 44 92 45 29 46 91 47 30 48 31 49 32 50 85 51
REMARK SMILES IDX 33 52 90 53 84 54 86 55 34 56 89 57 83 58 82 59 35 61 69 62
REMARK SMILES IDX 48 63 68 64 49 65 52 66 67 67 87 68 50 69 51 70 66 72 88 73
REMARK SMILES IDX 53 74 36 75 37 76 46 77 38 78 39 79 45 80 47 81 40 82 41 83
REMARK SMILES IDX 42 84 43 85 44 86 70 87 71 88 80 89 72 90 73 91 79 92 81 93
REMARK SMILES IDX 74 94 75 95 76 96 77 97 78 98 54 99 55 100 64 101 56 102
REMARK SMILES IDX 57 103 63 104 65 105 58 106 59 107 60 108 61 109 62 110
REMARK H PARENT 98 18 86 60 52 71
REMARK Flexibility Score: inf
ROOT
ATOM      1  C   UNL A   1      34.306  30.947  27.434  1.00  0.00     0.188 C 
ENDROOT
BRANCH   1   2
ATOM      2  O   UNL A   1      33.075  30.241  27.464  1.00  0.00    -0.376 OA
BRANCH   2   3
ATOM      3  C   UNL A   1      32.397  30.014  26.229  1.00  0.00     0.202 C 
BRANCH   3   4
ATOM      4  C   UNL A   1      32.357  28.600  25.634  1.00  0.00     0.261 C 
BRANCH   4   5
ATOM      5  O   UNL A   1      32.162  28.558  24.202  1.00  0.00    -0.462 OA
BRANCH   5   6
ATOM      6  C   UNL A   1      32.326  27.355  23.593  1.00  0.00     0.331 C 
ATOM      7  O   UNL A   1      32.699  27.238  22.429  1.00  0.00    -0.250 OA
BRANCH   6   8
ATOM      8  C   UNL A   1      31.860  26.152  24.425  1.00  0.00     0.224 C 
ATOM      9  N   UNL A   1      32.766  25.057  24.149  1.00  0.00    -0.293 N 
ATOM     10  C   UNL A   1      31.994  23.812  24.022  1.00  0.00     0.155 C 
ATOM     11  C   UNL A   1      30.484  25.541  24.255  1.00  0.00     0.200 C 
ATOM     12  O   UNL A   1      30.684  24.272  23.612  1.00  0.00    -0.352 OA
ATOM     13  C   UNL A   1      32.522  22.956  22.880  1.00  0.00     0.120 C 
ATOM     14  C   UNL A   1      31.782  23.031  25.335  1.00  0.00     0.120 C 
ATOM     15  C   UNL A   1      31.945  21.565  22.807  1.00  0.00     0.267 C 
ATOM     16  C   UNL A   1      31.384  21.560  25.123  1.00  0.00     0.267 C 
ATOM     17  N   UNL A   1      32.098  20.852  24.065  1.00  0.00    -0.331 N 
ATOM     18  H   UNL A   1      31.630  19.949  23.990  1.00  0.00     0.348 HD
BRANCH   9  19
ATOM     19  C   UNL A   1      34.011  25.157  24.746  1.00  0.00     0.260 C 
ATOM     20  O   UNL A   1      34.425  26.263  25.101  1.00  0.00    -0.269 OA
BRANCH  19  21
ATOM     21  C   UNL A   1      34.959  23.978  24.728  1.00  0.00     0.082 A 
ATOM     22  C   UNL A   1      35.309  23.123  25.785  1.00  0.00     0.131 A 
ATOM     23  C   UNL A   1      36.381  22.222  25.662  1.00  0.00     0.047 A 
ATOM     24  C   UNL A   1      37.061  22.084  24.460  1.00  0.00     0.004 A 
ATOM     25  C   UNL A   1      35.623  23.771  23.501  1.00  0.00     0.018 A 
ATOM     26  C   UNL A   1      36.658  22.836  23.366  1.00  0.00     0.001 A 
BRANCH  22  27
ATOM     27  O   UNL A   1      34.757  23.125  27.032  1.00  0.00    -0.496 OA
ATOM     28  C   UNL A   1      34.449  21.805  27.462  1.00  0.00     0.278 C 
ENDBRANCH  22  27
ENDBRANCH  19  21
ENDBRANCH   9  19
BRANCH  17  29
ATOM     29  C   UNL A   1      33.447  20.326  24.347  1.00  0.00     0.299 C 
BRANCH  29  30
ATOM     30  C   UNL A   1      33.694  18.830  24.356  1.00  0.00     0.006 A 
ATOM     31  C   UNL A   1      34.954  18.298  24.669  1.00  0.00     0.009 A 
ATOM     32  C   UNL A   1      32.664  17.934  24.028  1.00  0.00     0.009 A 
ATOM     33  C   UNL A   1      35.148  16.914  24.726  1.00  0.00     0.001 A 
ATOM     34  C   UNL A   1      32.836  16.555  24.165  1.00  0.00     0.001 A 
ATOM     35  C   UNL A   1      34.079  16.045  24.521  1.00  0.00     0.000 A 
ENDBRANCH  29  30
ENDBRANCH  17  29
ENDBRANCH   6   8
ENDBRANCH   5   6
ENDBRANCH   4   5
ENDBRANCH   3   4
ENDBRANCH   2   3
ENDBRANCH   1   2
BRANCH   1  36
ATOM     36  C   UNL A   1      34.344  32.306  28.134  1.00  0.00     0.188 C 
BRANCH  36  37
ATOM     37  O   UNL A   1      35.419  32.486  29.030  1.00  0.00    -0.376 OA
BRANCH  37  38
ATOM     38  C   UNL A   1      35.271  32.035  30.368  1.00  0.00     0.202 C 
BRANCH  38  39
ATOM     39  C   UNL A   1      35.856  30.689  30.844  1.00  0.00     0.261 C 
BRANCH  39  40
ATOM     40  O   UNL A   1      36.840  30.724  31.892  1.00  0.00    -0.460 OA
BRANCH  40  41
ATOM     41  C   UNL A   1      37.784  31.703  31.847  1.00  0.00     0.338 C 
ATOM     42  O   UNL A   1      37.799  32.720  32.497  1.00  0.00    -0.246 OA
BRANCH  41  43
ATOM     43  C   UNL A   1      38.952  31.128  31.109  1.00  0.00     0.060 A 
ATOM     44  C   UNL A   1      39.964  30.490  31.849  1.00  0.00     0.016 A 
ATOM     45  C   UNL A   1      38.988  31.106  29.714  1.00  0.00     0.016 A 
ATOM     46  C   UNL A   1      41.023  29.851  31.196  1.00  0.00     0.010 A 
ATOM     47  C   UNL A   1      40.068  30.501  29.062  1.00  0.00     0.010 A 
ATOM     48  C   UNL A   1      41.106  29.902  29.800  1.00  0.00    -0.014 A 
BRANCH  48  49
ATOM     49  C   UNL A   1      42.396  29.602  29.129  1.00  0.00     0.031 A 
ATOM     50  C   UNL A   1      42.594  28.197  28.623  1.00  0.00     0.074 A 
ATOM     51  C   UNL A   1      43.365  30.520  28.967  1.00  0.00     0.049 A 
ATOM     52  N   UNL A   1      43.652  27.639  28.100  1.00  0.00    -0.248 NA
ATOM     53  C   UNL A   1      41.432  27.299  28.738  1.00  0.00     0.031 C 
ATOM     54  C   UNL A   1      43.280  31.925  29.357  1.00  0.00     0.029 A 
ATOM     55  N   UNL A   1      44.629  30.393  28.439  1.00  0.00    -0.354 N 
ATOM     56  C   UNL A   1      43.289  26.322  27.839  1.00  0.00     0.074 A 
ATOM     57  C   UNL A   1      41.924  26.158  28.286  1.00  0.00     0.031 C 
ATOM     58  C   UNL A   1      44.451  32.526  29.077  1.00  0.00     0.029 A 
ATOM     59  C   UNL A   1      45.382  31.540  28.524  1.00  0.00     0.049 A 
ATOM     60  H   UNL A   1      44.962  29.557  28.039  1.00  0.00     0.167 HD
ATOM     61  C   UNL A   1      44.024  25.337  27.273  1.00  0.00     0.037 A 
ATOM     62  C   UNL A   1      46.678  31.756  28.219  1.00  0.00     0.037 A 
ATOM     63  C   UNL A   1      45.385  25.502  26.840  1.00  0.00     0.049 A 
ATOM     64  C   UNL A   1      47.509  30.625  27.663  1.00  0.00     0.074 A 
ATOM     65  C   UNL A   1      46.216  24.569  26.246  1.00  0.00     0.029 A 
ATOM     66  N   UNL A   1      46.120  26.672  26.966  1.00  0.00    -0.354 N 
ATOM     67  N   UNL A   1      47.155  29.386  27.408  1.00  0.00    -0.248 NA
ATOM     68  C   UNL A   1      48.916  30.919  27.352  1.00  0.00     0.031 C 
ATOM     69  C   UNL A   1      47.473  25.158  26.068  1.00  0.00     0.029 A 
ATOM     70  C   UNL A   1      47.405  26.478  26.487  1.00  0.00     0.049 A 
ATOM     71  H   UNL A   1      45.778  27.516  27.339  1.00  0.00     0.167 HD
ATOM     72  C   UNL A   1      48.284  28.766  26.878  1.00  0.00     0.074 A 
ATOM     73  C   UNL A   1      49.331  29.765  26.845  1.00  0.00     0.031 C 
ATOM     74  C   UNL A   1      48.437  27.485  26.452  1.00  0.00     0.037 A 
BRANCH  61  75
ATOM     75  C   UNL A   1      43.378  23.985  27.141  1.00  0.00     0.058 A 
ATOM     76  C   UNL A   1      43.383  23.052  28.191  1.00  0.00     0.135 A 
ATOM     77  C   UNL A   1      42.752  23.616  25.940  1.00  0.00     0.135 A 
ATOM     78  F   UNL A   1      43.989  23.344  29.353  1.00  0.00    -0.206 F 
ATOM     79  C   UNL A   1      42.822  21.788  28.042  1.00  0.00     0.059 A 
ATOM     80  C   UNL A   1      42.156  22.368  25.780  1.00  0.00     0.059 A 
ATOM     81  F   UNL A   1      42.724  24.465  24.901  1.00  0.00    -0.206 F 
ATOM     82  C   UNL A   1      42.214  21.454  26.830  1.00  0.00     0.060 A 
BRANCH  82  83
ATOM     83  S   UNL A   1      41.506  19.804  26.647  1.00  0.00     0.124 S 
ATOM     84  O   UNL A   1      40.077  20.093  26.708  1.00  0.00    -0.237 OA
ATOM     85  O   UNL A   1      42.014  19.392  25.342  1.00  0.00    -0.237 OA
ATOM     86  O   UNL A   1      42.048  19.073  27.787  1.00  0.00    -0.744 OA
ENDBRANCH  82  83
ENDBRANCH  61  75
BRANCH  62  87
ATOM     87  C   UNL A   1      47.280  33.099  28.450  1.00  0.00     0.058 A 
ATOM     88  C   UNL A   1      47.277  34.080  27.447  1.00  0.00     0.135 A 
ATOM     89  C   UNL A   1      47.862  33.432  29.684  1.00  0.00     0.135 A 
ATOM     90  F   UNL A   1      46.754  33.806  26.244  1.00  0.00    -0.206 F 
ATOM     91  C   UNL A   1      47.827  35.342  27.658  1.00  0.00     0.059 A 
ATOM     92  C   UNL A   1      48.394  34.695  29.928  1.00  0.00     0.059 A 
ATOM     93  F   UNL A   1      47.892  32.530  30.678  1.00  0.00    -0.206 F 
ATOM     94  C   UNL A   1      48.376  35.643  28.906  1.00  0.00     0.060 A 
BRANCH  94  95
ATOM     95  S   UNL A   1      49.020  37.307  29.191  1.00  0.00     0.124 S 
ATOM     96  O   UNL A   1      48.795  37.470  30.622  1.00  0.00    -0.237 OA
ATOM     97  O   UNL A   1      50.412  37.171  28.775  1.00  0.00    -0.237 OA
ATOM     98  O   UNL A   1      48.193  38.141  28.324  1.00  0.00    -0.744 OA
ENDBRANCH  94  95
ENDBRANCH  62  87
BRANCH  74  99
ATOM     99  C   UNL A   1      49.769  27.092  25.867  1.00  0.00     0.058 A 
ATOM    100  C   UNL A   1      50.059  27.245  24.504  1.00  0.00     0.135 A 
ATOM    101  C   UNL A   1      50.797  26.625  26.705  1.00  0.00     0.135 A 
ATOM    102  F   UNL A   1      49.114  27.685  23.657  1.00  0.00    -0.206 F 
ATOM    103  C   UNL A   1      51.312  26.929  23.986  1.00  0.00     0.059 A 
ATOM    104  C   UNL A   1      52.066  26.333  26.215  1.00  0.00     0.059 A 
ATOM    105  F   UNL A   1      50.580  26.473  28.021  1.00  0.00    -0.206 F 
ATOM    106  C   UNL A   1      52.311  26.478  24.851  1.00  0.00     0.060 A 
BRANCH 106 107
ATOM    107  S   UNL A   1      53.944  26.110  24.173  1.00  0.00     0.124 S 
ATOM    108  O   UNL A   1      53.669  26.083  22.740  1.00  0.00    -0.237 OA
ATOM    109  O   UNL A   1      54.739  27.240  24.645  1.00  0.00    -0.237 OA
ATOM    110  O   UNL A   1      54.279  24.821  24.772  1.00  0.00    -0.744 OA
ENDBRANCH 106 107
ENDBRANCH  74  99
ENDBRANCH  48  49
ENDBRANCH  41  43
ENDBRANCH  40  41
ENDBRANCH  39  40
ENDBRANCH  38  39
ENDBRANCH  37  38
ENDBRANCH  36  37
ENDBRANCH   1  36
TORSDOF 25
ENDMDL
MODEL 2
REMARK VINA RESULT:     -10.1      1.357      8.091
REMARK SMILES COc1ccccc1C(=O)N1[C@@H](C(=O)OCCOCCOCCOC(=O)c2ccc(-c3c4nc(c(-c5c(F)cc(S(=O)(=O)[O-])cc5F)c5ccc([nH]5)c(-c5c(F)cc(S(=O)(=O)[O-])cc5F)c5nc(c(-c6c(F)cc(S(=O)(=O)[O-])cc6F)c6ccc3[nH]6)C=C5)C=C4)cc2)COC12CC[NH+](Cc1ccccc1)CC2
REMARK SMILES IDX 19 1 18 2 17 3 16 4 15 5 13 6 14 7 12 8 11 9 95 10 93 11
REMARK SMILES IDX 94 12 96 13 107 14 97 15 106 16 98 17 9 19 10 20 8 21 3 22
REMARK SMILES IDX 4 23 5 24 7 25 6 26 2 27 1 28 99 29 100 30 101 31 105 32
REMARK SMILES IDX 102 33 104 34 103 35 20 36 21 37 22 38 23 39 24 40 25 41
REMARK SMILES IDX 26 42 27 43 28 44 92 45 29 46 91 47 30 48 31 49 32 50 85 51
REMARK SMILES IDX 33 52 90 53 84 54 86 55 34 56 89 57 83 58 82 59 35 61 69 62
REMARK SMILES IDX 48 63 68 64 49 65 52 66 67 67 87 68 50 69 51 70 66 72 88 73
REMARK SMILES IDX 53 74 36 75 37 76 46 77 38 78 39 79 45 80 47 81 40 82 41 83
REMARK SMILES IDX 42 84 43 85 44 86 70 87 71 88 80 89 72 90 73 91 79 92 81 93
REMARK SMILES IDX 74 94 75 95 76 96 77 97 78 98 54 99 55 100 64 101 56 102
REMARK SMILES IDX 57 103 63 104 65 105 58 106 59 107 60 108 61 109 62 110
REMARK H PARENT 98 18 86 60 52 71
REMARK Flexibility Score: inf
ROOT
ATOM      1  C   UNL A   1      32.321  30.862  26.182  1.00  0.00     0.188 C 
ENDROOT
BRANCH   1   2
ATOM      2  O   UNL A   1      31.478  29.734  26.366  1.00  0.00    -0.376 OA
BRANCH   2   3
ATOM      3  C   UNL A   1      31.759  28.853  27.452  1.00  0.00     0.202 C 
BRANCH   3   4
ATOM      4  C   UNL A   1      32.960  27.901  27.366  1.00  0.00     0.261 C 
BRANCH   4   5
ATOM      5  O   UNL A   1      32.823  26.851  26.382  1.00  0.00    -0.462 OA
BRANCH   5   6
ATOM      6  C   UNL A   1      33.607  26.936  25.276  1.00  0.00     0.331 C 
ATOM      7  O   UNL A   1      33.663  27.939  24.570  1.00  0.00    -0.250 OA
BRANCH   6   8
ATOM      8  C   UNL A   1      34.302  25.624  24.887  1.00  0.00     0.224 C 
ATOM      9  N   UNL A   1      33.369  24.547  25.141  1.00  0.00    -0.293 N 
ATOM     10  C   UNL A   1      34.089  23.416  25.743  1.00  0.00     0.155 C 
ATOM     11  C   UNL A   1      35.582  25.165  25.554  1.00  0.00     0.200 C 
ATOM     12  O   UNL A   1      35.226  24.046  26.382  1.00  0.00    -0.352 OA
ATOM     13  C   UNL A   1      33.273  22.780  26.858  1.00  0.00     0.120 C 
ATOM     14  C   UNL A   1      34.671  22.396  24.742  1.00  0.00     0.120 C 
ATOM     15  C   UNL A   1      33.823  21.480  27.390  1.00  0.00     0.267 C 
ATOM     16  C   UNL A   1      35.011  21.035  25.373  1.00  0.00     0.267 C 
ATOM     17  N   UNL A   1      34.038  20.512  26.326  1.00  0.00    -0.331 N 
ATOM     18  H   UNL A   1      34.478  19.681  26.722  1.00  0.00     0.348 HD
BRANCH   9  19
ATOM     19  C   UNL A   1      32.340  24.430  24.222  1.00  0.00     0.260 C 
ATOM     20  O   UNL A   1      31.250  23.982  24.588  1.00  0.00    -0.269 OA
BRANCH  19  21
ATOM     21  C   UNL A   1      32.618  24.598  22.744  1.00  0.00     0.082 A 
ATOM     22  C   UNL A   1      32.417  25.732  21.941  1.00  0.00     0.131 A 
ATOM     23  C   UNL A   1      32.504  25.651  20.541  1.00  0.00     0.047 A 
ATOM     24  C   UNL A   1      32.887  24.471  19.918  1.00  0.00     0.004 A 
ATOM     25  C   UNL A   1      33.068  23.431  22.090  1.00  0.00     0.018 A 
ATOM     26  C   UNL A   1      33.203  23.368  20.697  1.00  0.00     0.001 A 
BRANCH  22  27
ATOM     27  O   UNL A   1      32.031  26.964  22.380  1.00  0.00    -0.496 OA
ATOM     28  C   UNL A   1      30.616  27.100  22.356  1.00  0.00     0.278 C 
ENDBRANCH  22  27
ENDBRANCH  19  21
ENDBRANCH   9  19
BRANCH  17  29
ATOM     29  C   UNL A   1      32.829  19.841  25.811  1.00  0.00     0.299 C 
BRANCH  29  30
ATOM     30  C   UNL A   1      32.944  18.801  24.714  1.00  0.00     0.006 A 
ATOM     31  C   UNL A   1      32.430  19.032  23.429  1.00  0.00     0.009 A 
ATOM     32  C   UNL A   1      33.554  17.562  24.965  1.00  0.00     0.009 A 
ATOM     33  C   UNL A   1      32.595  18.084  22.415  1.00  0.00     0.001 A 
ATOM     34  C   UNL A   1      33.790  16.652  23.934  1.00  0.00     0.001 A 
ATOM     35  C   UNL A   1      33.314  16.916  22.655  1.00  0.00     0.000 A 
ENDBRANCH  29  30
ENDBRANCH  17  29
ENDBRANCH   6   8
ENDBRANCH   5   6
ENDBRANCH   4   5
ENDBRANCH   3   4
ENDBRANCH   2   3
ENDBRANCH   1   2
BRANCH   1  36
ATOM     36  C   UNL A   1      31.915  32.154  26.892  1.00  0.00     0.188 C 
BRANCH  36  37
ATOM     37  O   UNL A   1      32.955  32.808  27.585  1.00  0.00    -0.376 OA
BRANCH  37  38
ATOM     38  C   UNL A   1      33.851  32.025  28.360  1.00  0.00     0.202 C 
BRANCH  38  39
ATOM     39  C   UNL A   1      35.380  32.107  28.169  1.00  0.00     0.261 C 
BRANCH  39  40
ATOM     40  O   UNL A   1      36.212  31.619  29.234  1.00  0.00    -0.460 OA
BRANCH  40  41
ATOM     41  C   UNL A   1      36.380  30.273  29.347  1.00  0.00     0.338 C 
ATOM     42  O   UNL A   1      35.510  29.437  29.362  1.00  0.00    -0.246 OA
BRANCH  41  43
ATOM     43  C   UNL A   1      37.832  30.009  29.101  1.00  0.00     0.060 A 
ATOM     44  C   UNL A   1      38.249  29.714  27.790  1.00  0.00     0.016 A 
ATOM     45  C   UNL A   1      38.779  30.172  30.113  1.00  0.00     0.016 A 
ATOM     46  C   UNL A   1      39.607  29.560  27.496  1.00  0.00     0.010 A 
ATOM     47  C   UNL A   1      40.135  29.978  29.827  1.00  0.00     0.010 A 
ATOM     48  C   UNL A   1      40.550  29.637  28.526  1.00  0.00    -0.014 A 
BRANCH  48  49
ATOM     49  C   UNL A   1      41.912  29.081  28.320  1.00  0.00     0.031 A 
ATOM     50  C   UNL A   1      43.061  30.054  28.359  1.00  0.00     0.074 A 
ATOM     51  C   UNL A   1      42.141  27.774  28.103  1.00  0.00     0.049 A 
ATOM     52  N   UNL A   1      44.328  29.861  28.108  1.00  0.00    -0.248 NA
ATOM     53  C   UNL A   1      42.723  31.440  28.722  1.00  0.00     0.031 C 
ATOM     54  C   UNL A   1      41.128  26.722  28.098  1.00  0.00     0.029 A 
ATOM     55  N   UNL A   1      43.315  27.113  27.827  1.00  0.00    -0.354 N 
ATOM     56  C   UNL A   1      44.934  31.102  28.267  1.00  0.00     0.074 A 
ATOM     57  C   UNL A   1      43.893  32.045  28.609  1.00  0.00     0.031 C 
ATOM     58  C   UNL A   1      41.720  25.549  27.808  1.00  0.00     0.029 A 
ATOM     59  C   UNL A   1      43.148  25.773  27.569  1.00  0.00     0.049 A 
ATOM     60  H   UNL A   1      44.192  27.559  27.815  1.00  0.00     0.167 HD
ATOM     61  C   UNL A   1      46.242  31.428  28.144  1.00  0.00     0.037 A 
ATOM     62  C   UNL A   1      44.038  24.846  27.157  1.00  0.00     0.037 A 
ATOM     63  C   UNL A   1      47.272  30.489  27.794  1.00  0.00     0.049 A 
ATOM     64  C   UNL A   1      45.479  25.244  26.947  1.00  0.00     0.074 A 
ATOM     65  C   UNL A   1      48.629  30.715  27.652  1.00  0.00     0.029 A 
ATOM     66  N   UNL A   1      47.058  29.146  27.516  1.00  0.00    -0.354 N 
ATOM     67  N   UNL A   1      46.047  26.416  27.112  1.00  0.00    -0.248 NA
ATOM     68  C   UNL A   1      46.403  24.192  26.497  1.00  0.00     0.031 C 
ATOM     69  C   UNL A   1      49.227  29.523  27.230  1.00  0.00     0.029 A 
ATOM     70  C   UNL A   1      48.254  28.537  27.176  1.00  0.00     0.049 A 
ATOM     71  H   UNL A   1      46.185  28.693  27.556  1.00  0.00     0.167 HD
ATOM     72  C   UNL A   1      47.395  26.236  26.816  1.00  0.00     0.074 A 
ATOM     73  C   UNL A   1      47.561  24.840  26.467  1.00  0.00     0.031 C 
ATOM     74  C   UNL A   1      48.406  27.143  26.838  1.00  0.00     0.037 A 
BRANCH  61  75
ATOM     75  C   UNL A   1      46.613  32.872  28.344  1.00  0.00     0.058 A 
ATOM     76  C   UNL A   1      46.663  33.782  27.276  1.00  0.00     0.135 A 
ATOM     77  C   UNL A   1      46.930  33.349  29.626  1.00  0.00     0.135 A 
ATOM     78  F   UNL A   1      46.393  33.374  26.026  1.00  0.00    -0.206 F 
ATOM     79  C   UNL A   1      47.052  35.104  27.466  1.00  0.00     0.059 A 
ATOM     80  C   UNL A   1      47.289  34.676  29.844  1.00  0.00     0.059 A 
ATOM     81  F   UNL A   1      46.905  32.521  30.682  1.00  0.00    -0.206 F 
ATOM     82  C   UNL A   1      47.367  35.540  28.754  1.00  0.00     0.060 A 
BRANCH  82  83
ATOM     83  S   UNL A   1      47.886  37.254  28.981  1.00  0.00     0.124 S 
ATOM     84  O   UNL A   1      47.672  37.434  30.413  1.00  0.00    -0.237 OA
ATOM     85  O   UNL A   1      49.279  37.217  28.548  1.00  0.00    -0.237 OA
ATOM     86  O   UNL A   1      46.982  38.001  28.113  1.00  0.00    -0.744 OA
ENDBRANCH  82  83
ENDBRANCH  61  75
BRANCH  62  87
ATOM     87  C   UNL A   1      43.589  23.450  26.899  1.00  0.00     0.058 A 
ATOM     88  C   UNL A   1      43.295  22.572  27.954  1.00  0.00     0.135 A 
ATOM     89  C   UNL A   1      43.434  22.968  25.589  1.00  0.00     0.135 A 
ATOM     90  F   UNL A   1      43.448  22.977  29.223  1.00  0.00    -0.206 F 
ATOM     91  C   UNL A   1      42.864  21.269  27.721  1.00  0.00     0.059 A 
ATOM     92  C   UNL A   1      42.979  21.677  25.331  1.00  0.00     0.059 A 
ATOM     93  F   UNL A   1      43.701  23.765  24.543  1.00  0.00    -0.206 F 
ATOM     94  C   UNL A   1      42.700  20.833  26.405  1.00  0.00     0.060 A 
BRANCH  94  95
ATOM     95  S   UNL A   1      42.070  19.165  26.117  1.00  0.00     0.124 S 
ATOM     96  O   UNL A   1      40.645  19.415  25.934  1.00  0.00    -0.237 OA
ATOM     97  O   UNL A   1      42.807  18.762  24.923  1.00  0.00    -0.237 OA
ATOM     98  O   UNL A   1      42.432  18.452  27.339  1.00  0.00    -0.744 OA
ENDBRANCH  94  95
ENDBRANCH  62  87
BRANCH  74  99
ATOM     99  C   UNL A   1      49.796  26.655  26.520  1.00  0.00     0.058 A 
ATOM    100  C   UNL A   1      50.600  26.019  27.478  1.00  0.00     0.135 A 
ATOM    101  C   UNL A   1      50.299  26.760  25.211  1.00  0.00     0.135 A 
ATOM    102  F   UNL A   1      50.172  25.893  28.744  1.00  0.00    -0.206 F 
ATOM    103  C   UNL A   1      51.862  25.525  27.157  1.00  0.00     0.059 A 
ATOM    104  C   UNL A   1      51.544  26.245  24.861  1.00  0.00     0.059 A 
ATOM    105  F   UNL A   1      49.567  27.346  24.251  1.00  0.00    -0.206 F 
ATOM    106  C   UNL A   1      52.323  25.639  25.844  1.00  0.00     0.060 A 
BRANCH 106 107
ATOM    107  S   UNL A   1      53.944  24.957  25.432  1.00  0.00     0.124 S 
ATOM    108  O   UNL A   1      53.638  23.539  25.283  1.00  0.00    -0.237 OA
ATOM    109  O   UNL A   1      54.277  25.668  24.201  1.00  0.00    -0.237 OA
ATOM    110  O   UNL A   1      54.764  25.304  26.590  1.00  0.00    -0.744 OA
ENDBRANCH 106 107
ENDBRANCH  74  99
ENDBRANCH  48  49
ENDBRANCH  41  43
ENDBRANCH  40  41
ENDBRANCH  39  40
ENDBRANCH  38  39
ENDBRANCH  37  38
ENDBRANCH  36  37
ENDBRANCH   1  36
TORSDOF 25
ENDMDL
MODEL 3
REMARK VINA RESULT:      -9.5      5.796     10.757
REMARK SMILES COc1ccccc1C(=O)N1[C@@H](C(=O)OCCOCCOCCOC(=O)c2ccc(-c3c4nc(c(-c5c(F)cc(S(=O)(=O)[O-])cc5F)c5ccc([nH]5)c(-c5c(F)cc(S(=O)(=O)[O-])cc5F)c5nc(c(-c6c(F)cc(S(=O)(=O)[O-])cc6F)c6ccc3[nH]6)C=C5)C=C4)cc2)COC12CC[NH+](Cc1ccccc1)CC2
REMARK SMILES IDX 19 1 18 2 17 3 16 4 15 5 13 6 14 7 12 8 11 9 95 10 93 11
REMARK SMILES IDX 94 12 96 13 107 14 97 15 106 16 98 17 9 19 10 20 8 21 3 22
REMARK SMILES IDX 4 23 5 24 7 25 6 26 2 27 1 28 99 29 100 30 101 31 105 32
REMARK SMILES IDX 102 33 104 34 103 35 20 36 21 37 22 38 23 39 24 40 25 41
REMARK SMILES IDX 26 42 27 43 28 44 92 45 29 46 91 47 30 48 31 49 32 50 85 51
REMARK SMILES IDX 33 52 90 53 84 54 86 55 34 56 89 57 83 58 82 59 35 61 69 62
REMARK SMILES IDX 48 63 68 64 49 65 52 66 67 67 87 68 50 69 51 70 66 72 88 73
REMARK SMILES IDX 53 74 36 75 37 76 46 77 38 78 39 79 45 80 47 81 40 82 41 83
REMARK SMILES IDX 42 84 43 85 44 86 70 87 71 88 80 89 72 90 73 91 79 92 81 93
REMARK SMILES IDX 74 94 75 95 76 96 77 97 78 98 54 99 55 100 64 101 56 102
REMARK SMILES IDX 57 103 63 104 65 105 58 106 59 107 60 108 61 109 62 110
REMARK H PARENT 98 18 86 60 52 71
REMARK Flexibility Score: inf
ROOT
ATOM      1  C   UNL A   1      32.253  28.050  25.293  1.00  0.00     0.188 C 
ENDROOT
BRANCH   1   2
ATOM      2  O   UNL A   1      31.964  27.323  26.477  1.00  0.00    -0.376 OA
BRANCH   2   3
ATOM      3  C   UNL A   1      32.210  25.918  26.484  1.00  0.00     0.202 C 
BRANCH   3   4
ATOM      4  C   UNL A   1      31.034  24.942  26.626  1.00  0.00     0.261 C 
BRANCH   4   5
ATOM      5  O   UNL A   1      30.611  24.329  25.387  1.00  0.00    -0.462 OA
BRANCH   5   6
ATOM      6  C   UNL A   1      30.960  23.031  25.190  1.00  0.00     0.331 C 
ATOM      7  O   UNL A   1      30.428  22.097  25.783  1.00  0.00    -0.250 OA
BRANCH   6   8
ATOM      8  C   UNL A   1      32.181  22.832  24.281  1.00  0.00     0.224 C 
ATOM      9  N   UNL A   1      33.262  22.339  25.109  1.00  0.00    -0.293 N 
ATOM     10  C   UNL A   1      34.512  23.005  24.716  1.00  0.00     0.155 C 
ATOM     11  C   UNL A   1      32.804  23.977  23.509  1.00  0.00     0.200 C 
ATOM     12  O   UNL A   1      34.060  24.257  24.147  1.00  0.00    -0.352 OA
ATOM     13  C   UNL A   1      35.345  23.369  25.937  1.00  0.00     0.120 C 
ATOM     14  C   UNL A   1      35.317  22.297  23.607  1.00  0.00     0.120 C 
ATOM     15  C   UNL A   1      36.741  23.853  25.636  1.00  0.00     0.267 C 
ATOM     16  C   UNL A   1      36.788  22.739  23.530  1.00  0.00     0.267 C 
ATOM     17  N   UNL A   1      37.471  22.907  24.809  1.00  0.00    -0.331 N 
ATOM     18  H   UNL A   1      38.378  23.310  24.572  1.00  0.00     0.348 HD
BRANCH   9  19
ATOM     19  C   UNL A   1      33.158  21.011  25.485  1.00  0.00     0.260 C 
ATOM     20  O   UNL A   1      33.540  20.668  26.606  1.00  0.00    -0.269 OA
BRANCH  19  21
ATOM     21  C   UNL A   1      32.829  19.953  24.454  1.00  0.00     0.082 A 
ATOM     22  C   UNL A   1      33.031  18.566  24.531  1.00  0.00     0.131 A 
ATOM     23  C   UNL A   1      32.889  17.750  23.395  1.00  0.00     0.047 A 
ATOM     24  C   UNL A   1      32.449  18.278  22.189  1.00  0.00     0.004 A 
ATOM     25  C   UNL A   1      32.323  20.452  23.235  1.00  0.00     0.018 A 
ATOM     26  C   UNL A   1      32.133  19.627  22.118  1.00  0.00     0.001 A 
BRANCH  22  27
ATOM     27  O   UNL A   1      33.467  17.881  25.626  1.00  0.00    -0.496 OA
ATOM     28  C   UNL A   1      32.819  16.621  25.739  1.00  0.00     0.278 C 
ENDBRANCH  22  27
ENDBRANCH  19  21
ENDBRANCH   9  19
BRANCH  17  29
ATOM     29  C   UNL A   1      37.988  21.711  25.501  1.00  0.00     0.299 C 
BRANCH  29  30
ATOM     30  C   UNL A   1      39.324  21.763  26.216  1.00  0.00     0.006 A 
ATOM     31  C   UNL A   1      40.189  20.658  26.234  1.00  0.00     0.009 A 
ATOM     32  C   UNL A   1      39.723  22.921  26.902  1.00  0.00     0.009 A 
ATOM     33  C   UNL A   1      41.440  20.743  26.852  1.00  0.00     0.001 A 
ATOM     34  C   UNL A   1      41.003  23.032  27.447  1.00  0.00     0.001 A 
ATOM     35  C   UNL A   1      41.866  21.943  27.416  1.00  0.00     0.000 A 
ENDBRANCH  29  30
ENDBRANCH  17  29
ENDBRANCH   6   8
ENDBRANCH   5   6
ENDBRANCH   4   5
ENDBRANCH   3   4
ENDBRANCH   2   3
ENDBRANCH   1   2
BRANCH   1  36
ATOM     36  C   UNL A   1      32.545  29.543  25.449  1.00  0.00     0.188 C 
BRANCH  36  37
ATOM     37  O   UNL A   1      31.410  30.355  25.654  1.00  0.00    -0.376 OA
BRANCH  37  38
ATOM     38  C   UNL A   1      31.532  31.495  26.491  1.00  0.00     0.202 C 
BRANCH  38  39
ATOM     39  C   UNL A   1      32.905  32.106  26.841  1.00  0.00     0.261 C 
BRANCH  39  40
ATOM     40  O   UNL A   1      33.208  32.313  28.231  1.00  0.00    -0.460 OA
BRANCH  40  41
ATOM     41  C   UNL A   1      33.407  33.590  28.657  1.00  0.00     0.338 C 
ATOM     42  O   UNL A   1      32.701  34.543  28.431  1.00  0.00    -0.246 OA
BRANCH  41  43
ATOM     43  C   UNL A   1      34.455  33.519  29.723  1.00  0.00     0.060 A 
ATOM     44  C   UNL A   1      34.663  34.648  30.535  1.00  0.00     0.016 A 
ATOM     45  C   UNL A   1      35.128  32.328  29.998  1.00  0.00     0.016 A 
ATOM     46  C   UNL A   1      35.559  34.594  31.607  1.00  0.00     0.010 A 
ATOM     47  C   UNL A   1      36.055  32.287  31.045  1.00  0.00     0.010 A 
ATOM     48  C   UNL A   1      36.299  33.428  31.832  1.00  0.00    -0.014 A 
BRANCH  48  49
ATOM     49  C   UNL A   1      37.520  33.482  32.675  1.00  0.00     0.031 A 
ATOM     50  C   UNL A   1      38.844  33.543  31.959  1.00  0.00     0.074 A 
ATOM     51  C   UNL A   1      37.480  33.476  34.019  1.00  0.00     0.049 A 
ATOM     52  N   UNL A   1      40.057  33.493  32.439  1.00  0.00    -0.248 NA
ATOM     53  C   UNL A   1      38.780  33.669  30.492  1.00  0.00     0.031 C 
ATOM     54  C   UNL A   1      36.268  33.477  34.834  1.00  0.00     0.029 A 
ATOM     55  N   UNL A   1      38.503  33.450  34.937  1.00  0.00    -0.354 N 
ATOM     56  C   UNL A   1      40.899  33.563  31.335  1.00  0.00     0.074 A 
ATOM     57  C   UNL A   1      40.059  33.632  30.160  1.00  0.00     0.031 C 
ATOM     58  C   UNL A   1      36.617  33.429  36.133  1.00  0.00     0.029 A 
ATOM     59  C   UNL A   1      38.076  33.355  36.240  1.00  0.00     0.049 A 
ATOM     60  H   UNL A   1      39.454  33.496  34.683  1.00  0.00     0.167 HD
ATOM     61  C   UNL A   1      42.252  33.573  31.301  1.00  0.00     0.037 A 
ATOM     62  C   UNL A   1      38.780  33.194  37.379  1.00  0.00     0.037 A 
ATOM     63  C   UNL A   1      43.083  33.492  32.471  1.00  0.00     0.049 A 
ATOM     64  C   UNL A   1      40.287  33.126  37.317  1.00  0.00     0.074 A 
ATOM     65  C   UNL A   1      44.464  33.503  32.546  1.00  0.00     0.029 A 
ATOM     66  N   UNL A   1      42.611  33.371  33.770  1.00  0.00    -0.354 N 
ATOM     67  N   UNL A   1      41.076  33.206  36.271  1.00  0.00    -0.248 NA
ATOM     68  C   UNL A   1      41.001  32.948  38.591  1.00  0.00     0.031 C 
ATOM     69  C   UNL A   1      44.828  33.329  33.885  1.00  0.00     0.029 A 
ATOM     70  C   UNL A   1      43.674  33.279  34.653  1.00  0.00     0.049 A 
ATOM     71  H   UNL A   1      41.661  33.355  34.027  1.00  0.00     0.167 HD
ATOM     72  C   UNL A   1      42.376  33.120  36.763  1.00  0.00     0.074 A 
ATOM     73  C   UNL A   1      42.269  32.987  38.201  1.00  0.00     0.031 C 
ATOM     74  C   UNL A   1      43.553  33.154  36.085  1.00  0.00     0.037 A 
BRANCH  61  75
ATOM     75  C   UNL A   1      42.906  33.625  29.947  1.00  0.00     0.058 A 
ATOM     76  C   UNL A   1      43.093  34.834  29.257  1.00  0.00     0.135 A 
ATOM     77  C   UNL A   1      43.344  32.443  29.329  1.00  0.00     0.135 A 
ATOM     78  F   UNL A   1      42.670  35.991  29.791  1.00  0.00    -0.206 F 
ATOM     79  C   UNL A   1      43.658  34.865  27.986  1.00  0.00     0.059 A 
ATOM     80  C   UNL A   1      43.942  32.455  28.072  1.00  0.00     0.059 A 
ATOM     81  F   UNL A   1      43.184  31.259  29.940  1.00  0.00    -0.206 F 
ATOM     82  C   UNL A   1      44.075  33.668  27.400  1.00  0.00     0.060 A 
BRANCH  82  83
ATOM     83  S   UNL A   1      44.790  33.723  25.744  1.00  0.00     0.124 S 
ATOM     84  O   UNL A   1      43.720  34.366  24.988  1.00  0.00    -0.237 OA
ATOM     85  O   UNL A   1      45.991  34.527  25.950  1.00  0.00    -0.237 OA
ATOM     86  O   UNL A   1      45.025  32.319  25.428  1.00  0.00    -0.744 OA
ENDBRANCH  82  83
ENDBRANCH  61  75
BRANCH  62  87
ATOM     87  C   UNL A   1      38.066  33.067  38.681  1.00  0.00     0.058 A 
ATOM     88  C   UNL A   1      37.361  31.901  39.014  1.00  0.00     0.135 A 
ATOM     89  C   UNL A   1      38.085  34.108  39.623  1.00  0.00     0.135 A 
ATOM     90  F   UNL A   1      37.294  30.886  38.140  1.00  0.00    -0.206 F 
ATOM     91  C   UNL A   1      36.700  31.770  40.233  1.00  0.00     0.059 A 
ATOM     92  C   UNL A   1      37.455  33.991  40.859  1.00  0.00     0.059 A 
ATOM     93  F   UNL A   1      38.744  35.246  39.355  1.00  0.00    -0.206 F 
ATOM     94  C   UNL A   1      36.761  32.818  41.153  1.00  0.00     0.060 A 
BRANCH  94  95
ATOM     95  S   UNL A   1      35.962  32.606  42.760  1.00  0.00     0.124 S 
ATOM     96  O   UNL A   1      34.966  31.583  42.462  1.00  0.00    -0.237 OA
ATOM     97  O   UNL A   1      37.078  32.186  43.602  1.00  0.00    -0.237 OA
ATOM     98  O   UNL A   1      35.432  33.935  43.050  1.00  0.00    -0.744 OA
ENDBRANCH  94  95
ENDBRANCH  62  87
BRANCH  74  99
ATOM     99  C   UNL A   1      44.828  33.094  36.885  1.00  0.00     0.058 A 
ATOM    100  C   UNL A   1      45.426  34.242  37.424  1.00  0.00     0.135 A 
ATOM    101  C   UNL A   1      45.418  31.851  37.180  1.00  0.00     0.135 A 
ATOM    102  F   UNL A   1      44.907  35.455  37.173  1.00  0.00    -0.206 F 
ATOM    103  C   UNL A   1      46.574  34.167  38.208  1.00  0.00     0.059 A 
ATOM    104  C   UNL A   1      46.548  31.749  37.986  1.00  0.00     0.059 A 
ATOM    105  F   UNL A   1      44.880  30.718  36.703  1.00  0.00    -0.206 F 
ATOM    106  C   UNL A   1      47.126  32.915  38.487  1.00  0.00     0.060 A 
BRANCH 106 107
ATOM    107  S   UNL A   1      48.592  32.827  39.537  1.00  0.00     0.124 S 
ATOM    108  O   UNL A   1      49.649  32.631  38.552  1.00  0.00    -0.237 OA
ATOM    109  O   UNL A   1      48.577  34.128  40.201  1.00  0.00    -0.237 OA
ATOM    110  O   UNL A   1      48.322  31.685  40.406  1.00  0.00    -0.744 OA
ENDBRANCH 106 107
ENDBRANCH  74  99
ENDBRANCH  48  49
ENDBRANCH  41  43
ENDBRANCH  40  41
ENDBRANCH  39  40
ENDBRANCH  38  39
ENDBRANCH  37  38
ENDBRANCH  36  37
ENDBRANCH   1  36
TORSDOF 25
ENDMDL
