MODEL 1
REMARK VINA RESULT:      -8.6      0.000      0.000
REMARK SMILES O=C(CCCN1C(=O)/C(=C/c2cc(Br)ccc2O)SC1=S)OCCOCCOCCOC(=O)c1ccc(-c2c3nc(c(-c4c(F)cc(S(=O)(=O)[O-])cc4F)c4ccc([nH]4)c(-c4c(F)cc(S(=O)(=O)[O-])cc4F)c4nc(c(-c5c(F)cc(S(=O)(=O)[O-])cc5F)c5ccc2[nH]5)C=C4)C=C3)cc1
REMARK SMILES IDX 26 1 25 2 24 3 23 4 22 5 2 6 1 7 3 8 4 9 5 10 6 11 7 12
REMARK SMILES IDX 20 13 8 14 9 15 19 16 21 17 10 18 11 19 12 20 17 21 13 22
REMARK SMILES IDX 16 23 14 24 15 25 18 26 27 28 28 29 29 30 30 31 31 32 32 33
REMARK SMILES IDX 33 34 34 35 35 36 99 37 36 38 98 39 37 40 38 41 39 42 92 43
REMARK SMILES IDX 40 44 97 45 91 46 93 47 41 48 96 49 90 50 89 51 42 53 76 54
REMARK SMILES IDX 55 55 75 56 56 57 59 58 74 59 94 60 57 61 58 62 73 64 95 65
REMARK SMILES IDX 60 66 43 67 44 68 53 69 45 70 46 71 52 72 54 73 47 74 48 75
REMARK SMILES IDX 49 76 50 77 51 78 77 79 78 80 87 81 79 82 80 83 86 84 88 85
REMARK SMILES IDX 81 86 82 87 83 88 84 89 85 90 61 91 62 92 71 93 63 94 64 95
REMARK SMILES IDX 70 96 72 97 65 98 66 99 67 100 68 101 69 102
REMARK H PARENT 18 27 93 52 59 63
REMARK Flexibility Score: inf
ROOT
ATOM      1  C   UNL A   1      37.573  32.589  33.280  1.00  0.00     0.188 C 
ENDROOT
BRANCH   1   2
ATOM      2  O   UNL A   1      37.598  33.445  34.417  1.00  0.00    -0.376 OA
BRANCH   2   3
ATOM      3  C   UNL A   1      36.336  33.898  34.895  1.00  0.00     0.202 C 
BRANCH   3   4
ATOM      4  C   UNL A   1      35.131  33.623  34.003  1.00  0.00     0.261 C 
BRANCH   4   5
ATOM      5  O   UNL A   1      34.908  34.449  32.839  1.00  0.00    -0.463 OA
BRANCH   5   6
ATOM      6  C   UNL A   1      34.446  34.023  31.647  1.00  0.00     0.305 C 
ATOM      7  O   UNL A   1      34.033  32.873  31.520  1.00  0.00    -0.252 OA
BRANCH   6   8
ATOM      8  C   UNL A   1      34.254  35.060  30.565  1.00  0.00     0.124 C 
BRANCH   8   9
ATOM      9  C   UNL A   1      33.244  34.668  29.492  1.00  0.00     0.034 C 
BRANCH   9  10
ATOM     10  C   UNL A   1      33.771  34.218  28.115  1.00  0.00     0.128 C 
BRANCH  10  11
ATOM     11  N   UNL A   1      33.772  32.787  27.756  1.00  0.00    -0.293 N 
ATOM     12  C   UNL A   1      32.591  32.245  27.255  1.00  0.00     0.266 C 
ATOM     13  C   UNL A   1      34.763  31.864  28.030  1.00  0.00     0.148 C 
ATOM     14  O   UNL A   1      31.533  32.841  27.095  1.00  0.00    -0.268 OA
ATOM     15  C   UNL A   1      32.758  30.806  26.913  1.00  0.00     0.081 C 
ATOM     16  S   UNL A   1      34.327  30.289  27.365  1.00  0.00    -0.054 SA
ATOM     17  S   UNL A   1      36.186  32.066  28.872  1.00  0.00    -0.052 S 
ATOM     18  C   UNL A   1      31.788  30.098  26.313  1.00  0.00     0.033 C 
BRANCH  18  19
ATOM     19  C   UNL A   1      31.862  28.670  25.958  1.00  0.00     0.019 A 
ATOM     20  C   UNL A   1      32.289  28.304  24.675  1.00  0.00     0.027 A 
ATOM     21  C   UNL A   1      31.512  27.658  26.863  1.00  0.00     0.122 A 
ATOM     22  C   UNL A   1      32.431  26.955  24.340  1.00  0.00     0.018 A 
ATOM     23  C   UNL A   1      31.645  26.311  26.526  1.00  0.00     0.048 A 
ATOM     24  Br  UNL A   1      33.055  26.477  22.620  1.00  0.00    -0.051 Br
ATOM     25  C   UNL A   1      32.121  25.958  25.262  1.00  0.00     0.019 A 
BRANCH  21  26
ATOM     26  O   UNL A   1      31.013  28.005  28.090  1.00  0.00    -0.507 OA
ATOM     27  H   UNL A   1      30.786  28.896  28.269  1.00  0.00     0.293 HD
ENDBRANCH  21  26
ENDBRANCH  18  19
ENDBRANCH  10  11
ENDBRANCH   9  10
ENDBRANCH   8   9
ENDBRANCH   6   8
ENDBRANCH   5   6
ENDBRANCH   4   5
ENDBRANCH   3   4
ENDBRANCH   2   3
ENDBRANCH   1   2
BRANCH   1  28
ATOM     28  C   UNL A   1      38.098  31.172  33.520  1.00  0.00     0.188 C 
BRANCH  28  29
ATOM     29  O   UNL A   1      37.272  30.166  32.934  1.00  0.00    -0.376 OA
BRANCH  29  30
ATOM     30  C   UNL A   1      37.950  28.916  32.759  1.00  0.00     0.202 C 
BRANCH  30  31
ATOM     31  C   UNL A   1      37.955  28.382  31.314  1.00  0.00     0.261 C 
BRANCH  31  32
ATOM     32  O   UNL A   1      38.259  29.333  30.284  1.00  0.00    -0.460 OA
BRANCH  32  33
ATOM     33  C   UNL A   1      39.491  29.258  29.746  1.00  0.00     0.338 C 
ATOM     34  O   UNL A   1      39.963  28.314  29.123  1.00  0.00    -0.246 OA
BRANCH  33  35
ATOM     35  C   UNL A   1      40.180  30.537  29.970  1.00  0.00     0.060 A 
ATOM     36  C   UNL A   1      41.561  30.548  30.193  1.00  0.00     0.016 A 
ATOM     37  C   UNL A   1      39.437  31.718  30.050  1.00  0.00     0.016 A 
ATOM     38  C   UNL A   1      42.198  31.741  30.541  1.00  0.00     0.010 A 
ATOM     39  C   UNL A   1      40.075  32.910  30.406  1.00  0.00     0.010 A 
ATOM     40  C   UNL A   1      41.451  32.919  30.693  1.00  0.00    -0.014 A 
BRANCH  40  41
ATOM     41  C   UNL A   1      42.062  34.101  31.350  1.00  0.00     0.031 A 
ATOM     42  C   UNL A   1      41.981  34.206  32.850  1.00  0.00     0.074 A 
ATOM     43  C   UNL A   1      42.685  35.057  30.640  1.00  0.00     0.049 A 
ATOM     44  N   UNL A   1      42.439  35.138  33.646  1.00  0.00    -0.248 NA
ATOM     45  C   UNL A   1      41.289  33.108  33.544  1.00  0.00     0.031 C 
ATOM     46  C   UNL A   1      42.854  35.057  29.188  1.00  0.00     0.029 A 
ATOM     47  N   UNL A   1      43.289  36.221  31.050  1.00  0.00    -0.354 N 
ATOM     48  C   UNL A   1      42.093  34.738  34.932  1.00  0.00     0.074 A 
ATOM     49  C   UNL A   1      41.359  33.497  34.807  1.00  0.00     0.031 C 
ATOM     50  C   UNL A   1      43.515  36.172  28.826  1.00  0.00     0.029 A 
ATOM     51  C   UNL A   1      43.793  36.975  30.017  1.00  0.00     0.049 A 
ATOM     52  H   UNL A   1      43.354  36.488  31.995  1.00  0.00     0.167 HD
ATOM     53  C   UNL A   1      42.369  35.344  36.112  1.00  0.00     0.037 A 
ATOM     54  C   UNL A   1      44.401  38.178  30.034  1.00  0.00     0.037 A 
ATOM     55  C   UNL A   1      43.078  36.591  36.232  1.00  0.00     0.049 A 
ATOM     56  C   UNL A   1      44.638  38.871  31.353  1.00  0.00     0.074 A 
ATOM     57  C   UNL A   1      43.415  37.284  37.380  1.00  0.00     0.029 A 
ATOM     58  N   UNL A   1      43.546  37.339  35.161  1.00  0.00    -0.354 N 
ATOM     59  N   UNL A   1      44.338  38.466  32.564  1.00  0.00    -0.248 NA
ATOM     60  C   UNL A   1      45.301  40.182  31.306  1.00  0.00     0.031 C 
ATOM     61  C   UNL A   1      44.043  38.477  37.001  1.00  0.00     0.029 A 
ATOM     62  C   UNL A   1      44.147  38.500  35.620  1.00  0.00     0.049 A 
ATOM     63  H   UNL A   1      43.464  37.083  34.214  1.00  0.00     0.167 HD
ATOM     64  C   UNL A   1      44.807  39.454  33.425  1.00  0.00     0.074 A 
ATOM     65  C   UNL A   1      45.410  40.477  32.595  1.00  0.00     0.031 C 
ATOM     66  C   UNL A   1      44.750  39.507  34.781  1.00  0.00     0.037 A 
BRANCH  53  67
ATOM     67  C   UNL A   1      41.861  34.674  37.360  1.00  0.00     0.058 A 
ATOM     68  C   UNL A   1      42.611  33.695  38.031  1.00  0.00     0.135 A 
ATOM     69  C   UNL A   1      40.601  35.006  37.884  1.00  0.00     0.135 A 
ATOM     70  F   UNL A   1      43.816  33.327  37.565  1.00  0.00    -0.206 F 
ATOM     71  C   UNL A   1      42.111  33.036  39.150  1.00  0.00     0.059 A 
ATOM     72  C   UNL A   1      40.092  34.379  39.017  1.00  0.00     0.059 A 
ATOM     73  F   UNL A   1      39.842  35.935  37.281  1.00  0.00    -0.206 F 
ATOM     74  C   UNL A   1      40.846  33.379  39.629  1.00  0.00     0.060 A 
BRANCH  74  75
ATOM     75  S   UNL A   1      40.193  32.490  41.059  1.00  0.00     0.124 S 
ATOM     76  O   UNL A   1      41.225  31.481  41.270  1.00  0.00    -0.237 OA
ATOM     77  O   UNL A   1      40.115  33.538  42.072  1.00  0.00    -0.237 OA
ATOM     78  O   UNL A   1      38.908  31.984  40.586  1.00  0.00    -0.744 OA
ENDBRANCH  74  75
ENDBRANCH  53  67
BRANCH  54  79
ATOM     79  C   UNL A   1      44.844  38.800  28.757  1.00  0.00     0.058 A 
ATOM     80  C   UNL A   1      43.962  39.570  27.984  1.00  0.00     0.135 A 
ATOM     81  C   UNL A   1      46.160  38.654  28.294  1.00  0.00     0.135 A 
ATOM     82  F   UNL A   1      42.688  39.726  28.375  1.00  0.00    -0.206 F 
ATOM     83  C   UNL A   1      44.368  40.171  26.796  1.00  0.00     0.059 A 
ATOM     84  C   UNL A   1      46.596  39.264  27.121  1.00  0.00     0.059 A 
ATOM     85  F   UNL A   1      47.043  37.929  28.999  1.00  0.00    -0.206 F 
ATOM     86  C   UNL A   1      45.691  40.017  26.376  1.00  0.00     0.060 A 
BRANCH  86  87
ATOM     87  S   UNL A   1      46.224  40.859  24.869  1.00  0.00     0.124 S 
ATOM     88  O   UNL A   1      46.824  39.763  24.116  1.00  0.00    -0.237 OA
ATOM     89  O   UNL A   1      44.965  41.380  24.346  1.00  0.00    -0.237 OA
ATOM     90  O   UNL A   1      47.156  41.870  25.361  1.00  0.00    -0.744 OA
ENDBRANCH  86  87
ENDBRANCH  54  79
BRANCH  66  91
ATOM     91  C   UNL A   1      45.393  40.686  35.461  1.00  0.00     0.058 A 
ATOM     92  C   UNL A   1      46.735  40.666  35.872  1.00  0.00     0.135 A 
ATOM     93  C   UNL A   1      44.668  41.874  35.651  1.00  0.00     0.135 A 
ATOM     94  F   UNL A   1      47.472  39.555  35.718  1.00  0.00    -0.206 F 
ATOM     95  C   UNL A   1      47.328  41.774  36.470  1.00  0.00     0.059 A 
ATOM     96  C   UNL A   1      45.249  43.002  36.221  1.00  0.00     0.059 A 
ATOM     97  F   UNL A   1      43.385  41.952  35.264  1.00  0.00    -0.206 F 
ATOM     98  C   UNL A   1      46.577  42.939  36.639  1.00  0.00     0.060 A 
BRANCH  98  99
ATOM     99  S   UNL A   1      47.367  44.382  37.385  1.00  0.00     0.124 S 
ATOM    100  O   UNL A   1      47.748  45.151  36.205  1.00  0.00    -0.237 OA
ATOM    101  O   UNL A   1      46.289  44.948  38.190  1.00  0.00    -0.237 OA
ATOM    102  O   UNL A   1      48.473  43.808  38.145  1.00  0.00    -0.744 OA
ENDBRANCH  98  99
ENDBRANCH  66  91
ENDBRANCH  40  41
ENDBRANCH  33  35
ENDBRANCH  32  33
ENDBRANCH  31  32
ENDBRANCH  30  31
ENDBRANCH  29  30
ENDBRANCH  28  29
ENDBRANCH   1  28
TORSDOF 25
ENDMDL
MODEL 2
REMARK VINA RESULT:      -7.9      6.480     10.758
REMARK SMILES O=C(CCCN1C(=O)/C(=C/c2cc(Br)ccc2O)SC1=S)OCCOCCOCCOC(=O)c1ccc(-c2c3nc(c(-c4c(F)cc(S(=O)(=O)[O-])cc4F)c4ccc([nH]4)c(-c4c(F)cc(S(=O)(=O)[O-])cc4F)c4nc(c(-c5c(F)cc(S(=O)(=O)[O-])cc5F)c5ccc2[nH]5)C=C4)C=C3)cc1
REMARK SMILES IDX 26 1 25 2 24 3 23 4 22 5 2 6 1 7 3 8 4 9 5 10 6 11 7 12
REMARK SMILES IDX 20 13 8 14 9 15 19 16 21 17 10 18 11 19 12 20 17 21 13 22
REMARK SMILES IDX 16 23 14 24 15 25 18 26 27 28 28 29 29 30 30 31 31 32 32 33
REMARK SMILES IDX 33 34 34 35 35 36 99 37 36 38 98 39 37 40 38 41 39 42 92 43
REMARK SMILES IDX 40 44 97 45 91 46 93 47 41 48 96 49 90 50 89 51 42 53 76 54
REMARK SMILES IDX 55 55 75 56 56 57 59 58 74 59 94 60 57 61 58 62 73 64 95 65
REMARK SMILES IDX 60 66 43 67 44 68 53 69 45 70 46 71 52 72 54 73 47 74 48 75
REMARK SMILES IDX 49 76 50 77 51 78 77 79 78 80 87 81 79 82 80 83 86 84 88 85
REMARK SMILES IDX 81 86 82 87 83 88 84 89 85 90 61 91 62 92 71 93 63 94 64 95
REMARK SMILES IDX 70 96 72 97 65 98 66 99 67 100 68 101 69 102
REMARK H PARENT 18 27 93 52 59 63
REMARK Flexibility Score: inf
ROOT
ATOM      1  C   UNL A   1      36.415  32.042  28.434  1.00  0.00     0.188 C 
ENDROOT
BRANCH   1   2
ATOM      2  O   UNL A   1      35.651  31.224  29.313  1.00  0.00    -0.376 OA
BRANCH   2   3
ATOM      3  C   UNL A   1      35.411  29.888  28.883  1.00  0.00     0.202 C 
BRANCH   3   4
ATOM      4  C   UNL A   1      35.404  29.647  27.379  1.00  0.00     0.261 C 
BRANCH   4   5
ATOM      5  O   UNL A   1      34.186  29.861  26.632  1.00  0.00    -0.463 OA
BRANCH   5   6
ATOM      6  C   UNL A   1      33.002  30.249  27.148  1.00  0.00     0.305 C 
ATOM      7  O   UNL A   1      32.847  31.404  27.536  1.00  0.00    -0.252 OA
BRANCH   6   8
ATOM      8  C   UNL A   1      31.841  29.290  27.021  1.00  0.00     0.124 C 
BRANCH   8   9
ATOM      9  C   UNL A   1      32.236  27.818  27.065  1.00  0.00     0.034 C 
BRANCH   9  10
ATOM     10  C   UNL A   1      31.996  26.953  25.812  1.00  0.00     0.128 C 
BRANCH  10  11
ATOM     11  N   UNL A   1      32.497  25.567  25.764  1.00  0.00    -0.293 N 
ATOM     12  C   UNL A   1      33.758  25.354  25.211  1.00  0.00     0.266 C 
ATOM     13  C   UNL A   1      31.783  24.416  26.038  1.00  0.00     0.148 C 
ATOM     14  O   UNL A   1      34.496  26.212  24.741  1.00  0.00    -0.268 OA
ATOM     15  C   UNL A   1      34.135  23.915  25.260  1.00  0.00     0.081 C 
ATOM     16  S   UNL A   1      32.826  23.002  25.883  1.00  0.00    -0.054 SA
ATOM     17  S   UNL A   1      30.175  24.246  26.437  1.00  0.00    -0.052 S 
ATOM     18  C   UNL A   1      35.349  23.482  24.884  1.00  0.00     0.033 C 
BRANCH  18  19
ATOM     19  C   UNL A   1      35.797  22.079  24.883  1.00  0.00     0.019 A 
ATOM     20  C   UNL A   1      34.843  21.054  24.830  1.00  0.00     0.027 A 
ATOM     21  C   UNL A   1      37.154  21.730  24.940  1.00  0.00     0.122 A 
ATOM     22  C   UNL A   1      35.249  19.719  24.760  1.00  0.00     0.018 A 
ATOM     23  C   UNL A   1      37.559  20.396  24.879  1.00  0.00     0.048 A 
ATOM     24  Br  UNL A   1      33.950  18.350  24.640  1.00  0.00    -0.051 Br
ATOM     25  C   UNL A   1      36.602  19.386  24.774  1.00  0.00     0.019 A 
BRANCH  21  26
ATOM     26  O   UNL A   1      38.091  22.718  25.078  1.00  0.00    -0.507 OA
ATOM     27  H   UNL A   1      38.760  22.824  24.430  1.00  0.00     0.293 HD
ENDBRANCH  21  26
ENDBRANCH  18  19
ENDBRANCH  10  11
ENDBRANCH   9  10
ENDBRANCH   8   9
ENDBRANCH   6   8
ENDBRANCH   5   6
ENDBRANCH   4   5
ENDBRANCH   3   4
ENDBRANCH   2   3
ENDBRANCH   1   2
BRANCH   1  28
ATOM     28  C   UNL A   1      35.720  33.323  27.968  1.00  0.00     0.188 C 
BRANCH  28  29
ATOM     29  O   UNL A   1      34.976  33.961  29.007  1.00  0.00    -0.376 OA
BRANCH  29  30
ATOM     30  C   UNL A   1      34.203  35.074  28.541  1.00  0.00     0.202 C 
BRANCH  30  31
ATOM     31  C   UNL A   1      33.234  35.668  29.581  1.00  0.00     0.261 C 
BRANCH  31  32
ATOM     32  O   UNL A   1      32.772  34.775  30.604  1.00  0.00    -0.460 OA
BRANCH  32  33
ATOM     33  C   UNL A   1      33.137  35.069  31.865  1.00  0.00     0.338 C 
ATOM     34  O   UNL A   1      32.474  35.673  32.699  1.00  0.00    -0.246 OA
BRANCH  33  35
ATOM     35  C   UNL A   1      34.465  34.489  32.117  1.00  0.00     0.060 A 
ATOM     36  C   UNL A   1      34.572  33.145  32.489  1.00  0.00     0.016 A 
ATOM     37  C   UNL A   1      35.597  35.308  32.072  1.00  0.00     0.016 A 
ATOM     38  C   UNL A   1      35.813  32.625  32.860  1.00  0.00     0.010 A 
ATOM     39  C   UNL A   1      36.838  34.787  32.453  1.00  0.00     0.010 A 
ATOM     40  C   UNL A   1      36.945  33.456  32.888  1.00  0.00    -0.014 A 
BRANCH  40  41
ATOM     41  C   UNL A   1      38.182  32.995  33.564  1.00  0.00     0.031 A 
ATOM     42  C   UNL A   1      39.192  32.222  32.758  1.00  0.00     0.074 A 
ATOM     43  C   UNL A   1      38.416  33.261  34.861  1.00  0.00     0.049 A 
ATOM     44  N   UNL A   1      40.342  31.718  33.125  1.00  0.00    -0.248 NA
ATOM     45  C   UNL A   1      38.856  31.987  31.344  1.00  0.00     0.031 C 
ATOM     46  C   UNL A   1      37.530  34.022  35.741  1.00  0.00     0.029 A 
ATOM     47  N   UNL A   1      39.473  32.912  35.666  1.00  0.00    -0.354 N 
ATOM     48  C   UNL A   1      40.867  31.110  31.990  1.00  0.00     0.074 A 
ATOM     49  C   UNL A   1      39.895  31.279  30.931  1.00  0.00     0.031 C 
ATOM     50  C   UNL A   1      38.080  34.078  36.968  1.00  0.00     0.029 A 
ATOM     51  C   UNL A   1      39.342  33.338  36.966  1.00  0.00     0.049 A 
ATOM     52  H   UNL A   1      40.251  32.404  35.341  1.00  0.00     0.167 HD
ATOM     53  C   UNL A   1      42.055  30.477  31.839  1.00  0.00     0.037 A 
ATOM     54  C   UNL A   1      40.145  33.144  38.031  1.00  0.00     0.037 A 
ATOM     55  C   UNL A   1      43.009  30.288  32.900  1.00  0.00     0.049 A 
ATOM     56  C   UNL A   1      41.431  32.375  37.860  1.00  0.00     0.074 A 
ATOM     57  C   UNL A   1      44.243  29.667  32.850  1.00  0.00     0.029 A 
ATOM     58  N   UNL A   1      42.826  30.708  34.210  1.00  0.00    -0.354 N 
ATOM     59  N   UNL A   1      41.933  31.836  36.773  1.00  0.00    -0.248 NA
ATOM     60  C   UNL A   1      42.263  32.193  39.058  1.00  0.00     0.031 C 
ATOM     61  C   UNL A   1      44.785  29.667  34.140  1.00  0.00     0.029 A 
ATOM     62  C   UNL A   1      43.914  30.338  34.984  1.00  0.00     0.049 A 
ATOM     63  H   UNL A   1      42.039  31.198  34.542  1.00  0.00     0.167 HD
ATOM     64  C   UNL A   1      43.154  31.282  37.149  1.00  0.00     0.074 A 
ATOM     65  C   UNL A   1      43.314  31.552  38.564  1.00  0.00     0.031 C 
ATOM     66  C   UNL A   1      44.062  30.618  36.390  1.00  0.00     0.037 A 
BRANCH  53  67
ATOM     67  C   UNL A   1      42.359  29.908  30.479  1.00  0.00     0.058 A 
ATOM     68  C   UNL A   1      43.108  30.623  29.530  1.00  0.00     0.135 A 
ATOM     69  C   UNL A   1      41.882  28.639  30.115  1.00  0.00     0.135 A 
ATOM     70  F   UNL A   1      43.575  31.848  29.819  1.00  0.00    -0.206 F 
ATOM     71  C   UNL A   1      43.336  30.118  28.254  1.00  0.00     0.059 A 
ATOM     72  C   UNL A   1      42.120  28.103  28.853  1.00  0.00     0.059 A 
ATOM     73  F   UNL A   1      41.160  27.914  30.983  1.00  0.00    -0.206 F 
ATOM     74  C   UNL A   1      42.829  28.861  27.922  1.00  0.00     0.060 A 
BRANCH  74  75
ATOM     75  S   UNL A   1      43.098  28.234  26.250  1.00  0.00     0.124 S 
ATOM     76  O   UNL A   1      42.977  26.794  26.457  1.00  0.00    -0.237 OA
ATOM     77  O   UNL A   1      42.013  28.859  25.501  1.00  0.00    -0.237 OA
ATOM     78  O   UNL A   1      44.438  28.710  25.920  1.00  0.00    -0.744 OA
ENDBRANCH  74  75
ENDBRANCH  53  67
BRANCH  54  79
ATOM     79  C   UNL A   1      39.763  33.702  39.356  1.00  0.00     0.058 A 
ATOM     80  C   UNL A   1      38.821  33.055  40.169  1.00  0.00     0.135 A 
ATOM     81  C   UNL A   1      40.345  34.883  39.844  1.00  0.00     0.135 A 
ATOM     82  F   UNL A   1      38.224  31.932  39.740  1.00  0.00    -0.206 F 
ATOM     83  C   UNL A   1      38.466  33.557  41.418  1.00  0.00     0.059 A 
ATOM     84  C   UNL A   1      40.024  35.392  41.099  1.00  0.00     0.059 A 
ATOM     85  F   UNL A   1      41.254  35.538  39.106  1.00  0.00    -0.206 F 
ATOM     86  C   UNL A   1      39.080  34.724  41.877  1.00  0.00     0.060 A 
BRANCH  86  87
ATOM     87  S   UNL A   1      38.664  35.329  43.528  1.00  0.00     0.124 S 
ATOM     88  O   UNL A   1      39.236  36.670  43.504  1.00  0.00    -0.237 OA
ATOM     89  O   UNL A   1      37.206  35.257  43.523  1.00  0.00    -0.237 OA
ATOM     90  O   UNL A   1      39.328  34.375  44.412  1.00  0.00    -0.744 OA
ENDBRANCH  86  87
ENDBRANCH  54  79
BRANCH  66  91
ATOM     91  C   UNL A   1      45.336  30.171  37.059  1.00  0.00     0.058 A 
ATOM     92  C   UNL A   1      46.460  31.006  37.148  1.00  0.00     0.135 A 
ATOM     93  C   UNL A   1      45.407  28.908  37.669  1.00  0.00     0.135 A 
ATOM     94  F   UNL A   1      46.447  32.221  36.579  1.00  0.00    -0.206 F 
ATOM     95  C   UNL A   1      47.621  30.594  37.798  1.00  0.00     0.059 A 
ATOM     96  C   UNL A   1      46.547  28.487  38.347  1.00  0.00     0.059 A 
ATOM     97  F   UNL A   1      44.356  28.075  37.625  1.00  0.00    -0.206 F 
ATOM     98  C   UNL A   1      47.654  29.332  38.396  1.00  0.00     0.060 A 
BRANCH  98  99
ATOM     99  S   UNL A   1      49.153  28.822  39.265  1.00  0.00     0.124 S 
ATOM    100  O   UNL A   1      48.640  28.563  40.606  1.00  0.00    -0.237 OA
ATOM    101  O   UNL A   1      49.570  27.647  38.507  1.00  0.00    -0.237 OA
ATOM    102  O   UNL A   1      50.029  29.983  39.141  1.00  0.00    -0.744 OA
ENDBRANCH  98  99
ENDBRANCH  66  91
ENDBRANCH  40  41
ENDBRANCH  33  35
ENDBRANCH  32  33
ENDBRANCH  31  32
ENDBRANCH  30  31
ENDBRANCH  29  30
ENDBRANCH  28  29
ENDBRANCH   1  28
TORSDOF 25
ENDMDL
MODEL 3
REMARK VINA RESULT:      -7.8      6.005      9.691
REMARK SMILES O=C(CCCN1C(=O)/C(=C/c2cc(Br)ccc2O)SC1=S)OCCOCCOCCOC(=O)c1ccc(-c2c3nc(c(-c4c(F)cc(S(=O)(=O)[O-])cc4F)c4ccc([nH]4)c(-c4c(F)cc(S(=O)(=O)[O-])cc4F)c4nc(c(-c5c(F)cc(S(=O)(=O)[O-])cc5F)c5ccc2[nH]5)C=C4)C=C3)cc1
REMARK SMILES IDX 26 1 25 2 24 3 23 4 22 5 2 6 1 7 3 8 4 9 5 10 6 11 7 12
REMARK SMILES IDX 20 13 8 14 9 15 19 16 21 17 10 18 11 19 12 20 17 21 13 22
REMARK SMILES IDX 16 23 14 24 15 25 18 26 27 28 28 29 29 30 30 31 31 32 32 33
REMARK SMILES IDX 33 34 34 35 35 36 99 37 36 38 98 39 37 40 38 41 39 42 92 43
REMARK SMILES IDX 40 44 97 45 91 46 93 47 41 48 96 49 90 50 89 51 42 53 76 54
REMARK SMILES IDX 55 55 75 56 56 57 59 58 74 59 94 60 57 61 58 62 73 64 95 65
REMARK SMILES IDX 60 66 43 67 44 68 53 69 45 70 46 71 52 72 54 73 47 74 48 75
REMARK SMILES IDX 49 76 50 77 51 78 77 79 78 80 87 81 79 82 80 83 86 84 88 85
REMARK SMILES IDX 81 86 82 87 83 88 84 89 85 90 61 91 62 92 71 93 63 94 64 95
REMARK SMILES IDX 70 96 72 97 65 98 66 99 67 100 68 101 69 102
REMARK H PARENT 18 27 93 52 59 63
REMARK Flexibility Score: inf
ROOT
ATOM      1  C   UNL A   1      44.323  23.386  26.769  1.00  0.00     0.188 C 
ENDROOT
BRANCH   1   2
ATOM      2  O   UNL A   1      43.701  23.172  28.031  1.00  0.00    -0.376 OA
BRANCH   2   3
ATOM      3  C   UNL A   1      43.099  24.309  28.640  1.00  0.00     0.202 C 
BRANCH   3   4
ATOM      4  C   UNL A   1      42.412  25.298  27.706  1.00  0.00     0.261 C 
BRANCH   4   5
ATOM      5  O   UNL A   1      41.430  26.213  28.240  1.00  0.00    -0.463 OA
BRANCH   5   6
ATOM      6  C   UNL A   1      40.123  26.247  27.914  1.00  0.00     0.305 C 
ATOM      7  O   UNL A   1      39.697  25.546  26.999  1.00  0.00    -0.252 OA
BRANCH   6   8
ATOM      8  C   UNL A   1      39.193  26.991  28.844  1.00  0.00     0.124 C 
BRANCH   8   9
ATOM      9  C   UNL A   1      38.864  28.411  28.397  1.00  0.00     0.034 C 
BRANCH   9  10
ATOM     10  C   UNL A   1      39.823  29.549  28.798  1.00  0.00     0.128 C 
BRANCH  10  11
ATOM     11  N   UNL A   1      39.777  30.108  30.163  1.00  0.00    -0.293 N 
ATOM     12  C   UNL A   1      39.060  31.286  30.355  1.00  0.00     0.266 C 
ATOM     13  C   UNL A   1      40.520  29.696  31.253  1.00  0.00     0.148 C 
ATOM     14  O   UNL A   1      38.469  31.923  29.492  1.00  0.00    -0.268 OA
ATOM     15  C   UNL A   1      39.082  31.706  31.783  1.00  0.00     0.081 C 
ATOM     16  S   UNL A   1      40.085  30.643  32.677  1.00  0.00    -0.054 SA
ATOM     17  S   UNL A   1      41.697  28.521  31.341  1.00  0.00    -0.052 S 
ATOM     18  C   UNL A   1      38.372  32.754  32.230  1.00  0.00     0.033 C 
BRANCH  18  19
ATOM     19  C   UNL A   1      38.351  33.247  33.618  1.00  0.00     0.019 A 
ATOM     20  C   UNL A   1      39.281  34.216  34.015  1.00  0.00     0.027 A 
ATOM     21  C   UNL A   1      37.431  32.773  34.564  1.00  0.00     0.122 A 
ATOM     22  C   UNL A   1      39.236  34.746  35.307  1.00  0.00     0.018 A 
ATOM     23  C   UNL A   1      37.391  33.297  35.857  1.00  0.00     0.048 A 
ATOM     24  Br  UNL A   1      40.468  36.089  35.814  1.00  0.00    -0.051 Br
ATOM     25  C   UNL A   1      38.289  34.299  36.226  1.00  0.00     0.019 A 
BRANCH  21  26
ATOM     26  O   UNL A   1      36.573  31.767  34.212  1.00  0.00    -0.507 OA
ATOM     27  H   UNL A   1      35.746  31.682  34.645  1.00  0.00     0.293 HD
ENDBRANCH  21  26
ENDBRANCH  18  19
ENDBRANCH  10  11
ENDBRANCH   9  10
ENDBRANCH   8   9
ENDBRANCH   6   8
ENDBRANCH   5   6
ENDBRANCH   4   5
ENDBRANCH   3   4
ENDBRANCH   2   3
ENDBRANCH   1   2
BRANCH   1  28
ATOM     28  C   UNL A   1      45.625  22.614  26.547  1.00  0.00     0.188 C 
BRANCH  28  29
ATOM     29  O   UNL A   1      46.647  23.409  25.944  1.00  0.00    -0.376 OA
BRANCH  29  30
ATOM     30  C   UNL A   1      46.386  23.706  24.567  1.00  0.00     0.202 C 
BRANCH  30  31
ATOM     31  C   UNL A   1      47.526  24.445  23.840  1.00  0.00     0.261 C 
BRANCH  31  32
ATOM     32  O   UNL A   1      48.115  25.552  24.537  1.00  0.00    -0.460 OA
BRANCH  32  33
ATOM     33  C   UNL A   1      47.424  26.706  24.520  1.00  0.00     0.338 C 
ATOM     34  O   UNL A   1      47.143  27.378  23.535  1.00  0.00    -0.246 OA
BRANCH  33  35
ATOM     35  C   UNL A   1      46.992  27.016  25.891  1.00  0.00     0.060 A 
ATOM     36  C   UNL A   1      45.648  26.860  26.245  1.00  0.00     0.016 A 
ATOM     37  C   UNL A   1      47.911  27.548  26.800  1.00  0.00     0.016 A 
ATOM     38  C   UNL A   1      45.209  27.280  27.502  1.00  0.00     0.010 A 
ATOM     39  C   UNL A   1      47.467  27.976  28.056  1.00  0.00     0.010 A 
ATOM     40  C   UNL A   1      46.107  27.882  28.397  1.00  0.00    -0.014 A 
BRANCH  40  41
ATOM     41  C   UNL A   1      45.591  28.597  29.590  1.00  0.00     0.031 A 
ATOM     42  C   UNL A   1      45.519  27.849  30.895  1.00  0.00     0.074 A 
ATOM     43  C   UNL A   1      45.203  29.882  29.527  1.00  0.00     0.049 A 
ATOM     44  N   UNL A   1      45.109  28.257  32.068  1.00  0.00    -0.248 NA
ATOM     45  C   UNL A   1      45.975  26.449  30.871  1.00  0.00     0.031 C 
ATOM     46  C   UNL A   1      45.250  30.722  28.332  1.00  0.00     0.029 A 
ATOM     47  N   UNL A   1      44.686  30.705  30.498  1.00  0.00    -0.354 N 
ATOM     48  C   UNL A   1      45.258  27.168  32.920  1.00  0.00     0.074 A 
ATOM     49  C   UNL A   1      45.766  26.073  32.122  1.00  0.00     0.031 C 
ATOM     50  C   UNL A   1      44.775  31.943  28.639  1.00  0.00     0.029 A 
ATOM     51  C   UNL A   1      44.369  31.963  30.045  1.00  0.00     0.049 A 
ATOM     52  H   UNL A   1      44.557  30.420  31.431  1.00  0.00     0.167 HD
ATOM     53  C   UNL A   1      45.005  27.090  34.249  1.00  0.00     0.037 A 
ATOM     54  C   UNL A   1      43.808  33.006  30.689  1.00  0.00     0.037 A 
ATOM     55  C   UNL A   1      44.477  28.173  35.035  1.00  0.00     0.049 A 
ATOM     56  C   UNL A   1      43.468  32.876  32.153  1.00  0.00     0.074 A 
ATOM     57  C   UNL A   1      44.192  28.198  36.387  1.00  0.00     0.029 A 
ATOM     58  N   UNL A   1      44.140  29.422  34.532  1.00  0.00    -0.354 N 
ATOM     59  N   UNL A   1      43.647  31.853  32.955  1.00  0.00    -0.248 NA
ATOM     60  C   UNL A   1      42.854  34.045  32.800  1.00  0.00     0.031 C 
ATOM     61  C   UNL A   1      43.635  29.445  36.694  1.00  0.00     0.029 A 
ATOM     62  C   UNL A   1      43.626  30.218  35.543  1.00  0.00     0.049 A 
ATOM     63  H   UNL A   1      44.250  29.702  33.595  1.00  0.00     0.167 HD
ATOM     64  C   UNL A   1      43.201  32.266  34.208  1.00  0.00     0.074 A 
ATOM     65  C   UNL A   1      42.744  33.633  34.056  1.00  0.00     0.031 C 
ATOM     66  C   UNL A   1      43.180  31.579  35.378  1.00  0.00     0.037 A 
BRANCH  53  67
ATOM     67  C   UNL A   1      45.262  25.766  34.917  1.00  0.00     0.058 A 
ATOM     68  C   UNL A   1      46.492  25.474  35.529  1.00  0.00     0.135 A 
ATOM     69  C   UNL A   1      44.272  24.771  34.931  1.00  0.00     0.135 A 
ATOM     70  F   UNL A   1      47.481  26.383  35.530  1.00  0.00    -0.206 F 
ATOM     71  C   UNL A   1      46.746  24.227  36.092  1.00  0.00     0.059 A 
ATOM     72  C   UNL A   1      44.495  23.526  35.512  1.00  0.00     0.059 A 
ATOM     73  F   UNL A   1      43.079  24.996  34.359  1.00  0.00    -0.206 F 
ATOM     74  C   UNL A   1      45.743  23.257  36.070  1.00  0.00     0.060 A 
BRANCH  74  75
ATOM     75  S   UNL A   1      46.098  21.630  36.770  1.00  0.00     0.124 S 
ATOM     76  O   UNL A   1      45.661  21.807  38.151  1.00  0.00    -0.237 OA
ATOM     77  O   UNL A   1      45.272  20.748  35.951  1.00  0.00    -0.237 OA
ATOM     78  O   UNL A   1      47.539  21.486  36.582  1.00  0.00    -0.744 OA
ENDBRANCH  74  75
ENDBRANCH  53  67
BRANCH  54  79
ATOM     79  C   UNL A   1      43.546  34.274  29.956  1.00  0.00     0.058 A 
ATOM     80  C   UNL A   1      44.562  35.220  29.761  1.00  0.00     0.135 A 
ATOM     81  C   UNL A   1      42.280  34.555  29.420  1.00  0.00     0.135 A 
ATOM     82  F   UNL A   1      45.785  35.005  30.268  1.00  0.00    -0.206 F 
ATOM     83  C   UNL A   1      44.334  36.403  29.063  1.00  0.00     0.059 A 
ATOM     84  C   UNL A   1      42.033  35.720  28.699  1.00  0.00     0.059 A 
ATOM     85  F   UNL A   1      41.274  33.680  29.577  1.00  0.00    -0.206 F 
ATOM     86  C   UNL A   1      43.066  36.640  28.529  1.00  0.00     0.060 A 
BRANCH  86  87
ATOM     87  S   UNL A   1      42.800  38.145  27.565  1.00  0.00     0.124 S 
ATOM     88  O   UNL A   1      44.161  38.480  27.161  1.00  0.00    -0.237 OA
ATOM     89  O   UNL A   1      41.916  37.677  26.503  1.00  0.00    -0.237 OA
ATOM     90  O   UNL A   1      42.185  39.055  28.527  1.00  0.00    -0.744 OA
ENDBRANCH  86  87
ENDBRANCH  54  79
BRANCH  66  91
ATOM     91  C   UNL A   1      42.687  32.303  36.603  1.00  0.00     0.058 A 
ATOM     92  C   UNL A   1      41.340  32.267  36.996  1.00  0.00     0.135 A 
ATOM     93  C   UNL A   1      43.590  32.996  37.426  1.00  0.00     0.135 A 
ATOM     94  F   UNL A   1      40.434  31.622  36.244  1.00  0.00    -0.206 F 
ATOM     95  C   UNL A   1      40.902  32.912  38.149  1.00  0.00     0.059 A 
ATOM     96  C   UNL A   1      43.179  33.625  38.597  1.00  0.00     0.059 A 
ATOM     97  F   UNL A   1      44.892  33.051  37.105  1.00  0.00    -0.206 F 
ATOM     98  C   UNL A   1      41.830  33.588  38.944  1.00  0.00     0.060 A 
BRANCH  98  99
ATOM     99  S   UNL A   1      41.255  34.394  40.455  1.00  0.00     0.124 S 
ATOM    100  O   UNL A   1      39.818  34.144  40.392  1.00  0.00    -0.237 OA
ATOM    101  O   UNL A   1      41.980  33.667  41.493  1.00  0.00    -0.237 OA
ATOM    102  O   UNL A   1      41.660  35.784  40.274  1.00  0.00    -0.744 OA
ENDBRANCH  98  99
ENDBRANCH  66  91
ENDBRANCH  40  41
ENDBRANCH  33  35
ENDBRANCH  32  33
ENDBRANCH  31  32
ENDBRANCH  30  31
ENDBRANCH  29  30
ENDBRANCH  28  29
ENDBRANCH   1  28
TORSDOF 25
ENDMDL
