MODEL 1
REMARK VINA RESULT:     -10.0      0.000      0.000
REMARK SMILES CC(C)(C)OC(=O)N1CC[C@@H]2CO[C@@H](CC(=O)OCCOCCOCCOC(=O)c3ccc(-c4c5nc(c(-c6c(F)cc(S(=O)(=O)[O-])cc6F)c6ccc([nH]6)c(-c6c(F)cc(S(=O)(=O)[O-])cc6F)c6nc(c(-c7c(F)cc(S(=O)(=O)[O-])cc7F)c7ccc4[nH]7)C=C6)C=C5)cc3)[C@@H]2C1
REMARK SMILES IDX 22 1 21 2 20 3 19 4 18 5 16 6 17 7 15 8 14 9 8 10 9 11 97 12
REMARK SMILES IDX 10 13 96 14 11 15 12 16 13 17 6 18 7 19 5 20 2 21 1 22 3 23
REMARK SMILES IDX 4 24 23 25 24 26 25 27 26 28 27 29 28 30 29 31 30 32 31 33
REMARK SMILES IDX 95 34 32 35 94 36 33 37 34 38 35 39 88 40 36 41 93 42 87 43
REMARK SMILES IDX 89 44 37 45 92 46 86 47 85 48 38 50 72 51 51 52 71 53 52 54
REMARK SMILES IDX 55 55 70 56 90 57 53 58 54 59 69 61 91 62 56 63 39 64 40 65
REMARK SMILES IDX 49 66 41 67 42 68 48 69 50 70 43 71 44 72 45 73 46 74 47 75
REMARK SMILES IDX 73 76 74 77 83 78 75 79 76 80 82 81 84 82 77 83 78 84 79 85
REMARK SMILES IDX 80 86 81 87 57 88 58 89 67 90 59 91 60 92 66 93 68 94 61 95
REMARK SMILES IDX 62 96 63 97 64 98 65 99
REMARK H PARENT 89 49 55 60
REMARK Flexibility Score: inf
ROOT
ATOM      1  C   UNL A   1      33.366  35.288  28.895  1.00  0.00     0.188 C 
ENDROOT
BRANCH   1   2
ATOM      2  O   UNL A   1      32.491  34.370  28.258  1.00  0.00    -0.376 OA
BRANCH   2   3
ATOM      3  C   UNL A   1      33.094  33.225  27.651  1.00  0.00     0.202 C 
BRANCH   3   4
ATOM      4  C   UNL A   1      32.241  31.945  27.558  1.00  0.00     0.261 C 
BRANCH   4   5
ATOM      5  O   UNL A   1      32.839  30.917  26.741  1.00  0.00    -0.463 OA
BRANCH   5   6
ATOM      6  C   UNL A   1      32.008  29.884  26.423  1.00  0.00     0.308 C 
ATOM      7  O   UNL A   1      31.759  28.947  27.172  1.00  0.00    -0.252 OA
BRANCH   6   8
ATOM      8  C   UNL A   1      31.309  30.125  25.100  1.00  0.00     0.155 C 
BRANCH   8   9
ATOM      9  C   UNL A   1      31.375  29.041  24.027  1.00  0.00     0.134 C 
ATOM     10  N   UNL A   1      32.227  25.345  23.458  1.00  0.00    -0.308 N 
ATOM     11  C   UNL A   1      30.842  24.938  23.297  1.00  0.00     0.123 C 
ATOM     12  C   UNL A   1      32.484  26.787  23.526  1.00  0.00     0.129 C 
ATOM     13  C   UNL A   1      29.945  25.579  24.343  1.00  0.00     0.028 C 
ATOM     14  C   UNL A   1      31.531  27.576  24.474  1.00  0.00     0.044 C 
ATOM     15  C   UNL A   1      30.091  27.089  24.392  1.00  0.00     0.024 C 
ATOM     16  C   UNL A   1      29.573  27.826  23.171  1.00  0.00     0.164 C 
ATOM     17  O   UNL A   1      30.177  29.121  23.227  1.00  0.00    -0.377 OA
BRANCH  10  18
ATOM     18  C   UNL A   1      33.203  24.381  23.180  1.00  0.00     0.410 C 
ATOM     19  O   UNL A   1      34.245  24.668  22.597  1.00  0.00    -0.224 OA
BRANCH  18  20
ATOM     20  O   UNL A   1      32.884  23.114  23.562  1.00  0.00    -0.444 OA
BRANCH  20  21
ATOM     21  C   UNL A   1      33.332  22.586  24.852  1.00  0.00     0.106 C 
ATOM     22  C   UNL A   1      32.162  21.791  25.461  1.00  0.00     0.056 C 
ATOM     23  C   UNL A   1      33.643  23.755  25.786  1.00  0.00     0.056 C 
ATOM     24  C   UNL A   1      34.514  21.605  24.746  1.00  0.00     0.056 C 
ENDBRANCH  20  21
ENDBRANCH  18  20
ENDBRANCH  10  18
ENDBRANCH   8   9
ENDBRANCH   6   8
ENDBRANCH   5   6
ENDBRANCH   4   5
ENDBRANCH   3   4
ENDBRANCH   2   3
ENDBRANCH   1   2
BRANCH   1  25
ATOM     25  C   UNL A   1      33.136  35.570  30.388  1.00  0.00     0.188 C 
BRANCH  25  26
ATOM     26  O   UNL A   1      33.598  34.564  31.281  1.00  0.00    -0.376 OA
BRANCH  26  27
ATOM     27  C   UNL A   1      34.848  33.949  30.965  1.00  0.00     0.202 C 
BRANCH  27  28
ATOM     28  C   UNL A   1      34.798  32.436  30.666  1.00  0.00     0.261 C 
BRANCH  28  29
ATOM     29  O   UNL A   1      36.022  31.856  30.163  1.00  0.00    -0.460 OA
BRANCH  29  30
ATOM     30  C   UNL A   1      36.671  31.054  31.034  1.00  0.00     0.338 C 
ATOM     31  O   UNL A   1      36.234  30.697  32.114  1.00  0.00    -0.246 OA
BRANCH  30  32
ATOM     32  C   UNL A   1      37.885  30.457  30.446  1.00  0.00     0.060 A 
ATOM     33  C   UNL A   1      38.742  29.771  31.321  1.00  0.00     0.016 A 
ATOM     34  C   UNL A   1      38.187  30.545  29.088  1.00  0.00     0.016 A 
ATOM     35  C   UNL A   1      39.917  29.200  30.850  1.00  0.00     0.010 A 
ATOM     36  C   UNL A   1      39.369  29.970  28.615  1.00  0.00     0.010 A 
ATOM     37  C   UNL A   1      40.247  29.318  29.497  1.00  0.00    -0.014 A 
BRANCH  37  38
ATOM     38  C   UNL A   1      41.585  28.883  29.045  1.00  0.00     0.031 A 
ATOM     39  C   UNL A   1      42.703  29.887  29.048  1.00  0.00     0.074 A 
ATOM     40  C   UNL A   1      41.808  27.604  28.695  1.00  0.00     0.049 A 
ATOM     41  N   UNL A   1      43.936  29.751  28.641  1.00  0.00    -0.248 NA
ATOM     42  C   UNL A   1      42.389  31.220  29.591  1.00  0.00     0.031 C 
ATOM     43  C   UNL A   1      40.812  26.533  28.722  1.00  0.00     0.029 A 
ATOM     44  N   UNL A   1      42.949  26.991  28.248  1.00  0.00    -0.354 N 
ATOM     45  C   UNL A   1      44.547  30.976  28.880  1.00  0.00     0.074 A 
ATOM     46  C   UNL A   1      43.542  31.854  29.438  1.00  0.00     0.031 C 
ATOM     47  C   UNL A   1      41.385  25.394  28.293  1.00  0.00     0.029 A 
ATOM     48  C   UNL A   1      42.774  25.665  27.931  1.00  0.00     0.049 A 
ATOM     49  H   UNL A   1      43.813  27.456  28.160  1.00  0.00     0.167 HD
ATOM     50  C   UNL A   1      45.835  31.329  28.666  1.00  0.00     0.037 A 
ATOM     51  C   UNL A   1      43.633  24.784  27.383  1.00  0.00     0.037 A 
ATOM     52  C   UNL A   1      46.826  30.453  28.103  1.00  0.00     0.049 A 
ATOM     53  C   UNL A   1      45.037  25.234  27.062  1.00  0.00     0.074 A 
ATOM     54  C   UNL A   1      48.148  30.728  27.800  1.00  0.00     0.029 A 
ATOM     55  N   UNL A   1      46.604  29.126  27.763  1.00  0.00    -0.354 N 
ATOM     56  N   UNL A   1      45.596  26.404  27.267  1.00  0.00    -0.248 NA
ATOM     57  C   UNL A   1      45.925  24.247  26.433  1.00  0.00     0.031 C 
ATOM     58  C   UNL A   1      48.718  29.575  27.250  1.00  0.00     0.029 A 
ATOM     59  C   UNL A   1      47.763  28.571  27.249  1.00  0.00     0.049 A 
ATOM     60  H   UNL A   1      45.749  28.651  27.871  1.00  0.00     0.167 HD
ATOM     61  C   UNL A   1      46.908  26.281  26.823  1.00  0.00     0.074 A 
ATOM     62  C   UNL A   1      47.064  24.922  26.347  1.00  0.00     0.031 C 
ATOM     63  C   UNL A   1      47.898  27.207  26.807  1.00  0.00     0.037 A 
BRANCH  50  64
ATOM     64  C   UNL A   1      46.240  32.727  29.033  1.00  0.00     0.058 A 
ATOM     65  C   UNL A   1      46.797  33.019  30.287  1.00  0.00     0.135 A 
ATOM     66  C   UNL A   1      46.106  33.776  28.110  1.00  0.00     0.135 A 
ATOM     67  F   UNL A   1      46.922  32.056  31.214  1.00  0.00    -0.206 F 
ATOM     68  C   UNL A   1      47.199  34.309  30.619  1.00  0.00     0.059 A 
ATOM     69  C   UNL A   1      46.521  35.068  28.413  1.00  0.00     0.059 A 
ATOM     70  F   UNL A   1      45.568  33.548  26.902  1.00  0.00    -0.206 F 
ATOM     71  C   UNL A   1      47.059  35.327  29.674  1.00  0.00     0.060 A 
BRANCH  71  72
ATOM     72  S   UNL A   1      47.603  36.990  30.112  1.00  0.00     0.124 S 
ATOM     73  O   UNL A   1      48.978  36.984  29.622  1.00  0.00    -0.237 OA
ATOM     74  O   UNL A   1      46.669  37.830  29.371  1.00  0.00    -0.237 OA
ATOM     75  O   UNL A   1      47.456  37.025  31.564  1.00  0.00    -0.744 OA
ENDBRANCH  71  72
ENDBRANCH  50  64
BRANCH  51  76
ATOM     76  C   UNL A   1      43.198  23.399  27.063  1.00  0.00     0.058 A 
ATOM     77  C   UNL A   1      43.056  22.430  28.067  1.00  0.00     0.135 A 
ATOM     78  C   UNL A   1      42.969  23.002  25.736  1.00  0.00     0.135 A 
ATOM     79  F   UNL A   1      43.270  22.759  29.350  1.00  0.00    -0.206 F 
ATOM     80  C   UNL A   1      42.745  21.108  27.766  1.00  0.00     0.059 A 
ATOM     81  C   UNL A   1      42.631  21.692  25.412  1.00  0.00     0.059 A 
ATOM     82  F   UNL A   1      43.077  23.893  24.738  1.00  0.00    -0.206 F 
ATOM     83  C   UNL A   1      42.543  20.747  26.433  1.00  0.00     0.060 A 
BRANCH  83  84
ATOM     84  S   UNL A   1      42.153  19.027  26.045  1.00  0.00     0.124 S 
ATOM     85  O   UNL A   1      40.726  19.111  25.756  1.00  0.00    -0.237 OA
ATOM     86  O   UNL A   1      43.022  18.764  24.902  1.00  0.00    -0.237 OA
ATOM     87  O   UNL A   1      42.510  18.320  27.271  1.00  0.00    -0.744 OA
ENDBRANCH  83  84
ENDBRANCH  51  76
BRANCH  63  88
ATOM     88  C   UNL A   1      49.248  26.770  26.310  1.00  0.00     0.058 A 
ATOM     89  C   UNL A   1      49.638  26.956  24.975  1.00  0.00     0.135 A 
ATOM     90  C   UNL A   1      50.182  26.213  27.198  1.00  0.00     0.135 A 
ATOM     91  F   UNL A   1      48.780  27.481  24.087  1.00  0.00    -0.206 F 
ATOM     92  C   UNL A   1      50.902  26.583  24.532  1.00  0.00     0.059 A 
ATOM     93  C   UNL A   1      51.460  25.857  26.782  1.00  0.00     0.059 A 
ATOM     94  F   UNL A   1      49.860  26.026  28.488  1.00  0.00    -0.206 F 
ATOM     95  C   UNL A   1      51.807  26.036  25.443  1.00  0.00     0.060 A 
BRANCH  95  96
ATOM     96  S   UNL A   1      53.459  25.593  24.865  1.00  0.00     0.124 S 
ATOM     97  O   UNL A   1      53.394  25.985  23.461  1.00  0.00    -0.237 OA
ATOM     98  O   UNL A   1      54.319  26.412  25.714  1.00  0.00    -0.237 OA
ATOM     99  O   UNL A   1      53.531  24.155  25.113  1.00  0.00    -0.744 OA
ENDBRANCH  95  96
ENDBRANCH  63  88
ENDBRANCH  37  38
ENDBRANCH  30  32
ENDBRANCH  29  30
ENDBRANCH  28  29
ENDBRANCH  27  28
ENDBRANCH  26  27
ENDBRANCH  25  26
ENDBRANCH   1  25
TORSDOF 24
ENDMDL
MODEL 2
REMARK VINA RESULT:     -10.0      5.826     12.018
REMARK SMILES CC(C)(C)OC(=O)N1CC[C@@H]2CO[C@@H](CC(=O)OCCOCCOCCOC(=O)c3ccc(-c4c5nc(c(-c6c(F)cc(S(=O)(=O)[O-])cc6F)c6ccc([nH]6)c(-c6c(F)cc(S(=O)(=O)[O-])cc6F)c6nc(c(-c7c(F)cc(S(=O)(=O)[O-])cc7F)c7ccc4[nH]7)C=C6)C=C5)cc3)[C@@H]2C1
REMARK SMILES IDX 22 1 21 2 20 3 19 4 18 5 16 6 17 7 15 8 14 9 8 10 9 11 97 12
REMARK SMILES IDX 10 13 96 14 11 15 12 16 13 17 6 18 7 19 5 20 2 21 1 22 3 23
REMARK SMILES IDX 4 24 23 25 24 26 25 27 26 28 27 29 28 30 29 31 30 32 31 33
REMARK SMILES IDX 95 34 32 35 94 36 33 37 34 38 35 39 88 40 36 41 93 42 87 43
REMARK SMILES IDX 89 44 37 45 92 46 86 47 85 48 38 50 72 51 51 52 71 53 52 54
REMARK SMILES IDX 55 55 70 56 90 57 53 58 54 59 69 61 91 62 56 63 39 64 40 65
REMARK SMILES IDX 49 66 41 67 42 68 48 69 50 70 43 71 44 72 45 73 46 74 47 75
REMARK SMILES IDX 73 76 74 77 83 78 75 79 76 80 82 81 84 82 77 83 78 84 79 85
REMARK SMILES IDX 80 86 81 87 57 88 58 89 67 90 59 91 60 92 66 93 68 94 61 95
REMARK SMILES IDX 62 96 63 97 64 98 65 99
REMARK H PARENT 89 49 55 60
REMARK Flexibility Score: inf
ROOT
ATOM      1  C   UNL A   1      39.314  22.263  26.106  1.00  0.00     0.188 C 
ENDROOT
BRANCH   1   2
ATOM      2  O   UNL A   1      38.301  21.335  25.750  1.00  0.00    -0.376 OA
BRANCH   2   3
ATOM      3  C   UNL A   1      37.104  21.876  25.185  1.00  0.00     0.202 C 
BRANCH   3   4
ATOM      4  C   UNL A   1      35.771  21.230  25.607  1.00  0.00     0.261 C 
BRANCH   4   5
ATOM      5  O   UNL A   1      35.241  21.764  26.838  1.00  0.00    -0.463 OA
BRANCH   5   6
ATOM      6  C   UNL A   1      33.908  21.547  27.028  1.00  0.00     0.308 C 
ATOM      7  O   UNL A   1      33.273  21.970  27.986  1.00  0.00    -0.252 OA
BRANCH   6   8
ATOM      8  C   UNL A   1      33.285  20.861  25.829  1.00  0.00     0.155 C 
BRANCH   8   9
ATOM      9  C   UNL A   1      32.307  21.649  24.959  1.00  0.00     0.134 C 
ATOM     10  N   UNL A   1      31.281  25.207  23.961  1.00  0.00    -0.308 N 
ATOM     11  C   UNL A   1      31.858  25.117  22.631  1.00  0.00     0.123 C 
ATOM     12  C   UNL A   1      31.242  23.968  24.745  1.00  0.00     0.129 C 
ATOM     13  C   UNL A   1      33.235  24.474  22.660  1.00  0.00     0.028 C 
ATOM     14  C   UNL A   1      32.568  23.150  24.739  1.00  0.00     0.044 C 
ATOM     15  C   UNL A   1      33.240  23.135  23.372  1.00  0.00     0.024 C 
ATOM     16  C   UNL A   1      32.490  22.023  22.661  1.00  0.00     0.164 C 
ATOM     17  O   UNL A   1      32.255  21.026  23.659  1.00  0.00    -0.377 OA
BRANCH  10  18
ATOM     18  C   UNL A   1      30.508  26.341  24.237  1.00  0.00     0.410 C 
ATOM     19  O   UNL A   1      29.337  26.251  24.594  1.00  0.00    -0.224 OA
BRANCH  18  20
ATOM     20  O   UNL A   1      31.140  27.529  24.033  1.00  0.00    -0.444 OA
BRANCH  20  21
ATOM     21  C   UNL A   1      31.990  28.112  25.074  1.00  0.00     0.106 C 
ATOM     22  C   UNL A   1      31.460  29.528  25.368  1.00  0.00     0.056 C 
ATOM     23  C   UNL A   1      33.414  28.245  24.537  1.00  0.00     0.056 C 
ATOM     24  C   UNL A   1      31.949  27.348  26.411  1.00  0.00     0.056 C 
ENDBRANCH  20  21
ENDBRANCH  18  20
ENDBRANCH  10  18
ENDBRANCH   8   9
ENDBRANCH   6   8
ENDBRANCH   5   6
ENDBRANCH   4   5
ENDBRANCH   3   4
ENDBRANCH   2   3
ENDBRANCH   1   2
BRANCH   1  25
ATOM     25  C   UNL A   1      40.324  21.834  27.182  1.00  0.00     0.188 C 
BRANCH  25  26
ATOM     26  O   UNL A   1      41.621  22.406  27.069  1.00  0.00    -0.376 OA
BRANCH  26  27
ATOM     27  C   UNL A   1      42.365  22.087  25.893  1.00  0.00     0.202 C 
BRANCH  27  28
ATOM     28  C   UNL A   1      43.020  23.280  25.165  1.00  0.00     0.261 C 
BRANCH  28  29
ATOM     29  O   UNL A   1      42.501  24.584  25.505  1.00  0.00    -0.460 OA
BRANCH  29  30
ATOM     30  C   UNL A   1      43.406  25.437  26.031  1.00  0.00     0.338 C 
ATOM     31  O   UNL A   1      44.512  25.654  25.569  1.00  0.00    -0.246 OA
BRANCH  30  32
ATOM     32  C   UNL A   1      42.833  26.264  27.110  1.00  0.00     0.060 A 
ATOM     33  C   UNL A   1      43.217  27.614  27.146  1.00  0.00     0.016 A 
ATOM     34  C   UNL A   1      41.943  25.759  28.057  1.00  0.00     0.016 A 
ATOM     35  C   UNL A   1      42.741  28.454  28.143  1.00  0.00     0.010 A 
ATOM     36  C   UNL A   1      41.464  26.605  29.059  1.00  0.00     0.010 A 
ATOM     37  C   UNL A   1      41.879  27.947  29.119  1.00  0.00    -0.014 A 
BRANCH  37  38
ATOM     38  C   UNL A   1      41.536  28.791  30.283  1.00  0.00     0.031 A 
ATOM     39  C   UNL A   1      42.380  28.681  31.520  1.00  0.00     0.074 A 
ATOM     40  C   UNL A   1      40.528  29.678  30.212  1.00  0.00     0.049 A 
ATOM     41  N   UNL A   1      42.234  29.272  32.675  1.00  0.00    -0.248 NA
ATOM     42  C   UNL A   1      43.550  27.788  31.442  1.00  0.00     0.031 C 
ATOM     43  C   UNL A   1      39.690  29.916  29.036  1.00  0.00     0.029 A 
ATOM     44  N   UNL A   1      40.040  30.544  31.154  1.00  0.00    -0.354 N 
ATOM     45  C   UNL A   1      43.292  28.831  33.460  1.00  0.00     0.074 A 
ATOM     46  C   UNL A   1      44.055  27.896  32.662  1.00  0.00     0.031 C 
ATOM     47  C   UNL A   1      38.779  30.858  29.335  1.00  0.00     0.029 A 
ATOM     48  C   UNL A   1      38.947  31.263  30.728  1.00  0.00     0.049 A 
ATOM     49  H   UNL A   1      40.432  30.644  32.052  1.00  0.00     0.167 HD
ATOM     50  C   UNL A   1      43.605  29.185  34.727  1.00  0.00     0.037 A 
ATOM     51  C   UNL A   1      38.161  32.125  31.401  1.00  0.00     0.037 A 
ATOM     52  C   UNL A   1      42.836  30.109  35.516  1.00  0.00     0.049 A 
ATOM     53  C   UNL A   1      38.475  32.427  32.846  1.00  0.00     0.074 A 
ATOM     54  C   UNL A   1      43.040  30.501  36.827  1.00  0.00     0.029 A 
ATOM     55  N   UNL A   1      41.717  30.793  35.063  1.00  0.00    -0.354 N 
ATOM     56  N   UNL A   1      39.463  31.981  33.586  1.00  0.00    -0.248 NA
ATOM     57  C   UNL A   1      37.567  33.346  33.546  1.00  0.00     0.031 C 
ATOM     58  C   UNL A   1      42.027  31.399  37.177  1.00  0.00     0.029 A 
ATOM     59  C   UNL A   1      41.217  31.599  36.070  1.00  0.00     0.049 A 
ATOM     60  H   UNL A   1      41.336  30.715  34.159  1.00  0.00     0.167 HD
ATOM     61  C   UNL A   1      39.312  32.592  34.827  1.00  0.00     0.074 A 
ATOM     62  C   UNL A   1      38.146  33.445  34.736  1.00  0.00     0.031 C 
ATOM     63  C   UNL A   1      40.068  32.459  35.945  1.00  0.00     0.037 A 
BRANCH  50  64
ATOM     64  C   UNL A   1      44.825  28.563  35.340  1.00  0.00     0.058 A 
ATOM     65  C   UNL A   1      44.755  27.338  36.021  1.00  0.00     0.135 A 
ATOM     66  C   UNL A   1      46.081  29.176  35.213  1.00  0.00     0.135 A 
ATOM     67  F   UNL A   1      43.573  26.725  36.193  1.00  0.00    -0.206 F 
ATOM     68  C   UNL A   1      45.889  26.746  36.566  1.00  0.00     0.059 A 
ATOM     69  C   UNL A   1      47.231  28.591  35.731  1.00  0.00     0.059 A 
ATOM     70  F   UNL A   1      46.197  30.353  34.581  1.00  0.00    -0.206 F 
ATOM     71  C   UNL A   1      47.124  27.379  36.414  1.00  0.00     0.060 A 
BRANCH  71  72
ATOM     72  S   UNL A   1      48.589  26.588  37.109  1.00  0.00     0.124 S 
ATOM     73  O   UNL A   1      48.903  25.603  36.078  1.00  0.00    -0.237 OA
ATOM     74  O   UNL A   1      49.521  27.704  37.224  1.00  0.00    -0.237 OA
ATOM     75  O   UNL A   1      48.112  26.040  38.375  1.00  0.00    -0.744 OA
ENDBRANCH  71  72
ENDBRANCH  50  64
BRANCH  51  76
ATOM     76  C   UNL A   1      36.978  32.743  30.745  1.00  0.00     0.058 A 
ATOM     77  C   UNL A   1      37.116  33.831  29.871  1.00  0.00     0.135 A 
ATOM     78  C   UNL A   1      35.679  32.291  31.025  1.00  0.00     0.135 A 
ATOM     79  F   UNL A   1      38.337  34.303  29.576  1.00  0.00    -0.206 F 
ATOM     80  C   UNL A   1      36.009  34.477  29.330  1.00  0.00     0.059 A 
ATOM     81  C   UNL A   1      34.557  32.904  30.476  1.00  0.00     0.059 A 
ATOM     82  F   UNL A   1      35.492  31.244  31.845  1.00  0.00    -0.206 F 
ATOM     83  C   UNL A   1      34.732  34.011  29.647  1.00  0.00     0.060 A 
BRANCH  83  84
ATOM     84  S   UNL A   1      33.297  34.860  28.954  1.00  0.00     0.124 S 
ATOM     85  O   UNL A   1      32.520  35.146  30.155  1.00  0.00    -0.237 OA
ATOM     86  O   UNL A   1      33.907  36.012  28.298  1.00  0.00    -0.237 OA
ATOM     87  O   UNL A   1      32.725  33.865  28.053  1.00  0.00    -0.744 OA
ENDBRANCH  83  84
ENDBRANCH  51  76
BRANCH  63  88
ATOM     88  C   UNL A   1      39.693  33.292  37.138  1.00  0.00     0.058 A 
ATOM     89  C   UNL A   1      38.734  32.859  38.067  1.00  0.00     0.135 A 
ATOM     90  C   UNL A   1      40.345  34.511  37.385  1.00  0.00     0.135 A 
ATOM     91  F   UNL A   1      38.079  31.704  37.874  1.00  0.00    -0.206 F 
ATOM     92  C   UNL A   1      38.418  33.618  39.188  1.00  0.00     0.059 A 
ATOM     93  C   UNL A   1      40.064  35.273  38.513  1.00  0.00     0.059 A 
ATOM     94  F   UNL A   1      41.279  34.961  36.532  1.00  0.00    -0.206 F 
ATOM     95  C   UNL A   1      39.090  34.823  39.404  1.00  0.00     0.060 A 
BRANCH  95  96
ATOM     96  S   UNL A   1      38.700  35.780  40.884  1.00  0.00     0.124 S 
ATOM     97  O   UNL A   1      37.470  35.139  41.333  1.00  0.00    -0.237 OA
ATOM     98  O   UNL A   1      39.876  35.556  41.721  1.00  0.00    -0.237 OA
ATOM     99  O   UNL A   1      38.551  37.142  40.378  1.00  0.00    -0.744 OA
ENDBRANCH  95  96
ENDBRANCH  63  88
ENDBRANCH  37  38
ENDBRANCH  30  32
ENDBRANCH  29  30
ENDBRANCH  28  29
ENDBRANCH  27  28
ENDBRANCH  26  27
ENDBRANCH  25  26
ENDBRANCH   1  25
TORSDOF 24
ENDMDL
MODEL 3
REMARK VINA RESULT:      -9.7      1.496      8.499
REMARK SMILES CC(C)(C)OC(=O)N1CC[C@@H]2CO[C@@H](CC(=O)OCCOCCOCCOC(=O)c3ccc(-c4c5nc(c(-c6c(F)cc(S(=O)(=O)[O-])cc6F)c6ccc([nH]6)c(-c6c(F)cc(S(=O)(=O)[O-])cc6F)c6nc(c(-c7c(F)cc(S(=O)(=O)[O-])cc7F)c7ccc4[nH]7)C=C6)C=C5)cc3)[C@@H]2C1
REMARK SMILES IDX 22 1 21 2 20 3 19 4 18 5 16 6 17 7 15 8 14 9 8 10 9 11 97 12
REMARK SMILES IDX 10 13 96 14 11 15 12 16 13 17 6 18 7 19 5 20 2 21 1 22 3 23
REMARK SMILES IDX 4 24 23 25 24 26 25 27 26 28 27 29 28 30 29 31 30 32 31 33
REMARK SMILES IDX 95 34 32 35 94 36 33 37 34 38 35 39 88 40 36 41 93 42 87 43
REMARK SMILES IDX 89 44 37 45 92 46 86 47 85 48 38 50 72 51 51 52 71 53 52 54
REMARK SMILES IDX 55 55 70 56 90 57 53 58 54 59 69 61 91 62 56 63 39 64 40 65
REMARK SMILES IDX 49 66 41 67 42 68 48 69 50 70 43 71 44 72 45 73 46 74 47 75
REMARK SMILES IDX 73 76 74 77 83 78 75 79 76 80 82 81 84 82 77 83 78 84 79 85
REMARK SMILES IDX 80 86 81 87 57 88 58 89 67 90 59 91 60 92 66 93 68 94 61 95
REMARK SMILES IDX 62 96 63 97 64 98 65 99
REMARK H PARENT 89 49 55 60
REMARK Flexibility Score: inf
ROOT
ATOM      1  C   UNL A   1      32.402  28.986  26.928  1.00  0.00     0.188 C 
ENDROOT
BRANCH   1   2
ATOM      2  O   UNL A   1      31.949  28.525  25.663  1.00  0.00    -0.376 OA
BRANCH   2   3
ATOM      3  C   UNL A   1      32.566  29.103  24.511  1.00  0.00     0.202 C 
BRANCH   3   4
ATOM      4  C   UNL A   1      32.158  28.540  23.136  1.00  0.00     0.261 C 
BRANCH   4   5
ATOM      5  O   UNL A   1      33.223  27.831  22.469  1.00  0.00    -0.463 OA
BRANCH   5   6
ATOM      6  C   UNL A   1      32.862  26.632  21.929  1.00  0.00     0.308 C 
ATOM      7  O   UNL A   1      33.569  25.977  21.174  1.00  0.00    -0.252 OA
BRANCH   6   8
ATOM      8  C   UNL A   1      31.550  26.140  22.508  1.00  0.00     0.155 C 
BRANCH   8   9
ATOM      9  C   UNL A   1      31.507  24.756  23.154  1.00  0.00     0.134 C 
ATOM     10  N   UNL A   1      33.618  22.229  25.119  1.00  0.00    -0.308 N 
ATOM     11  C   UNL A   1      32.922  22.458  26.374  1.00  0.00     0.123 C 
ATOM     12  C   UNL A   1      33.047  22.860  23.926  1.00  0.00     0.129 C 
ATOM     13  C   UNL A   1      32.695  23.939  26.625  1.00  0.00     0.028 C 
ATOM     14  C   UNL A   1      32.648  24.356  24.106  1.00  0.00     0.044 C 
ATOM     15  C   UNL A   1      32.011  24.632  25.462  1.00  0.00     0.024 C 
ATOM     16  C   UNL A   1      30.569  24.222  25.225  1.00  0.00     0.164 C 
ATOM     17  O   UNL A   1      30.272  24.638  23.889  1.00  0.00    -0.377 OA
BRANCH  10  18
ATOM     18  C   UNL A   1      34.532  21.168  25.091  1.00  0.00     0.410 C 
ATOM     19  O   UNL A   1      34.269  20.107  24.533  1.00  0.00    -0.224 OA
BRANCH  18  20
ATOM     20  O   UNL A   1      35.694  21.394  25.762  1.00  0.00    -0.444 OA
BRANCH  20  21
ATOM     21  C   UNL A   1      36.926  21.714  25.038  1.00  0.00     0.106 C 
ATOM     22  C   UNL A   1      37.661  20.388  24.763  1.00  0.00     0.056 C 
ATOM     23  C   UNL A   1      37.821  22.570  25.932  1.00  0.00     0.056 C 
ATOM     24  C   UNL A   1      36.688  22.370  23.665  1.00  0.00     0.056 C 
ENDBRANCH  20  21
ENDBRANCH  18  20
ENDBRANCH  10  18
ENDBRANCH   8   9
ENDBRANCH   6   8
ENDBRANCH   5   6
ENDBRANCH   4   5
ENDBRANCH   3   4
ENDBRANCH   2   3
ENDBRANCH   1   2
BRANCH   1  25
ATOM     25  C   UNL A   1      32.758  30.476  27.054  1.00  0.00     0.188 C 
BRANCH  25  26
ATOM     26  O   UNL A   1      34.145  30.767  27.172  1.00  0.00    -0.376 OA
BRANCH  26  27
ATOM     27  C   UNL A   1      34.506  31.828  28.056  1.00  0.00     0.202 C 
BRANCH  27  28
ATOM     28  C   UNL A   1      35.897  31.712  28.715  1.00  0.00     0.261 C 
BRANCH  28  29
ATOM     29  O   UNL A   1      35.994  30.785  29.818  1.00  0.00    -0.460 OA
BRANCH  29  30
ATOM     30  C   UNL A   1      37.021  31.013  30.665  1.00  0.00     0.338 C 
ATOM     31  O   UNL A   1      36.907  31.439  31.801  1.00  0.00    -0.246 OA
BRANCH  30  32
ATOM     32  C   UNL A   1      38.296  30.476  30.155  1.00  0.00     0.060 A 
ATOM     33  C   UNL A   1      39.284  30.177  31.107  1.00  0.00     0.016 A 
ATOM     34  C   UNL A   1      38.534  30.256  28.799  1.00  0.00     0.016 A 
ATOM     35  C   UNL A   1      40.521  29.689  30.707  1.00  0.00     0.010 A 
ATOM     36  C   UNL A   1      39.778  29.764  28.397  1.00  0.00     0.010 A 
ATOM     37  C   UNL A   1      40.782  29.503  29.346  1.00  0.00    -0.014 A 
BRANCH  37  38
ATOM     38  C   UNL A   1      42.157  29.174  28.918  1.00  0.00     0.031 A 
ATOM     39  C   UNL A   1      42.457  27.764  28.494  1.00  0.00     0.074 A 
ATOM     40  C   UNL A   1      43.101  30.129  28.853  1.00  0.00     0.049 A 
ATOM     41  N   UNL A   1      43.595  27.232  28.139  1.00  0.00    -0.248 NA
ATOM     42  C   UNL A   1      41.316  26.831  28.459  1.00  0.00     0.031 C 
ATOM     43  C   UNL A   1      42.900  31.542  29.174  1.00  0.00     0.029 A 
ATOM     44  N   UNL A   1      44.422  30.049  28.494  1.00  0.00    -0.354 N 
ATOM     45  C   UNL A   1      43.311  25.907  27.835  1.00  0.00     0.074 A 
ATOM     46  C   UNL A   1      41.900  25.704  28.077  1.00  0.00     0.031 C 
ATOM     47  C   UNL A   1      44.064  32.195  29.011  1.00  0.00     0.029 A 
ATOM     48  C   UNL A   1      45.096  31.243  28.609  1.00  0.00     0.049 A 
ATOM     49  H   UNL A   1      44.848  29.218  28.184  1.00  0.00     0.167 HD
ATOM     50  C   UNL A   1      44.153  24.950  27.380  1.00  0.00     0.037 A 
ATOM     51  C   UNL A   1      46.403  31.519  28.436  1.00  0.00     0.037 A 
ATOM     52  C   UNL A   1      45.556  25.157  27.150  1.00  0.00     0.049 A 
ATOM     53  C   UNL A   1      47.337  30.409  28.024  1.00  0.00     0.074 A 
ATOM     54  C   UNL A   1      46.506  24.241  26.735  1.00  0.00     0.029 A 
ATOM     55  N   UNL A   1      46.211  26.369  27.308  1.00  0.00    -0.354 N 
ATOM     56  N   UNL A   1      47.062  29.152  27.766  1.00  0.00    -0.248 NA
ATOM     57  C   UNL A   1      48.759  30.754  27.883  1.00  0.00     0.031 C 
ATOM     58  C   UNL A   1      47.742  24.892  26.671  1.00  0.00     0.029 A 
ATOM     59  C   UNL A   1      47.554  26.224  27.005  1.00  0.00     0.049 A 
ATOM     60  H   UNL A   1      45.784  27.208  27.594  1.00  0.00     0.167 HD
ATOM     61  C   UNL A   1      48.270  28.566  27.401  1.00  0.00     0.074 A 
ATOM     62  C   UNL A   1      49.276  29.607  27.462  1.00  0.00     0.031 C 
ATOM     63  C   UNL A   1      48.529  27.283  27.048  1.00  0.00     0.037 A 
BRANCH  50  64
ATOM     64  C   UNL A   1      43.576  23.590  27.114  1.00  0.00     0.058 A 
ATOM     65  C   UNL A   1      43.357  23.135  25.805  1.00  0.00     0.135 A 
ATOM     66  C   UNL A   1      43.274  22.721  28.173  1.00  0.00     0.135 A 
ATOM     67  F   UNL A   1      43.604  23.938  24.758  1.00  0.00    -0.206 F 
ATOM     68  C   UNL A   1      42.849  21.864  25.555  1.00  0.00     0.059 A 
ATOM     69  C   UNL A   1      42.785  21.439  27.946  1.00  0.00     0.059 A 
ATOM     70  F   UNL A   1      43.455  23.115  29.443  1.00  0.00    -0.206 F 
ATOM     71  C   UNL A   1      42.568  21.023  26.632  1.00  0.00     0.060 A 
BRANCH  71  72
ATOM     72  S   UNL A   1      41.928  19.370  26.290  1.00  0.00     0.124 S 
ATOM     73  O   UNL A   1      40.489  19.616  26.269  1.00  0.00    -0.237 OA
ATOM     74  O   UNL A   1      42.537  19.060  25.002  1.00  0.00    -0.237 OA
ATOM     75  O   UNL A   1      42.412  18.578  27.416  1.00  0.00    -0.744 OA
ENDBRANCH  71  72
ENDBRANCH  50  64
BRANCH  51  76
ATOM     76  C   UNL A   1      46.927  32.889  28.683  1.00  0.00     0.058 A 
ATOM     77  C   UNL A   1      47.056  33.817  27.640  1.00  0.00     0.135 A 
ATOM     78  C   UNL A   1      47.363  33.276  29.960  1.00  0.00     0.135 A 
ATOM     79  F   UNL A   1      46.659  33.492  26.400  1.00  0.00    -0.206 F 
ATOM     80  C   UNL A   1      47.636  35.066  27.843  1.00  0.00     0.059 A 
ATOM     81  C   UNL A   1      47.922  34.528  30.193  1.00  0.00     0.059 A 
ATOM     82  F   UNL A   1      47.249  32.430  30.996  1.00  0.00    -0.206 F 
ATOM     83  C   UNL A   1      48.075  35.408  29.123  1.00  0.00     0.060 A 
BRANCH  83  84
ATOM     84  S   UNL A   1      48.839  37.023  29.380  1.00  0.00     0.124 S 
ATOM     85  O   UNL A   1      49.140  36.980  30.806  1.00  0.00    -0.237 OA
ATOM     86  O   UNL A   1      49.989  36.967  28.482  1.00  0.00    -0.237 OA
ATOM     87  O   UNL A   1      47.788  37.956  28.983  1.00  0.00    -0.744 OA
ENDBRANCH  83  84
ENDBRANCH  51  76
BRANCH  63  88
ATOM     88  C   UNL A   1      49.938  26.944  26.649  1.00  0.00     0.058 A 
ATOM     89  C   UNL A   1      50.893  26.535  27.592  1.00  0.00     0.135 A 
ATOM     90  C   UNL A   1      50.317  26.973  25.298  1.00  0.00     0.135 A 
ATOM     91  F   UNL A   1      50.581  26.495  28.897  1.00  0.00    -0.206 F 
ATOM     92  C   UNL A   1      52.184  26.188  27.211  1.00  0.00     0.059 A 
ATOM     93  C   UNL A   1      51.595  26.605  24.891  1.00  0.00     0.059 A 
ATOM     94  F   UNL A   1      49.435  27.346  24.356  1.00  0.00    -0.206 F 
ATOM     95  C   UNL A   1      52.525  26.224  25.857  1.00  0.00     0.060 A 
BRANCH  95  96
ATOM     96  S   UNL A   1      54.193  25.733  25.369  1.00  0.00     0.124 S 
ATOM     97  O   UNL A   1      53.950  24.424  24.772  1.00  0.00    -0.237 OA
ATOM     98  O   UNL A   1      54.573  26.794  24.441  1.00  0.00    -0.237 OA
ATOM     99  O   UNL A   1      54.926  25.722  26.632  1.00  0.00    -0.744 OA
ENDBRANCH  95  96
ENDBRANCH  63  88
ENDBRANCH  37  38
ENDBRANCH  30  32
ENDBRANCH  29  30
ENDBRANCH  28  29
ENDBRANCH  27  28
ENDBRANCH  26  27
ENDBRANCH  25  26
ENDBRANCH   1  25
TORSDOF 24
ENDMDL
