MODEL 1
REMARK VINA RESULT:     -10.1      0.000      0.000
REMARK SMILES Cc1ccc(-c2c(C)sc(NC(=O)[C@H]3CC=CC[C@H]3C(=O)OCCOCCOCCOC(=O)c3ccc(-c4c5nc(c(-c6c(F)cc(S(=O)(=O)[O-])cc6F)c6ccc([nH]6)c(-c6c(F)cc(S(=O)(=O)[O-])cc6F)c6nc(c(-c7c(F)cc(S(=O)(=O)[O-])cc7F)c7ccc4[nH]7)C=C6)C=C5)cc3)c2C(N)=O)cc1
REMARK SMILES IDX 26 1 25 2 24 3 23 4 22 5 20 6 21 7 19 8 14 9 15 10 16 11
REMARK SMILES IDX 18 12 17 13 12 14 11 15 13 17 10 18 6 19 7 20 100 21 8 22
REMARK SMILES IDX 9 23 5 24 1 25 2 26 3 27 105 28 4 29 104 30 101 31 102 32
REMARK SMILES IDX 103 33 27 36 28 37 29 38 30 39 31 40 32 41 33 42 34 43 35 44
REMARK SMILES IDX 99 45 36 46 98 47 37 48 38 49 39 50 92 51 40 52 97 53 91 54
REMARK SMILES IDX 93 55 41 56 96 57 90 58 89 59 42 61 76 62 55 63 75 64 56 65
REMARK SMILES IDX 59 66 74 67 94 68 57 69 58 70 73 72 95 73 60 74 43 75 44 76
REMARK SMILES IDX 53 77 45 78 46 79 52 80 54 81 47 82 48 83 49 84 50 85 51 86
REMARK SMILES IDX 77 87 78 88 87 89 79 90 80 91 86 92 88 93 81 94 82 95 83 96
REMARK SMILES IDX 84 97 85 98 61 99 62 100 71 101 63 102 64 103 70 104 72 105
REMARK SMILES IDX 65 106 66 107 67 108 68 109 69 110
REMARK H PARENT 11 16 102 34 102 35 93 60 59 71
REMARK Flexibility Score: inf
ROOT
ATOM      1  C   UNL A   1      43.533  41.845  25.002  1.00  0.00     0.188 C 
ENDROOT
BRANCH   1   2
ATOM      2  O   UNL A   1      42.553  41.578  24.018  1.00  0.00    -0.376 OA
BRANCH   2   3
ATOM      3  C   UNL A   1      42.153  42.754  23.333  1.00  0.00     0.202 C 
BRANCH   3   4
ATOM      4  C   UNL A   1      41.795  42.667  21.817  1.00  0.00     0.261 C 
BRANCH   4   5
ATOM      5  O   UNL A   1      41.246  43.900  20.796  1.00  0.00    -0.463 OA
BRANCH   5   6
ATOM      6  C   UNL A   1      41.175  44.229  19.389  1.00  0.00     0.310 C 
ATOM      7  O   UNL A   1      40.186  43.768  18.808  1.00  0.00    -0.252 OA
BRANCH   6   8
ATOM      8  C   UNL A   1      42.047  45.209  18.382  1.00  0.00     0.116 C 
ATOM      9  C   UNL A   1      43.316  46.185  18.408  1.00  0.00     0.097 C 
ATOM     10  C   UNL A   1      42.928  47.509  17.709  1.00  0.00     0.041 C 
ATOM     11  C   UNL A   1      42.124  47.322  16.450  1.00  0.00    -0.030 C 
ATOM     12  C   UNL A   1      41.775  44.873  16.881  1.00  0.00     0.043 C 
ATOM     13  C   UNL A   1      41.656  46.130  16.049  1.00  0.00    -0.030 C 
BRANCH   9  14
ATOM     14  C   UNL A   1      44.837  45.769  18.100  1.00  0.00     0.229 C 
ATOM     15  N   UNL A   1      46.024  46.304  18.528  1.00  0.00    -0.317 N 
ATOM     16  H   UNL A   1      46.600  46.671  17.819  1.00  0.00     0.170 HD
ATOM     17  O   UNL A   1      45.022  44.826  17.304  1.00  0.00    -0.274 OA
BRANCH  15  18
ATOM     18  C   UNL A   1      46.534  46.404  19.818  1.00  0.00     0.109 A 
ATOM     19  C   UNL A   1      47.600  46.170  21.867  1.00  0.00     0.010 A 
ATOM     20  C   UNL A   1      47.863  47.484  21.515  1.00  0.00     0.012 A 
ATOM     21  C   UNL A   1      46.673  45.534  20.913  1.00  0.00     0.082 A 
ATOM     22  C   UNL A   1      48.859  48.478  21.996  1.00  0.00     0.057 C 
ATOM     23  S   UNL A   1      46.644  47.979  20.455  1.00  0.00    -0.122 S 
BRANCH  19  24
ATOM     24  C   UNL A   1      48.148  45.662  23.119  1.00  0.00    -0.016 A 
ATOM     25  C   UNL A   1      49.601  44.425  26.979  1.00  0.00     0.044 C 
ATOM     26  C   UNL A   1      49.095  44.860  25.637  1.00  0.00    -0.051 A 
ATOM     27  C   UNL A   1      49.985  45.076  24.575  1.00  0.00     0.004 A 
ATOM     28  C   UNL A   1      47.726  45.029  25.427  1.00  0.00     0.004 A 
ATOM     29  C   UNL A   1      49.517  45.483  23.320  1.00  0.00     0.009 A 
ATOM     30  C   UNL A   1      47.258  45.411  24.174  1.00  0.00     0.009 A 
ENDBRANCH  19  24
BRANCH  21  31
ATOM     31  C   UNL A   1      46.068  44.219  21.192  1.00  0.00     0.252 C 
ATOM     32  N   UNL A   1      46.777  43.078  20.920  1.00  0.00    -0.365 N 
ATOM     33  O   UNL A   1      44.928  44.069  21.584  1.00  0.00    -0.269 OA
ATOM     34  H   UNL A   1      47.705  43.140  20.600  1.00  0.00     0.159 HD
ATOM     35  H   UNL A   1      46.358  42.196  21.046  1.00  0.00     0.159 HD
ENDBRANCH  21  31
ENDBRANCH  15  18
ENDBRANCH   9  14
ENDBRANCH   6   8
ENDBRANCH   5   6
ENDBRANCH   4   5
ENDBRANCH   3   4
ENDBRANCH   2   3
ENDBRANCH   1   2
BRANCH   1  36
ATOM     36  C   UNL A   1      43.608  40.753  26.074  1.00  0.00     0.188 C 
BRANCH  36  37
ATOM     37  O   UNL A   1      44.856  40.084  26.165  1.00  0.00    -0.376 OA
BRANCH  37  38
ATOM     38  C   UNL A   1      45.986  40.600  25.488  1.00  0.00     0.202 C 
BRANCH  38  39
ATOM     39  C   UNL A   1      46.822  39.403  25.048  1.00  0.00     0.261 C 
BRANCH  39  40
ATOM     40  O   UNL A   1      46.440  38.179  25.733  1.00  0.00    -0.460 OA
BRANCH  40  41
ATOM     41  C   UNL A   1      47.458  37.388  26.164  1.00  0.00     0.338 C 
ATOM     42  O   UNL A   1      48.530  37.796  26.581  1.00  0.00    -0.246 OA
BRANCH  41  43
ATOM     43  C   UNL A   1      47.093  35.961  25.960  1.00  0.00     0.060 A 
ATOM     44  C   UNL A   1      45.771  35.719  25.777  1.00  0.00     0.016 A 
ATOM     45  C   UNL A   1      47.915  34.859  26.234  1.00  0.00     0.016 A 
ATOM     46  C   UNL A   1      45.304  34.412  26.004  1.00  0.00     0.010 A 
ATOM     47  C   UNL A   1      47.382  33.549  26.488  1.00  0.00     0.010 A 
ATOM     48  C   UNL A   1      46.011  33.245  26.415  1.00  0.00    -0.014 A 
BRANCH  48  49
ATOM     49  C   UNL A   1      45.466  31.778  26.995  1.00  0.00     0.031 A 
ATOM     50  C   UNL A   1      44.652  31.901  28.239  1.00  0.00     0.074 A 
ATOM     51  C   UNL A   1      45.540  30.407  26.587  1.00  0.00     0.049 A 
ATOM     52  N   UNL A   1      44.508  30.956  29.112  1.00  0.00    -0.248 NA
ATOM     53  C   UNL A   1      44.004  33.144  28.637  1.00  0.00     0.031 C 
ATOM     54  C   UNL A   1      44.502  29.367  26.761  1.00  0.00     0.029 A 
ATOM     55  N   UNL A   1      46.418  29.628  25.776  1.00  0.00    -0.354 N 
ATOM     56  C   UNL A   1      43.485  31.350  29.936  1.00  0.00     0.074 A 
ATOM     57  C   UNL A   1      43.334  32.762  29.721  1.00  0.00     0.031 C 
ATOM     58  C   UNL A   1      44.908  28.170  26.270  1.00  0.00     0.029 A 
ATOM     59  C   UNL A   1      46.288  28.263  25.830  1.00  0.00     0.049 A 
ATOM     60  H   UNL A   1      47.092  30.054  25.198  1.00  0.00     0.167 HD
ATOM     61  C   UNL A   1      42.651  30.448  30.520  1.00  0.00     0.037 A 
ATOM     62  C   UNL A   1      47.338  27.369  25.893  1.00  0.00     0.037 A 
ATOM     63  C   UNL A   1      42.922  29.093  30.056  1.00  0.00     0.049 A 
ATOM     64  C   UNL A   1      47.103  26.568  27.139  1.00  0.00     0.074 A 
ATOM     65  C   UNL A   1      42.305  28.317  29.088  1.00  0.00     0.029 A 
ATOM     66  N   UNL A   1      44.124  28.457  30.350  1.00  0.00    -0.354 N 
ATOM     67  N   UNL A   1      46.351  27.022  28.101  1.00  0.00    -0.248 NA
ATOM     68  C   UNL A   1      47.603  25.228  27.403  1.00  0.00     0.031 C 
ATOM     69  C   UNL A   1      43.090  27.162  28.870  1.00  0.00     0.029 A 
ATOM     70  C   UNL A   1      44.198  27.240  29.695  1.00  0.00     0.049 A 
ATOM     71  H   UNL A   1      44.824  28.820  30.940  1.00  0.00     0.167 HD
ATOM     72  C   UNL A   1      46.130  26.041  29.012  1.00  0.00     0.074 A 
ATOM     73  C   UNL A   1      46.975  24.948  28.562  1.00  0.00     0.031 C 
ATOM     74  C   UNL A   1      45.223  26.248  30.011  1.00  0.00     0.037 A 
BRANCH  61  75
ATOM     75  C   UNL A   1      41.351  30.918  31.137  1.00  0.00     0.058 A 
ATOM     76  C   UNL A   1      40.146  30.936  30.413  1.00  0.00     0.135 A 
ATOM     77  C   UNL A   1      41.269  31.443  32.446  1.00  0.00     0.135 A 
ATOM     78  F   UNL A   1      40.042  30.384  29.198  1.00  0.00    -0.206 F 
ATOM     79  C   UNL A   1      38.987  31.542  30.894  1.00  0.00     0.059 A 
ATOM     80  C   UNL A   1      40.139  32.107  32.930  1.00  0.00     0.059 A 
ATOM     81  F   UNL A   1      42.314  31.346  33.284  1.00  0.00    -0.206 F 
ATOM     82  C   UNL A   1      38.999  32.155  32.139  1.00  0.00     0.060 A 
BRANCH  82  83
ATOM     83  S   UNL A   1      37.507  33.001  32.690  1.00  0.00     0.124 S 
ATOM     84  O   UNL A   1      37.193  33.854  31.546  1.00  0.00    -0.237 OA
ATOM     85  O   UNL A   1      36.598  31.882  32.914  1.00  0.00    -0.237 OA
ATOM     86  O   UNL A   1      37.942  33.713  33.887  1.00  0.00    -0.744 OA
ENDBRANCH  82  83
ENDBRANCH  61  75
BRANCH  62  87
ATOM     87  C   UNL A   1      48.725  27.701  25.340  1.00  0.00     0.058 A 
ATOM     88  C   UNL A   1      49.666  28.354  26.158  1.00  0.00     0.135 A 
ATOM     89  C   UNL A   1      49.256  27.147  24.159  1.00  0.00     0.135 A 
ATOM     90  F   UNL A   1      49.244  29.086  27.202  1.00  0.00    -0.206 F 
ATOM     91  C   UNL A   1      51.053  28.213  25.985  1.00  0.00     0.059 A 
ATOM     92  C   UNL A   1      50.641  26.906  24.015  1.00  0.00     0.059 A 
ATOM     93  F   UNL A   1      48.442  26.641  23.221  1.00  0.00    -0.206 F 
ATOM     94  C   UNL A   1      51.523  27.359  24.994  1.00  0.00     0.060 A 
BRANCH  94  95
ATOM     95  S   UNL A   1      53.175  26.589  25.131  1.00  0.00     0.124 S 
ATOM     96  O   UNL A   1      52.916  25.203  24.765  1.00  0.00    -0.237 OA
ATOM     97  O   UNL A   1      53.989  27.335  24.174  1.00  0.00    -0.237 OA
ATOM     98  O   UNL A   1      53.514  26.831  26.532  1.00  0.00    -0.744 OA
ENDBRANCH  94  95
ENDBRANCH  62  87
BRANCH  74  99
ATOM     99  C   UNL A   1      45.061  25.462  31.285  1.00  0.00     0.058 A 
ATOM    100  C   UNL A   1      45.371  25.943  32.562  1.00  0.00     0.135 A 
ATOM    101  C   UNL A   1      44.433  24.187  31.256  1.00  0.00     0.135 A 
ATOM    102  F   UNL A   1      45.859  27.171  32.765  1.00  0.00    -0.206 F 
ATOM    103  C   UNL A   1      45.141  25.196  33.713  1.00  0.00     0.059 A 
ATOM    104  C   UNL A   1      44.132  23.457  32.393  1.00  0.00     0.059 A 
ATOM    105  F   UNL A   1      44.051  23.591  30.119  1.00  0.00    -0.206 F 
ATOM    106  C   UNL A   1      44.515  23.960  33.619  1.00  0.00     0.060 A 
BRANCH 106 107
ATOM    107  S   UNL A   1      44.165  23.041  35.117  1.00  0.00     0.124 S 
ATOM    108  O   UNL A   1      42.730  23.262  35.261  1.00  0.00    -0.237 OA
ATOM    109  O   UNL A   1      44.566  21.687  34.747  1.00  0.00    -0.237 OA
ATOM    110  O   UNL A   1      45.007  23.687  36.119  1.00  0.00    -0.744 OA
ENDBRANCH 106 107
ENDBRANCH  74  99
ENDBRANCH  48  49
ENDBRANCH  41  43
ENDBRANCH  40  41
ENDBRANCH  39  40
ENDBRANCH  38  39
ENDBRANCH  37  38
ENDBRANCH  36  37
ENDBRANCH   1  36
TORSDOF 24
ENDMDL
MODEL 2
REMARK VINA RESULT:     -10.0      9.786     14.613
REMARK SMILES Cc1ccc(-c2c(C)sc(NC(=O)[C@H]3CC=CC[C@H]3C(=O)OCCOCCOCCOC(=O)c3ccc(-c4c5nc(c(-c6c(F)cc(S(=O)(=O)[O-])cc6F)c6ccc([nH]6)c(-c6c(F)cc(S(=O)(=O)[O-])cc6F)c6nc(c(-c7c(F)cc(S(=O)(=O)[O-])cc7F)c7ccc4[nH]7)C=C6)C=C5)cc3)c2C(N)=O)cc1
REMARK SMILES IDX 26 1 25 2 24 3 23 4 22 5 20 6 21 7 19 8 14 9 15 10 16 11
REMARK SMILES IDX 18 12 17 13 12 14 11 15 13 17 10 18 6 19 7 20 100 21 8 22
REMARK SMILES IDX 9 23 5 24 1 25 2 26 3 27 105 28 4 29 104 30 101 31 102 32
REMARK SMILES IDX 103 33 27 36 28 37 29 38 30 39 31 40 32 41 33 42 34 43 35 44
REMARK SMILES IDX 99 45 36 46 98 47 37 48 38 49 39 50 92 51 40 52 97 53 91 54
REMARK SMILES IDX 93 55 41 56 96 57 90 58 89 59 42 61 76 62 55 63 75 64 56 65
REMARK SMILES IDX 59 66 74 67 94 68 57 69 58 70 73 72 95 73 60 74 43 75 44 76
REMARK SMILES IDX 53 77 45 78 46 79 52 80 54 81 47 82 48 83 49 84 50 85 51 86
REMARK SMILES IDX 77 87 78 88 87 89 79 90 80 91 86 92 88 93 81 94 82 95 83 96
REMARK SMILES IDX 84 97 85 98 61 99 62 100 71 101 63 102 64 103 70 104 72 105
REMARK SMILES IDX 65 106 66 107 67 108 68 109 69 110
REMARK H PARENT 11 16 102 34 102 35 93 60 59 71
REMARK Flexibility Score: inf
ROOT
ATOM      1  C   UNL A   1      46.619  28.244  37.544  1.00  0.00     0.188 C 
ENDROOT
BRANCH   1   2
ATOM      2  O   UNL A   1      47.219  29.524  37.505  1.00  0.00    -0.376 OA
BRANCH   2   3
ATOM      3  C   UNL A   1      47.443  29.967  36.176  1.00  0.00     0.202 C 
BRANCH   3   4
ATOM      4  C   UNL A   1      47.259  31.477  35.836  1.00  0.00     0.261 C 
BRANCH   4   5
ATOM      5  O   UNL A   1      47.169  32.206  34.311  1.00  0.00    -0.463 OA
BRANCH   5   6
ATOM      6  C   UNL A   1      46.282  32.296  33.172  1.00  0.00     0.310 C 
ATOM      7  O   UNL A   1      45.547  33.288  33.176  1.00  0.00    -0.252 OA
BRANCH   6   8
ATOM      8  C   UNL A   1      46.110  31.440  31.767  1.00  0.00     0.116 C 
ATOM      9  C   UNL A   1      46.205  31.644  30.181  1.00  0.00     0.097 C 
ATOM     10  C   UNL A   1      44.948  31.018  29.533  1.00  0.00     0.041 C 
ATOM     11  C   UNL A   1      44.557  29.688  30.118  1.00  0.00    -0.030 C 
ATOM     12  C   UNL A   1      46.179  29.901  32.023  1.00  0.00     0.043 C 
ATOM     13  C   UNL A   1      45.148  29.161  31.201  1.00  0.00    -0.030 C 
BRANCH   9  14
ATOM     14  C   UNL A   1      47.514  31.430  29.276  1.00  0.00     0.229 C 
ATOM     15  N   UNL A   1      48.117  30.289  28.813  1.00  0.00    -0.317 N 
ATOM     16  H   UNL A   1      49.034  30.137  29.137  1.00  0.00     0.170 HD
ATOM     17  O   UNL A   1      48.154  32.450  28.946  1.00  0.00    -0.274 OA
BRANCH  15  18
ATOM     18  C   UNL A   1      47.621  29.315  27.955  1.00  0.00     0.109 A 
ATOM     19  C   UNL A   1      46.871  27.398  26.880  1.00  0.00     0.010 A 
ATOM     20  C   UNL A   1      45.870  28.321  26.628  1.00  0.00     0.012 A 
ATOM     21  C   UNL A   1      48.015  28.021  27.569  1.00  0.00     0.082 A 
ATOM     22  C   UNL A   1      44.463  28.185  26.166  1.00  0.00     0.057 C 
ATOM     23  S   UNL A   1      46.558  29.861  26.742  1.00  0.00    -0.122 S 
BRANCH  19  24
ATOM     24  C   UNL A   1      46.717  26.045  26.358  1.00  0.00    -0.016 A 
ATOM     25  C   UNL A   1      46.180  22.194  24.508  1.00  0.00     0.044 C 
ATOM     26  C   UNL A   1      46.364  23.536  25.149  1.00  0.00    -0.051 A 
ATOM     27  C   UNL A   1      45.685  23.861  26.333  1.00  0.00     0.004 A 
ATOM     28  C   UNL A   1      47.236  24.468  24.584  1.00  0.00     0.004 A 
ATOM     29  C   UNL A   1      45.853  25.114  26.934  1.00  0.00     0.009 A 
ATOM     30  C   UNL A   1      47.421  25.705  25.194  1.00  0.00     0.009 A 
ENDBRANCH  19  24
BRANCH  21  31
ATOM     31  C   UNL A   1      49.291  27.302  27.744  1.00  0.00     0.252 C 
ATOM     32  N   UNL A   1      49.510  26.586  28.892  1.00  0.00    -0.365 N 
ATOM     33  O   UNL A   1      50.215  27.363  26.958  1.00  0.00    -0.269 OA
ATOM     34  H   UNL A   1      48.795  26.503  29.563  1.00  0.00     0.159 HD
ATOM     35  H   UNL A   1      50.381  26.153  29.043  1.00  0.00     0.159 HD
ENDBRANCH  21  31
ENDBRANCH  15  18
ENDBRANCH   9  14
ENDBRANCH   6   8
ENDBRANCH   5   6
ENDBRANCH   4   5
ENDBRANCH   3   4
ENDBRANCH   2   3
ENDBRANCH   1   2
BRANCH   1  36
ATOM     36  C   UNL A   1      45.357  28.209  38.413  1.00  0.00     0.188 C 
BRANCH  36  37
ATOM     37  O   UNL A   1      45.102  26.968  39.053  1.00  0.00    -0.376 OA
BRANCH  37  38
ATOM     38  C   UNL A   1      46.139  26.016  39.189  1.00  0.00     0.202 C 
BRANCH  38  39
ATOM     39  C   UNL A   1      45.756  24.820  38.323  1.00  0.00     0.261 C 
BRANCH  39  40
ATOM     40  O   UNL A   1      45.495  25.195  36.944  1.00  0.00    -0.460 OA
BRANCH  40  41
ATOM     41  C   UNL A   1      44.822  24.287  36.190  1.00  0.00     0.338 C 
ATOM     42  O   UNL A   1      44.970  23.077  36.258  1.00  0.00    -0.246 OA
BRANCH  41  43
ATOM     43  C   UNL A   1      43.956  25.001  35.214  1.00  0.00     0.060 A 
ATOM     44  C   UNL A   1      44.613  25.748  34.291  1.00  0.00     0.016 A 
ATOM     45  C   UNL A   1      42.576  25.208  35.344  1.00  0.00     0.016 A 
ATOM     46  C   UNL A   1      43.893  26.760  33.632  1.00  0.00     0.010 A 
ATOM     47  C   UNL A   1      41.895  26.279  34.669  1.00  0.00     0.010 A 
ATOM     48  C   UNL A   1      42.532  27.157  33.774  1.00  0.00    -0.014 A 
BRANCH  48  49
ATOM     49  C   UNL A   1      41.728  28.527  33.261  1.00  0.00     0.031 A 
ATOM     50  C   UNL A   1      41.191  29.351  34.382  1.00  0.00     0.074 A 
ATOM     51  C   UNL A   1      41.444  29.157  32.006  1.00  0.00     0.049 A 
ATOM     52  N   UNL A   1      40.186  30.161  34.276  1.00  0.00    -0.248 NA
ATOM     53  C   UNL A   1      41.699  29.254  35.745  1.00  0.00     0.031 C 
ATOM     54  C   UNL A   1      41.366  30.609  31.734  1.00  0.00     0.029 A 
ATOM     55  N   UNL A   1      41.343  28.730  30.648  1.00  0.00    -0.354 N 
ATOM     56  C   UNL A   1      40.187  30.922  35.417  1.00  0.00     0.074 A 
ATOM     57  C   UNL A   1      41.010  30.214  36.357  1.00  0.00     0.031 C 
ATOM     58  C   UNL A   1      41.063  30.858  30.435  1.00  0.00     0.029 A 
ATOM     59  C   UNL A   1      40.797  29.608  29.746  1.00  0.00     0.049 A 
ATOM     60  H   UNL A   1      41.653  27.839  30.369  1.00  0.00     0.167 HD
ATOM     61  C   UNL A   1      39.750  32.210  35.415  1.00  0.00     0.037 A 
ATOM     62  C   UNL A   1      39.885  29.273  28.766  1.00  0.00     0.037 A 
ATOM     63  C   UNL A   1      39.424  32.662  34.068  1.00  0.00     0.049 A 
ATOM     64  C   UNL A   1      38.692  30.146  29.017  1.00  0.00     0.074 A 
ATOM     65  C   UNL A   1      40.148  33.411  33.153  1.00  0.00     0.029 A 
ATOM     66  N   UNL A   1      38.367  32.103  33.356  1.00  0.00    -0.354 N 
ATOM     67  N   UNL A   1      38.482  30.682  30.186  1.00  0.00    -0.248 NA
ATOM     68  C   UNL A   1      37.697  30.542  28.033  1.00  0.00     0.031 C 
ATOM     69  C   UNL A   1      39.473  33.381  31.913  1.00  0.00     0.029 A 
ATOM     70  C   UNL A   1      38.340  32.600  32.064  1.00  0.00     0.049 A 
ATOM     71  H   UNL A   1      37.729  31.446  33.718  1.00  0.00     0.167 HD
ATOM     72  C   UNL A   1      37.470  31.582  30.105  1.00  0.00     0.074 A 
ATOM     73  C   UNL A   1      36.973  31.425  28.749  1.00  0.00     0.031 C 
ATOM     74  C   UNL A   1      37.202  32.387  31.173  1.00  0.00     0.037 A 
BRANCH  61  75
ATOM     75  C   UNL A   1      40.074  33.113  36.586  1.00  0.00     0.058 A 
ATOM     76  C   UNL A   1      41.367  33.625  36.798  1.00  0.00     0.135 A 
ATOM     77  C   UNL A   1      39.131  33.441  37.585  1.00  0.00     0.135 A 
ATOM     78  F   UNL A   1      42.341  33.483  35.892  1.00  0.00    -0.206 F 
ATOM     79  C   UNL A   1      41.730  34.293  37.965  1.00  0.00     0.059 A 
ATOM     80  C   UNL A   1      39.481  34.057  38.790  1.00  0.00     0.059 A 
ATOM     81  F   UNL A   1      37.833  33.137  37.421  1.00  0.00    -0.206 F 
ATOM     82  C   UNL A   1      40.792  34.477  38.971  1.00  0.00     0.060 A 
BRANCH  82  83
ATOM     83  S   UNL A   1      41.322  35.269  40.500  1.00  0.00     0.124 S 
ATOM     84  O   UNL A   1      40.685  36.581  40.409  1.00  0.00    -0.237 OA
ATOM     85  O   UNL A   1      40.773  34.367  41.507  1.00  0.00    -0.237 OA
ATOM     86  O   UNL A   1      42.777  35.284  40.388  1.00  0.00    -0.744 OA
ENDBRANCH  82  83
ENDBRANCH  61  75
BRANCH  62  87
ATOM     87  C   UNL A   1      39.803  27.863  28.178  1.00  0.00     0.058 A 
ATOM     88  C   UNL A   1      40.514  27.554  27.004  1.00  0.00     0.135 A 
ATOM     89  C   UNL A   1      39.304  26.746  28.875  1.00  0.00     0.135 A 
ATOM     90  F   UNL A   1      40.862  28.538  26.159  1.00  0.00    -0.206 F 
ATOM     91  C   UNL A   1      40.956  26.255  26.701  1.00  0.00     0.059 A 
ATOM     92  C   UNL A   1      39.814  25.448  28.652  1.00  0.00     0.059 A 
ATOM     93  F   UNL A   1      38.476  26.911  29.918  1.00  0.00    -0.206 F 
ATOM     94  C   UNL A   1      40.724  25.235  27.618  1.00  0.00     0.060 A 
BRANCH  94  95
ATOM     95  S   UNL A   1      41.805  23.761  27.669  1.00  0.00     0.124 S 
ATOM     96  O   UNL A   1      42.237  23.631  26.284  1.00  0.00    -0.237 OA
ATOM     97  O   UNL A   1      42.859  24.134  28.609  1.00  0.00    -0.237 OA
ATOM     98  O   UNL A   1      40.895  22.727  28.159  1.00  0.00    -0.744 OA
ENDBRANCH  94  95
ENDBRANCH  62  87
BRANCH  74  99
ATOM     99  C   UNL A   1      35.960  33.198  31.426  1.00  0.00     0.058 A 
ATOM    100  C   UNL A   1      35.227  33.181  32.619  1.00  0.00     0.135 A 
ATOM    101  C   UNL A   1      35.534  34.160  30.469  1.00  0.00     0.135 A 
ATOM    102  F   UNL A   1      35.572  32.416  33.659  1.00  0.00    -0.206 F 
ATOM    103  C   UNL A   1      34.121  34.001  32.822  1.00  0.00     0.059 A 
ATOM    104  C   UNL A   1      34.479  35.032  30.679  1.00  0.00     0.059 A 
ATOM    105  F   UNL A   1      36.138  34.324  29.285  1.00  0.00    -0.206 F 
ATOM    106  C   UNL A   1      33.760  34.927  31.852  1.00  0.00     0.060 A 
BRANCH 106 107
ATOM    107  S   UNL A   1      32.375  36.020  32.158  1.00  0.00     0.124 S 
ATOM    108  O   UNL A   1      31.373  35.081  32.653  1.00  0.00    -0.237 OA
ATOM    109  O   UNL A   1      32.925  36.942  33.147  1.00  0.00    -0.237 OA
ATOM    110  O   UNL A   1      32.102  36.603  30.849  1.00  0.00    -0.744 OA
ENDBRANCH 106 107
ENDBRANCH  74  99
ENDBRANCH  48  49
ENDBRANCH  41  43
ENDBRANCH  40  41
ENDBRANCH  39  40
ENDBRANCH  38  39
ENDBRANCH  37  38
ENDBRANCH  36  37
ENDBRANCH   1  36
TORSDOF 24
ENDMDL
MODEL 3
REMARK VINA RESULT:      -9.8      9.622     13.339
REMARK SMILES Cc1ccc(-c2c(C)sc(NC(=O)[C@H]3CC=CC[C@H]3C(=O)OCCOCCOCCOC(=O)c3ccc(-c4c5nc(c(-c6c(F)cc(S(=O)(=O)[O-])cc6F)c6ccc([nH]6)c(-c6c(F)cc(S(=O)(=O)[O-])cc6F)c6nc(c(-c7c(F)cc(S(=O)(=O)[O-])cc7F)c7ccc4[nH]7)C=C6)C=C5)cc3)c2C(N)=O)cc1
REMARK SMILES IDX 26 1 25 2 24 3 23 4 22 5 20 6 21 7 19 8 14 9 15 10 16 11
REMARK SMILES IDX 18 12 17 13 12 14 11 15 13 17 10 18 6 19 7 20 100 21 8 22
REMARK SMILES IDX 9 23 5 24 1 25 2 26 3 27 105 28 4 29 104 30 101 31 102 32
REMARK SMILES IDX 103 33 27 36 28 37 29 38 30 39 31 40 32 41 33 42 34 43 35 44
REMARK SMILES IDX 99 45 36 46 98 47 37 48 38 49 39 50 92 51 40 52 97 53 91 54
REMARK SMILES IDX 93 55 41 56 96 57 90 58 89 59 42 61 76 62 55 63 75 64 56 65
REMARK SMILES IDX 59 66 74 67 94 68 57 69 58 70 73 72 95 73 60 74 43 75 44 76
REMARK SMILES IDX 53 77 45 78 46 79 52 80 54 81 47 82 48 83 49 84 50 85 51 86
REMARK SMILES IDX 77 87 78 88 87 89 79 90 80 91 86 92 88 93 81 94 82 95 83 96
REMARK SMILES IDX 84 97 85 98 61 99 62 100 71 101 63 102 64 103 70 104 72 105
REMARK SMILES IDX 65 106 66 107 67 108 68 109 69 110
REMARK H PARENT 11 16 102 34 102 35 93 60 59 71
REMARK Flexibility Score: inf
ROOT
ATOM      1  C   UNL A   1      50.204  28.309  30.055  1.00  0.00     0.188 C 
ENDROOT
BRANCH   1   2
ATOM      2  O   UNL A   1      50.010  27.780  31.351  1.00  0.00    -0.376 OA
BRANCH   2   3
ATOM      3  C   UNL A   1      48.642  27.522  31.622  1.00  0.00     0.202 C 
BRANCH   3   4
ATOM      4  C   UNL A   1      47.807  28.583  32.402  1.00  0.00     0.261 C 
BRANCH   4   5
ATOM      5  O   UNL A   1      46.387  29.366  31.917  1.00  0.00    -0.463 OA
BRANCH   5   6
ATOM      6  C   UNL A   1      45.941  30.391  30.998  1.00  0.00     0.310 C 
ATOM      7  O   UNL A   1      46.505  30.369  29.899  1.00  0.00    -0.252 OA
BRANCH   6   8
ATOM      8  C   UNL A   1      44.735  31.522  31.020  1.00  0.00     0.116 C 
ATOM      9  C   UNL A   1      43.398  31.911  30.229  1.00  0.00     0.097 C 
ATOM     10  C   UNL A   1      43.435  33.428  29.925  1.00  0.00     0.041 C 
ATOM     11  C   UNL A   1      43.927  34.269  31.072  1.00  0.00    -0.030 C 
ATOM     12  C   UNL A   1      44.676  32.267  32.391  1.00  0.00     0.043 C 
ATOM     13  C   UNL A   1      44.431  33.747  32.201  1.00  0.00    -0.030 C 
BRANCH   9  14
ATOM     14  C   UNL A   1      41.913  31.408  30.576  1.00  0.00     0.229 C 
ATOM     15  N   UNL A   1      40.900  30.957  29.770  1.00  0.00    -0.317 N 
ATOM     16  H   UNL A   1      40.081  31.506  29.777  1.00  0.00     0.170 HD
ATOM     17  O   UNL A   1      41.557  31.456  31.772  1.00  0.00    -0.274 OA
BRANCH  15  18
ATOM     18  C   UNL A   1      40.859  29.840  28.943  1.00  0.00     0.109 A 
ATOM     19  C   UNL A   1      41.189  27.859  27.779  1.00  0.00     0.010 A 
ATOM     20  C   UNL A   1      39.861  27.788  28.167  1.00  0.00     0.012 A 
ATOM     21  C   UNL A   1      41.778  29.166  28.121  1.00  0.00     0.082 A 
ATOM     22  C   UNL A   1      38.891  26.664  28.249  1.00  0.00     0.057 C 
ATOM     23  S   UNL A   1      39.315  29.370  28.402  1.00  0.00    -0.122 S 
BRANCH  19  24
ATOM     24  C   UNL A   1      41.754  26.745  27.026  1.00  0.00    -0.016 A 
ATOM     25  C   UNL A   1      43.633  23.397  25.077  1.00  0.00     0.044 C 
ATOM     26  C   UNL A   1      42.983  24.563  25.757  1.00  0.00    -0.051 A 
ATOM     27  C   UNL A   1      42.918  25.814  25.125  1.00  0.00     0.004 A 
ATOM     28  C   UNL A   1      42.412  24.406  27.022  1.00  0.00     0.004 A 
ATOM     29  C   UNL A   1      42.313  26.906  25.758  1.00  0.00     0.009 A 
ATOM     30  C   UNL A   1      41.789  25.485  27.641  1.00  0.00     0.009 A 
ENDBRANCH  19  24
BRANCH  21  31
ATOM     31  C   UNL A   1      43.104  29.566  27.613  1.00  0.00     0.252 C 
ATOM     32  N   UNL A   1      43.190  30.310  26.465  1.00  0.00    -0.365 N 
ATOM     33  O   UNL A   1      44.153  29.210  28.110  1.00  0.00    -0.269 OA
ATOM     34  H   UNL A   1      42.372  30.625  26.020  1.00  0.00     0.159 HD
ATOM     35  H   UNL A   1      44.073  30.530  26.086  1.00  0.00     0.159 HD
ENDBRANCH  21  31
ENDBRANCH  15  18
ENDBRANCH   9  14
ENDBRANCH   6   8
ENDBRANCH   5   6
ENDBRANCH   4   5
ENDBRANCH   3   4
ENDBRANCH   2   3
ENDBRANCH   1   2
BRANCH   1  36
ATOM     36  C   UNL A   1      50.683  27.256  29.051  1.00  0.00     0.188 C 
BRANCH  36  37
ATOM     37  O   UNL A   1      49.850  27.083  27.915  1.00  0.00    -0.376 OA
BRANCH  37  38
ATOM     38  C   UNL A   1      50.363  26.466  26.750  1.00  0.00     0.202 C 
BRANCH  38  39
ATOM     39  C   UNL A   1      49.409  25.330  26.397  1.00  0.00     0.261 C 
BRANCH  39  40
ATOM     40  O   UNL A   1      48.014  25.726  26.494  1.00  0.00    -0.460 OA
BRANCH  40  41
ATOM     41  C   UNL A   1      47.099  24.723  26.460  1.00  0.00     0.338 C 
ATOM     42  O   UNL A   1      47.042  23.859  25.601  1.00  0.00    -0.246 OA
BRANCH  41  43
ATOM     43  C   UNL A   1      46.132  24.900  27.576  1.00  0.00     0.060 A 
ATOM     44  C   UNL A   1      46.096  26.141  28.123  1.00  0.00     0.016 A 
ATOM     45  C   UNL A   1      45.502  23.868  28.285  1.00  0.00     0.016 A 
ATOM     46  C   UNL A   1      45.551  26.275  29.413  1.00  0.00     0.010 A 
ATOM     47  C   UNL A   1      44.989  24.053  29.615  1.00  0.00     0.010 A 
ATOM     48  C   UNL A   1      45.008  25.289  30.285  1.00  0.00    -0.014 A 
BRANCH  48  49
ATOM     49  C   UNL A   1      44.648  25.342  31.915  1.00  0.00     0.031 A 
ATOM     50  C   UNL A   1      44.023  26.627  32.340  1.00  0.00     0.074 A 
ATOM     51  C   UNL A   1      44.747  24.449  33.030  1.00  0.00     0.049 A 
ATOM     52  N   UNL A   1      44.070  27.098  33.545  1.00  0.00    -0.248 NA
ATOM     53  C   UNL A   1      43.363  27.530  31.404  1.00  0.00     0.031 C 
ATOM     54  C   UNL A   1      43.814  24.343  34.173  1.00  0.00     0.029 A 
ATOM     55  N   UNL A   1      45.542  23.310  33.361  1.00  0.00    -0.354 N 
ATOM     56  C   UNL A   1      43.158  28.121  33.591  1.00  0.00     0.074 A 
ATOM     57  C   UNL A   1      42.888  28.464  32.223  1.00  0.00     0.031 C 
ATOM     58  C   UNL A   1      44.218  23.398  35.060  1.00  0.00     0.029 A 
ATOM     59  C   UNL A   1      45.508  22.869  34.660  1.00  0.00     0.049 A 
ATOM     60  H   UNL A   1      46.094  22.859  32.683  1.00  0.00     0.167 HD
ATOM     61  C   UNL A   1      42.479  28.420  34.731  1.00  0.00     0.037 A 
ATOM     62  C   UNL A   1      46.610  22.475  35.391  1.00  0.00     0.037 A 
ATOM     63  C   UNL A   1      42.763  27.459  35.789  1.00  0.00     0.049 A 
ATOM     64  C   UNL A   1      46.614  23.352  36.607  1.00  0.00     0.074 A 
ATOM     65  C   UNL A   1      42.058  26.350  36.231  1.00  0.00     0.029 A 
ATOM     66  N   UNL A   1      44.033  27.355  36.348  1.00  0.00    -0.354 N 
ATOM     67  N   UNL A   1      45.987  24.494  36.618  1.00  0.00    -0.248 NA
ATOM     68  C   UNL A   1      47.232  23.041  37.887  1.00  0.00     0.031 C 
ATOM     69  C   UNL A   1      42.873  25.630  37.133  1.00  0.00     0.029 A 
ATOM     70  C   UNL A   1      44.085  26.292  37.232  1.00  0.00     0.049 A 
ATOM     71  H   UNL A   1      44.789  27.953  36.144  1.00  0.00     0.167 HD
ATOM     72  C   UNL A   1      45.965  24.995  37.879  1.00  0.00     0.074 A 
ATOM     73  C   UNL A   1      46.801  24.077  38.633  1.00  0.00     0.031 C 
ATOM     74  C   UNL A   1      45.206  26.096  38.148  1.00  0.00     0.037 A 
BRANCH  61  75
ATOM     75  C   UNL A   1      41.258  29.313  34.664  1.00  0.00     0.058 A 
ATOM     76  C   UNL A   1      40.130  28.977  33.894  1.00  0.00     0.135 A 
ATOM     77  C   UNL A   1      41.194  30.572  35.300  1.00  0.00     0.135 A 
ATOM     78  F   UNL A   1      40.001  27.779  33.313  1.00  0.00    -0.206 F 
ATOM     79  C   UNL A   1      39.084  29.867  33.664  1.00  0.00     0.059 A 
ATOM     80  C   UNL A   1      40.186  31.506  35.040  1.00  0.00     0.059 A 
ATOM     81  F   UNL A   1      42.141  30.940  36.178  1.00  0.00    -0.206 F 
ATOM     82  C   UNL A   1      39.133  31.141  34.213  1.00  0.00     0.060 A 
BRANCH  82  83
ATOM     83  S   UNL A   1      37.802  32.292  33.823  1.00  0.00     0.124 S 
ATOM     84  O   UNL A   1      37.427  32.794  35.142  1.00  0.00    -0.237 OA
ATOM     85  O   UNL A   1      38.481  33.246  32.952  1.00  0.00    -0.237 OA
ATOM     86  O   UNL A   1      36.801  31.448  33.178  1.00  0.00    -0.744 OA
ENDBRANCH  82  83
ENDBRANCH  61  75
BRANCH  62  87
ATOM     87  C   UNL A   1      47.875  21.928  34.728  1.00  0.00     0.058 A 
ATOM     88  C   UNL A   1      48.985  22.773  34.537  1.00  0.00     0.135 A 
ATOM     89  C   UNL A   1      48.143  20.557  34.548  1.00  0.00     0.135 A 
ATOM     90  F   UNL A   1      48.806  24.103  34.486  1.00  0.00    -0.206 F 
ATOM     91  C   UNL A   1      50.304  22.295  34.473  1.00  0.00     0.059 A 
ATOM     92  C   UNL A   1      49.461  20.051  34.586  1.00  0.00     0.059 A 
ATOM     93  F   UNL A   1      47.140  19.666  34.543  1.00  0.00    -0.206 F 
ATOM     94  C   UNL A   1      50.535  20.936  34.652  1.00  0.00     0.060 A 
BRANCH  94  95
ATOM     95  S   UNL A   1      52.149  20.336  35.269  1.00  0.00     0.124 S 
ATOM     96  O   UNL A   1      53.015  20.491  34.108  1.00  0.00    -0.237 OA
ATOM     97  O   UNL A   1      52.450  21.230  36.385  1.00  0.00    -0.237 OA
ATOM     98  O   UNL A   1      51.839  18.962  35.661  1.00  0.00    -0.744 OA
ENDBRANCH  94  95
ENDBRANCH  62  87
BRANCH  74  99
ATOM     99  C   UNL A   1      45.285  26.997  39.351  1.00  0.00     0.058 A 
ATOM    100  C   UNL A   1      45.702  28.333  39.320  1.00  0.00     0.135 A 
ATOM    101  C   UNL A   1      44.791  26.548  40.607  1.00  0.00     0.135 A 
ATOM    102  F   UNL A   1      46.085  28.936  38.191  1.00  0.00    -0.206 F 
ATOM    103  C   UNL A   1      45.695  29.139  40.454  1.00  0.00     0.059 A 
ATOM    104  C   UNL A   1      44.711  27.354  41.730  1.00  0.00     0.059 A 
ATOM    105  F   UNL A   1      44.332  25.305  40.804  1.00  0.00    -0.206 F 
ATOM    106  C   UNL A   1      45.191  28.645  41.650  1.00  0.00     0.060 A 
BRANCH 106 107
ATOM    107  S   UNL A   1      45.127  29.718  43.082  1.00  0.00     0.124 S 
ATOM    108  O   UNL A   1      43.885  29.281  43.713  1.00  0.00    -0.237 OA
ATOM    109  O   UNL A   1      46.356  29.365  43.786  1.00  0.00    -0.237 OA
ATOM    110  O   UNL A   1      45.103  31.059  42.506  1.00  0.00    -0.744 OA
ENDBRANCH 106 107
ENDBRANCH  74  99
ENDBRANCH  48  49
ENDBRANCH  41  43
ENDBRANCH  40  41
ENDBRANCH  39  40
ENDBRANCH  38  39
ENDBRANCH  37  38
ENDBRANCH  36  37
ENDBRANCH   1  36
TORSDOF 24
ENDMDL
