MODEL 1
REMARK VINA RESULT:      -9.5      0.000      0.000
REMARK SMILES C/C(=N/OCc1ccccc1Nc1c(Cl)cccc1Cl)C(=O)OCCOCCOCCOC(=O)c1ccc(-c2c3nc(c(-c4c(F)cc(S(=O)(=O)[O-])cc4F)c4ccc([nH]4)c(-c4c(F)cc(S(=O)(=O)[O-])cc4F)c4nc(c(-c5c(F)cc(S(=O)(=O)[O-])cc5F)c5ccc2[nH]5)C=C4)C=C3)cc1
REMARK SMILES IDX 27 1 26 2 25 3 24 4 23 5 21 6 22 7 2 8 1 9 3 10 4 11 5 12
REMARK SMILES IDX 6 13 7 14 11 15 8 16 10 17 9 18 12 19 13 21 14 22 19 23
REMARK SMILES IDX 15 24 16 25 18 26 20 27 17 28 28 29 29 30 30 31 31 32 32 33
REMARK SMILES IDX 33 34 34 35 35 36 36 37 100 38 37 39 99 40 38 41 39 42 40 43
REMARK SMILES IDX 93 44 41 45 98 46 92 47 94 48 42 49 97 50 91 51 90 52 43 54
REMARK SMILES IDX 77 55 56 56 76 57 57 58 60 59 75 60 95 61 58 62 59 63 74 65
REMARK SMILES IDX 96 66 61 67 44 68 45 69 54 70 46 71 47 72 53 73 55 74 48 75
REMARK SMILES IDX 49 76 50 77 51 78 52 79 78 80 79 81 88 82 80 83 81 84 87 85
REMARK SMILES IDX 89 86 82 87 83 88 84 89 85 90 86 91 62 92 63 93 72 94 64 95
REMARK SMILES IDX 65 96 71 97 73 98 66 99 67 100 68 101 69 102 70 103
REMARK H PARENT 12 20 94 53 60 64
REMARK Flexibility Score: inf
ROOT
ATOM      1  C   UNL A   1      40.189  21.945  26.708  1.00  0.00     0.188 C 
ENDROOT
BRANCH   1   2
ATOM      2  O   UNL A   1      39.756  23.304  26.741  1.00  0.00    -0.376 OA
BRANCH   2   3
ATOM      3  C   UNL A   1      38.452  23.618  26.255  1.00  0.00     0.202 C 
BRANCH   3   4
ATOM      4  C   UNL A   1      37.636  22.438  25.724  1.00  0.00     0.261 C 
BRANCH   4   5
ATOM      5  O   UNL A   1      36.239  22.744  25.811  1.00  0.00    -0.459 OA
BRANCH   5   6
ATOM      6  C   UNL A   1      35.454  22.234  24.845  1.00  0.00     0.355 C 
ATOM      7  O   UNL A   1      35.271  22.666  23.723  1.00  0.00    -0.245 OA
BRANCH   6   8
ATOM      8  C   UNL A   1      34.989  20.850  25.273  1.00  0.00     0.161 C 
ATOM      9  C   UNL A   1      35.822  19.698  24.787  1.00  0.00     0.079 C 
ATOM     10  N   UNL A   1      33.977  20.608  26.054  1.00  0.00    -0.084 NA
BRANCH  10  11
ATOM     11  O   UNL A   1      33.263  21.780  26.358  1.00  0.00    -0.390 OA
BRANCH  11  12
ATOM     12  C   UNL A   1      32.125  21.882  25.480  1.00  0.00     0.302 C 
BRANCH  12  13
ATOM     13  C   UNL A   1      31.285  23.091  25.842  1.00  0.00     0.016 A 
ATOM     14  C   UNL A   1      30.062  22.877  26.515  1.00  0.00     0.009 A 
ATOM     15  C   UNL A   1      31.689  24.417  25.585  1.00  0.00     0.045 A 
ATOM     16  C   UNL A   1      29.218  23.925  26.866  1.00  0.00     0.001 A 
ATOM     17  C   UNL A   1      30.818  25.464  25.949  1.00  0.00     0.026 A 
ATOM     18  C   UNL A   1      29.592  25.224  26.571  1.00  0.00     0.002 A 
BRANCH  15  19
ATOM     19  N   UNL A   1      32.955  24.707  25.024  1.00  0.00    -0.353 N 
ATOM     20  H   UNL A   1      33.685  24.101  25.285  1.00  0.00     0.167 HD
BRANCH  19  21
ATOM     21  C   UNL A   1      33.313  25.754  24.134  1.00  0.00     0.076 A 
ATOM     22  C   UNL A   1      33.183  25.552  22.745  1.00  0.00     0.066 A 
ATOM     23  C   UNL A   1      33.696  27.041  24.566  1.00  0.00     0.066 A 
ATOM     24  Cl  UNL A   1      32.756  23.996  22.112  1.00  0.00    -0.082 Cl
ATOM     25  C   UNL A   1      33.376  26.594  21.831  1.00  0.00     0.023 A 
ATOM     26  C   UNL A   1      33.883  28.085  23.650  1.00  0.00     0.023 A 
ATOM     27  Cl  UNL A   1      34.045  27.400  26.226  1.00  0.00    -0.082 Cl
ATOM     28  C   UNL A   1      33.711  27.866  22.286  1.00  0.00     0.003 A 
ENDBRANCH  19  21
ENDBRANCH  15  19
ENDBRANCH  12  13
ENDBRANCH  11  12
ENDBRANCH  10  11
ENDBRANCH   6   8
ENDBRANCH   5   6
ENDBRANCH   4   5
ENDBRANCH   3   4
ENDBRANCH   2   3
ENDBRANCH   1   2
BRANCH   1  29
ATOM     29  C   UNL A   1      41.232  21.476  27.743  1.00  0.00     0.188 C 
BRANCH  29  30
ATOM     30  O   UNL A   1      41.642  20.128  27.558  1.00  0.00    -0.376 OA
BRANCH  30  31
ATOM     31  C   UNL A   1      41.392  19.591  26.267  1.00  0.00     0.202 C 
BRANCH  31  32
ATOM     32  C   UNL A   1      42.536  18.714  25.747  1.00  0.00     0.261 C 
BRANCH  32  33
ATOM     33  O   UNL A   1      43.183  19.199  24.560  1.00  0.00    -0.460 OA
BRANCH  33  34
ATOM     34  C   UNL A   1      44.469  19.604  24.682  1.00  0.00     0.338 C 
ATOM     35  O   UNL A   1      45.464  18.981  24.360  1.00  0.00    -0.246 OA
BRANCH  34  36
ATOM     36  C   UNL A   1      44.460  21.018  25.117  1.00  0.00     0.060 A 
ATOM     37  C   UNL A   1      44.131  22.014  24.191  1.00  0.00     0.016 A 
ATOM     38  C   UNL A   1      44.777  21.356  26.436  1.00  0.00     0.016 A 
ATOM     39  C   UNL A   1      44.145  23.358  24.578  1.00  0.00     0.010 A 
ATOM     40  C   UNL A   1      44.806  22.700  26.816  1.00  0.00     0.010 A 
ATOM     41  C   UNL A   1      44.517  23.711  25.884  1.00  0.00    -0.014 A 
BRANCH  41  42
ATOM     42  C   UNL A   1      44.772  25.130  26.237  1.00  0.00     0.031 A 
ATOM     43  C   UNL A   1      46.175  25.658  26.114  1.00  0.00     0.074 A 
ATOM     44  C   UNL A   1      43.785  25.934  26.674  1.00  0.00     0.049 A 
ATOM     45  N   UNL A   1      46.648  26.839  26.418  1.00  0.00    -0.248 NA
ATOM     46  C   UNL A   1      47.182  24.725  25.580  1.00  0.00     0.031 C 
ATOM     47  C   UNL A   1      42.382  25.553  26.817  1.00  0.00     0.029 A 
ATOM     48  N   UNL A   1      43.824  27.242  27.092  1.00  0.00    -0.354 N 
ATOM     49  C   UNL A   1      48.003  26.793  26.112  1.00  0.00     0.074 A 
ATOM     50  C   UNL A   1      48.283  25.460  25.624  1.00  0.00     0.031 C 
ATOM     51  C   UNL A   1      41.694  26.601  27.305  1.00  0.00     0.029 A 
ATOM     52  C   UNL A   1      42.612  27.717  27.533  1.00  0.00     0.049 A 
ATOM     53  H   UNL A   1      44.643  27.788  27.077  1.00  0.00     0.167 HD
ATOM     54  C   UNL A   1      48.931  27.773  26.222  1.00  0.00     0.037 A 
ATOM     55  C   UNL A   1      42.288  28.907  28.078  1.00  0.00     0.037 A 
ATOM     56  C   UNL A   1      48.661  29.095  26.721  1.00  0.00     0.049 A 
ATOM     57  C   UNL A   1      43.351  29.962  28.253  1.00  0.00     0.074 A 
ATOM     58  C   UNL A   1      49.535  30.158  26.860  1.00  0.00     0.029 A 
ATOM     59  N   UNL A   1      47.425  29.531  27.175  1.00  0.00    -0.354 N 
ATOM     60  N   UNL A   1      44.622  29.915  27.933  1.00  0.00    -0.248 NA
ATOM     61  C   UNL A   1      42.935  31.234  28.865  1.00  0.00     0.031 C 
ATOM     62  C   UNL A   1      48.836  31.227  27.434  1.00  0.00     0.029 A 
ATOM     63  C   UNL A   1      47.517  30.840  27.613  1.00  0.00     0.049 A 
ATOM     64  H   UNL A   1      46.603  28.988  27.184  1.00  0.00     0.167 HD
ATOM     65  C   UNL A   1      45.150  31.155  28.279  1.00  0.00     0.074 A 
ATOM     66  C   UNL A   1      44.060  31.934  28.829  1.00  0.00     0.031 C 
ATOM     67  C   UNL A   1      46.422  31.608  28.150  1.00  0.00     0.037 A 
BRANCH  54  68
ATOM     68  C   UNL A   1      50.336  27.436  25.811  1.00  0.00     0.058 A 
ATOM     69  C   UNL A   1      50.750  27.521  24.473  1.00  0.00     0.135 A 
ATOM     70  C   UNL A   1      51.282  27.036  26.768  1.00  0.00     0.135 A 
ATOM     71  F   UNL A   1      49.877  27.879  23.517  1.00  0.00    -0.206 F 
ATOM     72  C   UNL A   1      52.047  27.193  24.091  1.00  0.00     0.059 A 
ATOM     73  C   UNL A   1      52.590  26.725  26.413  1.00  0.00     0.059 A 
ATOM     74  F   UNL A   1      50.935  26.935  28.061  1.00  0.00    -0.206 F 
ATOM     75  C   UNL A   1      52.959  26.791  25.070  1.00  0.00     0.060 A 
BRANCH  75  76
ATOM     76  S   UNL A   1      54.636  26.359  24.561  1.00  0.00     0.124 S 
ATOM     77  O   UNL A   1      54.690  24.944  24.913  1.00  0.00    -0.237 OA
ATOM     78  O   UNL A   1      54.618  26.656  23.132  1.00  0.00    -0.237 OA
ATOM     79  O   UNL A   1      55.473  27.239  25.370  1.00  0.00    -0.744 OA
ENDBRANCH  75  76
ENDBRANCH  54  68
BRANCH  55  80
ATOM     80  C   UNL A   1      40.889  29.170  28.513  1.00  0.00     0.058 A 
ATOM     81  C   UNL A   1      39.870  29.392  27.575  1.00  0.00     0.135 A 
ATOM     82  C   UNL A   1      40.549  29.215  29.873  1.00  0.00     0.135 A 
ATOM     83  F   UNL A   1      40.150  29.374  26.263  1.00  0.00    -0.206 F 
ATOM     84  C   UNL A   1      38.563  29.658  27.971  1.00  0.00     0.059 A 
ATOM     85  C   UNL A   1      39.245  29.458  30.293  1.00  0.00     0.059 A 
ATOM     86  F   UNL A   1      41.488  29.005  30.808  1.00  0.00    -0.206 F 
ATOM     87  C   UNL A   1      38.259  29.687  29.333  1.00  0.00     0.060 A 
BRANCH  87  88
ATOM     88  S   UNL A   1      36.550  29.983  29.837  1.00  0.00     0.124 S 
ATOM     89  O   UNL A   1      35.812  29.471  28.688  1.00  0.00    -0.237 OA
ATOM     90  O   UNL A   1      36.451  29.197  31.063  1.00  0.00    -0.237 OA
ATOM     91  O   UNL A   1      36.503  31.430  30.025  1.00  0.00    -0.744 OA
ENDBRANCH  87  88
ENDBRANCH  55  80
BRANCH  67  92
ATOM     92  C   UNL A   1      46.706  33.022  28.578  1.00  0.00     0.058 A 
ATOM     93  C   UNL A   1      47.120  33.330  29.883  1.00  0.00     0.135 A 
ATOM     94  C   UNL A   1      46.618  34.075  27.651  1.00  0.00     0.135 A 
ATOM     95  F   UNL A   1      47.215  32.361  30.806  1.00  0.00    -0.206 F 
ATOM     96  C   UNL A   1      47.423  34.634  30.260  1.00  0.00     0.059 A 
ATOM     97  C   UNL A   1      46.938  35.383  28.001  1.00  0.00     0.059 A 
ATOM     98  F   UNL A   1      46.237  33.833  26.387  1.00  0.00    -0.206 F 
ATOM     99  C   UNL A   1      47.330  35.655  29.311  1.00  0.00     0.060 A 
BRANCH  99 100
ATOM    100  S   UNL A   1      47.764  37.338  29.800  1.00  0.00     0.124 S 
ATOM    101  O   UNL A   1      46.781  37.602  30.847  1.00  0.00    -0.237 OA
ATOM    102  O   UNL A   1      49.144  37.191  30.251  1.00  0.00    -0.237 OA
ATOM    103  O   UNL A   1      47.592  38.103  28.569  1.00  0.00    -0.744 OA
ENDBRANCH  99 100
ENDBRANCH  67  92
ENDBRANCH  41  42
ENDBRANCH  34  36
ENDBRANCH  33  34
ENDBRANCH  32  33
ENDBRANCH  31  32
ENDBRANCH  30  31
ENDBRANCH  29  30
ENDBRANCH   1  29
TORSDOF 25
ENDMDL
MODEL 2
REMARK VINA RESULT:      -8.6      2.071      8.322
REMARK SMILES C/C(=N/OCc1ccccc1Nc1c(Cl)cccc1Cl)C(=O)OCCOCCOCCOC(=O)c1ccc(-c2c3nc(c(-c4c(F)cc(S(=O)(=O)[O-])cc4F)c4ccc([nH]4)c(-c4c(F)cc(S(=O)(=O)[O-])cc4F)c4nc(c(-c5c(F)cc(S(=O)(=O)[O-])cc5F)c5ccc2[nH]5)C=C4)C=C3)cc1
REMARK SMILES IDX 27 1 26 2 25 3 24 4 23 5 21 6 22 7 2 8 1 9 3 10 4 11 5 12
REMARK SMILES IDX 6 13 7 14 11 15 8 16 10 17 9 18 12 19 13 21 14 22 19 23
REMARK SMILES IDX 15 24 16 25 18 26 20 27 17 28 28 29 29 30 30 31 31 32 32 33
REMARK SMILES IDX 33 34 34 35 35 36 36 37 100 38 37 39 99 40 38 41 39 42 40 43
REMARK SMILES IDX 93 44 41 45 98 46 92 47 94 48 42 49 97 50 91 51 90 52 43 54
REMARK SMILES IDX 77 55 56 56 76 57 57 58 60 59 75 60 95 61 58 62 59 63 74 65
REMARK SMILES IDX 96 66 61 67 44 68 45 69 54 70 46 71 47 72 53 73 55 74 48 75
REMARK SMILES IDX 49 76 50 77 51 78 52 79 78 80 79 81 88 82 80 83 81 84 87 85
REMARK SMILES IDX 89 86 82 87 83 88 84 89 85 90 86 91 62 92 63 93 72 94 64 95
REMARK SMILES IDX 65 96 71 97 73 98 66 99 67 100 68 101 69 102 70 103
REMARK H PARENT 12 20 94 53 60 64
REMARK Flexibility Score: inf
ROOT
ATOM      1  C   UNL A   1      40.164  22.729  27.541  1.00  0.00     0.188 C 
ENDROOT
BRANCH   1   2
ATOM      2  O   UNL A   1      39.611  23.981  27.139  1.00  0.00    -0.376 OA
BRANCH   2   3
ATOM      3  C   UNL A   1      38.377  23.986  26.424  1.00  0.00     0.202 C 
BRANCH   3   4
ATOM      4  C   UNL A   1      37.988  22.666  25.756  1.00  0.00     0.261 C 
BRANCH   4   5
ATOM      5  O   UNL A   1      36.565  22.504  25.806  1.00  0.00    -0.459 OA
BRANCH   5   6
ATOM      6  C   UNL A   1      35.871  22.993  24.763  1.00  0.00     0.355 C 
ATOM      7  O   UNL A   1      36.289  23.295  23.661  1.00  0.00    -0.245 OA
BRANCH   6   8
ATOM      8  C   UNL A   1      34.386  22.889  25.073  1.00  0.00     0.161 C 
ATOM      9  C   UNL A   1      33.837  21.496  25.195  1.00  0.00     0.079 C 
ATOM     10  N   UNL A   1      33.592  23.898  25.286  1.00  0.00    -0.084 NA
BRANCH  10  11
ATOM     11  O   UNL A   1      34.240  25.124  25.061  1.00  0.00    -0.390 OA
BRANCH  11  12
ATOM     12  C   UNL A   1      33.407  25.955  24.229  1.00  0.00     0.302 C 
BRANCH  12  13
ATOM     13  C   UNL A   1      33.156  27.292  24.898  1.00  0.00     0.016 A 
ATOM     14  C   UNL A   1      34.025  27.693  25.937  1.00  0.00     0.009 A 
ATOM     15  C   UNL A   1      32.133  28.175  24.498  1.00  0.00     0.045 A 
ATOM     16  C   UNL A   1      33.857  28.892  26.620  1.00  0.00     0.001 A 
ATOM     17  C   UNL A   1      31.981  29.385  25.204  1.00  0.00     0.026 A 
ATOM     18  C   UNL A   1      32.823  29.738  26.259  1.00  0.00     0.002 A 
BRANCH  15  19
ATOM     19  N   UNL A   1      31.304  27.891  23.387  1.00  0.00    -0.353 N 
ATOM     20  H   UNL A   1      31.775  27.674  22.550  1.00  0.00     0.167 HD
BRANCH  19  21
ATOM     21  C   UNL A   1      29.887  27.874  23.316  1.00  0.00     0.076 A 
ATOM     22  C   UNL A   1      29.182  26.782  23.864  1.00  0.00     0.066 A 
ATOM     23  C   UNL A   1      29.123  28.951  22.820  1.00  0.00     0.066 A 
ATOM     24  Cl  UNL A   1      30.029  25.393  24.464  1.00  0.00    -0.082 Cl
ATOM     25  C   UNL A   1      27.786  26.783  23.959  1.00  0.00     0.023 A 
ATOM     26  C   UNL A   1      27.725  28.953  22.921  1.00  0.00     0.023 A 
ATOM     27  Cl  UNL A   1      29.836  30.290  21.981  1.00  0.00    -0.082 Cl
ATOM     28  C   UNL A   1      27.058  27.877  23.501  1.00  0.00     0.003 A 
ENDBRANCH  19  21
ENDBRANCH  15  19
ENDBRANCH  12  13
ENDBRANCH  11  12
ENDBRANCH  10  11
ENDBRANCH   6   8
ENDBRANCH   5   6
ENDBRANCH   4   5
ENDBRANCH   3   4
ENDBRANCH   2   3
ENDBRANCH   1   2
BRANCH   1  29
ATOM     29  C   UNL A   1      41.610  22.695  28.077  1.00  0.00     0.188 C 
BRANCH  29  30
ATOM     30  O   UNL A   1      42.399  21.662  27.504  1.00  0.00    -0.376 OA
BRANCH  30  31
ATOM     31  C   UNL A   1      41.935  21.166  26.256  1.00  0.00     0.202 C 
BRANCH  31  32
ATOM     32  C   UNL A   1      42.855  20.102  25.650  1.00  0.00     0.261 C 
BRANCH  32  33
ATOM     33  O   UNL A   1      43.775  20.586  24.658  1.00  0.00    -0.460 OA
BRANCH  33  34
ATOM     34  C   UNL A   1      45.095  20.459  24.928  1.00  0.00     0.338 C 
ATOM     35  O   UNL A   1      45.775  19.460  24.787  1.00  0.00    -0.246 OA
BRANCH  34  36
ATOM     36  C   UNL A   1      45.621  21.800  25.264  1.00  0.00     0.060 A 
ATOM     37  C   UNL A   1      45.653  22.204  26.604  1.00  0.00     0.016 A 
ATOM     38  C   UNL A   1      46.081  22.654  24.258  1.00  0.00     0.016 A 
ATOM     39  C   UNL A   1      46.122  23.479  26.937  1.00  0.00     0.010 A 
ATOM     40  C   UNL A   1      46.534  23.933  24.591  1.00  0.00     0.010 A 
ATOM     41  C   UNL A   1      46.532  24.363  25.929  1.00  0.00    -0.014 A 
BRANCH  41  42
ATOM     42  C   UNL A   1      46.797  25.790  26.241  1.00  0.00     0.031 A 
ATOM     43  C   UNL A   1      45.637  26.668  26.625  1.00  0.00     0.074 A 
ATOM     44  C   UNL A   1      48.038  26.306  26.171  1.00  0.00     0.049 A 
ATOM     45  N   UNL A   1      45.614  27.949  26.884  1.00  0.00    -0.248 NA
ATOM     46  C   UNL A   1      44.324  26.009  26.726  1.00  0.00     0.031 C 
ATOM     47  C   UNL A   1      49.248  25.561  25.833  1.00  0.00     0.029 A 
ATOM     48  N   UNL A   1      48.478  27.592  26.369  1.00  0.00    -0.354 N 
ATOM     49  C   UNL A   1      44.290  28.252  27.179  1.00  0.00     0.074 A 
ATOM     50  C   UNL A   1      43.535  27.025  27.043  1.00  0.00     0.031 C 
ATOM     51  C   UNL A   1      50.295  26.407  25.833  1.00  0.00     0.029 A 
ATOM     52  C   UNL A   1      49.824  27.756  26.145  1.00  0.00     0.049 A 
ATOM     53  H   UNL A   1      47.885  28.327  26.647  1.00  0.00     0.167 HD
ATOM     54  C   UNL A   1      43.751  29.441  27.538  1.00  0.00     0.037 A 
ATOM     55  C   UNL A   1      50.582  28.871  26.166  1.00  0.00     0.037 A 
ATOM     56  C   UNL A   1      44.497  30.666  27.660  1.00  0.00     0.049 A 
ATOM     57  C   UNL A   1      49.950  30.198  26.504  1.00  0.00     0.074 A 
ATOM     58  C   UNL A   1      44.039  31.918  28.028  1.00  0.00     0.029 A 
ATOM     59  N   UNL A   1      45.854  30.794  27.407  1.00  0.00    -0.354 N 
ATOM     60  N   UNL A   1      48.702  30.464  26.809  1.00  0.00    -0.248 NA
ATOM     61  C   UNL A   1      50.829  31.377  26.499  1.00  0.00     0.031 C 
ATOM     62  C   UNL A   1      45.113  32.814  27.960  1.00  0.00     0.029 A 
ATOM     63  C   UNL A   1      46.247  32.108  27.590  1.00  0.00     0.049 A 
ATOM     64  H   UNL A   1      46.450  30.058  27.136  1.00  0.00     0.167 HD
ATOM     65  C   UNL A   1      48.652  31.832  27.058  1.00  0.00     0.074 A 
ATOM     66  C   UNL A   1      49.996  32.340  26.872  1.00  0.00     0.031 C 
ATOM     67  C   UNL A   1      47.590  32.599  27.410  1.00  0.00     0.037 A 
BRANCH  54  68
ATOM     68  C   UNL A   1      42.274  29.473  27.802  1.00  0.00     0.058 A 
ATOM     69  C   UNL A   1      41.340  29.317  26.766  1.00  0.00     0.135 A 
ATOM     70  C   UNL A   1      41.785  29.649  29.106  1.00  0.00     0.135 A 
ATOM     71  F   UNL A   1      41.756  29.165  25.498  1.00  0.00    -0.206 F 
ATOM     72  C   UNL A   1      39.971  29.361  27.009  1.00  0.00     0.059 A 
ATOM     73  C   UNL A   1      40.421  29.675  29.376  1.00  0.00     0.059 A 
ATOM     74  F   UNL A   1      42.638  29.808  30.131  1.00  0.00    -0.206 F 
ATOM     75  C   UNL A   1      39.522  29.546  28.319  1.00  0.00     0.060 A 
BRANCH  75  76
ATOM     76  S   UNL A   1      37.743  29.614  28.620  1.00  0.00     0.124 S 
ATOM     77  O   UNL A   1      37.219  29.629  27.258  1.00  0.00    -0.237 OA
ATOM     78  O   UNL A   1      37.505  28.388  29.376  1.00  0.00    -0.237 OA
ATOM     79  O   UNL A   1      37.573  30.853  29.372  1.00  0.00    -0.744 OA
ENDBRANCH  75  76
ENDBRANCH  54  68
BRANCH  55  80
ATOM     80  C   UNL A   1      52.034  28.790  25.849  1.00  0.00     0.058 A 
ATOM     81  C   UNL A   1      52.979  28.513  26.848  1.00  0.00     0.135 A 
ATOM     82  C   UNL A   1      52.503  28.999  24.543  1.00  0.00     0.135 A 
ATOM     83  F   UNL A   1      52.579  28.322  28.114  1.00  0.00    -0.206 F 
ATOM     84  C   UNL A   1      54.339  28.454  26.566  1.00  0.00     0.059 A 
ATOM     85  C   UNL A   1      53.858  28.924  24.233  1.00  0.00     0.059 A 
ATOM     86  F   UNL A   1      51.639  29.263  23.552  1.00  0.00    -0.206 F 
ATOM     87  C   UNL A   1      54.770  28.659  25.254  1.00  0.00     0.060 A 
BRANCH  87  88
ATOM     88  S   UNL A   1      56.534  28.531  24.887  1.00  0.00     0.124 S 
ATOM     89  O   UNL A   1      56.626  27.176  24.356  1.00  0.00    -0.237 OA
ATOM     90  O   UNL A   1      56.726  29.610  23.924  1.00  0.00    -0.237 OA
ATOM     91  O   UNL A   1      57.162  28.745  26.188  1.00  0.00    -0.744 OA
ENDBRANCH  87  88
ENDBRANCH  55  80
BRANCH  67  92
ATOM     92  C   UNL A   1      47.836  34.062  27.654  1.00  0.00     0.058 A 
ATOM     93  C   UNL A   1      48.236  34.545  28.909  1.00  0.00     0.135 A 
ATOM     94  C   UNL A   1      47.728  34.985  26.600  1.00  0.00     0.135 A 
ATOM     95  F   UNL A   1      48.350  33.705  29.950  1.00  0.00    -0.206 F 
ATOM     96  C   UNL A   1      48.504  35.894  29.118  1.00  0.00     0.059 A 
ATOM     97  C   UNL A   1      48.012  36.335  26.780  1.00  0.00     0.059 A 
ATOM     98  F   UNL A   1      47.359  34.574  25.377  1.00  0.00    -0.206 F 
ATOM     99  C   UNL A   1      48.391  36.782  28.045  1.00  0.00     0.060 A 
BRANCH  99 100
ATOM    100  S   UNL A   1      48.780  38.525  28.316  1.00  0.00     0.124 S 
ATOM    101  O   UNL A   1      48.679  39.062  26.963  1.00  0.00    -0.237 OA
ATOM    102  O   UNL A   1      47.733  38.943  29.243  1.00  0.00    -0.237 OA
ATOM    103  O   UNL A   1      50.127  38.488  28.879  1.00  0.00    -0.744 OA
ENDBRANCH  99 100
ENDBRANCH  67  92
ENDBRANCH  41  42
ENDBRANCH  34  36
ENDBRANCH  33  34
ENDBRANCH  32  33
ENDBRANCH  31  32
ENDBRANCH  30  31
ENDBRANCH  29  30
ENDBRANCH   1  29
TORSDOF 25
ENDMDL
MODEL 3
REMARK VINA RESULT:      -8.2      4.845      8.439
REMARK SMILES C/C(=N/OCc1ccccc1Nc1c(Cl)cccc1Cl)C(=O)OCCOCCOCCOC(=O)c1ccc(-c2c3nc(c(-c4c(F)cc(S(=O)(=O)[O-])cc4F)c4ccc([nH]4)c(-c4c(F)cc(S(=O)(=O)[O-])cc4F)c4nc(c(-c5c(F)cc(S(=O)(=O)[O-])cc5F)c5ccc2[nH]5)C=C4)C=C3)cc1
REMARK SMILES IDX 27 1 26 2 25 3 24 4 23 5 21 6 22 7 2 8 1 9 3 10 4 11 5 12
REMARK SMILES IDX 6 13 7 14 11 15 8 16 10 17 9 18 12 19 13 21 14 22 19 23
REMARK SMILES IDX 15 24 16 25 18 26 20 27 17 28 28 29 29 30 30 31 31 32 32 33
REMARK SMILES IDX 33 34 34 35 35 36 36 37 100 38 37 39 99 40 38 41 39 42 40 43
REMARK SMILES IDX 93 44 41 45 98 46 92 47 94 48 42 49 97 50 91 51 90 52 43 54
REMARK SMILES IDX 77 55 56 56 76 57 57 58 60 59 75 60 95 61 58 62 59 63 74 65
REMARK SMILES IDX 96 66 61 67 44 68 45 69 54 70 46 71 47 72 53 73 55 74 48 75
REMARK SMILES IDX 49 76 50 77 51 78 52 79 78 80 79 81 88 82 80 83 81 84 87 85
REMARK SMILES IDX 89 86 82 87 83 88 84 89 85 90 86 91 62 92 63 93 72 94 64 95
REMARK SMILES IDX 65 96 71 97 73 98 66 99 67 100 68 101 69 102 70 103
REMARK H PARENT 12 20 94 53 60 64
REMARK Flexibility Score: inf
ROOT
ATOM      1  C   UNL A   1      45.364  22.990  26.964  1.00  0.00     0.188 C 
ENDROOT
BRANCH   1   2
ATOM      2  O   UNL A   1      45.047  23.239  28.333  1.00  0.00    -0.376 OA
BRANCH   2   3
ATOM      3  C   UNL A   1      43.754  22.874  28.813  1.00  0.00     0.202 C 
BRANCH   3   4
ATOM      4  C   UNL A   1      43.367  23.438  30.181  1.00  0.00     0.261 C 
BRANCH   4   5
ATOM      5  O   UNL A   1      44.475  23.318  31.080  1.00  0.00    -0.459 OA
BRANCH   5   6
ATOM      6  C   UNL A   1      44.256  23.695  32.352  1.00  0.00     0.355 C 
ATOM      7  O   UNL A   1      43.798  23.031  33.262  1.00  0.00    -0.245 OA
BRANCH   6   8
ATOM      8  C   UNL A   1      44.909  25.050  32.580  1.00  0.00     0.161 C 
ATOM      9  C   UNL A   1      46.051  25.390  31.665  1.00  0.00     0.079 C 
ATOM     10  N   UNL A   1      44.522  25.932  33.454  1.00  0.00    -0.084 NA
BRANCH  10  11
ATOM     11  O   UNL A   1      43.497  25.433  34.275  1.00  0.00    -0.390 OA
BRANCH  11  12
ATOM     12  C   UNL A   1      43.004  26.494  35.116  1.00  0.00     0.302 C 
BRANCH  12  13
ATOM     13  C   UNL A   1      42.592  27.687  34.276  1.00  0.00     0.016 A 
ATOM     14  C   UNL A   1      41.234  27.807  33.907  1.00  0.00     0.009 A 
ATOM     15  C   UNL A   1      43.487  28.706  33.891  1.00  0.00     0.045 A 
ATOM     16  C   UNL A   1      40.772  28.856  33.120  1.00  0.00     0.001 A 
ATOM     17  C   UNL A   1      42.997  29.760  33.095  1.00  0.00     0.026 A 
ATOM     18  C   UNL A   1      41.660  29.832  32.703  1.00  0.00     0.002 A 
BRANCH  15  19
ATOM     19  N   UNL A   1      44.832  28.711  34.328  1.00  0.00    -0.353 N 
ATOM     20  H   UNL A   1      45.351  27.900  34.119  1.00  0.00     0.167 HD
BRANCH  19  21
ATOM     21  C   UNL A   1      45.536  29.726  35.026  1.00  0.00     0.076 A 
ATOM     22  C   UNL A   1      46.311  30.653  34.298  1.00  0.00     0.066 A 
ATOM     23  C   UNL A   1      45.421  29.935  36.417  1.00  0.00     0.066 A 
ATOM     24  Cl  UNL A   1      46.547  30.462  32.591  1.00  0.00    -0.082 Cl
ATOM     25  C   UNL A   1      46.901  31.762  34.915  1.00  0.00     0.023 A 
ATOM     26  C   UNL A   1      46.007  31.049  37.032  1.00  0.00     0.023 A 
ATOM     27  Cl  UNL A   1      44.633  28.801  37.465  1.00  0.00    -0.082 Cl
ATOM     28  C   UNL A   1      46.736  31.968  36.282  1.00  0.00     0.003 A 
ENDBRANCH  19  21
ENDBRANCH  15  19
ENDBRANCH  12  13
ENDBRANCH  11  12
ENDBRANCH  10  11
ENDBRANCH   6   8
ENDBRANCH   5   6
ENDBRANCH   4   5
ENDBRANCH   3   4
ENDBRANCH   2   3
ENDBRANCH   1   2
BRANCH   1  29
ATOM     29  C   UNL A   1      44.228  22.586  26.003  1.00  0.00     0.188 C 
BRANCH  29  30
ATOM     30  O   UNL A   1      44.130  21.183  25.806  1.00  0.00    -0.376 OA
BRANCH  30  31
ATOM     31  C   UNL A   1      42.830  20.637  25.975  1.00  0.00     0.202 C 
BRANCH  31  32
ATOM     32  C   UNL A   1      41.713  21.672  25.804  1.00  0.00     0.261 C 
BRANCH  32  33
ATOM     33  O   UNL A   1      40.592  21.508  26.687  1.00  0.00    -0.460 OA
BRANCH  33  34
ATOM     34  C   UNL A   1      39.519  22.304  26.473  1.00  0.00     0.338 C 
ATOM     35  O   UNL A   1      38.417  21.956  26.090  1.00  0.00    -0.246 OA
BRANCH  34  36
ATOM     36  C   UNL A   1      39.857  23.662  26.953  1.00  0.00     0.060 A 
ATOM     37  C   UNL A   1      39.783  24.738  26.061  1.00  0.00     0.016 A 
ATOM     38  C   UNL A   1      40.246  23.869  28.279  1.00  0.00     0.016 A 
ATOM     39  C   UNL A   1      40.126  26.024  26.490  1.00  0.00     0.010 A 
ATOM     40  C   UNL A   1      40.604  25.152  28.701  1.00  0.00     0.010 A 
ATOM     41  C   UNL A   1      40.573  26.232  27.803  1.00  0.00    -0.014 A 
BRANCH  41  42
ATOM     42  C   UNL A   1      41.169  27.533  28.198  1.00  0.00     0.031 A 
ATOM     43  C   UNL A   1      42.660  27.700  28.095  1.00  0.00     0.074 A 
ATOM     44  C   UNL A   1      40.408  28.545  28.656  1.00  0.00     0.049 A 
ATOM     45  N   UNL A   1      43.408  28.718  28.435  1.00  0.00    -0.248 NA
ATOM     46  C   UNL A   1      43.409  26.562  27.536  1.00  0.00     0.031 C 
ATOM     47  C   UNL A   1      38.952  28.520  28.783  1.00  0.00     0.029 A 
ATOM     48  N   UNL A   1      40.766  29.790  29.112  1.00  0.00    -0.354 N 
ATOM     49  C   UNL A   1      44.712  28.346  28.132  1.00  0.00     0.074 A 
ATOM     50  C   UNL A   1      44.657  26.999  27.605  1.00  0.00     0.031 C 
ATOM     51  C   UNL A   1      38.541  29.693  29.300  1.00  0.00     0.029 A 
ATOM     52  C   UNL A   1      39.704  30.539  29.564  1.00  0.00     0.049 A 
ATOM     53  H   UNL A   1      41.694  30.116  29.115  1.00  0.00     0.167 HD
ATOM     54  C   UNL A   1      45.853  29.061  28.272  1.00  0.00     0.037 A 
ATOM     55  C   UNL A   1      39.680  31.756  30.143  1.00  0.00     0.037 A 
ATOM     56  C   UNL A   1      45.913  30.395  28.810  1.00  0.00     0.049 A 
ATOM     57  C   UNL A   1      40.969  32.509  30.352  1.00  0.00     0.074 A 
ATOM     58  C   UNL A   1      47.023  31.203  28.982  1.00  0.00     0.029 A 
ATOM     59  N   UNL A   1      44.820  31.110  29.273  1.00  0.00    -0.354 N 
ATOM     60  N   UNL A   1      42.193  32.157  30.034  1.00  0.00    -0.248 NA
ATOM     61  C   UNL A   1      40.876  33.827  30.999  1.00  0.00     0.031 C 
ATOM     62  C   UNL A   1      46.605  32.396  29.585  1.00  0.00     0.029 A 
ATOM     63  C   UNL A   1      45.230  32.344  29.750  1.00  0.00     0.049 A 
ATOM     64  H   UNL A   1      43.889  30.789  29.263  1.00  0.00     0.167 HD
ATOM     65  C   UNL A   1      43.008  33.217  30.418  1.00  0.00     0.074 A 
ATOM     66  C   UNL A   1      42.140  34.227  30.987  1.00  0.00     0.031 C 
ATOM     67  C   UNL A   1      44.354  33.344  30.306  1.00  0.00     0.037 A 
BRANCH  54  68
ATOM     68  C   UNL A   1      47.134  28.398  27.856  1.00  0.00     0.058 A 
ATOM     69  C   UNL A   1      47.943  27.719  28.780  1.00  0.00     0.135 A 
ATOM     70  C   UNL A   1      47.552  28.431  26.516  1.00  0.00     0.135 A 
ATOM     71  F   UNL A   1      47.598  27.676  30.077  1.00  0.00    -0.206 F 
ATOM     72  C   UNL A   1      49.138  27.118  28.397  1.00  0.00     0.059 A 
ATOM     73  C   UNL A   1      48.732  27.820  26.106  1.00  0.00     0.059 A 
ATOM     74  F   UNL A   1      46.816  29.073  25.595  1.00  0.00    -0.206 F 
ATOM     75  C   UNL A   1      49.526  27.179  27.056  1.00  0.00     0.060 A 
BRANCH  75  76
ATOM     76  S   UNL A   1      51.083  26.405  26.573  1.00  0.00     0.124 S 
ATOM     77  O   UNL A   1      52.022  27.047  27.486  1.00  0.00    -0.237 OA
ATOM     78  O   UNL A   1      50.823  24.990  26.822  1.00  0.00    -0.237 OA
ATOM     79  O   UNL A   1      51.223  26.774  25.167  1.00  0.00    -0.744 OA
ENDBRANCH  75  76
ENDBRANCH  54  68
BRANCH  55  80
ATOM     80  C   UNL A   1      38.386  32.346  30.581  1.00  0.00     0.058 A 
ATOM     81  C   UNL A   1      37.665  33.211  29.745  1.00  0.00     0.135 A 
ATOM     82  C   UNL A   1      37.853  32.064  31.848  1.00  0.00     0.135 A 
ATOM     83  F   UNL A   1      38.142  33.523  28.531  1.00  0.00    -0.206 F 
ATOM     84  C   UNL A   1      36.464  33.783  30.152  1.00  0.00     0.059 A 
ATOM     85  C   UNL A   1      36.643  32.607  32.269  1.00  0.00     0.059 A 
ATOM     86  F   UNL A   1      38.502  31.239  32.683  1.00  0.00    -0.206 F 
ATOM     87  C   UNL A   1      35.959  33.473  31.416  1.00  0.00     0.060 A 
BRANCH  87  88
ATOM     88  S   UNL A   1      34.374  34.180  31.917  1.00  0.00     0.124 S 
ATOM     89  O   UNL A   1      34.793  35.432  32.536  1.00  0.00    -0.237 OA
ATOM     90  O   UNL A   1      33.675  34.301  30.641  1.00  0.00    -0.237 OA
ATOM     91  O   UNL A   1      33.832  33.175  32.826  1.00  0.00    -0.744 OA
ENDBRANCH  87  88
ENDBRANCH  55  80
BRANCH  67  92
ATOM     92  C   UNL A   1      44.975  34.631  30.776  1.00  0.00     0.058 A 
ATOM     93  C   UNL A   1      45.081  35.749  29.936  1.00  0.00     0.135 A 
ATOM     94  C   UNL A   1      45.414  34.763  32.104  1.00  0.00     0.135 A 
ATOM     95  F   UNL A   1      44.680  35.673  28.657  1.00  0.00    -0.206 F 
ATOM     96  C   UNL A   1      45.617  36.950  30.389  1.00  0.00     0.059 A 
ATOM     97  C   UNL A   1      45.933  35.961  32.585  1.00  0.00     0.059 A 
ATOM     98  F   UNL A   1      45.325  33.726  32.952  1.00  0.00    -0.206 F 
ATOM     99  C   UNL A   1      46.040  37.047  31.717  1.00  0.00     0.060 A 
BRANCH  99 100
ATOM    100  S   UNL A   1      46.697  38.622  32.308  1.00  0.00     0.124 S 
ATOM    101  O   UNL A   1      46.639  39.437  31.098  1.00  0.00    -0.237 OA
ATOM    102  O   UNL A   1      45.752  38.985  33.360  1.00  0.00    -0.237 OA
ATOM    103  O   UNL A   1      48.038  38.277  32.770  1.00  0.00    -0.744 OA
ENDBRANCH  99 100
ENDBRANCH  67  92
ENDBRANCH  41  42
ENDBRANCH  34  36
ENDBRANCH  33  34
ENDBRANCH  32  33
ENDBRANCH  31  32
ENDBRANCH  30  31
ENDBRANCH  29  30
ENDBRANCH   1  29
TORSDOF 25
ENDMDL
