MODEL 1
REMARK VINA RESULT:     -11.1      0.000      0.000
REMARK SMILES CC1=C[C@@H]([C@@H]2N=N[C@H](S)N2/N=C/c2ccc(C(=O)OCCOCCOCCOC(=O)c3ccc(-c4c5nc(c(-c6c(F)cc(S(=O)(=O)[O-])cc6F)c6ccc([nH]6)c(-c6c(F)cc(S(=O)(=O)[O-])cc6F)c6nc(c(-c7c(F)cc(S(=O)(=O)[O-])cc7F)c7ccc4[nH]7)C=C6)C=C5)cc3)cc2)N=N1
REMARK SMILES IDX 23 1 22 2 21 3 20 4 19 5 17 6 18 7 16 8 13 9 14 10 98 11
REMARK SMILES IDX 15 12 97 13 12 14 11 15 10 16 5 17 6 18 7 19 8 20 4 21 1 22
REMARK SMILES IDX 2 23 3 24 100 25 99 26 9 27 24 29 25 30 26 31 27 32 28 33
REMARK SMILES IDX 29 34 30 35 31 36 32 37 96 38 33 39 95 40 34 41 35 42 36 43
REMARK SMILES IDX 89 44 37 45 94 46 88 47 90 48 38 49 93 50 87 51 86 52 39 54
REMARK SMILES IDX 73 55 52 56 72 57 53 58 56 59 71 60 91 61 54 62 55 63 70 65
REMARK SMILES IDX 92 66 57 67 40 68 41 69 50 70 42 71 43 72 49 73 51 74 44 75
REMARK SMILES IDX 45 76 46 77 47 78 48 79 74 80 75 81 84 82 76 83 77 84 83 85
REMARK SMILES IDX 85 86 78 87 79 88 80 89 81 90 82 91 58 92 59 93 68 94 60 95
REMARK SMILES IDX 61 96 67 97 69 98 62 99 63 100 64 101 65 102 66 103
REMARK H PARENT 9 28 90 53 56 64
REMARK Flexibility Score: inf
ROOT
ATOM      1  C   UNL A   1      37.725  22.110  25.578  1.00  0.00     0.188 C 
ENDROOT
BRANCH   1   2
ATOM      2  O   UNL A   1      37.160  20.861  25.205  1.00  0.00    -0.376 OA
BRANCH   2   3
ATOM      3  C   UNL A   1      35.765  20.772  24.957  1.00  0.00     0.202 C 
BRANCH   3   4
ATOM      4  C   UNL A   1      35.095  19.385  24.928  1.00  0.00     0.261 C 
BRANCH   4   5
ATOM      5  O   UNL A   1      33.983  19.259  24.022  1.00  0.00    -0.460 OA
BRANCH   5   6
ATOM      6  C   UNL A   1      32.769  19.586  24.517  1.00  0.00     0.338 C 
ATOM      7  O   UNL A   1      32.041  18.878  25.208  1.00  0.00    -0.246 OA
BRANCH   6   8
ATOM      8  C   UNL A   1      32.469  21.016  24.270  1.00  0.00     0.060 A 
ATOM      9  C   UNL A   1      32.014  23.707  23.688  1.00  0.00    -0.005 A 
ATOM     10  C   UNL A   1      32.481  22.857  22.685  1.00  0.00     0.010 A 
ATOM     11  C   UNL A   1      31.723  23.213  24.966  1.00  0.00     0.010 A 
ATOM     12  C   UNL A   1      32.727  21.517  22.985  1.00  0.00     0.016 A 
ATOM     13  C   UNL A   1      31.935  21.858  25.254  1.00  0.00     0.016 A 
BRANCH   9  14
ATOM     14  C   UNL A   1      31.901  25.147  23.384  1.00  0.00     0.141 C 
ATOM     15  N   UNL A   1      31.973  26.021  24.336  1.00  0.00    -0.180 NA
BRANCH  15  16
ATOM     16  N   UNL A   1      31.910  27.342  24.025  1.00  0.00    -0.233 NA
ATOM     17  C   UNL A   1      30.633  28.039  24.230  1.00  0.00     0.274 C 
ATOM     18  N   UNL A   1      30.920  29.449  24.592  1.00  0.00    -0.161 NA
ATOM     19  N   UNL A   1      32.157  29.636  24.660  1.00  0.00    -0.153 NA
ATOM     20  C   UNL A   1      32.888  28.397  24.307  1.00  0.00     0.298 C 
BRANCH  17  21
ATOM     21  C   UNL A   1      29.729  27.953  22.980  1.00  0.00     0.201 C 
ATOM     22  C   UNL A   1      28.016  30.909  21.548  1.00  0.00     0.068 C 
ATOM     23  C   UNL A   1      28.496  29.649  22.165  1.00  0.00     0.058 C 
ATOM     24  C   UNL A   1      29.736  29.165  22.116  1.00  0.00     0.031 C 
ATOM     25  N   UNL A   1      27.655  28.860  22.908  1.00  0.00    -0.160 NA
ATOM     26  N   UNL A   1      28.288  27.869  23.380  1.00  0.00    -0.177 NA
ENDBRANCH  17  21
BRANCH  20  27
ATOM     27  S   UNL A   1      34.010  28.602  22.868  1.00  0.00    -0.128 SA
ATOM     28  H   UNL A   1      33.277  28.636  21.723  1.00  0.00     0.106 HD
ENDBRANCH  20  27
ENDBRANCH  15  16
ENDBRANCH   9  14
ENDBRANCH   6   8
ENDBRANCH   5   6
ENDBRANCH   4   5
ENDBRANCH   3   4
ENDBRANCH   2   3
ENDBRANCH   1   2
BRANCH   1  29
ATOM     29  C   UNL A   1      39.156  22.204  26.164  1.00  0.00     0.188 C 
BRANCH  29  30
ATOM     30  O   UNL A   1      39.822  20.963  26.365  1.00  0.00    -0.376 OA
BRANCH  30  31
ATOM     31  C   UNL A   1      40.830  20.932  27.372  1.00  0.00     0.202 C 
BRANCH  31  32
ATOM     32  C   UNL A   1      42.179  20.366  26.929  1.00  0.00     0.261 C 
BRANCH  32  33
ATOM     33  O   UNL A   1      42.466  20.604  25.560  1.00  0.00    -0.460 OA
BRANCH  33  34
ATOM     34  C   UNL A   1      43.736  20.413  25.183  1.00  0.00     0.338 C 
ATOM     35  O   UNL A   1      44.287  19.331  24.958  1.00  0.00    -0.246 OA
BRANCH  34  36
ATOM     36  C   UNL A   1      44.402  21.711  25.102  1.00  0.00     0.060 A 
ATOM     37  C   UNL A   1      45.488  21.923  25.956  1.00  0.00     0.016 A 
ATOM     38  C   UNL A   1      43.734  22.763  24.458  1.00  0.00     0.016 A 
ATOM     39  C   UNL A   1      45.699  23.200  26.416  1.00  0.00     0.010 A 
ATOM     40  C   UNL A   1      43.918  24.029  24.947  1.00  0.00     0.010 A 
ATOM     41  C   UNL A   1      44.811  24.196  26.004  1.00  0.00    -0.014 A 
BRANCH  41  42
ATOM     42  C   UNL A   1      44.677  25.360  26.850  1.00  0.00     0.031 A 
ATOM     43  C   UNL A   1      45.751  26.358  26.724  1.00  0.00     0.074 A 
ATOM     44  C   UNL A   1      43.551  25.530  27.571  1.00  0.00     0.049 A 
ATOM     45  N   UNL A   1      46.595  26.746  27.619  1.00  0.00    -0.248 NA
ATOM     46  C   UNL A   1      45.990  26.906  25.380  1.00  0.00     0.031 C 
ATOM     47  C   UNL A   1      42.308  24.749  27.475  1.00  0.00     0.029 A 
ATOM     48  N   UNL A   1      43.231  26.513  28.452  1.00  0.00    -0.354 N 
ATOM     49  C   UNL A   1      47.328  27.753  27.005  1.00  0.00     0.074 A 
ATOM     50  C   UNL A   1      47.065  27.662  25.594  1.00  0.00     0.031 C 
ATOM     51  C   UNL A   1      41.316  25.416  28.104  1.00  0.00     0.029 A 
ATOM     52  C   UNL A   1      41.875  26.601  28.733  1.00  0.00     0.049 A 
ATOM     53  H   UNL A   1      43.901  27.110  28.856  1.00  0.00     0.167 HD
ATOM     54  C   UNL A   1      47.872  28.775  27.715  1.00  0.00     0.037 A 
ATOM     55  C   UNL A   1      41.249  27.629  29.354  1.00  0.00     0.037 A 
ATOM     56  C   UNL A   1      47.962  28.470  29.118  1.00  0.00     0.049 A 
ATOM     57  C   UNL A   1      42.284  28.411  30.077  1.00  0.00     0.074 A 
ATOM     58  C   UNL A   1      48.633  27.527  29.868  1.00  0.00     0.029 A 
ATOM     59  N   UNL A   1      46.997  29.006  29.935  1.00  0.00    -0.354 N 
ATOM     60  N   UNL A   1      42.967  27.967  31.098  1.00  0.00    -0.248 NA
ATOM     61  C   UNL A   1      42.845  29.589  29.429  1.00  0.00     0.031 C 
ATOM     62  C   UNL A   1      47.805  27.273  30.999  1.00  0.00     0.029 A 
ATOM     63  C   UNL A   1      46.667  28.075  30.888  1.00  0.00     0.049 A 
ATOM     64  H   UNL A   1      46.608  29.906  29.851  1.00  0.00     0.167 HD
ATOM     65  C   UNL A   1      44.219  28.552  30.979  1.00  0.00     0.074 A 
ATOM     66  C   UNL A   1      44.039  29.638  30.026  1.00  0.00     0.031 C 
ATOM     67  C   UNL A   1      45.337  27.923  31.445  1.00  0.00     0.037 A 
BRANCH  54  68
ATOM     68  C   UNL A   1      47.963  30.180  27.179  1.00  0.00     0.058 A 
ATOM     69  C   UNL A   1      49.209  30.829  27.140  1.00  0.00     0.135 A 
ATOM     70  C   UNL A   1      46.834  31.002  26.948  1.00  0.00     0.135 A 
ATOM     71  F   UNL A   1      50.341  30.145  27.374  1.00  0.00    -0.206 F 
ATOM     72  C   UNL A   1      49.323  32.205  26.938  1.00  0.00     0.059 A 
ATOM     73  C   UNL A   1      46.928  32.359  26.677  1.00  0.00     0.059 A 
ATOM     74  F   UNL A   1      45.580  30.550  27.078  1.00  0.00    -0.206 F 
ATOM     75  C   UNL A   1      48.173  32.961  26.724  1.00  0.00     0.060 A 
BRANCH  75  76
ATOM     76  S   UNL A   1      48.293  34.753  26.597  1.00  0.00     0.124 S 
ATOM     77  O   UNL A   1      49.103  35.067  27.768  1.00  0.00    -0.237 OA
ATOM     78  O   UNL A   1      48.942  34.926  25.302  1.00  0.00    -0.237 OA
ATOM     79  O   UNL A   1      46.900  35.185  26.655  1.00  0.00    -0.744 OA
ENDBRANCH  75  76
ENDBRANCH  54  68
BRANCH  55  80
ATOM     80  C   UNL A   1      39.879  28.140  29.092  1.00  0.00     0.058 A 
ATOM     81  C   UNL A   1      38.909  28.181  30.106  1.00  0.00     0.135 A 
ATOM     82  C   UNL A   1      39.565  28.831  27.903  1.00  0.00     0.135 A 
ATOM     83  F   UNL A   1      39.137  27.579  31.283  1.00  0.00    -0.206 F 
ATOM     84  C   UNL A   1      37.711  28.891  29.962  1.00  0.00     0.059 A 
ATOM     85  C   UNL A   1      38.373  29.528  27.728  1.00  0.00     0.059 A 
ATOM     86  F   UNL A   1      40.451  28.926  26.899  1.00  0.00    -0.206 F 
ATOM     87  C   UNL A   1      37.460  29.574  28.772  1.00  0.00     0.060 A 
BRANCH  87  88
ATOM     88  S   UNL A   1      35.990  30.619  28.639  1.00  0.00     0.124 S 
ATOM     89  O   UNL A   1      36.517  31.793  27.950  1.00  0.00    -0.237 OA
ATOM     90  O   UNL A   1      35.085  29.777  27.866  1.00  0.00    -0.237 OA
ATOM     91  O   UNL A   1      35.601  30.835  30.030  1.00  0.00    -0.744 OA
ENDBRANCH  87  88
ENDBRANCH  55  80
BRANCH  67  92
ATOM     92  C   UNL A   1      45.138  26.797  32.426  1.00  0.00     0.058 A 
ATOM     93  C   UNL A   1      44.974  25.455  32.049  1.00  0.00     0.135 A 
ATOM     94  C   UNL A   1      45.271  27.068  33.796  1.00  0.00     0.135 A 
ATOM     95  F   UNL A   1      44.940  25.106  30.755  1.00  0.00    -0.206 F 
ATOM     96  C   UNL A   1      44.911  24.429  32.991  1.00  0.00     0.059 A 
ATOM     97  C   UNL A   1      45.240  26.057  34.754  1.00  0.00     0.059 A 
ATOM     98  F   UNL A   1      45.492  28.326  34.214  1.00  0.00    -0.206 F 
ATOM     99  C   UNL A   1      45.051  24.739  34.344  1.00  0.00     0.060 A 
BRANCH  99 100
ATOM    100  S   UNL A   1      45.090  23.396  35.552  1.00  0.00     0.124 S 
ATOM    101  O   UNL A   1      46.438  22.866  35.380  1.00  0.00    -0.237 OA
ATOM    102  O   UNL A   1      44.839  24.093  36.812  1.00  0.00    -0.237 OA
ATOM    103  O   UNL A   1      44.010  22.515  35.116  1.00  0.00    -0.744 OA
ENDBRANCH  99 100
ENDBRANCH  67  92
ENDBRANCH  41  42
ENDBRANCH  34  36
ENDBRANCH  33  34
ENDBRANCH  32  33
ENDBRANCH  31  32
ENDBRANCH  30  31
ENDBRANCH  29  30
ENDBRANCH   1  29
TORSDOF 24
ENDMDL
MODEL 2
REMARK VINA RESULT:     -10.9      2.600      3.911
REMARK SMILES CC1=C[C@@H]([C@@H]2N=N[C@H](S)N2/N=C/c2ccc(C(=O)OCCOCCOCCOC(=O)c3ccc(-c4c5nc(c(-c6c(F)cc(S(=O)(=O)[O-])cc6F)c6ccc([nH]6)c(-c6c(F)cc(S(=O)(=O)[O-])cc6F)c6nc(c(-c7c(F)cc(S(=O)(=O)[O-])cc7F)c7ccc4[nH]7)C=C6)C=C5)cc3)cc2)N=N1
REMARK SMILES IDX 23 1 22 2 21 3 20 4 19 5 17 6 18 7 16 8 13 9 14 10 98 11
REMARK SMILES IDX 15 12 97 13 12 14 11 15 10 16 5 17 6 18 7 19 8 20 4 21 1 22
REMARK SMILES IDX 2 23 3 24 100 25 99 26 9 27 24 29 25 30 26 31 27 32 28 33
REMARK SMILES IDX 29 34 30 35 31 36 32 37 96 38 33 39 95 40 34 41 35 42 36 43
REMARK SMILES IDX 89 44 37 45 94 46 88 47 90 48 38 49 93 50 87 51 86 52 39 54
REMARK SMILES IDX 73 55 52 56 72 57 53 58 56 59 71 60 91 61 54 62 55 63 70 65
REMARK SMILES IDX 92 66 57 67 40 68 41 69 50 70 42 71 43 72 49 73 51 74 44 75
REMARK SMILES IDX 45 76 46 77 47 78 48 79 74 80 75 81 84 82 76 83 77 84 83 85
REMARK SMILES IDX 85 86 78 87 79 88 80 89 81 90 82 91 58 92 59 93 68 94 60 95
REMARK SMILES IDX 61 96 67 97 69 98 62 99 63 100 64 101 65 102 66 103
REMARK H PARENT 9 28 90 53 56 64
REMARK Flexibility Score: inf
ROOT
ATOM      1  C   UNL A   1      42.069  18.895  26.652  1.00  0.00     0.188 C 
ENDROOT
BRANCH   1   2
ATOM      2  O   UNL A   1      42.047  20.054  27.474  1.00  0.00    -0.376 OA
BRANCH   2   3
ATOM      3  C   UNL A   1      40.925  20.922  27.426  1.00  0.00     0.202 C 
BRANCH   3   4
ATOM      4  C   UNL A   1      40.447  21.458  26.062  1.00  0.00     0.261 C 
BRANCH   4   5
ATOM      5  O   UNL A   1      39.070  21.874  26.013  1.00  0.00    -0.460 OA
BRANCH   5   6
ATOM      6  C   UNL A   1      38.222  21.057  25.351  1.00  0.00     0.338 C 
ATOM      7  O   UNL A   1      38.390  19.867  25.103  1.00  0.00    -0.246 OA
BRANCH   6   8
ATOM      8  C   UNL A   1      36.931  21.738  25.090  1.00  0.00     0.060 A 
ATOM      9  C   UNL A   1      34.585  23.148  24.545  1.00  0.00    -0.005 A 
ATOM     10  C   UNL A   1      35.739  23.426  23.811  1.00  0.00     0.010 A 
ATOM     11  C   UNL A   1      34.581  22.137  25.514  1.00  0.00     0.010 A 
ATOM     12  C   UNL A   1      36.916  22.733  24.099  1.00  0.00     0.016 A 
ATOM     13  C   UNL A   1      35.754  21.417  25.776  1.00  0.00     0.016 A 
BRANCH   9  14
ATOM     14  C   UNL A   1      33.397  23.993  24.320  1.00  0.00     0.141 C 
ATOM     15  N   UNL A   1      33.487  25.281  24.412  1.00  0.00    -0.180 NA
BRANCH  15  16
ATOM     16  N   UNL A   1      32.388  26.039  24.158  1.00  0.00    -0.233 NA
ATOM     17  C   UNL A   1      32.460  27.012  23.060  1.00  0.00     0.274 C 
ATOM     18  N   UNL A   1      31.112  27.139  22.455  1.00  0.00    -0.161 NA
ATOM     19  N   UNL A   1      30.309  26.358  23.018  1.00  0.00    -0.153 NA
ATOM     20  C   UNL A   1      30.982  25.628  24.116  1.00  0.00     0.298 C 
BRANCH  17  21
ATOM     21  C   UNL A   1      32.989  28.381  23.545  1.00  0.00     0.201 C 
ATOM     22  C   UNL A   1      33.761  29.077  27.100  1.00  0.00     0.068 C 
ATOM     23  C   UNL A   1      33.292  28.953  25.699  1.00  0.00     0.058 C 
ATOM     24  C   UNL A   1      33.916  28.318  24.709  1.00  0.00     0.031 C 
ATOM     25  N   UNL A   1      32.090  29.485  25.305  1.00  0.00    -0.160 NA
ATOM     26  N   UNL A   1      31.870  29.214  24.088  1.00  0.00    -0.177 NA
ENDBRANCH  17  21
BRANCH  20  27
ATOM     27  S   UNL A   1      30.205  25.907  25.756  1.00  0.00    -0.128 SA
ATOM     28  H   UNL A   1      30.928  26.827  26.449  1.00  0.00     0.106 HD
ENDBRANCH  20  27
ENDBRANCH  15  16
ENDBRANCH   9  14
ENDBRANCH   6   8
ENDBRANCH   5   6
ENDBRANCH   4   5
ENDBRANCH   3   4
ENDBRANCH   2   3
ENDBRANCH   1   2
BRANCH   1  29
ATOM     29  C   UNL A   1      43.301  18.549  25.781  1.00  0.00     0.188 C 
BRANCH  29  30
ATOM     30  O   UNL A   1      43.521  19.397  24.660  1.00  0.00    -0.376 OA
BRANCH  30  31
ATOM     31  C   UNL A   1      44.819  19.974  24.537  1.00  0.00     0.202 C 
BRANCH  31  32
ATOM     32  C   UNL A   1      44.843  21.444  24.119  1.00  0.00     0.261 C 
BRANCH  32  33
ATOM     33  O   UNL A   1      43.795  22.209  24.693  1.00  0.00    -0.460 OA
BRANCH  33  34
ATOM     34  C   UNL A   1      44.064  23.502  24.913  1.00  0.00     0.338 C 
ATOM     35  O   UNL A   1      44.916  24.189  24.343  1.00  0.00    -0.246 OA
BRANCH  34  36
ATOM     36  C   UNL A   1      43.191  23.987  25.980  1.00  0.00     0.060 A 
ATOM     37  C   UNL A   1      42.155  24.849  25.612  1.00  0.00     0.016 A 
ATOM     38  C   UNL A   1      43.628  23.860  27.308  1.00  0.00     0.016 A 
ATOM     39  C   UNL A   1      41.775  25.814  26.513  1.00  0.00     0.010 A 
ATOM     40  C   UNL A   1      43.279  24.845  28.191  1.00  0.00     0.010 A 
ATOM     41  C   UNL A   1      42.455  25.871  27.732  1.00  0.00    -0.014 A 
BRANCH  41  42
ATOM     42  C   UNL A   1      42.463  27.136  28.431  1.00  0.00     0.031 A 
ATOM     43  C   UNL A   1      43.639  27.985  28.182  1.00  0.00     0.074 A 
ATOM     44  C   UNL A   1      41.374  27.517  29.128  1.00  0.00     0.049 A 
ATOM     45  N   UNL A   1      44.534  28.381  29.022  1.00  0.00    -0.248 NA
ATOM     46  C   UNL A   1      43.918  28.337  26.782  1.00  0.00     0.031 C 
ATOM     47  C   UNL A   1      40.051  26.874  29.128  1.00  0.00     0.029 A 
ATOM     48  N   UNL A   1      41.178  28.629  29.883  1.00  0.00    -0.354 N 
ATOM     49  C   UNL A   1      45.365  29.219  28.290  1.00  0.00     0.074 A 
ATOM     50  C   UNL A   1      45.072  28.988  26.901  1.00  0.00     0.031 C 
ATOM     51  C   UNL A   1      39.149  27.719  29.673  1.00  0.00     0.029 A 
ATOM     52  C   UNL A   1      39.845  28.900  30.153  1.00  0.00     0.049 A 
ATOM     53  H   UNL A   1      41.917  29.191  30.211  1.00  0.00     0.167 HD
ATOM     54  C   UNL A   1      46.030  30.252  28.870  1.00  0.00     0.037 A 
ATOM     55  C   UNL A   1      39.346  30.060  30.646  1.00  0.00     0.037 A 
ATOM     56  C   UNL A   1      46.107  30.109  30.299  1.00  0.00     0.049 A 
ATOM     57  C   UNL A   1      40.472  30.802  31.267  1.00  0.00     0.074 A 
ATOM     58  C   UNL A   1      46.680  29.195  31.157  1.00  0.00     0.029 A 
ATOM     59  N   UNL A   1      45.220  30.844  31.047  1.00  0.00    -0.354 N 
ATOM     60  N   UNL A   1      41.117  30.411  32.333  1.00  0.00    -0.248 NA
ATOM     61  C   UNL A   1      41.151  31.823  30.479  1.00  0.00     0.031 C 
ATOM     62  C   UNL A   1      45.846  29.173  32.312  1.00  0.00     0.029 A 
ATOM     63  C   UNL A   1      44.802  30.078  32.106  1.00  0.00     0.049 A 
ATOM     64  H   UNL A   1      44.932  31.766  30.855  1.00  0.00     0.167 HD
ATOM     65  C   UNL A   1      42.424  30.834  32.142  1.00  0.00     0.074 A 
ATOM     66  C   UNL A   1      42.352  31.810  31.064  1.00  0.00     0.031 C 
ATOM     67  C   UNL A   1      43.472  30.144  32.679  1.00  0.00     0.037 A 
BRANCH  54  68
ATOM     68  C   UNL A   1      46.268  31.562  28.167  1.00  0.00     0.058 A 
ATOM     69  C   UNL A   1      47.581  32.042  28.018  1.00  0.00     0.135 A 
ATOM     70  C   UNL A   1      45.239  32.486  27.869  1.00  0.00     0.135 A 
ATOM     71  F   UNL A   1      48.630  31.254  28.303  1.00  0.00    -0.206 F 
ATOM     72  C   UNL A   1      47.852  33.360  27.651  1.00  0.00     0.059 A 
ATOM     73  C   UNL A   1      45.484  33.780  27.435  1.00  0.00     0.059 A 
ATOM     74  F   UNL A   1      43.945  32.213  28.084  1.00  0.00    -0.206 F 
ATOM     75  C   UNL A   1      46.794  34.224  27.377  1.00  0.00     0.060 A 
BRANCH  75  76
ATOM     76  S   UNL A   1      47.124  35.960  27.033  1.00  0.00     0.124 S 
ATOM     77  O   UNL A   1      46.081  36.260  26.060  1.00  0.00    -0.237 OA
ATOM     78  O   UNL A   1      46.968  36.568  28.350  1.00  0.00    -0.237 OA
ATOM     79  O   UNL A   1      48.489  35.944  26.516  1.00  0.00    -0.744 OA
ENDBRANCH  75  76
ENDBRANCH  54  68
BRANCH  55  80
ATOM     80  C   UNL A   1      38.038  30.686  30.326  1.00  0.00     0.058 A 
ATOM     81  C   UNL A   1      37.239  31.261  31.327  1.00  0.00     0.135 A 
ATOM     82  C   UNL A   1      37.654  30.953  28.994  1.00  0.00     0.135 A 
ATOM     83  F   UNL A   1      37.549  31.086  32.621  1.00  0.00    -0.206 F 
ATOM     84  C   UNL A   1      36.144  32.080  31.027  1.00  0.00     0.059 A 
ATOM     85  C   UNL A   1      36.559  31.748  28.671  1.00  0.00     0.059 A 
ATOM     86  F   UNL A   1      38.390  30.521  27.959  1.00  0.00    -0.206 F 
ATOM     87  C   UNL A   1      35.821  32.329  29.693  1.00  0.00     0.060 A 
BRANCH  87  88
ATOM     88  S   UNL A   1      34.508  33.508  29.300  1.00  0.00     0.124 S 
ATOM     89  O   UNL A   1      33.900  33.728  30.608  1.00  0.00    -0.237 OA
ATOM     90  O   UNL A   1      35.259  34.629  28.746  1.00  0.00    -0.237 OA
ATOM     91  O   UNL A   1      33.678  32.783  28.340  1.00  0.00    -0.744 OA
ENDBRANCH  87  88
ENDBRANCH  55  80
BRANCH  67  92
ATOM     92  C   UNL A   1      43.165  29.174  33.791  1.00  0.00     0.058 A 
ATOM     93  C   UNL A   1      43.088  29.539  35.144  1.00  0.00     0.135 A 
ATOM     94  C   UNL A   1      42.787  27.866  33.455  1.00  0.00     0.135 A 
ATOM     95  F   UNL A   1      43.338  30.798  35.530  1.00  0.00    -0.206 F 
ATOM     96  C   UNL A   1      42.686  28.635  36.127  1.00  0.00     0.059 A 
ATOM     97  C   UNL A   1      42.353  26.955  34.415  1.00  0.00     0.059 A 
ATOM     98  F   UNL A   1      42.779  27.477  32.169  1.00  0.00    -0.206 F 
ATOM     99  C   UNL A   1      42.314  27.345  35.753  1.00  0.00     0.060 A 
BRANCH  99 100
ATOM    100  S   UNL A   1      41.678  26.215  37.011  1.00  0.00     0.124 S 
ATOM    101  O   UNL A   1      42.764  26.197  37.985  1.00  0.00    -0.237 OA
ATOM    102  O   UNL A   1      40.449  26.877  37.443  1.00  0.00    -0.237 OA
ATOM    103  O   UNL A   1      41.475  24.968  36.277  1.00  0.00    -0.744 OA
ENDBRANCH  99 100
ENDBRANCH  67  92
ENDBRANCH  41  42
ENDBRANCH  34  36
ENDBRANCH  33  34
ENDBRANCH  32  33
ENDBRANCH  31  32
ENDBRANCH  30  31
ENDBRANCH  29  30
ENDBRANCH   1  29
TORSDOF 24
ENDMDL
MODEL 3
REMARK VINA RESULT:     -10.6      3.216      9.777
REMARK SMILES CC1=C[C@@H]([C@@H]2N=N[C@H](S)N2/N=C/c2ccc(C(=O)OCCOCCOCCOC(=O)c3ccc(-c4c5nc(c(-c6c(F)cc(S(=O)(=O)[O-])cc6F)c6ccc([nH]6)c(-c6c(F)cc(S(=O)(=O)[O-])cc6F)c6nc(c(-c7c(F)cc(S(=O)(=O)[O-])cc7F)c7ccc4[nH]7)C=C6)C=C5)cc3)cc2)N=N1
REMARK SMILES IDX 23 1 22 2 21 3 20 4 19 5 17 6 18 7 16 8 13 9 14 10 98 11
REMARK SMILES IDX 15 12 97 13 12 14 11 15 10 16 5 17 6 18 7 19 8 20 4 21 1 22
REMARK SMILES IDX 2 23 3 24 100 25 99 26 9 27 24 29 25 30 26 31 27 32 28 33
REMARK SMILES IDX 29 34 30 35 31 36 32 37 96 38 33 39 95 40 34 41 35 42 36 43
REMARK SMILES IDX 89 44 37 45 94 46 88 47 90 48 38 49 93 50 87 51 86 52 39 54
REMARK SMILES IDX 73 55 52 56 72 57 53 58 56 59 71 60 91 61 54 62 55 63 70 65
REMARK SMILES IDX 92 66 57 67 40 68 41 69 50 70 42 71 43 72 49 73 51 74 44 75
REMARK SMILES IDX 45 76 46 77 47 78 48 79 74 80 75 81 84 82 76 83 77 84 83 85
REMARK SMILES IDX 85 86 78 87 79 88 80 89 81 90 82 91 58 92 59 93 68 94 60 95
REMARK SMILES IDX 61 96 67 97 69 98 62 99 63 100 64 101 65 102 66 103
REMARK H PARENT 9 28 90 53 56 64
REMARK Flexibility Score: inf
ROOT
ATOM      1  C   UNL A   1      30.869  31.288  25.438  1.00  0.00     0.188 C 
ENDROOT
BRANCH   1   2
ATOM      2  O   UNL A   1      29.935  30.894  24.442  1.00  0.00    -0.376 OA
BRANCH   2   3
ATOM      3  C   UNL A   1      29.046  31.858  23.898  1.00  0.00     0.202 C 
BRANCH   3   4
ATOM      4  C   UNL A   1      27.602  31.441  23.558  1.00  0.00     0.261 C 
BRANCH   4   5
ATOM      5  O   UNL A   1      27.399  30.028  23.365  1.00  0.00    -0.460 OA
BRANCH   5   6
ATOM      6  C   UNL A   1      28.061  29.467  22.330  1.00  0.00     0.338 C 
ATOM      7  O   UNL A   1      28.149  29.906  21.187  1.00  0.00    -0.246 OA
BRANCH   6   8
ATOM      8  C   UNL A   1      28.848  28.295  22.782  1.00  0.00     0.060 A 
ATOM      9  C   UNL A   1      30.230  26.077  23.761  1.00  0.00    -0.005 A 
ATOM     10  C   UNL A   1      28.877  26.230  24.064  1.00  0.00     0.010 A 
ATOM     11  C   UNL A   1      30.886  26.995  22.932  1.00  0.00     0.010 A 
ATOM     12  C   UNL A   1      28.194  27.351  23.589  1.00  0.00     0.016 A 
ATOM     13  C   UNL A   1      30.189  28.100  22.426  1.00  0.00     0.016 A 
BRANCH   9  14
ATOM     14  C   UNL A   1      30.963  24.963  24.394  1.00  0.00     0.141 C 
ATOM     15  N   UNL A   1      31.953  24.402  23.779  1.00  0.00    -0.180 NA
BRANCH  15  16
ATOM     16  N   UNL A   1      32.638  23.407  24.401  1.00  0.00    -0.233 NA
ATOM     17  C   UNL A   1      33.680  23.785  25.365  1.00  0.00     0.274 C 
ATOM     18  N   UNL A   1      33.740  22.748  26.424  1.00  0.00    -0.161 NA
ATOM     19  N   UNL A   1      32.866  21.872  26.223  1.00  0.00    -0.153 NA
ATOM     20  C   UNL A   1      32.123  22.161  24.975  1.00  0.00     0.298 C 
BRANCH  17  21
ATOM     21  C   UNL A   1      35.053  23.967  24.679  1.00  0.00     0.201 C 
ATOM     22  C   UNL A   1      37.734  21.418  24.871  1.00  0.00     0.068 C 
ATOM     23  C   UNL A   1      36.801  22.570  24.908  1.00  0.00     0.058 C 
ATOM     24  C   UNL A   1      35.685  22.708  24.196  1.00  0.00     0.031 C 
ATOM     25  N   UNL A   1      37.014  23.625  25.759  1.00  0.00    -0.160 NA
ATOM     26  N   UNL A   1      36.069  24.463  25.661  1.00  0.00    -0.177 NA
ENDBRANCH  17  21
BRANCH  20  27
ATOM     27  S   UNL A   1      32.239  20.813  23.734  1.00  0.00    -0.128 SA
ATOM     28  H   UNL A   1      31.356  21.047  22.726  1.00  0.00     0.106 HD
ENDBRANCH  20  27
ENDBRANCH  15  16
ENDBRANCH   9  14
ENDBRANCH   6   8
ENDBRANCH   5   6
ENDBRANCH   4   5
ENDBRANCH   3   4
ENDBRANCH   2   3
ENDBRANCH   1   2
BRANCH   1  29
ATOM     29  C   UNL A   1      31.904  30.290  26.010  1.00  0.00     0.188 C 
BRANCH  29  30
ATOM     30  O   UNL A   1      32.379  30.577  27.320  1.00  0.00    -0.376 OA
BRANCH  30  31
ATOM     31  C   UNL A   1      33.738  30.992  27.433  1.00  0.00     0.202 C 
BRANCH  31  32
ATOM     32  C   UNL A   1      33.969  32.254  28.263  1.00  0.00     0.261 C 
BRANCH  32  33
ATOM     33  O   UNL A   1      35.315  32.412  28.686  1.00  0.00    -0.460 OA
BRANCH  33  34
ATOM     34  C   UNL A   1      35.677  31.714  29.770  1.00  0.00     0.338 C 
ATOM     35  O   UNL A   1      35.470  32.018  30.948  1.00  0.00    -0.246 OA
BRANCH  34  36
ATOM     36  C   UNL A   1      36.400  30.520  29.340  1.00  0.00     0.060 A 
ATOM     37  C   UNL A   1      36.593  29.516  30.293  1.00  0.00     0.016 A 
ATOM     38  C   UNL A   1      37.143  30.583  28.151  1.00  0.00     0.016 A 
ATOM     39  C   UNL A   1      37.742  28.767  30.208  1.00  0.00     0.010 A 
ATOM     40  C   UNL A   1      38.307  29.865  28.089  1.00  0.00     0.010 A 
ATOM     41  C   UNL A   1      38.639  29.066  29.181  1.00  0.00    -0.014 A 
BRANCH  41  42
ATOM     42  C   UNL A   1      40.024  28.700  29.379  1.00  0.00     0.031 A 
ATOM     43  C   UNL A   1      40.487  28.724  30.775  1.00  0.00     0.074 A 
ATOM     44  C   UNL A   1      40.744  28.236  28.339  1.00  0.00     0.049 A 
ATOM     45  N   UNL A   1      41.399  29.466  31.305  1.00  0.00    -0.248 NA
ATOM     46  C   UNL A   1      39.746  27.891  31.734  1.00  0.00     0.031 C 
ATOM     47  C   UNL A   1      40.242  27.866  27.006  1.00  0.00     0.029 A 
ATOM     48  N   UNL A   1      42.053  27.877  28.286  1.00  0.00    -0.354 N 
ATOM     49  C   UNL A   1      41.496  29.030  32.620  1.00  0.00     0.074 A 
ATOM     50  C   UNL A   1      40.333  28.226  32.880  1.00  0.00     0.031 C 
ATOM     51  C   UNL A   1      41.186  27.146  26.362  1.00  0.00     0.029 A 
ATOM     52  C   UNL A   1      42.382  27.101  27.185  1.00  0.00     0.049 A 
ATOM     53  H   UNL A   1      42.710  28.144  28.969  1.00  0.00     0.167 HD
ATOM     54  C   UNL A   1      42.659  29.113  33.317  1.00  0.00     0.037 A 
ATOM     55  C   UNL A   1      43.525  26.394  27.014  1.00  0.00     0.037 A 
ATOM     56  C   UNL A   1      43.582  30.039  32.719  1.00  0.00     0.049 A 
ATOM     57  C   UNL A   1      44.533  26.938  27.960  1.00  0.00     0.074 A 
ATOM     58  C   UNL A   1      43.577  31.396  32.471  1.00  0.00     0.029 A 
ATOM     59  N   UNL A   1      44.594  29.507  31.958  1.00  0.00    -0.354 N 
ATOM     60  N   UNL A   1      45.046  28.137  27.885  1.00  0.00    -0.248 NA
ATOM     61  C   UNL A   1      44.712  26.273  29.244  1.00  0.00     0.031 C 
ATOM     62  C   UNL A   1      44.352  31.575  31.289  1.00  0.00     0.029 A 
ATOM     63  C   UNL A   1      44.798  30.319  30.871  1.00  0.00     0.049 A 
ATOM     64  H   UNL A   1      45.091  28.681  32.160  1.00  0.00     0.167 HD
ATOM     65  C   UNL A   1      45.257  28.524  29.200  1.00  0.00     0.074 A 
ATOM     66  C   UNL A   1      45.168  27.295  29.974  1.00  0.00     0.031 C 
ATOM     67  C   UNL A   1      45.199  29.838  29.564  1.00  0.00     0.037 A 
BRANCH  54  68
ATOM     68  C   UNL A   1      43.084  28.069  34.317  1.00  0.00     0.058 A 
ATOM     69  C   UNL A   1      43.285  28.434  35.659  1.00  0.00     0.135 A 
ATOM     70  C   UNL A   1      43.554  26.784  33.952  1.00  0.00     0.135 A 
ATOM     71  F   UNL A   1      42.901  29.642  36.100  1.00  0.00    -0.206 F 
ATOM     72  C   UNL A   1      43.951  27.604  36.561  1.00  0.00     0.059 A 
ATOM     73  C   UNL A   1      44.157  25.916  34.848  1.00  0.00     0.059 A 
ATOM     74  F   UNL A   1      43.546  26.352  32.684  1.00  0.00    -0.206 F 
ATOM     75  C   UNL A   1      44.396  26.354  36.139  1.00  0.00     0.060 A 
BRANCH  75  76
ATOM     76  S   UNL A   1      45.374  25.331  37.252  1.00  0.00     0.124 S 
ATOM     77  O   UNL A   1      46.680  25.378  36.608  1.00  0.00    -0.237 OA
ATOM     78  O   UNL A   1      45.254  26.051  38.515  1.00  0.00    -0.237 OA
ATOM     79  O   UNL A   1      44.690  24.042  37.207  1.00  0.00    -0.744 OA
ENDBRANCH  75  76
ENDBRANCH  54  68
BRANCH  55  80
ATOM     80  C   UNL A   1      43.683  25.090  26.320  1.00  0.00     0.058 A 
ATOM     81  C   UNL A   1      44.654  24.907  25.323  1.00  0.00     0.135 A 
ATOM     82  C   UNL A   1      43.048  23.922  26.792  1.00  0.00     0.135 A 
ATOM     83  F   UNL A   1      45.331  25.959  24.839  1.00  0.00    -0.206 F 
ATOM     84  C   UNL A   1      45.000  23.637  24.845  1.00  0.00     0.059 A 
ATOM     85  C   UNL A   1      43.360  22.650  26.319  1.00  0.00     0.059 A 
ATOM     86  F   UNL A   1      42.163  23.971  27.800  1.00  0.00    -0.206 F 
ATOM     87  C   UNL A   1      44.355  22.513  25.362  1.00  0.00     0.060 A 
BRANCH  87  88
ATOM     88  S   UNL A   1      44.905  20.864  24.863  1.00  0.00     0.124 S 
ATOM     89  O   UNL A   1      46.308  20.881  25.263  1.00  0.00    -0.237 OA
ATOM     90  O   UNL A   1      44.028  20.000  25.644  1.00  0.00    -0.237 OA
ATOM     91  O   UNL A   1      44.667  20.849  23.421  1.00  0.00    -0.744 OA
ENDBRANCH  87  88
ENDBRANCH  55  80
BRANCH  67  92
ATOM     92  C   UNL A   1      45.301  30.866  28.466  1.00  0.00     0.058 A 
ATOM     93  C   UNL A   1      44.201  31.323  27.723  1.00  0.00     0.135 A 
ATOM     94  C   UNL A   1      46.527  31.516  28.266  1.00  0.00     0.135 A 
ATOM     95  F   UNL A   1      42.976  30.818  27.931  1.00  0.00    -0.206 F 
ATOM     96  C   UNL A   1      44.319  32.359  26.797  1.00  0.00     0.059 A 
ATOM     97  C   UNL A   1      46.663  32.572  27.369  1.00  0.00     0.059 A 
ATOM     98  F   UNL A   1      47.601  31.165  28.993  1.00  0.00    -0.206 F 
ATOM     99  C   UNL A   1      45.555  32.983  26.630  1.00  0.00     0.060 A 
BRANCH  99 100
ATOM    100  S   UNL A   1      45.677  34.403  25.519  1.00  0.00     0.124 S 
ATOM    101  O   UNL A   1      47.113  34.474  25.269  1.00  0.00    -0.237 OA
ATOM    102  O   UNL A   1      44.855  33.992  24.384  1.00  0.00    -0.237 OA
ATOM    103  O   UNL A   1      45.125  35.501  26.310  1.00  0.00    -0.744 OA
ENDBRANCH  99 100
ENDBRANCH  67  92
ENDBRANCH  41  42
ENDBRANCH  34  36
ENDBRANCH  33  34
ENDBRANCH  32  33
ENDBRANCH  31  32
ENDBRANCH  30  31
ENDBRANCH  29  30
ENDBRANCH   1  29
TORSDOF 24
ENDMDL
