MODEL 1
REMARK VINA RESULT:     -12.1      0.000      0.000
REMARK SMILES O=C(OCCOCCOCCOC(=O)c1ccc(-c2c3nc(c(-c4c(F)cc(S(=O)(=O)[O-])cc4F)c4ccc([nH]4)c(-c4c(F)cc(S(=O)(=O)[O-])cc4F)c4nc(c(-c5c(F)cc(S(=O)(=O)[O-])cc5F)c5ccc2[nH]5)C=C4)C=C3)cc1)C1=Cc2cc(Cl)cc(-c3ccc(CO)cc3)c2O[C@@H]1C(F)(F)F
REMARK SMILES IDX 7 1 6 2 5 3 4 4 3 5 2 6 1 7 81 8 82 9 99 10 83 11 98 12
REMARK SMILES IDX 84 13 97 14 85 15 88 16 86 17 87 18 100 19 101 20 102 21
REMARK SMILES IDX 103 22 89 23 90 24 96 25 91 26 95 27 92 28 93 29 94 30 8 32
REMARK SMILES IDX 9 33 10 34 11 35 12 36 13 37 14 38 15 39 16 40 80 41 17 42
REMARK SMILES IDX 79 43 18 44 19 45 20 46 73 47 21 48 78 49 72 50 74 51 22 52
REMARK SMILES IDX 77 53 71 54 70 55 23 57 57 58 36 59 56 60 37 61 40 62 55 63
REMARK SMILES IDX 75 64 38 65 39 66 54 68 76 69 41 70 24 71 25 72 34 73 26 74
REMARK SMILES IDX 27 75 33 76 35 77 28 78 29 79 30 80 31 81 32 82 58 83 59 84
REMARK SMILES IDX 68 85 60 86 61 87 67 88 69 89 62 90 63 91 64 92 65 93 66 94
REMARK SMILES IDX 42 95 43 96 52 97 44 98 45 99 51 100 53 101 46 102 47 103
REMARK SMILES IDX 48 104 49 105 50 106
REMARK H PARENT 94 31 74 56 40 67
REMARK Flexibility Score: inf
ROOT
ATOM      1  C   UNL A   1      34.829  32.308  28.309  1.00  0.00     0.188 C 
ENDROOT
BRANCH   1   2
ATOM      2  O   UNL A   1      34.489  30.869  27.989  1.00  0.00    -0.376 OA
BRANCH   2   3
ATOM      3  C   UNL A   1      33.412  30.299  26.702  1.00  0.00     0.202 C 
BRANCH   3   4
ATOM      4  C   UNL A   1      32.623  28.270  26.659  1.00  0.00     0.261 C 
BRANCH   4   5
ATOM      5  O   UNL A   1      33.234  27.080  25.889  1.00  0.00    -0.460 OA
BRANCH   5   6
ATOM      6  C   UNL A   1      32.482  25.969  25.963  1.00  0.00     0.338 C 
ATOM      7  O   UNL A   1      31.946  25.484  26.926  1.00  0.00    -0.246 OA
BRANCH   6   8
ATOM      8  C   UNL A   1      32.980  25.387  24.735  1.00  0.00     0.087 C 
ATOM      9  C   UNL A   1      34.393  25.077  24.728  1.00  0.00     0.027 C 
ATOM     10  C   UNL A   1      31.556  24.108  24.585  1.00  0.00     0.316 C 
ATOM     11  C   UNL A   1      35.041  23.419  24.843  1.00  0.00     0.019 A 
ATOM     12  O   UNL A   1      32.237  22.285  24.877  1.00  0.00    -0.475 OA
ATOM     13  C   UNL A   1      36.401  23.310  24.993  1.00  0.00     0.032 A 
ATOM     14  C   UNL A   1      34.044  22.007  24.976  1.00  0.00     0.135 A 
ATOM     15  C   UNL A   1      36.876  22.015  25.188  1.00  0.00     0.042 A 
ATOM     16  C   UNL A   1      34.620  20.750  25.110  1.00  0.00     0.026 A 
ATOM     17  Cl  UNL A   1      38.583  21.812  25.400  1.00  0.00    -0.084 Cl
ATOM     18  C   UNL A   1      36.050  20.833  25.223  1.00  0.00     0.033 A 
BRANCH  10  19
ATOM     19  C   UNL A   1      30.914  24.883  23.209  1.00  0.00     0.430 C 
ATOM     20  F   UNL A   1      30.518  26.168  23.293  1.00  0.00    -0.167 F 
ATOM     21  F   UNL A   1      31.774  24.780  22.170  1.00  0.00    -0.167 F 
ATOM     22  F   UNL A   1      29.776  24.248  22.794  1.00  0.00    -0.167 F 
ENDBRANCH  10  19
BRANCH  16  23
ATOM     23  C   UNL A   1      34.091  19.389  25.051  1.00  0.00    -0.015 A 
ATOM     24  C   UNL A   1      32.896  19.030  25.683  1.00  0.00     0.009 A 
ATOM     25  C   UNL A   1      34.924  18.342  24.607  1.00  0.00     0.009 A 
ATOM     26  C   UNL A   1      32.487  17.687  25.740  1.00  0.00     0.007 A 
ATOM     27  C   UNL A   1      34.509  17.005  24.639  1.00  0.00     0.007 A 
ATOM     28  C   UNL A   1      33.257  16.672  25.157  1.00  0.00    -0.023 A 
BRANCH  28  29
ATOM     29  C   UNL A   1      32.741  15.260  25.072  1.00  0.00     0.191 C 
BRANCH  29  30
ATOM     30  O   UNL A   1      33.735  14.318  25.442  1.00  0.00    -0.392 OA
ATOM     31  H   UNL A   1      33.741  14.217  26.407  1.00  0.00     0.211 HD
ENDBRANCH  29  30
ENDBRANCH  28  29
ENDBRANCH  16  23
ENDBRANCH   6   8
ENDBRANCH   5   6
ENDBRANCH   4   5
ENDBRANCH   3   4
ENDBRANCH   2   3
ENDBRANCH   1   2
BRANCH   1  32
ATOM     32  C   UNL A   1      34.235  33.076  29.502  1.00  0.00     0.188 C 
BRANCH  32  33
ATOM     33  O   UNL A   1      35.040  33.316  30.624  1.00  0.00    -0.376 OA
BRANCH  33  34
ATOM     34  C   UNL A   1      36.313  33.843  30.314  1.00  0.00     0.202 C 
BRANCH  34  35
ATOM     35  C   UNL A   1      37.570  33.054  30.695  1.00  0.00     0.261 C 
BRANCH  35  36
ATOM     36  O   UNL A   1      37.362  32.039  31.689  1.00  0.00    -0.460 OA
BRANCH  36  37
ATOM     37  C   UNL A   1      37.099  30.792  31.228  1.00  0.00     0.338 C 
ATOM     38  O   UNL A   1      36.021  30.225  31.192  1.00  0.00    -0.246 OA
BRANCH  37  39
ATOM     39  C   UNL A   1      38.322  30.269  30.594  1.00  0.00     0.060 A 
ATOM     40  C   UNL A   1      39.439  29.945  31.380  1.00  0.00     0.016 A 
ATOM     41  C   UNL A   1      38.365  30.142  29.208  1.00  0.00     0.016 A 
ATOM     42  C   UNL A   1      40.598  29.457  30.780  1.00  0.00     0.010 A 
ATOM     43  C   UNL A   1      39.542  29.701  28.605  1.00  0.00     0.010 A 
ATOM     44  C   UNL A   1      40.663  29.368  29.386  1.00  0.00    -0.014 A 
BRANCH  44  45
ATOM     45  C   UNL A   1      41.957  29.126  28.712  1.00  0.00     0.031 A 
ATOM     46  C   UNL A   1      42.233  27.738  28.214  1.00  0.00     0.074 A 
ATOM     47  C   UNL A   1      42.882  30.098  28.615  1.00  0.00     0.049 A 
ATOM     48  N   UNL A   1      43.343  27.234  27.748  1.00  0.00    -0.248 NA
ATOM     49  C   UNL A   1      41.110  26.784  28.263  1.00  0.00     0.031 C 
ATOM     50  C   UNL A   1      42.694  31.484  29.038  1.00  0.00     0.029 A 
ATOM     51  N   UNL A   1      44.176  30.055  28.161  1.00  0.00    -0.354 N 
ATOM     52  C   UNL A   1      43.063  25.900  27.478  1.00  0.00     0.074 A 
ATOM     53  C   UNL A   1      41.680  25.672  27.824  1.00  0.00     0.031 C 
ATOM     54  C   UNL A   1      43.846  32.155  28.856  1.00  0.00     0.029 A 
ATOM     55  C   UNL A   1      44.863  31.233  28.352  1.00  0.00     0.049 A 
ATOM     56  H   UNL A   1      44.574  29.259  27.740  1.00  0.00     0.167 HD
ATOM     57  C   UNL A   1      43.899  24.951  27.002  1.00  0.00     0.037 A 
ATOM     58  C   UNL A   1      46.173  31.511  28.185  1.00  0.00     0.037 A 
ATOM     59  C   UNL A   1      45.277  25.197  26.670  1.00  0.00     0.049 A 
ATOM     60  C   UNL A   1      47.095  30.414  27.702  1.00  0.00     0.074 A 
ATOM     61  C   UNL A   1      46.197  24.316  26.132  1.00  0.00     0.029 A 
ATOM     62  N   UNL A   1      45.938  26.399  26.868  1.00  0.00    -0.354 N 
ATOM     63  N   UNL A   1      46.808  29.171  27.388  1.00  0.00    -0.248 NA
ATOM     64  C   UNL A   1      48.520  30.749  27.562  1.00  0.00     0.031 C 
ATOM     65  C   UNL A   1      47.434  24.962  26.078  1.00  0.00     0.029 A 
ATOM     66  C   UNL A   1      47.267  26.269  26.509  1.00  0.00     0.049 A 
ATOM     67  H   UNL A   1      45.523  27.223  27.212  1.00  0.00     0.167 HD
ATOM     68  C   UNL A   1      48.009  28.588  26.994  1.00  0.00     0.074 A 
ATOM     69  C   UNL A   1      49.022  29.616  27.088  1.00  0.00     0.031 C 
ATOM     70  C   UNL A   1      48.257  27.314  26.599  1.00  0.00     0.037 A 
BRANCH  57  71
ATOM     71  C   UNL A   1      43.376  23.552  26.855  1.00  0.00     0.058 A 
ATOM     72  C   UNL A   1      43.041  23.008  25.607  1.00  0.00     0.135 A 
ATOM     73  C   UNL A   1      43.283  22.718  27.983  1.00  0.00     0.135 A 
ATOM     74  F   UNL A   1      43.084  23.769  24.502  1.00  0.00    -0.206 F 
ATOM     75  C   UNL A   1      42.638  21.682  25.479  1.00  0.00     0.059 A 
ATOM     76  C   UNL A   1      42.910  21.383  27.875  1.00  0.00     0.059 A 
ATOM     77  F   UNL A   1      43.576  23.196  29.202  1.00  0.00    -0.206 F 
ATOM     78  C   UNL A   1      42.590  20.874  26.618  1.00  0.00     0.060 A 
BRANCH  78  79
ATOM     79  S   UNL A   1      42.131  19.140  26.423  1.00  0.00     0.124 S 
ATOM     80  O   UNL A   1      43.262  18.622  25.659  1.00  0.00    -0.237 OA
ATOM     81  O   UNL A   1      42.041  18.688  27.807  1.00  0.00    -0.237 OA
ATOM     82  O   UNL A   1      40.863  19.201  25.702  1.00  0.00    -0.744 OA
ENDBRANCH  78  79
ENDBRANCH  57  71
BRANCH  58  83
ATOM     83  C   UNL A   1      46.716  32.855  28.535  1.00  0.00     0.058 A 
ATOM     84  C   UNL A   1      47.174  33.144  29.831  1.00  0.00     0.135 A 
ATOM     85  C   UNL A   1      46.740  33.897  27.595  1.00  0.00     0.135 A 
ATOM     86  F   UNL A   1      47.158  32.190  30.775  1.00  0.00    -0.206 F 
ATOM     87  C   UNL A   1      47.603  34.419  30.190  1.00  0.00     0.059 A 
ATOM     88  C   UNL A   1      47.199  35.171  27.918  1.00  0.00     0.059 A 
ATOM     89  F   UNL A   1      46.320  33.682  26.338  1.00  0.00    -0.206 F 
ATOM     90  C   UNL A   1      47.612  35.427  29.224  1.00  0.00     0.060 A 
BRANCH  90  91
ATOM     91  S   UNL A   1      48.179  37.077  29.694  1.00  0.00     0.124 S 
ATOM     92  O   UNL A   1      48.556  37.637  28.402  1.00  0.00    -0.237 OA
ATOM     93  O   UNL A   1      46.987  37.646  30.315  1.00  0.00    -0.237 OA
ATOM     94  O   UNL A   1      49.284  36.804  30.609  1.00  0.00    -0.744 OA
ENDBRANCH  90  91
ENDBRANCH  58  83
BRANCH  70  95
ATOM     95  C   UNL A   1      49.667  26.959  26.210  1.00  0.00     0.058 A 
ATOM     96  C   UNL A   1      50.133  27.122  24.897  1.00  0.00     0.135 A 
ATOM     97  C   UNL A   1      50.588  26.541  27.186  1.00  0.00     0.135 A 
ATOM     98  F   UNL A   1      49.293  27.513  23.925  1.00  0.00    -0.206 F 
ATOM     99  C   UNL A   1      51.460  26.874  24.561  1.00  0.00     0.059 A 
ATOM    100  C   UNL A   1      51.926  26.320  26.880  1.00  0.00     0.059 A 
ATOM    101  F   UNL A   1      50.197  26.379  28.460  1.00  0.00    -0.206 F 
ATOM    102  C   UNL A   1      52.352  26.484  25.563  1.00  0.00     0.060 A 
BRANCH 102 103
ATOM    103  S   UNL A   1      54.084  26.231  25.123  1.00  0.00     0.124 S 
ATOM    104  O   UNL A   1      54.044  24.902  24.520  1.00  0.00    -0.237 OA
ATOM    105  O   UNL A   1      54.337  27.337  24.205  1.00  0.00    -0.237 OA
ATOM    106  O   UNL A   1      54.778  26.316  26.405  1.00  0.00    -0.744 OA
ENDBRANCH 102 103
ENDBRANCH  70  95
ENDBRANCH  44  45
ENDBRANCH  37  39
ENDBRANCH  36  37
ENDBRANCH  35  36
ENDBRANCH  34  35
ENDBRANCH  33  34
ENDBRANCH  32  33
ENDBRANCH   1  32
TORSDOF 24
ENDMDL
MODEL 2
REMARK VINA RESULT:     -10.5      3.296      4.699
REMARK SMILES O=C(OCCOCCOCCOC(=O)c1ccc(-c2c3nc(c(-c4c(F)cc(S(=O)(=O)[O-])cc4F)c4ccc([nH]4)c(-c4c(F)cc(S(=O)(=O)[O-])cc4F)c4nc(c(-c5c(F)cc(S(=O)(=O)[O-])cc5F)c5ccc2[nH]5)C=C4)C=C3)cc1)C1=Cc2cc(Cl)cc(-c3ccc(CO)cc3)c2O[C@@H]1C(F)(F)F
REMARK SMILES IDX 7 1 6 2 5 3 4 4 3 5 2 6 1 7 81 8 82 9 99 10 83 11 98 12
REMARK SMILES IDX 84 13 97 14 85 15 88 16 86 17 87 18 100 19 101 20 102 21
REMARK SMILES IDX 103 22 89 23 90 24 96 25 91 26 95 27 92 28 93 29 94 30 8 32
REMARK SMILES IDX 9 33 10 34 11 35 12 36 13 37 14 38 15 39 16 40 80 41 17 42
REMARK SMILES IDX 79 43 18 44 19 45 20 46 73 47 21 48 78 49 72 50 74 51 22 52
REMARK SMILES IDX 77 53 71 54 70 55 23 57 57 58 36 59 56 60 37 61 40 62 55 63
REMARK SMILES IDX 75 64 38 65 39 66 54 68 76 69 41 70 24 71 25 72 34 73 26 74
REMARK SMILES IDX 27 75 33 76 35 77 28 78 29 79 30 80 31 81 32 82 58 83 59 84
REMARK SMILES IDX 68 85 60 86 61 87 67 88 69 89 62 90 63 91 64 92 65 93 66 94
REMARK SMILES IDX 42 95 43 96 52 97 44 98 45 99 51 100 53 101 46 102 47 103
REMARK SMILES IDX 48 104 49 105 50 106
REMARK H PARENT 94 31 74 56 40 67
REMARK Flexibility Score: inf
ROOT
ATOM      1  C   UNL A   1      35.902  31.587  28.529  1.00  0.00     0.188 C 
ENDROOT
BRANCH   1   2
ATOM      2  O   UNL A   1      35.687  30.403  27.613  1.00  0.00    -0.376 OA
BRANCH   2   3
ATOM      3  C   UNL A   1      34.171  29.943  26.819  1.00  0.00     0.202 C 
BRANCH   3   4
ATOM      4  C   UNL A   1      33.394  27.909  26.884  1.00  0.00     0.261 C 
BRANCH   4   5
ATOM      5  O   UNL A   1      32.495  27.252  25.815  1.00  0.00    -0.460 OA
BRANCH   5   6
ATOM      6  C   UNL A   1      32.208  25.969  26.091  1.00  0.00     0.338 C 
ATOM      7  O   UNL A   1      31.992  25.459  27.160  1.00  0.00    -0.246 OA
BRANCH   6   8
ATOM      8  C   UNL A   1      32.746  25.440  24.856  1.00  0.00     0.087 C 
ATOM      9  C   UNL A   1      34.171  25.189  24.862  1.00  0.00     0.027 C 
ATOM     10  C   UNL A   1      31.379  24.109  24.653  1.00  0.00     0.316 C 
ATOM     11  C   UNL A   1      34.886  23.556  24.944  1.00  0.00     0.019 A 
ATOM     12  O   UNL A   1      32.131  22.308  24.908  1.00  0.00    -0.475 OA
ATOM     13  C   UNL A   1      36.246  23.499  25.111  1.00  0.00     0.032 A 
ATOM     14  C   UNL A   1      33.946  22.102  25.026  1.00  0.00     0.135 A 
ATOM     15  C   UNL A   1      36.772  22.221  25.279  1.00  0.00     0.042 A 
ATOM     16  C   UNL A   1      34.572  20.867  25.137  1.00  0.00     0.026 A 
ATOM     17  Cl  UNL A   1      38.483  22.083  25.511  1.00  0.00    -0.084 Cl
ATOM     18  C   UNL A   1      35.996  21.005  25.272  1.00  0.00     0.033 A 
BRANCH  10  19
ATOM     19  C   UNL A   1      30.724  24.892  23.288  1.00  0.00     0.430 C 
ATOM     20  F   UNL A   1      30.171  26.114  23.423  1.00  0.00    -0.167 F 
ATOM     21  F   UNL A   1      31.646  24.960  22.300  1.00  0.00    -0.167 F 
ATOM     22  F   UNL A   1      29.695  24.157  22.767  1.00  0.00    -0.167 F 
ENDBRANCH  10  19
BRANCH  16  23
ATOM     23  C   UNL A   1      34.100  19.488  25.035  1.00  0.00    -0.015 A 
ATOM     24  C   UNL A   1      32.934  19.053  25.672  1.00  0.00     0.009 A 
ATOM     25  C   UNL A   1      34.969  18.495  24.537  1.00  0.00     0.009 A 
ATOM     26  C   UNL A   1      32.584  17.693  25.685  1.00  0.00     0.007 A 
ATOM     27  C   UNL A   1      34.613  17.140  24.526  1.00  0.00     0.007 A 
ATOM     28  C   UNL A   1      33.386  16.734  25.051  1.00  0.00    -0.023 A 
BRANCH  28  29
ATOM     29  C   UNL A   1      32.929  15.305  24.921  1.00  0.00     0.191 C 
BRANCH  29  30
ATOM     30  O   UNL A   1      31.697  15.089  25.593  1.00  0.00    -0.392 OA
ATOM     31  H   UNL A   1      31.017  14.838  24.948  1.00  0.00     0.211 HD
ENDBRANCH  29  30
ENDBRANCH  28  29
ENDBRANCH  16  23
ENDBRANCH   6   8
ENDBRANCH   5   6
ENDBRANCH   4   5
ENDBRANCH   3   4
ENDBRANCH   2   3
ENDBRANCH   1   2
BRANCH   1  32
ATOM     32  C   UNL A   1      37.257  31.927  29.173  1.00  0.00     0.188 C 
BRANCH  32  33
ATOM     33  O   UNL A   1      37.556  33.266  29.460  1.00  0.00    -0.376 OA
BRANCH  33  34
ATOM     34  C   UNL A   1      38.930  33.514  29.670  1.00  0.00     0.202 C 
BRANCH  34  35
ATOM     35  C   UNL A   1      39.500  34.905  29.376  1.00  0.00     0.261 C 
BRANCH  35  36
ATOM     36  O   UNL A   1      40.934  34.973  29.356  1.00  0.00    -0.460 OA
BRANCH  36  37
ATOM     37  C   UNL A   1      41.485  35.775  28.413  1.00  0.00     0.338 C 
ATOM     38  O   UNL A   1      41.110  36.883  28.070  1.00  0.00    -0.246 OA
BRANCH  37  39
ATOM     39  C   UNL A   1      42.748  35.162  27.968  1.00  0.00     0.060 A 
ATOM     40  C   UNL A   1      43.038  35.061  26.598  1.00  0.00     0.016 A 
ATOM     41  C   UNL A   1      43.626  34.652  28.922  1.00  0.00     0.016 A 
ATOM     42  C   UNL A   1      44.231  34.475  26.178  1.00  0.00     0.010 A 
ATOM     43  C   UNL A   1      44.795  34.021  28.498  1.00  0.00     0.010 A 
ATOM     44  C   UNL A   1      45.096  33.921  27.127  1.00  0.00    -0.014 A 
BRANCH  44  45
ATOM     45  C   UNL A   1      46.215  33.054  26.703  1.00  0.00     0.031 A 
ATOM     46  C   UNL A   1      45.989  31.570  26.715  1.00  0.00     0.074 A 
ATOM     47  C   UNL A   1      47.415  33.573  26.388  1.00  0.00     0.049 A 
ATOM     48  N   UNL A   1      46.849  30.603  26.553  1.00  0.00    -0.248 NA
ATOM     49  C   UNL A   1      44.608  31.116  26.959  1.00  0.00     0.031 C 
ATOM     50  C   UNL A   1      47.722  35.000  26.314  1.00  0.00     0.029 A 
ATOM     51  N   UNL A   1      48.607  32.955  26.105  1.00  0.00    -0.354 N 
ATOM     52  C   UNL A   1      46.124  29.428  26.705  1.00  0.00     0.074 A 
ATOM     53  C   UNL A   1      44.753  29.800  26.966  1.00  0.00     0.031 C 
ATOM     54  C   UNL A   1      49.031  35.150  26.041  1.00  0.00     0.029 A 
ATOM     55  C   UNL A   1      49.660  33.832  25.969  1.00  0.00     0.049 A 
ATOM     56  H   UNL A   1      48.700  31.980  26.009  1.00  0.00     0.167 HD
ATOM     57  C   UNL A   1      46.574  28.156  26.651  1.00  0.00     0.037 A 
ATOM     58  C   UNL A   1      50.983  33.589  25.853  1.00  0.00     0.037 A 
ATOM     59  C   UNL A   1      47.946  27.806  26.398  1.00  0.00     0.049 A 
ATOM     60  C   UNL A   1      51.463  32.156  25.850  1.00  0.00     0.074 A 
ATOM     61  C   UNL A   1      48.498  26.544  26.272  1.00  0.00     0.029 A 
ATOM     62  N   UNL A   1      48.983  28.715  26.258  1.00  0.00    -0.354 N 
ATOM     63  N   UNL A   1      50.761  31.048  25.930  1.00  0.00    -0.248 NA
ATOM     64  C   UNL A   1      52.914  31.935  25.752  1.00  0.00     0.031 C 
ATOM     65  C   UNL A   1      49.881  26.689  26.134  1.00  0.00     0.029 A 
ATOM     66  C   UNL A   1      50.180  28.042  26.097  1.00  0.00     0.049 A 
ATOM     67  H   UNL A   1      48.882  29.695  26.272  1.00  0.00     0.167 HD
ATOM     68  C   UNL A   1      51.682  30.006  25.871  1.00  0.00     0.074 A 
ATOM     69  C   UNL A   1      52.988  30.611  25.726  1.00  0.00     0.031 C 
ATOM     70  C   UNL A   1      51.470  28.668  25.940  1.00  0.00     0.037 A 
BRANCH  57  71
ATOM     71  C   UNL A   1      45.600  27.045  26.917  1.00  0.00     0.058 A 
ATOM     72  C   UNL A   1      45.418  26.502  28.196  1.00  0.00     0.135 A 
ATOM     73  C   UNL A   1      44.778  26.573  25.879  1.00  0.00     0.135 A 
ATOM     74  F   UNL A   1      46.196  26.896  29.217  1.00  0.00    -0.206 F 
ATOM     75  C   UNL A   1      44.451  25.532  28.441  1.00  0.00     0.059 A 
ATOM     76  C   UNL A   1      43.786  25.626  26.106  1.00  0.00     0.059 A 
ATOM     77  F   UNL A   1      44.922  27.049  24.633  1.00  0.00    -0.206 F 
ATOM     78  C   UNL A   1      43.630  25.111  27.391  1.00  0.00     0.060 A 
BRANCH  78  79
ATOM     79  S   UNL A   1      42.336  23.904  27.743  1.00  0.00     0.124 S 
ATOM     80  O   UNL A   1      42.512  23.696  29.177  1.00  0.00    -0.237 OA
ATOM     81  O   UNL A   1      41.129  24.623  27.350  1.00  0.00    -0.237 OA
ATOM     82  O   UNL A   1      42.690  22.768  26.898  1.00  0.00    -0.744 OA
ENDBRANCH  78  79
ENDBRANCH  57  71
BRANCH  58  83
ATOM     83  C   UNL A   1      51.960  34.715  25.799  1.00  0.00     0.058 A 
ATOM     84  C   UNL A   1      52.406  35.239  24.575  1.00  0.00     0.135 A 
ATOM     85  C   UNL A   1      52.510  35.257  26.972  1.00  0.00     0.135 A 
ATOM     86  F   UNL A   1      51.926  34.746  23.423  1.00  0.00    -0.206 F 
ATOM     87  C   UNL A   1      53.380  36.231  24.513  1.00  0.00     0.059 A 
ATOM     88  C   UNL A   1      53.458  36.275  26.938  1.00  0.00     0.059 A 
ATOM     89  F   UNL A   1      52.120  34.802  28.174  1.00  0.00    -0.206 F 
ATOM     90  C   UNL A   1      53.901  36.744  25.703  1.00  0.00     0.060 A 
BRANCH  90  91
ATOM     91  S   UNL A   1      55.158  38.038  25.616  1.00  0.00     0.124 S 
ATOM     92  O   UNL A   1      56.050  37.656  26.703  1.00  0.00    -0.237 OA
ATOM     93  O   UNL A   1      55.684  37.865  24.265  1.00  0.00    -0.237 OA
ATOM     94  O   UNL A   1      54.393  39.264  25.830  1.00  0.00    -0.744 OA
ENDBRANCH  90  91
ENDBRANCH  58  83
BRANCH  70  95
ATOM     95  C   UNL A   1      52.665  27.759  25.832  1.00  0.00     0.058 A 
ATOM     96  C   UNL A   1      53.127  27.292  24.592  1.00  0.00     0.135 A 
ATOM     97  C   UNL A   1      53.413  27.431  26.976  1.00  0.00     0.135 A 
ATOM     98  F   UNL A   1      52.447  27.571  23.468  1.00  0.00    -0.206 F 
ATOM     99  C   UNL A   1      54.281  26.523  24.489  1.00  0.00     0.059 A 
ATOM    100  C   UNL A   1      54.587  26.692  26.893  1.00  0.00     0.059 A 
ATOM    101  F   UNL A   1      53.021  27.861  28.186  1.00  0.00    -0.206 F 
ATOM    102  C   UNL A   1      55.012  26.238  25.646  1.00  0.00     0.060 A 
BRANCH 102 103
ATOM    103  S   UNL A   1      56.542  25.296  25.487  1.00  0.00     0.124 S 
ATOM    104  O   UNL A   1      57.185  25.558  26.771  1.00  0.00    -0.237 OA
ATOM    105  O   UNL A   1      56.051  23.935  25.290  1.00  0.00    -0.237 OA
ATOM    106  O   UNL A   1      57.194  25.895  24.327  1.00  0.00    -0.744 OA
ENDBRANCH 102 103
ENDBRANCH  70  95
ENDBRANCH  44  45
ENDBRANCH  37  39
ENDBRANCH  36  37
ENDBRANCH  35  36
ENDBRANCH  34  35
ENDBRANCH  33  34
ENDBRANCH  32  33
ENDBRANCH   1  32
TORSDOF 24
ENDMDL
MODEL 3
REMARK VINA RESULT:     -10.2      7.053     14.114
REMARK SMILES O=C(OCCOCCOCCOC(=O)c1ccc(-c2c3nc(c(-c4c(F)cc(S(=O)(=O)[O-])cc4F)c4ccc([nH]4)c(-c4c(F)cc(S(=O)(=O)[O-])cc4F)c4nc(c(-c5c(F)cc(S(=O)(=O)[O-])cc5F)c5ccc2[nH]5)C=C4)C=C3)cc1)C1=Cc2cc(Cl)cc(-c3ccc(CO)cc3)c2O[C@@H]1C(F)(F)F
REMARK SMILES IDX 7 1 6 2 5 3 4 4 3 5 2 6 1 7 81 8 82 9 99 10 83 11 98 12
REMARK SMILES IDX 84 13 97 14 85 15 88 16 86 17 87 18 100 19 101 20 102 21
REMARK SMILES IDX 103 22 89 23 90 24 96 25 91 26 95 27 92 28 93 29 94 30 8 32
REMARK SMILES IDX 9 33 10 34 11 35 12 36 13 37 14 38 15 39 16 40 80 41 17 42
REMARK SMILES IDX 79 43 18 44 19 45 20 46 73 47 21 48 78 49 72 50 74 51 22 52
REMARK SMILES IDX 77 53 71 54 70 55 23 57 57 58 36 59 56 60 37 61 40 62 55 63
REMARK SMILES IDX 75 64 38 65 39 66 54 68 76 69 41 70 24 71 25 72 34 73 26 74
REMARK SMILES IDX 27 75 33 76 35 77 28 78 29 79 30 80 31 81 32 82 58 83 59 84
REMARK SMILES IDX 68 85 60 86 61 87 67 88 69 89 62 90 63 91 64 92 65 93 66 94
REMARK SMILES IDX 42 95 43 96 52 97 44 98 45 99 51 100 53 101 46 102 47 103
REMARK SMILES IDX 48 104 49 105 50 106
REMARK H PARENT 94 31 74 56 40 67
REMARK Flexibility Score: inf
ROOT
ATOM      1  C   UNL A   1      52.401  34.647  27.125  1.00  0.00     0.188 C 
ENDROOT
BRANCH   1   2
ATOM      2  O   UNL A   1      51.647  33.380  26.789  1.00  0.00    -0.376 OA
BRANCH   2   3
ATOM      3  C   UNL A   1      49.896  33.220  26.568  1.00  0.00     0.202 C 
BRANCH   3   4
ATOM      4  C   UNL A   1      48.813  31.414  27.127  1.00  0.00     0.261 C 
BRANCH   4   5
ATOM      5  O   UNL A   1      47.405  31.018  26.635  1.00  0.00    -0.460 OA
BRANCH   5   6
ATOM      6  C   UNL A   1      46.573  30.696  27.639  1.00  0.00     0.338 C 
ATOM      7  O   UNL A   1      46.840  30.239  28.721  1.00  0.00    -0.246 OA
BRANCH   6   8
ATOM      8  C   UNL A   1      45.391  30.598  26.810  1.00  0.00     0.087 C 
ATOM      9  C   UNL A   1      45.032  29.256  26.405  1.00  0.00     0.027 C 
ATOM     10  C   UNL A   1      44.331  31.749  27.921  1.00  0.00     0.316 C 
ATOM     11  C   UNL A   1      43.656  28.351  27.091  1.00  0.00     0.019 A 
ATOM     12  O   UNL A   1      42.908  30.721  28.814  1.00  0.00    -0.475 OA
ATOM     13  C   UNL A   1      43.554  27.034  26.722  1.00  0.00     0.032 A 
ATOM     14  C   UNL A   1      42.607  28.986  28.316  1.00  0.00     0.135 A 
ATOM     15  C   UNL A   1      42.538  26.317  27.349  1.00  0.00     0.042 A 
ATOM     16  C   UNL A   1      41.584  28.205  28.838  1.00  0.00     0.026 A 
ATOM     17  Cl  UNL A   1      42.367  24.643  26.937  1.00  0.00    -0.084 Cl
ATOM     18  C   UNL A   1      41.618  26.868  28.313  1.00  0.00     0.033 A 
BRANCH  10  19
ATOM     19  C   UNL A   1      44.286  32.969  26.731  1.00  0.00     0.430 C 
ATOM     20  F   UNL A   1      43.447  34.013  26.881  1.00  0.00    -0.167 F 
ATOM     21  F   UNL A   1      45.528  33.461  26.518  1.00  0.00    -0.167 F 
ATOM     22  F   UNL A   1      43.897  32.445  25.529  1.00  0.00    -0.167 F 
ENDBRANCH  10  19
BRANCH  16  23
ATOM     23  C   UNL A   1      40.443  28.491  29.706  1.00  0.00    -0.015 A 
ATOM     24  C   UNL A   1      40.223  27.792  30.896  1.00  0.00     0.009 A 
ATOM     25  C   UNL A   1      39.379  29.274  29.212  1.00  0.00     0.009 A 
ATOM     26  C   UNL A   1      39.042  27.979  31.633  1.00  0.00     0.007 A 
ATOM     27  C   UNL A   1      38.210  29.483  29.956  1.00  0.00     0.007 A 
ATOM     28  C   UNL A   1      38.057  28.879  31.204  1.00  0.00    -0.023 A 
BRANCH  28  29
ATOM     29  C   UNL A   1      36.871  29.203  32.075  1.00  0.00     0.191 C 
BRANCH  29  30
ATOM     30  O   UNL A   1      37.113  28.864  33.431  1.00  0.00    -0.392 OA
ATOM     31  H   UNL A   1      37.560  28.004  33.475  1.00  0.00     0.211 HD
ENDBRANCH  29  30
ENDBRANCH  28  29
ENDBRANCH  16  23
ENDBRANCH   6   8
ENDBRANCH   5   6
ENDBRANCH   4   5
ENDBRANCH   3   4
ENDBRANCH   2   3
ENDBRANCH   1   2
BRANCH   1  32
ATOM     32  C   UNL A   1      52.960  34.958  28.524  1.00  0.00     0.188 C 
BRANCH  32  33
ATOM     33  O   UNL A   1      54.247  34.515  28.856  1.00  0.00    -0.376 OA
BRANCH  33  34
ATOM     34  C   UNL A   1      54.301  33.164  29.263  1.00  0.00     0.202 C 
BRANCH  34  35
ATOM     35  C   UNL A   1      54.564  32.828  30.734  1.00  0.00     0.261 C 
BRANCH  35  36
ATOM     36  O   UNL A   1      53.551  33.285  31.643  1.00  0.00    -0.460 OA
BRANCH  36  37
ATOM     37  C   UNL A   1      52.824  32.323  32.264  1.00  0.00     0.338 C 
ATOM     38  O   UNL A   1      53.217  31.502  33.074  1.00  0.00    -0.246 OA
BRANCH  37  39
ATOM     39  C   UNL A   1      51.404  32.535  31.934  1.00  0.00     0.060 A 
ATOM     40  C   UNL A   1      50.576  33.251  32.813  1.00  0.00     0.016 A 
ATOM     41  C   UNL A   1      50.891  31.983  30.763  1.00  0.00     0.016 A 
ATOM     42  C   UNL A   1      49.231  33.446  32.504  1.00  0.00     0.010 A 
ATOM     43  C   UNL A   1      49.534  32.136  30.479  1.00  0.00     0.010 A 
ATOM     44  C   UNL A   1      48.699  32.857  31.352  1.00  0.00    -0.014 A 
BRANCH  44  45
ATOM     45  C   UNL A   1      47.237  32.807  31.146  1.00  0.00     0.031 A 
ATOM     46  C   UNL A   1      46.603  33.933  30.382  1.00  0.00     0.074 A 
ATOM     47  C   UNL A   1      46.491  31.827  31.687  1.00  0.00     0.049 A 
ATOM     48  N   UNL A   1      45.338  34.208  30.214  1.00  0.00    -0.248 NA
ATOM     49  C   UNL A   1      47.520  34.888  29.734  1.00  0.00     0.031 C 
ATOM     50  C   UNL A   1      47.017  30.674  32.415  1.00  0.00     0.029 A 
ATOM     51  N   UNL A   1      45.130  31.665  31.734  1.00  0.00    -0.354 N 
ATOM     52  C   UNL A   1      45.306  35.380  29.469  1.00  0.00     0.074 A 
ATOM     53  C   UNL A   1      46.675  35.763  29.211  1.00  0.00     0.031 C 
ATOM     54  C   UNL A   1      45.986  29.939  32.870  1.00  0.00     0.029 A 
ATOM     55  C   UNL A   1      44.732  30.597  32.507  1.00  0.00     0.049 A 
ATOM     56  H   UNL A   1      44.499  32.255  31.263  1.00  0.00     0.167 HD
ATOM     57  C   UNL A   1      44.226  36.079  29.058  1.00  0.00     0.037 A 
ATOM     58  C   UNL A   1      43.497  30.230  32.912  1.00  0.00     0.037 A 
ATOM     59  C   UNL A   1      42.870  35.684  29.331  1.00  0.00     0.049 A 
ATOM     60  C   UNL A   1      42.312  31.063  32.481  1.00  0.00     0.074 A 
ATOM     61  C   UNL A   1      41.701  36.296  28.917  1.00  0.00     0.029 A 
ATOM     62  N   UNL A   1      42.503  34.597  30.108  1.00  0.00    -0.354 N 
ATOM     63  N   UNL A   1      42.286  32.135  31.722  1.00  0.00    -0.248 NA
ATOM     64  C   UNL A   1      40.988  30.647  32.968  1.00  0.00     0.031 C 
ATOM     65  C   UNL A   1      40.629  35.623  29.507  1.00  0.00     0.029 A 
ATOM     66  C   UNL A   1      41.126  34.547  30.226  1.00  0.00     0.049 A 
ATOM     67  H   UNL A   1      43.129  33.955  30.515  1.00  0.00     0.167 HD
ATOM     68  C   UNL A   1      40.948  32.505  31.626  1.00  0.00     0.074 A 
ATOM     69  C   UNL A   1      40.191  31.532  32.383  1.00  0.00     0.031 C 
ATOM     70  C   UNL A   1      40.392  33.559  30.977  1.00  0.00     0.037 A 
BRANCH  57  71
ATOM     71  C   UNL A   1      44.451  37.364  28.315  1.00  0.00     0.058 A 
ATOM     72  C   UNL A   1      44.718  37.393  26.939  1.00  0.00     0.135 A 
ATOM     73  C   UNL A   1      44.319  38.592  28.986  1.00  0.00     0.135 A 
ATOM     74  F   UNL A   1      44.883  36.249  26.256  1.00  0.00    -0.206 F 
ATOM     75  C   UNL A   1      44.841  38.596  26.250  1.00  0.00     0.059 A 
ATOM     76  C   UNL A   1      44.409  39.805  28.313  1.00  0.00     0.059 A 
ATOM     77  F   UNL A   1      44.079  38.618  30.306  1.00  0.00    -0.206 F 
ATOM     78  C   UNL A   1      44.670  39.797  26.944  1.00  0.00     0.060 A 
BRANCH  78  79
ATOM     79  S   UNL A   1      44.764  41.344  26.021  1.00  0.00     0.124 S 
ATOM     80  O   UNL A   1      45.713  40.999  24.967  1.00  0.00    -0.237 OA
ATOM     81  O   UNL A   1      43.382  41.532  25.593  1.00  0.00    -0.237 OA
ATOM     82  O   UNL A   1      45.248  42.303  27.010  1.00  0.00    -0.744 OA
ENDBRANCH  78  79
ENDBRANCH  57  71
BRANCH  58  83
ATOM     83  C   UNL A   1      43.312  29.065  33.825  1.00  0.00     0.058 A 
ATOM     84  C   UNL A   1      43.172  27.760  33.326  1.00  0.00     0.135 A 
ATOM     85  C   UNL A   1      43.219  29.238  35.215  1.00  0.00     0.135 A 
ATOM     86  F   UNL A   1      43.236  27.538  32.004  1.00  0.00    -0.206 F 
ATOM     87  C   UNL A   1      42.915  26.678  34.164  1.00  0.00     0.059 A 
ATOM     88  C   UNL A   1      42.998  28.168  36.077  1.00  0.00     0.059 A 
ATOM     89  F   UNL A   1      43.349  30.461  35.753  1.00  0.00    -0.206 F 
ATOM     90  C   UNL A   1      42.829  26.893  35.541  1.00  0.00     0.060 A 
BRANCH  90  91
ATOM     91  S   UNL A   1      42.505  25.484  36.623  1.00  0.00     0.124 S 
ATOM     92  O   UNL A   1      43.714  24.690  36.443  1.00  0.00    -0.237 OA
ATOM     93  O   UNL A   1      42.349  26.127  37.925  1.00  0.00    -0.237 OA
ATOM     94  O   UNL A   1      41.283  24.907  36.067  1.00  0.00    -0.744 OA
ENDBRANCH  90  91
ENDBRANCH  58  83
BRANCH  70  95
ATOM     95  C   UNL A   1      38.895  33.708  31.029  1.00  0.00     0.058 A 
ATOM     96  C   UNL A   1      38.064  33.158  30.041  1.00  0.00     0.135 A 
ATOM     97  C   UNL A   1      38.282  34.327  32.132  1.00  0.00     0.135 A 
ATOM     98  F   UNL A   1      38.599  32.562  28.963  1.00  0.00    -0.206 F 
ATOM     99  C   UNL A   1      36.679  33.224  30.138  1.00  0.00     0.059 A 
ATOM    100  C   UNL A   1      36.899  34.375  32.266  1.00  0.00     0.059 A 
ATOM    101  F   UNL A   1      39.030  34.860  33.111  1.00  0.00    -0.206 F 
ATOM    102  C   UNL A   1      36.105  33.825  31.261  1.00  0.00     0.060 A 
BRANCH 102 103
ATOM    103  S   UNL A   1      34.306  33.844  31.404  1.00  0.00     0.124 S 
ATOM    104  O   UNL A   1      34.061  32.653  32.211  1.00  0.00    -0.237 OA
ATOM    105  O   UNL A   1      34.060  35.121  32.067  1.00  0.00    -0.237 OA
ATOM    106  O   UNL A   1      33.852  33.766  30.019  1.00  0.00    -0.744 OA
ENDBRANCH 102 103
ENDBRANCH  70  95
ENDBRANCH  44  45
ENDBRANCH  37  39
ENDBRANCH  36  37
ENDBRANCH  35  36
ENDBRANCH  34  35
ENDBRANCH  33  34
ENDBRANCH  32  33
ENDBRANCH   1  32
TORSDOF 24
ENDMDL
