MODEL 1
REMARK VINA RESULT:     -12.7      0.000      0.000
REMARK SMILES O=C(OCCOCCOCCOC(=O)c1ccc(-c2c3nc(c(-c4c(F)cc(S(=O)(=O)[O-])cc4F)c4ccc([nH]4)c(-c4c(F)cc(S(=O)(=O)[O-])cc4F)c4nc(c(-c5c(F)cc(S(=O)(=O)[O-])cc5F)c5ccc2[nH]5)C=C4)C=C3)cc1)C1=Cc2cc(Cl)cc(-c3ccc(O)cc3)c2O[C@@H]1C(F)(F)F
REMARK SMILES IDX 8 1 7 2 6 3 5 4 4 5 3 6 2 7 1 8 81 9 82 10 98 11 83 12 97 13
REMARK SMILES IDX 84 14 96 15 85 16 88 17 86 18 87 19 99 20 100 21 101 22
REMARK SMILES IDX 102 23 89 24 90 25 95 26 91 27 94 28 92 29 93 30 9 32 10 33
REMARK SMILES IDX 11 34 12 35 13 36 14 37 15 38 16 39 80 40 17 41 79 42 18 43
REMARK SMILES IDX 19 44 20 45 73 46 21 47 78 48 72 49 74 50 22 51 77 52 71 53
REMARK SMILES IDX 70 54 23 56 57 57 36 58 56 59 37 60 40 61 55 62 75 63 38 64
REMARK SMILES IDX 39 65 54 67 76 68 41 69 24 70 25 71 34 72 26 73 27 74 33 75
REMARK SMILES IDX 35 76 28 77 29 78 30 79 31 80 32 81 58 82 59 83 68 84 60 85
REMARK SMILES IDX 61 86 67 87 69 88 62 89 63 90 64 91 65 92 66 93 42 94 43 95
REMARK SMILES IDX 52 96 44 97 45 98 51 99 53 100 46 101 47 102 48 103 49 104
REMARK SMILES IDX 50 105
REMARK H PARENT 93 31 74 55 40 66
REMARK Flexibility Score: inf
ROOT
ATOM      1  C   UNL A   1      33.971  31.545  27.955  1.00  0.00     0.188 C 
ENDROOT
BRANCH   1   2
ATOM      2  C   UNL A   1      33.324  30.488  27.051  1.00  0.00     0.188 C 
BRANCH   2   3
ATOM      3  O   UNL A   1      32.051  30.693  26.215  1.00  0.00    -0.376 OA
BRANCH   3   4
ATOM      4  C   UNL A   1      31.355  29.546  25.039  1.00  0.00     0.202 C 
BRANCH   4   5
ATOM      5  C   UNL A   1      31.275  27.413  25.461  1.00  0.00     0.261 C 
BRANCH   5   6
ATOM      6  O   UNL A   1      32.155  26.651  26.422  1.00  0.00    -0.460 OA
BRANCH   6   7
ATOM      7  C   UNL A   1      31.872  25.340  26.411  1.00  0.00     0.338 C 
ATOM      8  O   UNL A   1      31.670  24.628  27.364  1.00  0.00    -0.246 OA
BRANCH   7   9
ATOM      9  C   UNL A   1      32.395  25.031  25.082  1.00  0.00     0.087 C 
ATOM     10  C   UNL A   1      33.821  24.823  24.975  1.00  0.00     0.027 C 
ATOM     11  C   UNL A   1      31.099  23.665  24.821  1.00  0.00     0.316 C 
ATOM     12  C   UNL A   1      34.620  23.235  24.900  1.00  0.00     0.019 A 
ATOM     13  O   UNL A   1      31.928  21.872  24.929  1.00  0.00    -0.475 OA
ATOM     14  C   UNL A   1      35.987  23.232  24.990  1.00  0.00     0.032 A 
ATOM     15  C   UNL A   1      33.761  21.732  24.953  1.00  0.00     0.135 A 
ATOM     16  C   UNL A   1      36.576  21.969  25.076  1.00  0.00     0.042 A 
ATOM     17  C   UNL A   1      34.439  20.521  24.970  1.00  0.00     0.026 A 
ATOM     18  Cl  UNL A   1      38.298  21.906  25.257  1.00  0.00    -0.084 Cl
ATOM     19  C   UNL A   1      35.857  20.716  25.045  1.00  0.00     0.033 A 
BRANCH  11  20
ATOM     20  C   UNL A   1      30.466  24.603  23.479  1.00  0.00     0.430 C 
ATOM     21  F   UNL A   1      31.235  25.426  22.758  1.00  0.00    -0.167 F 
ATOM     22  F   UNL A   1      29.940  23.714  22.590  1.00  0.00    -0.167 F 
ATOM     23  F   UNL A   1      29.401  25.389  23.836  1.00  0.00    -0.167 F 
ENDBRANCH  11  20
BRANCH  17  24
ATOM     24  C   UNL A   1      33.991  19.135  24.881  1.00  0.00    -0.014 A 
ATOM     25  C   UNL A   1      32.763  18.731  25.415  1.00  0.00     0.012 A 
ATOM     26  C   UNL A   1      34.885  18.127  24.460  1.00  0.00     0.012 A 
ATOM     27  C   UNL A   1      32.386  17.383  25.405  1.00  0.00     0.047 A 
ATOM     28  C   UNL A   1      34.498  16.781  24.415  1.00  0.00     0.047 A 
ATOM     29  C   UNL A   1      33.230  16.430  24.851  1.00  0.00     0.115 A 
BRANCH  29  30
ATOM     30  O   UNL A   1      32.773  15.152  24.730  1.00  0.00    -0.508 OA
ATOM     31  H   UNL A   1      32.882  14.691  23.923  1.00  0.00     0.293 HD
ENDBRANCH  29  30
ENDBRANCH  17  24
ENDBRANCH   7   9
ENDBRANCH   6   7
ENDBRANCH   5   6
ENDBRANCH   4   5
ENDBRANCH   3   4
ENDBRANCH   2   3
ENDBRANCH   1   2
BRANCH   1  32
ATOM     32  O   UNL A   1      35.060  32.273  27.466  1.00  0.00    -0.376 OA
BRANCH  32  33
ATOM     33  C   UNL A   1      35.315  33.460  28.183  1.00  0.00     0.202 C 
BRANCH  33  34
ATOM     34  C   UNL A   1      35.478  33.430  29.706  1.00  0.00     0.261 C 
BRANCH  34  35
ATOM     35  O   UNL A   1      36.146  32.270  30.226  1.00  0.00    -0.460 OA
BRANCH  35  36
ATOM     36  C   UNL A   1      37.236  32.507  30.995  1.00  0.00     0.338 C 
ATOM     37  O   UNL A   1      37.296  33.207  31.991  1.00  0.00    -0.246 OA
BRANCH  36  38
ATOM     38  C   UNL A   1      38.326  31.613  30.562  1.00  0.00     0.060 A 
ATOM     39  C   UNL A   1      39.349  31.280  31.463  1.00  0.00     0.016 A 
ATOM     40  C   UNL A   1      38.363  31.159  29.245  1.00  0.00     0.016 A 
ATOM     41  C   UNL A   1      40.411  30.482  31.051  1.00  0.00     0.010 A 
ATOM     42  C   UNL A   1      39.457  30.403  28.819  1.00  0.00     0.010 A 
ATOM     43  C   UNL A   1      40.494  30.086  29.714  1.00  0.00    -0.014 A 
BRANCH  43  44
ATOM     44  C   UNL A   1      41.778  29.549  29.216  1.00  0.00     0.031 A 
ATOM     45  C   UNL A   1      42.938  30.499  29.108  1.00  0.00     0.074 A 
ATOM     46  C   UNL A   1      41.921  28.244  28.928  1.00  0.00     0.049 A 
ATOM     47  N   UNL A   1      44.159  30.274  28.701  1.00  0.00    -0.248 NA
ATOM     48  C   UNL A   1      42.687  31.893  29.518  1.00  0.00     0.031 C 
ATOM     49  C   UNL A   1      40.873  27.233  29.046  1.00  0.00     0.029 A 
ATOM     50  N   UNL A   1      43.012  27.549  28.472  1.00  0.00    -0.354 N 
ATOM     51  C   UNL A   1      44.822  31.489  28.815  1.00  0.00     0.074 A 
ATOM     52  C   UNL A   1      43.861  32.461  29.285  1.00  0.00     0.031 C 
ATOM     53  C   UNL A   1      41.367  26.046  28.655  1.00  0.00     0.029 A 
ATOM     54  C   UNL A   1      42.756  26.219  28.232  1.00  0.00     0.049 A 
ATOM     55  H   UNL A   1      43.895  27.961  28.333  1.00  0.00     0.167 HD
ATOM     56  C   UNL A   1      46.123  31.763  28.562  1.00  0.00     0.037 A 
ATOM     57  C   UNL A   1      43.550  25.265  27.704  1.00  0.00     0.037 A 
ATOM     58  C   UNL A   1      47.062  30.789  28.076  1.00  0.00     0.049 A 
ATOM     59  C   UNL A   1      44.971  25.625  27.343  1.00  0.00     0.074 A 
ATOM     60  C   UNL A   1      48.403  30.962  27.780  1.00  0.00     0.029 A 
ATOM     61  N   UNL A   1      46.761  29.461  27.804  1.00  0.00    -0.354 N 
ATOM     62  N   UNL A   1      45.599  26.771  27.480  1.00  0.00    -0.248 NA
ATOM     63  C   UNL A   1      45.799  24.556  26.765  1.00  0.00     0.031 C 
ATOM     64  C   UNL A   1      48.893  29.759  27.264  1.00  0.00     0.029 A 
ATOM     65  C   UNL A   1      47.882  28.813  27.314  1.00  0.00     0.049 A 
ATOM     66  H   UNL A   1      45.880  29.044  27.939  1.00  0.00     0.167 HD
ATOM     67  C   UNL A   1      46.901  26.550  27.037  1.00  0.00     0.074 A 
ATOM     68  C   UNL A   1      46.976  25.154  26.658  1.00  0.00     0.031 C 
ATOM     69  C   UNL A   1      47.938  27.419  26.945  1.00  0.00     0.037 A 
BRANCH  56  70
ATOM     70  C   UNL A   1      46.600  33.171  28.787  1.00  0.00     0.058 A 
ATOM     71  C   UNL A   1      47.203  33.564  29.992  1.00  0.00     0.135 A 
ATOM     72  C   UNL A   1      46.512  34.124  27.759  1.00  0.00     0.135 A 
ATOM     73  F   UNL A   1      47.289  32.702  31.019  1.00  0.00    -0.206 F 
ATOM     74  C   UNL A   1      47.698  34.851  30.173  1.00  0.00     0.059 A 
ATOM     75  C   UNL A   1      47.029  35.408  27.906  1.00  0.00     0.059 A 
ATOM     76  F   UNL A   1      45.933  33.808  26.591  1.00  0.00    -0.206 F 
ATOM     77  C   UNL A   1      47.619  35.763  29.118  1.00  0.00     0.060 A 
BRANCH  77  78
ATOM     78  S   UNL A   1      48.320  37.408  29.352  1.00  0.00     0.124 S 
ATOM     79  O   UNL A   1      47.774  37.779  30.654  1.00  0.00    -0.237 OA
ATOM     80  O   UNL A   1      49.754  37.139  29.320  1.00  0.00    -0.237 OA
ATOM     81  O   UNL A   1      47.801  38.166  28.218  1.00  0.00    -0.744 OA
ENDBRANCH  77  78
ENDBRANCH  56  70
BRANCH  57  82
ATOM     82  C   UNL A   1      43.024  23.894  27.452  1.00  0.00     0.058 A 
ATOM     83  C   UNL A   1      43.033  22.906  28.450  1.00  0.00     0.135 A 
ATOM     84  C   UNL A   1      42.549  23.525  26.182  1.00  0.00     0.135 A 
ATOM     85  F   UNL A   1      43.485  23.198  29.678  1.00  0.00    -0.206 F 
ATOM     86  C   UNL A   1      42.631  21.599  28.190  1.00  0.00     0.059 A 
ATOM     87  C   UNL A   1      42.104  22.236  25.909  1.00  0.00     0.059 A 
ATOM     88  F   UNL A   1      42.510  24.428  25.188  1.00  0.00    -0.206 F 
ATOM     89  C   UNL A   1      42.168  21.274  26.914  1.00  0.00     0.060 A 
BRANCH  89  90
ATOM     90  S   UNL A   1      41.641  19.578  26.588  1.00  0.00     0.124 S 
ATOM     91  O   UNL A   1      42.919  18.878  26.526  1.00  0.00    -0.237 OA
ATOM     92  O   UNL A   1      40.810  19.288  27.753  1.00  0.00    -0.237 OA
ATOM     93  O   UNL A   1      40.920  19.686  25.323  1.00  0.00    -0.744 OA
ENDBRANCH  89  90
ENDBRANCH  57  82
BRANCH  69  94
ATOM     94  C   UNL A   1      49.255  26.873  26.454  1.00  0.00     0.058 A 
ATOM     95  C   UNL A   1      50.100  26.113  27.278  1.00  0.00     0.135 A 
ATOM     96  C   UNL A   1      49.669  27.099  25.129  1.00  0.00     0.135 A 
ATOM     97  F   UNL A   1      49.757  25.863  28.552  1.00  0.00    -0.206 F 
ATOM     98  C   UNL A   1      51.331  25.646  26.828  1.00  0.00     0.059 A 
ATOM     99  C   UNL A   1      50.874  26.601  24.643  1.00  0.00     0.059 A 
ATOM    100  F   UNL A   1      48.894  27.802  24.287  1.00  0.00    -0.206 F 
ATOM    101  C   UNL A   1      51.708  25.897  25.508  1.00  0.00     0.060 A 
BRANCH 101 102
ATOM    102  S   UNL A   1      53.308  25.284  24.938  1.00  0.00     0.124 S 
ATOM    103  O   UNL A   1      54.230  26.050  25.769  1.00  0.00    -0.237 OA
ATOM    104  O   UNL A   1      53.217  23.859  25.239  1.00  0.00    -0.237 OA
ATOM    105  O   UNL A   1      53.315  25.621  23.517  1.00  0.00    -0.744 OA
ENDBRANCH 101 102
ENDBRANCH  69  94
ENDBRANCH  43  44
ENDBRANCH  36  38
ENDBRANCH  35  36
ENDBRANCH  34  35
ENDBRANCH  33  34
ENDBRANCH  32  33
ENDBRANCH   1  32
TORSDOF 23
ENDMDL
MODEL 2
REMARK VINA RESULT:     -12.6      2.061      3.200
REMARK SMILES O=C(OCCOCCOCCOC(=O)c1ccc(-c2c3nc(c(-c4c(F)cc(S(=O)(=O)[O-])cc4F)c4ccc([nH]4)c(-c4c(F)cc(S(=O)(=O)[O-])cc4F)c4nc(c(-c5c(F)cc(S(=O)(=O)[O-])cc5F)c5ccc2[nH]5)C=C4)C=C3)cc1)C1=Cc2cc(Cl)cc(-c3ccc(O)cc3)c2O[C@@H]1C(F)(F)F
REMARK SMILES IDX 8 1 7 2 6 3 5 4 4 5 3 6 2 7 1 8 81 9 82 10 98 11 83 12 97 13
REMARK SMILES IDX 84 14 96 15 85 16 88 17 86 18 87 19 99 20 100 21 101 22
REMARK SMILES IDX 102 23 89 24 90 25 95 26 91 27 94 28 92 29 93 30 9 32 10 33
REMARK SMILES IDX 11 34 12 35 13 36 14 37 15 38 16 39 80 40 17 41 79 42 18 43
REMARK SMILES IDX 19 44 20 45 73 46 21 47 78 48 72 49 74 50 22 51 77 52 71 53
REMARK SMILES IDX 70 54 23 56 57 57 36 58 56 59 37 60 40 61 55 62 75 63 38 64
REMARK SMILES IDX 39 65 54 67 76 68 41 69 24 70 25 71 34 72 26 73 27 74 33 75
REMARK SMILES IDX 35 76 28 77 29 78 30 79 31 80 32 81 58 82 59 83 68 84 60 85
REMARK SMILES IDX 61 86 67 87 69 88 62 89 63 90 64 91 65 92 66 93 42 94 43 95
REMARK SMILES IDX 52 96 44 97 45 98 51 99 53 100 46 101 47 102 48 103 49 104
REMARK SMILES IDX 50 105
REMARK H PARENT 93 31 74 55 40 66
REMARK Flexibility Score: inf
ROOT
ATOM      1  C   UNL A   1      31.777  30.107  26.912  1.00  0.00     0.188 C 
ENDROOT
BRANCH   1   2
ATOM      2  C   UNL A   1      31.587  30.984  25.668  1.00  0.00     0.188 C 
BRANCH   2   3
ATOM      3  O   UNL A   1      30.241  31.520  25.155  1.00  0.00    -0.376 OA
BRANCH   3   4
ATOM      4  C   UNL A   1      29.264  30.843  23.824  1.00  0.00     0.202 C 
BRANCH   4   5
ATOM      5  C   UNL A   1      30.136  29.481  22.370  1.00  0.00     0.261 C 
BRANCH   5   6
ATOM      6  O   UNL A   1      29.902  27.993  22.275  1.00  0.00    -0.460 OA
BRANCH   6   7
ATOM      7  C   UNL A   1      31.054  27.325  22.115  1.00  0.00     0.338 C 
ATOM      8  O   UNL A   1      31.326  26.536  21.244  1.00  0.00    -0.246 OA
BRANCH   7   9
ATOM      9  C   UNL A   1      31.547  27.443  23.485  1.00  0.00     0.087 C 
ATOM     10  C   UNL A   1      30.761  26.809  24.518  1.00  0.00     0.027 C 
ATOM     11  C   UNL A   1      33.288  26.872  22.973  1.00  0.00     0.316 C 
ATOM     12  C   UNL A   1      31.125  25.232  25.259  1.00  0.00     0.019 A 
ATOM     13  O   UNL A   1      33.649  25.036  23.616  1.00  0.00    -0.475 OA
ATOM     14  C   UNL A   1      30.166  24.708  26.086  1.00  0.00     0.032 A 
ATOM     15  C   UNL A   1      32.486  24.260  24.812  1.00  0.00     0.135 A 
ATOM     16  C   UNL A   1      30.413  23.410  26.535  1.00  0.00     0.042 A 
ATOM     17  C   UNL A   1      32.680  23.002  25.365  1.00  0.00     0.026 A 
ATOM     18  Cl  UNL A   1      29.203  22.671  27.532  1.00  0.00    -0.084 Cl
ATOM     19  C   UNL A   1      31.588  22.632  26.215  1.00  0.00     0.033 A 
BRANCH  11  20
ATOM     20  C   UNL A   1      33.886  28.446  23.470  1.00  0.00     0.430 C 
ATOM     21  F   UNL A   1      33.170  29.564  23.314  1.00  0.00    -0.167 F 
ATOM     22  F   UNL A   1      34.155  28.361  24.804  1.00  0.00    -0.167 F 
ATOM     23  F   UNL A   1      35.095  28.757  22.904  1.00  0.00    -0.167 F 
ENDBRANCH  11  20
BRANCH  17  24
ATOM     24  C   UNL A   1      33.776  22.043  25.280  1.00  0.00    -0.014 A 
ATOM     25  C   UNL A   1      35.078  22.449  24.973  1.00  0.00     0.012 A 
ATOM     26  C   UNL A   1      33.505  20.657  25.278  1.00  0.00     0.012 A 
ATOM     27  C   UNL A   1      36.102  21.510  24.803  1.00  0.00     0.047 A 
ATOM     28  C   UNL A   1      34.533  19.713  25.145  1.00  0.00     0.047 A 
ATOM     29  C   UNL A   1      35.832  20.156  24.950  1.00  0.00     0.115 A 
BRANCH  29  30
ATOM     30  O   UNL A   1      36.876  19.281  24.919  1.00  0.00    -0.508 OA
ATOM     31  H   UNL A   1      37.748  19.589  25.065  1.00  0.00     0.293 HD
ENDBRANCH  29  30
ENDBRANCH  17  24
ENDBRANCH   7   9
ENDBRANCH   6   7
ENDBRANCH   5   6
ENDBRANCH   4   5
ENDBRANCH   3   4
ENDBRANCH   2   3
ENDBRANCH   1   2
BRANCH   1  32
ATOM     32  O   UNL A   1      33.069  29.916  27.409  1.00  0.00    -0.376 OA
BRANCH  32  33
ATOM     33  C   UNL A   1      33.733  31.115  27.737  1.00  0.00     0.202 C 
BRANCH  33  34
ATOM     34  C   UNL A   1      35.197  31.096  28.189  1.00  0.00     0.261 C 
BRANCH  34  35
ATOM     35  O   UNL A   1      35.675  29.827  28.657  1.00  0.00    -0.460 OA
BRANCH  35  36
ATOM     36  C   UNL A   1      36.409  29.852  29.796  1.00  0.00     0.338 C 
ATOM     37  O   UNL A   1      35.995  29.774  30.940  1.00  0.00    -0.246 OA
BRANCH  36  38
ATOM     38  C   UNL A   1      37.839  29.782  29.442  1.00  0.00     0.060 A 
ATOM     39  C   UNL A   1      38.215  29.654  28.096  1.00  0.00     0.016 A 
ATOM     40  C   UNL A   1      38.799  29.779  30.452  1.00  0.00     0.016 A 
ATOM     41  C   UNL A   1      39.558  29.533  27.754  1.00  0.00     0.010 A 
ATOM     42  C   UNL A   1      40.142  29.603  30.111  1.00  0.00     0.010 A 
ATOM     43  C   UNL A   1      40.519  29.454  28.765  1.00  0.00    -0.014 A 
BRANCH  43  44
ATOM     44  C   UNL A   1      41.874  28.978  28.413  1.00  0.00     0.031 A 
ATOM     45  C   UNL A   1      42.988  29.987  28.399  1.00  0.00     0.074 A 
ATOM     46  C   UNL A   1      42.113  27.677  28.174  1.00  0.00     0.049 A 
ATOM     47  N   UNL A   1      44.254  29.820  28.124  1.00  0.00    -0.248 NA
ATOM     48  C   UNL A   1      42.625  31.373  28.746  1.00  0.00     0.031 C 
ATOM     49  C   UNL A   1      41.112  26.614  28.211  1.00  0.00     0.029 A 
ATOM     50  N   UNL A   1      43.279  27.032  27.849  1.00  0.00    -0.354 N 
ATOM     51  C   UNL A   1      44.838  31.071  28.274  1.00  0.00     0.074 A 
ATOM     52  C   UNL A   1      43.785  31.998  28.619  1.00  0.00     0.031 C 
ATOM     53  C   UNL A   1      41.704  25.447  27.902  1.00  0.00     0.029 A 
ATOM     54  C   UNL A   1      43.118  25.686  27.618  1.00  0.00     0.049 A 
ATOM     55  H   UNL A   1      44.150  27.489  27.789  1.00  0.00     0.167 HD
ATOM     56  C   UNL A   1      46.142  31.410  28.146  1.00  0.00     0.037 A 
ATOM     57  C   UNL A   1      44.010  24.766  27.197  1.00  0.00     0.037 A 
ATOM     58  C   UNL A   1      47.176  30.479  27.782  1.00  0.00     0.049 A 
ATOM     59  C   UNL A   1      45.441  25.195  26.972  1.00  0.00     0.074 A 
ATOM     60  C   UNL A   1      48.529  30.718  27.618  1.00  0.00     0.029 A 
ATOM     61  N   UNL A   1      46.973  29.131  27.515  1.00  0.00    -0.354 N 
ATOM     62  N   UNL A   1      45.991  26.376  27.143  1.00  0.00    -0.248 NA
ATOM     63  C   UNL A   1      46.377  24.162  26.508  1.00  0.00     0.031 C 
ATOM     64  C   UNL A   1      49.131  29.533  27.186  1.00  0.00     0.029 A 
ATOM     65  C   UNL A   1      48.170  28.535  27.157  1.00  0.00     0.049 A 
ATOM     66  H   UNL A   1      46.106  28.670  27.570  1.00  0.00     0.167 HD
ATOM     67  C   UNL A   1      47.341  26.217  26.839  1.00  0.00     0.074 A 
ATOM     68  C   UNL A   1      47.526  24.820  26.506  1.00  0.00     0.031 C 
ATOM     69  C   UNL A   1      48.336  27.139  26.831  1.00  0.00     0.037 A 
BRANCH  56  70
ATOM     70  C   UNL A   1      46.521  32.846  28.382  1.00  0.00     0.058 A 
ATOM     71  C   UNL A   1      46.571  33.779  27.334  1.00  0.00     0.135 A 
ATOM     72  C   UNL A   1      46.773  33.310  29.683  1.00  0.00     0.135 A 
ATOM     73  F   UNL A   1      46.365  33.386  26.067  1.00  0.00    -0.206 F 
ATOM     74  C   UNL A   1      46.862  35.119  27.567  1.00  0.00     0.059 A 
ATOM     75  C   UNL A   1      47.035  34.652  29.944  1.00  0.00     0.059 A 
ATOM     76  F   UNL A   1      46.752  32.460  30.721  1.00  0.00    -0.206 F 
ATOM     77  C   UNL A   1      47.079  35.549  28.878  1.00  0.00     0.060 A 
BRANCH  77  78
ATOM     78  S   UNL A   1      47.396  37.302  29.164  1.00  0.00     0.124 S 
ATOM     79  O   UNL A   1      47.070  37.433  30.581  1.00  0.00    -0.237 OA
ATOM     80  O   UNL A   1      48.811  37.418  28.825  1.00  0.00    -0.237 OA
ATOM     81  O   UNL A   1      46.477  37.970  28.247  1.00  0.00    -0.744 OA
ENDBRANCH  77  78
ENDBRANCH  56  70
BRANCH  57  82
ATOM     82  C   UNL A   1      43.584  23.364  26.927  1.00  0.00     0.058 A 
ATOM     83  C   UNL A   1      43.323  22.913  25.623  1.00  0.00     0.135 A 
ATOM     84  C   UNL A   1      43.374  22.457  27.979  1.00  0.00     0.135 A 
ATOM     85  F   UNL A   1      43.495  23.739  24.580  1.00  0.00    -0.206 F 
ATOM     86  C   UNL A   1      42.833  21.633  25.376  1.00  0.00     0.059 A 
ATOM     87  C   UNL A   1      42.925  21.161  27.754  1.00  0.00     0.059 A 
ATOM     88  F   UNL A   1      43.614  22.829  29.247  1.00  0.00    -0.206 F 
ATOM     89  C   UNL A   1      42.637  20.764  26.450  1.00  0.00     0.060 A 
BRANCH  89  90
ATOM     90  S   UNL A   1      42.010  19.103  26.120  1.00  0.00     0.124 S 
ATOM     91  O   UNL A   1      42.285  18.427  27.382  1.00  0.00    -0.237 OA
ATOM     92  O   UNL A   1      40.603  19.362  25.827  1.00  0.00    -0.237 OA
ATOM     93  O   UNL A   1      42.809  18.661  24.981  1.00  0.00    -0.744 OA
ENDBRANCH  89  90
ENDBRANCH  57  82
BRANCH  69  94
ATOM     94  C   UNL A   1      49.723  26.655  26.489  1.00  0.00     0.058 A 
ATOM     95  C   UNL A   1      50.225  26.698  25.179  1.00  0.00     0.135 A 
ATOM     96  C   UNL A   1      50.570  26.158  27.495  1.00  0.00     0.135 A 
ATOM     97  F   UNL A   1      49.462  27.165  24.177  1.00  0.00    -0.206 F 
ATOM     98  C   UNL A   1      51.491  26.214  24.866  1.00  0.00     0.059 A 
ATOM     99  C   UNL A   1      51.857  25.712  27.214  1.00  0.00     0.059 A 
ATOM    100  F   UNL A   1      50.153  26.110  28.771  1.00  0.00    -0.206 F 
ATOM    101  C   UNL A   1      52.299  25.722  25.892  1.00  0.00     0.060 A 
BRANCH 101 102
ATOM    102  S   UNL A   1      53.940  25.098  25.472  1.00  0.00     0.124 S 
ATOM    103  O   UNL A   1      53.694  23.662  25.381  1.00  0.00    -0.237 OA
ATOM    104  O   UNL A   1      54.214  25.776  24.209  1.00  0.00    -0.237 OA
ATOM    105  O   UNL A   1      54.765  25.522  26.599  1.00  0.00    -0.744 OA
ENDBRANCH 101 102
ENDBRANCH  69  94
ENDBRANCH  43  44
ENDBRANCH  36  38
ENDBRANCH  35  36
ENDBRANCH  34  35
ENDBRANCH  33  34
ENDBRANCH  32  33
ENDBRANCH   1  32
TORSDOF 23
ENDMDL
MODEL 3
REMARK VINA RESULT:     -12.4      0.970      7.907
REMARK SMILES O=C(OCCOCCOCCOC(=O)c1ccc(-c2c3nc(c(-c4c(F)cc(S(=O)(=O)[O-])cc4F)c4ccc([nH]4)c(-c4c(F)cc(S(=O)(=O)[O-])cc4F)c4nc(c(-c5c(F)cc(S(=O)(=O)[O-])cc5F)c5ccc2[nH]5)C=C4)C=C3)cc1)C1=Cc2cc(Cl)cc(-c3ccc(O)cc3)c2O[C@@H]1C(F)(F)F
REMARK SMILES IDX 8 1 7 2 6 3 5 4 4 5 3 6 2 7 1 8 81 9 82 10 98 11 83 12 97 13
REMARK SMILES IDX 84 14 96 15 85 16 88 17 86 18 87 19 99 20 100 21 101 22
REMARK SMILES IDX 102 23 89 24 90 25 95 26 91 27 94 28 92 29 93 30 9 32 10 33
REMARK SMILES IDX 11 34 12 35 13 36 14 37 15 38 16 39 80 40 17 41 79 42 18 43
REMARK SMILES IDX 19 44 20 45 73 46 21 47 78 48 72 49 74 50 22 51 77 52 71 53
REMARK SMILES IDX 70 54 23 56 57 57 36 58 56 59 37 60 40 61 55 62 75 63 38 64
REMARK SMILES IDX 39 65 54 67 76 68 41 69 24 70 25 71 34 72 26 73 27 74 33 75
REMARK SMILES IDX 35 76 28 77 29 78 30 79 31 80 32 81 58 82 59 83 68 84 60 85
REMARK SMILES IDX 61 86 67 87 69 88 62 89 63 90 64 91 65 92 66 93 42 94 43 95
REMARK SMILES IDX 52 96 44 97 45 98 51 99 53 100 46 101 47 102 48 103 49 104
REMARK SMILES IDX 50 105
REMARK H PARENT 93 31 74 55 40 66
REMARK Flexibility Score: inf
ROOT
ATOM      1  C   UNL A   1      34.542  33.446  28.056  1.00  0.00     0.188 C 
ENDROOT
BRANCH   1   2
ATOM      2  C   UNL A   1      35.024  31.999  27.897  1.00  0.00     0.188 C 
BRANCH   2   3
ATOM      3  O   UNL A   1      34.338  30.922  27.042  1.00  0.00    -0.376 OA
BRANCH   3   4
ATOM      4  C   UNL A   1      34.002  29.237  27.523  1.00  0.00     0.202 C 
BRANCH   4   5
ATOM      5  C   UNL A   1      32.048  28.341  27.193  1.00  0.00     0.261 C 
BRANCH   5   6
ATOM      6  O   UNL A   1      31.614  27.541  25.988  1.00  0.00    -0.460 OA
BRANCH   6   7
ATOM      7  C   UNL A   1      31.846  26.232  26.160  1.00  0.00     0.338 C 
ATOM      8  O   UNL A   1      31.744  25.600  27.183  1.00  0.00    -0.246 OA
BRANCH   7   9
ATOM      9  C   UNL A   1      32.692  26.020  24.987  1.00  0.00     0.087 C 
ATOM     10  C   UNL A   1      34.091  25.760  25.231  1.00  0.00     0.027 C 
ATOM     11  C   UNL A   1      31.483  24.740  24.269  1.00  0.00     0.316 C 
ATOM     12  C   UNL A   1      34.853  24.152  25.210  1.00  0.00     0.019 A 
ATOM     13  O   UNL A   1      32.220  22.911  24.411  1.00  0.00    -0.475 OA
ATOM     14  C   UNL A   1      36.149  24.081  25.648  1.00  0.00     0.032 A 
ATOM     15  C   UNL A   1      33.981  22.689  24.893  1.00  0.00     0.135 A 
ATOM     16  C   UNL A   1      36.671  22.791  25.759  1.00  0.00     0.042 A 
ATOM     17  C   UNL A   1      34.607  21.453  24.966  1.00  0.00     0.026 A 
ATOM     18  Cl  UNL A   1      38.285  22.637  26.370  1.00  0.00    -0.084 Cl
ATOM     19  C   UNL A   1      35.961  21.579  25.422  1.00  0.00     0.033 A 
BRANCH  11  20
ATOM     20  C   UNL A   1      31.239  25.822  22.908  1.00  0.00     0.430 C 
ATOM     21  F   UNL A   1      31.133  25.376  21.652  1.00  0.00    -0.167 F 
ATOM     22  F   UNL A   1      30.090  26.512  23.154  1.00  0.00    -0.167 F 
ATOM     23  F   UNL A   1      32.201  26.794  22.823  1.00  0.00    -0.167 F 
ENDBRANCH  11  20
BRANCH  17  24
ATOM     24  C   UNL A   1      34.172  20.102  24.628  1.00  0.00    -0.014 A 
ATOM     25  C   UNL A   1      32.815  19.776  24.537  1.00  0.00     0.012 A 
ATOM     26  C   UNL A   1      35.103  19.040  24.615  1.00  0.00     0.012 A 
ATOM     27  C   UNL A   1      32.409  18.456  24.305  1.00  0.00     0.047 A 
ATOM     28  C   UNL A   1      34.704  17.723  24.347  1.00  0.00     0.047 A 
ATOM     29  C   UNL A   1      33.358  17.455  24.153  1.00  0.00     0.115 A 
BRANCH  29  30
ATOM     30  O   UNL A   1      32.934  16.212  23.788  1.00  0.00    -0.508 OA
ATOM     31  H   UNL A   1      32.157  15.853  24.166  1.00  0.00     0.293 HD
ENDBRANCH  29  30
ENDBRANCH  17  24
ENDBRANCH   7   9
ENDBRANCH   6   7
ENDBRANCH   5   6
ENDBRANCH   4   5
ENDBRANCH   3   4
ENDBRANCH   2   3
ENDBRANCH   1   2
BRANCH   1  32
ATOM     32  O   UNL A   1      34.484  33.999  29.338  1.00  0.00    -0.376 OA
BRANCH  32  33
ATOM     33  C   UNL A   1      34.498  33.040  30.370  1.00  0.00     0.202 C 
BRANCH  33  34
ATOM     34  C   UNL A   1      35.716  32.904  31.290  1.00  0.00     0.261 C 
BRANCH  34  35
ATOM     35  O   UNL A   1      36.528  31.743  31.061  1.00  0.00    -0.460 OA
BRANCH  35  36
ATOM     36  C   UNL A   1      37.512  31.519  31.965  1.00  0.00     0.338 C 
ATOM     37  O   UNL A   1      37.454  31.681  33.172  1.00  0.00    -0.246 OA
BRANCH  36  38
ATOM     38  C   UNL A   1      38.633  30.838  31.289  1.00  0.00     0.060 A 
ATOM     39  C   UNL A   1      39.653  30.253  32.055  1.00  0.00     0.016 A 
ATOM     40  C   UNL A   1      38.700  30.839  29.897  1.00  0.00     0.016 A 
ATOM     41  C   UNL A   1      40.742  29.657  31.428  1.00  0.00     0.010 A 
ATOM     42  C   UNL A   1      39.820  30.288  29.272  1.00  0.00     0.010 A 
ATOM     43  C   UNL A   1      40.853  29.720  30.037  1.00  0.00    -0.014 A 
BRANCH  43  44
ATOM     44  C   UNL A   1      42.159  29.404  29.419  1.00  0.00     0.031 A 
ATOM     45  C   UNL A   1      42.367  28.010  28.896  1.00  0.00     0.074 A 
ATOM     46  C   UNL A   1      43.105  30.347  29.275  1.00  0.00     0.049 A 
ATOM     47  N   UNL A   1      43.416  27.490  28.318  1.00  0.00    -0.248 NA
ATOM     48  C   UNL A   1      41.235  27.076  29.044  1.00  0.00     0.031 C 
ATOM     49  C   UNL A   1      42.983  31.739  29.703  1.00  0.00     0.029 A 
ATOM     50  N   UNL A   1      44.361  30.271  28.727  1.00  0.00    -0.354 N 
ATOM     51  C   UNL A   1      43.069  26.177  28.024  1.00  0.00     0.074 A 
ATOM     52  C   UNL A   1      41.732  25.963  28.527  1.00  0.00     0.031 C 
ATOM     53  C   UNL A   1      44.127  32.385  29.418  1.00  0.00     0.029 A 
ATOM     54  C   UNL A   1      45.071  31.445  28.814  1.00  0.00     0.049 A 
ATOM     55  H   UNL A   1      44.719  29.454  28.310  1.00  0.00     0.167 HD
ATOM     56  C   UNL A   1      43.801  25.240  27.378  1.00  0.00     0.037 A 
ATOM     57  C   UNL A   1      46.347  31.714  28.468  1.00  0.00     0.037 A 
ATOM     58  C   UNL A   1      45.139  25.463  26.901  1.00  0.00     0.049 A 
ATOM     59  C   UNL A   1      47.171  30.619  27.834  1.00  0.00     0.074 A 
ATOM     60  C   UNL A   1      45.974  24.579  26.240  1.00  0.00     0.029 A 
ATOM     61  N   UNL A   1      45.845  26.650  27.040  1.00  0.00    -0.354 N 
ATOM     62  N   UNL A   1      46.826  29.387  27.535  1.00  0.00    -0.248 NA
ATOM     63  C   UNL A   1      48.558  30.953  27.480  1.00  0.00     0.031 C 
ATOM     64  C   UNL A   1      47.206  25.209  26.042  1.00  0.00     0.029 A 
ATOM     65  C   UNL A   1      47.115  26.511  26.506  1.00  0.00     0.049 A 
ATOM     66  H   UNL A   1      45.494  27.469  27.459  1.00  0.00     0.167 HD
ATOM     67  C   UNL A   1      47.941  28.814  26.928  1.00  0.00     0.074 A 
ATOM     68  C   UNL A   1      48.957  29.844  26.876  1.00  0.00     0.031 C 
ATOM     69  C   UNL A   1      48.114  27.551  26.461  1.00  0.00     0.037 A 
BRANCH  56  70
ATOM     70  C   UNL A   1      43.180  23.886  27.169  1.00  0.00     0.058 A 
ATOM     71  C   UNL A   1      42.555  23.539  25.961  1.00  0.00     0.135 A 
ATOM     72  C   UNL A   1      43.269  22.901  28.165  1.00  0.00     0.135 A 
ATOM     73  F   UNL A   1      42.417  24.450  24.983  1.00  0.00    -0.206 F 
ATOM     74  C   UNL A   1      42.036  22.266  25.750  1.00  0.00     0.059 A 
ATOM     75  C   UNL A   1      42.787  21.611  27.964  1.00  0.00     0.059 A 
ATOM     76  F   UNL A   1      43.845  23.182  29.344  1.00  0.00    -0.206 F 
ATOM     77  C   UNL A   1      42.169  21.304  26.753  1.00  0.00     0.060 A 
BRANCH  77  78
ATOM     78  S   UNL A   1      41.543  19.642  26.437  1.00  0.00     0.124 S 
ATOM     79  O   UNL A   1      42.395  19.212  25.332  1.00  0.00    -0.237 OA
ATOM     80  O   UNL A   1      41.778  18.976  27.714  1.00  0.00    -0.237 OA
ATOM     81  O   UNL A   1      40.142  19.864  26.095  1.00  0.00    -0.744 OA
ENDBRANCH  77  78
ENDBRANCH  56  70
BRANCH  57  82
ATOM     82  C   UNL A   1      46.940  33.054  28.738  1.00  0.00     0.058 A 
ATOM     83  C   UNL A   1      47.520  33.366  29.978  1.00  0.00     0.135 A 
ATOM     84  C   UNL A   1      46.889  34.074  27.774  1.00  0.00     0.135 A 
ATOM     85  F   UNL A   1      47.586  32.434  30.941  1.00  0.00    -0.206 F 
ATOM     86  C   UNL A   1      47.989  34.644  30.267  1.00  0.00     0.059 A 
ATOM     87  C   UNL A   1      47.388  35.349  28.024  1.00  0.00     0.059 A 
ATOM     88  F   UNL A   1      46.353  33.835  26.566  1.00  0.00    -0.206 F 
ATOM     89  C   UNL A   1      47.918  35.630  29.281  1.00  0.00     0.060 A 
BRANCH  89  90
ATOM     90  S   UNL A   1      48.536  37.283  29.660  1.00  0.00     0.124 S 
ATOM     91  O   UNL A   1      48.265  37.993  28.416  1.00  0.00    -0.237 OA
ATOM     92  O   UNL A   1      47.711  37.662  30.804  1.00  0.00    -0.237 OA
ATOM     93  O   UNL A   1      49.946  37.055  29.962  1.00  0.00    -0.744 OA
ENDBRANCH  89  90
ENDBRANCH  57  82
BRANCH  69  94
ATOM     94  C   UNL A   1      49.438  27.230  25.815  1.00  0.00     0.058 A 
ATOM     95  C   UNL A   1      50.535  26.764  26.557  1.00  0.00     0.135 A 
ATOM     96  C   UNL A   1      49.604  27.372  24.426  1.00  0.00     0.135 A 
ATOM     97  F   UNL A   1      50.434  26.606  27.887  1.00  0.00    -0.206 F 
ATOM     98  C   UNL A   1      51.764  26.507  25.958  1.00  0.00     0.059 A 
ATOM     99  C   UNL A   1      50.810  27.075  23.799  1.00  0.00     0.059 A 
ATOM    100  F   UNL A   1      48.585  27.794  23.660  1.00  0.00    -0.206 F 
ATOM    101  C   UNL A   1      51.891  26.666  24.578  1.00  0.00     0.060 A 
BRANCH 101 102
ATOM    102  S   UNL A   1      53.491  26.327  23.815  1.00  0.00     0.124 S 
ATOM    103  O   UNL A   1      53.905  25.121  24.524  1.00  0.00    -0.237 OA
ATOM    104  O   UNL A   1      53.134  26.148  22.412  1.00  0.00    -0.237 OA
ATOM    105  O   UNL A   1      54.270  27.527  24.111  1.00  0.00    -0.744 OA
ENDBRANCH 101 102
ENDBRANCH  69  94
ENDBRANCH  43  44
ENDBRANCH  36  38
ENDBRANCH  35  36
ENDBRANCH  34  35
ENDBRANCH  33  34
ENDBRANCH  32  33
ENDBRANCH   1  32
TORSDOF 23
ENDMDL
