MODEL 1
REMARK VINA RESULT:     -10.8      0.000      0.000
REMARK SMILES COc1cc(C)c(S(=O)(=O)Nc2cc(C(=O)OCCOCCOCCOC(=O)c3ccc(-c4c5nc(c(-c6c(F)cc(S(=O)(=O)[O-])cc6F)c6ccc([nH]6)c(-c6c(F)cc(S(=O)(=O)[O-])cc6F)c6nc(c(-c7c(F)cc(S(=O)(=O)[O-])cc7F)c7ccc4[nH]7)C=C6)C=C5)cc3)ccc2F)cc1OC
REMARK SMILES IDX 21 1 20 2 19 3 18 4 17 5 15 6 16 7 14 8 12 9 13 10 97 11
REMARK SMILES IDX 96 12 98 13 95 14 11 15 8 17 9 18 10 19 7 20 3 21 4 22
REMARK SMILES IDX 100 23 5 24 99 25 6 26 2 27 1 28 101 29 102 30 22 31 23 32
REMARK SMILES IDX 24 33 25 34 26 35 27 36 28 37 29 38 30 39 94 40 31 41 93 42
REMARK SMILES IDX 32 43 33 44 34 45 87 46 35 47 92 48 86 49 88 50 36 51 91 52
REMARK SMILES IDX 85 53 84 54 37 56 71 57 50 58 70 59 51 60 54 61 69 62 89 63
REMARK SMILES IDX 52 64 53 65 68 67 90 68 55 69 38 70 39 71 48 72 40 73 41 74
REMARK SMILES IDX 47 75 49 76 42 77 43 78 44 79 45 80 46 81 72 82 73 83 82 84
REMARK SMILES IDX 74 85 75 86 81 87 83 88 76 89 77 90 78 91 79 92 80 93 56 94
REMARK SMILES IDX 57 95 66 96 58 97 59 98 65 99 67 100 60 101 61 102 62 103
REMARK SMILES IDX 63 104 64 105
REMARK H PARENT 11 16 88 55 54 66
REMARK Flexibility Score: inf
ROOT
ATOM      1  C   UNL A   1      41.830  21.111  26.305  1.00  0.00     0.188 C 
ENDROOT
BRANCH   1   2
ATOM      2  O   UNL A   1      40.417  21.351  26.464  1.00  0.00    -0.376 OA
BRANCH   2   3
ATOM      3  C   UNL A   1      39.406  20.748  25.643  1.00  0.00     0.202 C 
BRANCH   3   4
ATOM      4  C   UNL A   1      37.939  21.487  25.408  1.00  0.00     0.261 C 
BRANCH   4   5
ATOM      5  O   UNL A   1      36.721  20.956  24.520  1.00  0.00    -0.460 OA
BRANCH   5   6
ATOM      6  C   UNL A   1      35.514  21.355  25.013  1.00  0.00     0.338 C 
ATOM      7  O   UNL A   1      35.708  21.540  26.198  1.00  0.00    -0.246 OA
BRANCH   6   8
ATOM      8  C   UNL A   1      33.986  21.825  24.537  1.00  0.00     0.062 A 
ATOM      9  C   UNL A   1      31.638  22.458  24.664  1.00  0.00     0.085 A 
ATOM     10  C   UNL A   1      32.779  21.727  25.186  1.00  0.00     0.045 A 
ATOM     11  C   UNL A   1      31.553  22.978  23.360  1.00  0.00     0.147 A 
ATOM     12  C   UNL A   1      32.707  23.232  22.732  1.00  0.00     0.042 A 
ATOM     13  F   UNL A   1      30.423  23.544  22.901  1.00  0.00    -0.205 F 
ATOM     14  C   UNL A   1      33.827  22.757  23.414  1.00  0.00     0.019 A 
BRANCH   9  15
ATOM     15  N   UNL A   1      30.596  22.984  25.483  1.00  0.00    -0.277 N 
ATOM     16  H   UNL A   1      29.725  22.526  25.507  1.00  0.00     0.180 HD
BRANCH  15  17
ATOM     17  S   UNL A   1      30.824  24.373  26.410  1.00  0.00     0.262 S 
ATOM     18  O   UNL A   1      31.645  23.967  27.507  1.00  0.00    -0.201 OA
ATOM     19  O   UNL A   1      29.466  24.885  26.625  1.00  0.00    -0.201 OA
BRANCH  17  20
ATOM     20  C   UNL A   1      31.700  25.700  25.562  1.00  0.00     0.094 A 
ATOM     21  C   UNL A   1      32.607  28.139  24.536  1.00  0.00     0.161 A 
ATOM     22  C   UNL A   1      33.504  27.183  25.003  1.00  0.00     0.055 A 
ATOM     23  C   UNL A   1      31.301  27.765  24.259  1.00  0.00     0.162 A 
ATOM     24  C   UNL A   1      33.076  25.953  25.528  1.00  0.00    -0.027 A 
ATOM     25  C   UNL A   1      30.853  26.557  24.816  1.00  0.00     0.073 A 
ATOM     26  C   UNL A   1      34.181  25.087  26.024  1.00  0.00     0.046 C 
BRANCH  21  27
ATOM     27  O   UNL A   1      33.032  29.436  24.518  1.00  0.00    -0.493 OA
ATOM     28  C   UNL A   1      33.039  30.029  25.844  1.00  0.00     0.278 C 
ENDBRANCH  21  27
BRANCH  23  29
ATOM     29  O   UNL A   1      30.311  28.508  23.688  1.00  0.00    -0.493 OA
ATOM     30  C   UNL A   1      29.112  27.866  23.264  1.00  0.00     0.278 C 
ENDBRANCH  23  29
ENDBRANCH  17  20
ENDBRANCH  15  17
ENDBRANCH   9  15
ENDBRANCH   6   8
ENDBRANCH   5   6
ENDBRANCH   4   5
ENDBRANCH   3   4
ENDBRANCH   2   3
ENDBRANCH   1   2
BRANCH   1  31
ATOM     31  C   UNL A   1      42.814  22.238  26.033  1.00  0.00     0.188 C 
BRANCH  31  32
ATOM     32  O   UNL A   1      43.210  22.173  24.682  1.00  0.00    -0.376 OA
BRANCH  32  33
ATOM     33  C   UNL A   1      44.425  22.780  24.336  1.00  0.00     0.202 C 
BRANCH  33  34
ATOM     34  C   UNL A   1      45.538  22.552  25.364  1.00  0.00     0.261 C 
BRANCH  34  35
ATOM     35  O   UNL A   1      46.326  23.744  25.675  1.00  0.00    -0.460 OA
BRANCH  35  36
ATOM     36  C   UNL A   1      45.818  24.765  26.467  1.00  0.00     0.338 C 
ATOM     37  O   UNL A   1      45.314  25.762  25.978  1.00  0.00    -0.246 OA
BRANCH  36  38
ATOM     38  C   UNL A   1      45.721  24.367  27.917  1.00  0.00     0.060 A 
ATOM     39  C   UNL A   1      44.868  23.480  28.581  1.00  0.00     0.016 A 
ATOM     40  C   UNL A   1      46.519  25.056  28.745  1.00  0.00     0.016 A 
ATOM     41  C   UNL A   1      44.534  23.606  30.019  1.00  0.00     0.010 A 
ATOM     42  C   UNL A   1      45.986  25.322  30.013  1.00  0.00     0.010 A 
ATOM     43  C   UNL A   1      44.973  24.672  30.808  1.00  0.00    -0.014 A 
BRANCH  43  44
ATOM     44  C   UNL A   1      44.472  25.098  32.459  1.00  0.00     0.031 A 
ATOM     45  C   UNL A   1      43.700  26.526  33.165  1.00  0.00     0.074 A 
ATOM     46  C   UNL A   1      44.303  24.089  33.329  1.00  0.00     0.049 A 
ATOM     47  N   UNL A   1      42.624  26.599  33.941  1.00  0.00    -0.248 NA
ATOM     48  C   UNL A   1      44.081  27.936  32.886  1.00  0.00     0.031 C 
ATOM     49  C   UNL A   1      43.410  24.037  34.488  1.00  0.00     0.029 A 
ATOM     50  N   UNL A   1      45.001  22.900  33.397  1.00  0.00    -0.354 N 
ATOM     51  C   UNL A   1      42.189  27.928  34.069  1.00  0.00     0.074 A 
ATOM     52  C   UNL A   1      42.995  28.668  33.158  1.00  0.00     0.031 C 
ATOM     53  C   UNL A   1      43.772  23.031  35.284  1.00  0.00     0.029 A 
ATOM     54  C   UNL A   1      45.010  22.535  34.752  1.00  0.00     0.049 A 
ATOM     55  H   UNL A   1      45.409  22.409  32.647  1.00  0.00     0.167 HD
ATOM     56  C   UNL A   1      41.582  28.527  35.149  1.00  0.00     0.037 A 
ATOM     57  C   UNL A   1      46.201  22.514  35.401  1.00  0.00     0.037 A 
ATOM     58  C   UNL A   1      41.918  27.732  36.372  1.00  0.00     0.049 A 
ATOM     59  C   UNL A   1      46.236  23.523  36.548  1.00  0.00     0.074 A 
ATOM     60  C   UNL A   1      41.412  26.555  36.898  1.00  0.00     0.029 A 
ATOM     61  N   UNL A   1      43.205  27.823  36.957  1.00  0.00    -0.354 N 
ATOM     62  N   UNL A   1      45.286  24.403  36.814  1.00  0.00    -0.248 NA
ATOM     63  C   UNL A   1      47.313  23.590  37.527  1.00  0.00     0.031 C 
ATOM     64  C   UNL A   1      42.456  25.890  37.644  1.00  0.00     0.029 A 
ATOM     65  C   UNL A   1      43.617  26.660  37.643  1.00  0.00     0.049 A 
ATOM     66  H   UNL A   1      43.764  28.631  36.890  1.00  0.00     0.167 HD
ATOM     67  C   UNL A   1      45.653  25.219  37.855  1.00  0.00     0.074 A 
ATOM     68  C   UNL A   1      46.874  24.574  38.335  1.00  0.00     0.031 C 
ATOM     69  C   UNL A   1      45.042  26.431  38.143  1.00  0.00     0.037 A 
BRANCH  56  70
ATOM     70  C   UNL A   1      40.787  29.939  35.020  1.00  0.00     0.058 A 
ATOM     71  C   UNL A   1      41.099  31.081  35.797  1.00  0.00     0.135 A 
ATOM     72  C   UNL A   1      39.636  30.183  34.189  1.00  0.00     0.135 A 
ATOM     73  F   UNL A   1      42.211  31.105  36.544  1.00  0.00    -0.206 F 
ATOM     74  C   UNL A   1      40.328  32.284  35.820  1.00  0.00     0.059 A 
ATOM     75  C   UNL A   1      38.906  31.415  34.124  1.00  0.00     0.059 A 
ATOM     76  F   UNL A   1      39.148  29.220  33.390  1.00  0.00    -0.206 F 
ATOM     77  C   UNL A   1      39.231  32.454  34.983  1.00  0.00     0.060 A 
BRANCH  77  78
ATOM     78  S   UNL A   1      38.351  34.060  34.965  1.00  0.00     0.124 S 
ATOM     79  O   UNL A   1      38.959  34.745  33.827  1.00  0.00    -0.237 OA
ATOM     80  O   UNL A   1      36.959  33.658  34.779  1.00  0.00    -0.237 OA
ATOM     81  O   UNL A   1      38.653  34.644  36.269  1.00  0.00    -0.744 OA
ENDBRANCH  77  78
ENDBRANCH  56  70
BRANCH  57  82
ATOM     82  C   UNL A   1      47.218  21.871  34.475  1.00  0.00     0.058 A 
ATOM     83  C   UNL A   1      48.367  22.688  34.258  1.00  0.00     0.135 A 
ATOM     84  C   UNL A   1      47.445  20.481  34.401  1.00  0.00     0.135 A 
ATOM     85  F   UNL A   1      48.246  24.025  34.334  1.00  0.00    -0.206 F 
ATOM     86  C   UNL A   1      49.667  22.180  34.234  1.00  0.00     0.059 A 
ATOM     87  C   UNL A   1      48.751  19.948  34.264  1.00  0.00     0.059 A 
ATOM     88  F   UNL A   1      46.443  19.620  34.637  1.00  0.00    -0.206 F 
ATOM     89  C   UNL A   1      49.857  20.808  34.288  1.00  0.00     0.060 A 
BRANCH  89  90
ATOM     90  S   UNL A   1      51.559  20.221  34.536  1.00  0.00     0.124 S 
ATOM     91  O   UNL A   1      52.090  20.199  33.178  1.00  0.00    -0.237 OA
ATOM     92  O   UNL A   1      52.110  21.264  35.400  1.00  0.00    -0.237 OA
ATOM     93  O   UNL A   1      51.368  18.910  35.147  1.00  0.00    -0.744 OA
ENDBRANCH  89  90
ENDBRANCH  57  82
BRANCH  69  94
ATOM     94  C   UNL A   1      45.886  27.519  38.867  1.00  0.00     0.058 A 
ATOM     95  C   UNL A   1      45.903  27.717  40.277  1.00  0.00     0.135 A 
ATOM     96  C   UNL A   1      46.808  28.333  38.182  1.00  0.00     0.135 A 
ATOM     97  F   UNL A   1      45.296  26.869  41.121  1.00  0.00    -0.206 F 
ATOM     98  C   UNL A   1      46.590  28.753  40.918  1.00  0.00     0.059 A 
ATOM     99  C   UNL A   1      47.596  29.311  38.819  1.00  0.00     0.059 A 
ATOM    100  F   UNL A   1      46.996  28.190  36.863  1.00  0.00    -0.206 F 
ATOM    101  C   UNL A   1      47.425  29.566  40.175  1.00  0.00     0.060 A 
BRANCH 101 102
ATOM    102  S   UNL A   1      48.282  30.926  40.998  1.00  0.00     0.124 S 
ATOM    103  O   UNL A   1      49.309  30.206  41.746  1.00  0.00    -0.237 OA
ATOM    104  O   UNL A   1      48.770  31.731  39.882  1.00  0.00    -0.237 OA
ATOM    105  O   UNL A   1      47.235  31.548  41.801  1.00  0.00    -0.744 OA
ENDBRANCH 101 102
ENDBRANCH  69  94
ENDBRANCH  43  44
ENDBRANCH  36  38
ENDBRANCH  35  36
ENDBRANCH  34  35
ENDBRANCH  33  34
ENDBRANCH  32  33
ENDBRANCH  31  32
ENDBRANCH   1  31
TORSDOF 25
ENDMDL
MODEL 2
REMARK VINA RESULT:     -10.7      1.540      2.219
REMARK SMILES COc1cc(C)c(S(=O)(=O)Nc2cc(C(=O)OCCOCCOCCOC(=O)c3ccc(-c4c5nc(c(-c6c(F)cc(S(=O)(=O)[O-])cc6F)c6ccc([nH]6)c(-c6c(F)cc(S(=O)(=O)[O-])cc6F)c6nc(c(-c7c(F)cc(S(=O)(=O)[O-])cc7F)c7ccc4[nH]7)C=C6)C=C5)cc3)ccc2F)cc1OC
REMARK SMILES IDX 21 1 20 2 19 3 18 4 17 5 15 6 16 7 14 8 12 9 13 10 97 11
REMARK SMILES IDX 96 12 98 13 95 14 11 15 8 17 9 18 10 19 7 20 3 21 4 22
REMARK SMILES IDX 100 23 5 24 99 25 6 26 2 27 1 28 101 29 102 30 22 31 23 32
REMARK SMILES IDX 24 33 25 34 26 35 27 36 28 37 29 38 30 39 94 40 31 41 93 42
REMARK SMILES IDX 32 43 33 44 34 45 87 46 35 47 92 48 86 49 88 50 36 51 91 52
REMARK SMILES IDX 85 53 84 54 37 56 71 57 50 58 70 59 51 60 54 61 69 62 89 63
REMARK SMILES IDX 52 64 53 65 68 67 90 68 55 69 38 70 39 71 48 72 40 73 41 74
REMARK SMILES IDX 47 75 49 76 42 77 43 78 44 79 45 80 46 81 72 82 73 83 82 84
REMARK SMILES IDX 74 85 75 86 81 87 83 88 76 89 77 90 78 91 79 92 80 93 56 94
REMARK SMILES IDX 57 95 66 96 58 97 59 98 65 99 67 100 60 101 61 102 62 103
REMARK SMILES IDX 63 104 64 105
REMARK H PARENT 11 16 88 55 54 66
REMARK Flexibility Score: inf
ROOT
ATOM      1  C   UNL A   1      42.973  19.958  25.564  1.00  0.00     0.188 C 
ENDROOT
BRANCH   1   2
ATOM      2  O   UNL A   1      41.878  19.899  26.500  1.00  0.00    -0.376 OA
BRANCH   2   3
ATOM      3  C   UNL A   1      40.495  19.952  26.119  1.00  0.00     0.202 C 
BRANCH   3   4
ATOM      4  C   UNL A   1      39.558  21.274  26.472  1.00  0.00     0.261 C 
BRANCH   4   5
ATOM      5  O   UNL A   1      38.852  22.265  25.435  1.00  0.00    -0.460 OA
BRANCH   5   6
ATOM      6  C   UNL A   1      37.542  22.481  25.743  1.00  0.00     0.338 C 
ATOM      7  O   UNL A   1      37.402  23.686  25.678  1.00  0.00    -0.246 OA
BRANCH   6   8
ATOM      8  C   UNL A   1      36.097  21.684  25.989  1.00  0.00     0.062 A 
ATOM      9  C   UNL A   1      33.842  21.216  26.782  1.00  0.00     0.085 A 
ATOM     10  C   UNL A   1      35.133  21.861  26.952  1.00  0.00     0.045 A 
ATOM     11  C   UNL A   1      33.597  20.142  25.907  1.00  0.00     0.147 A 
ATOM     12  C   UNL A   1      34.423  20.009  24.863  1.00  0.00     0.042 A 
ATOM     13  F   UNL A   1      32.409  19.514  25.882  1.00  0.00    -0.205 F 
ATOM     14  C   UNL A   1      35.526  20.862  24.915  1.00  0.00     0.019 A 
BRANCH   9  15
ATOM     15  N   UNL A   1      32.617  21.766  27.258  1.00  0.00    -0.277 N 
ATOM     16  H   UNL A   1      32.252  21.458  28.119  1.00  0.00     0.180 HD
BRANCH  15  17
ATOM     17  S   UNL A   1      31.779  22.934  26.379  1.00  0.00     0.262 S 
ATOM     18  O   UNL A   1      31.602  24.032  27.277  1.00  0.00    -0.201 OA
ATOM     19  O   UNL A   1      30.628  22.209  25.828  1.00  0.00    -0.201 OA
BRANCH  17  20
ATOM     20  C   UNL A   1      32.667  23.568  24.945  1.00  0.00     0.094 A 
ATOM     21  C   UNL A   1      33.461  24.490  22.426  1.00  0.00     0.161 A 
ATOM     22  C   UNL A   1      33.894  25.123  23.586  1.00  0.00     0.055 A 
ATOM     23  C   UNL A   1      32.924  23.214  22.510  1.00  0.00     0.162 A 
ATOM     24  C   UNL A   1      33.506  24.686  24.863  1.00  0.00    -0.027 A 
ATOM     25  C   UNL A   1      32.495  22.786  23.776  1.00  0.00     0.073 A 
ATOM     26  C   UNL A   1      34.030  25.524  25.977  1.00  0.00     0.046 C 
BRANCH  21  27
ATOM     27  O   UNL A   1      33.454  25.228  21.278  1.00  0.00    -0.493 OA
ATOM     28  C   UNL A   1      33.056  26.605  21.514  1.00  0.00     0.278 C 
ENDBRANCH  21  27
BRANCH  23  29
ATOM     29  O   UNL A   1      32.556  22.383  21.494  1.00  0.00    -0.493 OA
ATOM     30  C   UNL A   1      31.876  21.169  21.797  1.00  0.00     0.278 C 
ENDBRANCH  23  29
ENDBRANCH  17  20
ENDBRANCH  15  17
ENDBRANCH   9  15
ENDBRANCH   6   8
ENDBRANCH   5   6
ENDBRANCH   4   5
ENDBRANCH   3   4
ENDBRANCH   2   3
ENDBRANCH   1   2
BRANCH   1  31
ATOM     31  C   UNL A   1      43.997  21.082  25.591  1.00  0.00     0.188 C 
BRANCH  31  32
ATOM     32  O   UNL A   1      43.634  22.047  24.630  1.00  0.00    -0.376 OA
BRANCH  32  33
ATOM     33  C   UNL A   1      43.135  23.269  25.101  1.00  0.00     0.202 C 
BRANCH  33  34
ATOM     34  C   UNL A   1      44.143  24.419  25.007  1.00  0.00     0.261 C 
BRANCH  34  35
ATOM     35  O   UNL A   1      45.459  24.116  25.569  1.00  0.00    -0.460 OA
BRANCH  35  36
ATOM     36  C   UNL A   1      46.081  24.973  26.466  1.00  0.00     0.338 C 
ATOM     37  O   UNL A   1      46.510  26.061  26.118  1.00  0.00    -0.246 OA
BRANCH  36  38
ATOM     38  C   UNL A   1      45.909  24.526  27.895  1.00  0.00     0.060 A 
ATOM     39  C   UNL A   1      44.995  23.651  28.489  1.00  0.00     0.016 A 
ATOM     40  C   UNL A   1      46.700  25.150  28.779  1.00  0.00     0.016 A 
ATOM     41  C   UNL A   1      44.608  23.737  29.917  1.00  0.00     0.010 A 
ATOM     42  C   UNL A   1      46.127  25.391  30.034  1.00  0.00     0.010 A 
ATOM     43  C   UNL A   1      45.057  24.754  30.764  1.00  0.00    -0.014 A 
BRANCH  43  44
ATOM     44  C   UNL A   1      44.506  25.138  32.409  1.00  0.00     0.031 A 
ATOM     45  C   UNL A   1      43.728  26.555  33.130  1.00  0.00     0.074 A 
ATOM     46  C   UNL A   1      44.296  24.107  33.243  1.00  0.00     0.049 A 
ATOM     47  N   UNL A   1      42.627  26.619  33.872  1.00  0.00    -0.248 NA
ATOM     48  C   UNL A   1      44.135  27.967  32.905  1.00  0.00     0.031 C 
ATOM     49  C   UNL A   1      43.366  24.033  34.370  1.00  0.00     0.029 A 
ATOM     50  N   UNL A   1      44.979  22.908  33.299  1.00  0.00    -0.354 N 
ATOM     51  C   UNL A   1      42.204  27.950  34.024  1.00  0.00     0.074 A 
ATOM     52  C   UNL A   1      43.049  28.705  33.162  1.00  0.00     0.031 C 
ATOM     53  C   UNL A   1      43.689  23.000  35.148  1.00  0.00     0.029 A 
ATOM     54  C   UNL A   1      44.938  22.504  34.642  1.00  0.00     0.049 A 
ATOM     55  H   UNL A   1      45.405  22.434  32.549  1.00  0.00     0.167 HD
ATOM     56  C   UNL A   1      41.568  28.525  35.101  1.00  0.00     0.037 A 
ATOM     57  C   UNL A   1      46.106  22.450  35.330  1.00  0.00     0.037 A 
ATOM     58  C   UNL A   1      41.854  27.691  36.310  1.00  0.00     0.049 A 
ATOM     59  C   UNL A   1      46.115  23.425  36.506  1.00  0.00     0.074 A 
ATOM     60  C   UNL A   1      41.317  26.506  36.786  1.00  0.00     0.029 A 
ATOM     61  N   UNL A   1      43.122  27.749  36.940  1.00  0.00    -0.354 N 
ATOM     62  N   UNL A   1      45.167  24.309  36.766  1.00  0.00    -0.248 NA
ATOM     63  C   UNL A   1      47.160  23.451  37.521  1.00  0.00     0.031 C 
ATOM     64  C   UNL A   1      42.329  25.807  37.546  1.00  0.00     0.029 A 
ATOM     65  C   UNL A   1      43.497  26.561  37.605  1.00  0.00     0.049 A 
ATOM     66  H   UNL A   1      43.692  28.551  36.915  1.00  0.00     0.167 HD
ATOM     67  C   UNL A   1      45.508  25.089  37.842  1.00  0.00     0.074 A 
ATOM     68  C   UNL A   1      46.705  24.416  38.343  1.00  0.00     0.031 C 
ATOM     69  C   UNL A   1      44.902  26.300  38.145  1.00  0.00     0.037 A 
BRANCH  56  70
ATOM     70  C   UNL A   1      40.795  29.950  34.987  1.00  0.00     0.058 A 
ATOM     71  C   UNL A   1      41.074  31.056  35.826  1.00  0.00     0.135 A 
ATOM     72  C   UNL A   1      39.693  30.240  34.106  1.00  0.00     0.135 A 
ATOM     73  F   UNL A   1      42.145  31.038  36.631  1.00  0.00    -0.206 F 
ATOM     74  C   UNL A   1      40.314  32.266  35.856  1.00  0.00     0.059 A 
ATOM     75  C   UNL A   1      38.979  31.482  34.052  1.00  0.00     0.059 A 
ATOM     76  F   UNL A   1      39.240  29.316  33.243  1.00  0.00    -0.206 F 
ATOM     77  C   UNL A   1      39.266  32.482  34.968  1.00  0.00     0.060 A 
BRANCH  77  78
ATOM     78  S   UNL A   1      38.403  34.097  34.969  1.00  0.00     0.124 S 
ATOM     79  O   UNL A   1      38.344  34.429  33.547  1.00  0.00    -0.237 OA
ATOM     80  O   UNL A   1      37.119  33.772  35.585  1.00  0.00    -0.237 OA
ATOM     81  O   UNL A   1      39.268  34.961  35.768  1.00  0.00    -0.744 OA
ENDBRANCH  77  78
ENDBRANCH  56  70
BRANCH  57  82
ATOM     82  C   UNL A   1      47.146  21.821  34.419  1.00  0.00     0.058 A 
ATOM     83  C   UNL A   1      48.266  22.672  34.184  1.00  0.00     0.135 A 
ATOM     84  C   UNL A   1      47.421  20.439  34.378  1.00  0.00     0.135 A 
ATOM     85  F   UNL A   1      48.099  24.005  34.227  1.00  0.00    -0.206 F 
ATOM     86  C   UNL A   1      49.583  22.209  34.172  1.00  0.00     0.059 A 
ATOM     87  C   UNL A   1      48.746  19.949  34.255  1.00  0.00     0.059 A 
ATOM     88  F   UNL A   1      46.450  19.549  34.635  1.00  0.00    -0.206 F 
ATOM     89  C   UNL A   1      49.820  20.847  34.258  1.00  0.00     0.060 A 
BRANCH  89  90
ATOM     90  S   UNL A   1      51.542  20.325  34.520  1.00  0.00     0.124 S 
ATOM     91  O   UNL A   1      51.992  21.226  35.574  1.00  0.00    -0.237 OA
ATOM     92  O   UNL A   1      51.371  18.931  34.929  1.00  0.00    -0.237 OA
ATOM     93  O   UNL A   1      52.153  20.544  33.214  1.00  0.00    -0.744 OA
ENDBRANCH  89  90
ENDBRANCH  57  82
BRANCH  69  94
ATOM     94  C   UNL A   1      45.734  27.356  38.927  1.00  0.00     0.058 A 
ATOM     95  C   UNL A   1      46.690  28.228  38.331  1.00  0.00     0.135 A 
ATOM     96  C   UNL A   1      45.521  27.620  40.294  1.00  0.00     0.135 A 
ATOM     97  F   UNL A   1      46.843  28.312  37.002  1.00  0.00    -0.206 F 
ATOM     98  C   UNL A   1      47.503  29.112  39.049  1.00  0.00     0.059 A 
ATOM     99  C   UNL A   1      46.249  28.584  41.018  1.00  0.00     0.059 A 
ATOM    100  F   UNL A   1      44.572  26.962  40.975  1.00  0.00    -0.206 F 
ATOM    101  C   UNL A   1      47.290  29.272  40.404  1.00  0.00     0.060 A 
BRANCH 101 102
ATOM    102  S   UNL A   1      48.365  30.386  41.334  1.00  0.00     0.124 S 
ATOM    103  O   UNL A   1      49.574  29.577  41.461  1.00  0.00    -0.237 OA
ATOM    104  O   UNL A   1      48.478  31.545  40.452  1.00  0.00    -0.237 OA
ATOM    105  O   UNL A   1      47.626  30.616  42.570  1.00  0.00    -0.744 OA
ENDBRANCH 101 102
ENDBRANCH  69  94
ENDBRANCH  43  44
ENDBRANCH  36  38
ENDBRANCH  35  36
ENDBRANCH  34  35
ENDBRANCH  33  34
ENDBRANCH  32  33
ENDBRANCH  31  32
ENDBRANCH   1  31
TORSDOF 25
ENDMDL
MODEL 3
REMARK VINA RESULT:     -10.0      1.497      2.146
REMARK SMILES COc1cc(C)c(S(=O)(=O)Nc2cc(C(=O)OCCOCCOCCOC(=O)c3ccc(-c4c5nc(c(-c6c(F)cc(S(=O)(=O)[O-])cc6F)c6ccc([nH]6)c(-c6c(F)cc(S(=O)(=O)[O-])cc6F)c6nc(c(-c7c(F)cc(S(=O)(=O)[O-])cc7F)c7ccc4[nH]7)C=C6)C=C5)cc3)ccc2F)cc1OC
REMARK SMILES IDX 21 1 20 2 19 3 18 4 17 5 15 6 16 7 14 8 12 9 13 10 97 11
REMARK SMILES IDX 96 12 98 13 95 14 11 15 8 17 9 18 10 19 7 20 3 21 4 22
REMARK SMILES IDX 100 23 5 24 99 25 6 26 2 27 1 28 101 29 102 30 22 31 23 32
REMARK SMILES IDX 24 33 25 34 26 35 27 36 28 37 29 38 30 39 94 40 31 41 93 42
REMARK SMILES IDX 32 43 33 44 34 45 87 46 35 47 92 48 86 49 88 50 36 51 91 52
REMARK SMILES IDX 85 53 84 54 37 56 71 57 50 58 70 59 51 60 54 61 69 62 89 63
REMARK SMILES IDX 52 64 53 65 68 67 90 68 55 69 38 70 39 71 48 72 40 73 41 74
REMARK SMILES IDX 47 75 49 76 42 77 43 78 44 79 45 80 46 81 72 82 73 83 82 84
REMARK SMILES IDX 74 85 75 86 81 87 83 88 76 89 77 90 78 91 79 92 80 93 56 94
REMARK SMILES IDX 57 95 66 96 58 97 59 98 65 99 67 100 60 101 61 102 62 103
REMARK SMILES IDX 63 104 64 105
REMARK H PARENT 11 16 88 55 54 66
REMARK Flexibility Score: inf
ROOT
ATOM      1  C   UNL A   1      43.587  20.906  25.383  1.00  0.00     0.188 C 
ENDROOT
BRANCH   1   2
ATOM      2  O   UNL A   1      42.698  20.868  26.517  1.00  0.00    -0.376 OA
BRANCH   2   3
ATOM      3  C   UNL A   1      41.317  21.256  26.465  1.00  0.00     0.202 C 
BRANCH   3   4
ATOM      4  C   UNL A   1      40.796  22.669  27.160  1.00  0.00     0.261 C 
BRANCH   4   5
ATOM      5  O   UNL A   1      40.144  23.928  26.421  1.00  0.00    -0.460 OA
BRANCH   5   6
ATOM      6  C   UNL A   1      38.785  23.931  26.517  1.00  0.00     0.338 C 
ATOM      7  O   UNL A   1      38.505  25.032  26.948  1.00  0.00    -0.246 OA
BRANCH   6   8
ATOM      8  C   UNL A   1      37.431  23.049  26.098  1.00  0.00     0.062 A 
ATOM      9  C   UNL A   1      35.098  22.487  25.684  1.00  0.00     0.085 A 
ATOM     10  C   UNL A   1      36.106  23.252  26.398  1.00  0.00     0.045 A 
ATOM     11  C   UNL A   1      35.355  21.306  24.964  1.00  0.00     0.147 A 
ATOM     12  C   UNL A   1      36.604  21.127  24.519  1.00  0.00     0.042 A 
ATOM     13  F   UNL A   1      34.360  20.584  24.423  1.00  0.00    -0.205 F 
ATOM     14  C   UNL A   1      37.509  22.068  25.009  1.00  0.00     0.019 A 
BRANCH   9  15
ATOM     15  N   UNL A   1      33.796  22.984  25.385  1.00  0.00    -0.277 N 
ATOM     16  H   UNL A   1      33.041  22.736  25.966  1.00  0.00     0.180 HD
BRANCH  15  17
ATOM     17  S   UNL A   1      33.521  23.986  24.059  1.00  0.00     0.262 S 
ATOM     18  O   UNL A   1      32.756  23.200  23.141  1.00  0.00    -0.201 OA
ATOM     19  O   UNL A   1      34.855  24.484  23.705  1.00  0.00    -0.201 OA
BRANCH  17  20
ATOM     20  C   UNL A   1      32.550  25.458  24.425  1.00  0.00     0.094 A 
ATOM     21  C   UNL A   1      31.102  27.851  24.348  1.00  0.00     0.161 A 
ATOM     22  C   UNL A   1      30.659  26.773  25.108  1.00  0.00     0.055 A 
ATOM     23  C   UNL A   1      32.416  27.873  23.904  1.00  0.00     0.162 A 
ATOM     24  C   UNL A   1      31.363  25.559  25.160  1.00  0.00    -0.027 A 
ATOM     25  C   UNL A   1      33.112  26.654  23.914  1.00  0.00     0.073 A 
ATOM     26  C   UNL A   1      30.702  24.510  25.985  1.00  0.00     0.046 C 
BRANCH  21  27
ATOM     27  O   UNL A   1      30.166  28.763  23.954  1.00  0.00    -0.493 OA
ATOM     28  C   UNL A   1      29.348  28.271  22.859  1.00  0.00     0.278 C 
ENDBRANCH  21  27
BRANCH  23  29
ATOM     29  O   UNL A   1      33.073  28.878  23.258  1.00  0.00    -0.493 OA
ATOM     30  C   UNL A   1      34.373  28.634  22.729  1.00  0.00     0.278 C 
ENDBRANCH  23  29
ENDBRANCH  17  20
ENDBRANCH  15  17
ENDBRANCH   9  15
ENDBRANCH   6   8
ENDBRANCH   5   6
ENDBRANCH   4   5
ENDBRANCH   3   4
ENDBRANCH   2   3
ENDBRANCH   1   2
BRANCH   1  31
ATOM     31  C   UNL A   1      44.619  22.008  25.203  1.00  0.00     0.188 C 
BRANCH  31  32
ATOM     32  O   UNL A   1      44.040  23.048  24.448  1.00  0.00    -0.376 OA
BRANCH  32  33
ATOM     33  C   UNL A   1      43.628  24.195  25.140  1.00  0.00     0.202 C 
BRANCH  33  34
ATOM     34  C   UNL A   1      44.701  25.287  25.211  1.00  0.00     0.261 C 
BRANCH  34  35
ATOM     35  O   UNL A   1      46.000  24.825  25.699  1.00  0.00    -0.460 OA
BRANCH  35  36
ATOM     36  C   UNL A   1      46.676  25.494  26.711  1.00  0.00     0.338 C 
ATOM     37  O   UNL A   1      47.274  26.536  26.498  1.00  0.00    -0.246 OA
BRANCH  36  38
ATOM     38  C   UNL A   1      46.351  24.944  28.075  1.00  0.00     0.060 A 
ATOM     39  C   UNL A   1      45.327  24.101  28.516  1.00  0.00     0.016 A 
ATOM     40  C   UNL A   1      47.108  25.424  29.071  1.00  0.00     0.016 A 
ATOM     41  C   UNL A   1      44.828  24.098  29.911  1.00  0.00     0.010 A 
ATOM     42  C   UNL A   1      46.452  25.605  30.295  1.00  0.00     0.010 A 
ATOM     43  C   UNL A   1      45.278  24.999  30.878  1.00  0.00    -0.014 A 
BRANCH  43  44
ATOM     44  C   UNL A   1      44.622  25.288  32.504  1.00  0.00     0.031 A 
ATOM     45  C   UNL A   1      43.823  26.674  33.264  1.00  0.00     0.074 A 
ATOM     46  C   UNL A   1      44.333  24.210  33.251  1.00  0.00     0.049 A 
ATOM     47  N   UNL A   1      42.675  26.716  33.931  1.00  0.00    -0.248 NA
ATOM     48  C   UNL A   1      44.274  28.087  33.163  1.00  0.00     0.031 C 
ATOM     49  C   UNL A   1      43.324  24.086  34.303  1.00  0.00     0.029 A 
ATOM     50  N   UNL A   1      44.985  22.993  33.272  1.00  0.00    -0.354 N 
ATOM     51  C   UNL A   1      42.269  28.044  34.143  1.00  0.00     0.074 A 
ATOM     52  C   UNL A   1      43.188  28.833  33.394  1.00  0.00     0.031 C 
ATOM     53  C   UNL A   1      43.571  22.996  35.029  1.00  0.00     0.029 A 
ATOM     54  C   UNL A   1      44.841  22.503  34.579  1.00  0.00     0.049 A 
ATOM     55  H   UNL A   1      45.454  22.559  32.523  1.00  0.00     0.167 HD
ATOM     56  C   UNL A   1      41.571  28.562  35.209  1.00  0.00     0.037 A 
ATOM     57  C   UNL A   1      45.957  22.374  35.340  1.00  0.00     0.037 A 
ATOM     58  C   UNL A   1      41.754  27.644  36.377  1.00  0.00     0.049 A 
ATOM     59  C   UNL A   1      45.903  23.269  36.578  1.00  0.00     0.074 A 
ATOM     60  C   UNL A   1      41.161  26.444  36.733  1.00  0.00     0.029 A 
ATOM     61  N   UNL A   1      42.975  27.629  37.095  1.00  0.00    -0.354 N 
ATOM     62  N   UNL A   1      44.958  24.158  36.830  1.00  0.00    -0.248 NA
ATOM     63  C   UNL A   1      46.874  23.202  37.661  1.00  0.00     0.031 C 
ATOM     64  C   UNL A   1      42.102  25.672  37.512  1.00  0.00     0.029 A 
ATOM     65  C   UNL A   1      43.279  26.391  37.702  1.00  0.00     0.049 A 
ATOM     66  H   UNL A   1      43.562  28.416  37.164  1.00  0.00     0.167 HD
ATOM     67  C   UNL A   1      45.238  24.857  37.977  1.00  0.00     0.074 A 
ATOM     68  C   UNL A   1      46.383  24.122  38.513  1.00  0.00     0.031 C 
ATOM     69  C   UNL A   1      44.636  26.060  38.319  1.00  0.00     0.037 A 
BRANCH  56  70
ATOM     70  C   UNL A   1      40.837  30.011  35.139  1.00  0.00     0.058 A 
ATOM     71  C   UNL A   1      41.089  31.057  36.059  1.00  0.00     0.135 A 
ATOM     72  C   UNL A   1      39.796  30.381  34.215  1.00  0.00     0.135 A 
ATOM     73  F   UNL A   1      42.109  30.963  36.923  1.00  0.00    -0.206 F 
ATOM     74  C   UNL A   1      40.355  32.282  36.120  1.00  0.00     0.059 A 
ATOM     75  C   UNL A   1      39.113  31.642  34.197  1.00  0.00     0.059 A 
ATOM     76  F   UNL A   1      39.375  29.523  33.272  1.00  0.00    -0.206 F 
ATOM     77  C   UNL A   1      39.366  32.577  35.188  1.00  0.00     0.060 A 
BRANCH  77  78
ATOM     78  S   UNL A   1      38.540  34.211  35.238  1.00  0.00     0.124 S 
ATOM     79  O   UNL A   1      39.319  34.932  36.241  1.00  0.00    -0.237 OA
ATOM     80  O   UNL A   1      38.696  34.688  33.867  1.00  0.00    -0.237 OA
ATOM     81  O   UNL A   1      37.167  33.901  35.629  1.00  0.00    -0.744 OA
ENDBRANCH  77  78
ENDBRANCH  56  70
BRANCH  57  82
ATOM     82  C   UNL A   1      47.045  21.781  34.463  1.00  0.00     0.058 A 
ATOM     83  C   UNL A   1      48.185  22.629  34.341  1.00  0.00     0.135 A 
ATOM     84  C   UNL A   1      47.311  20.399  34.366  1.00  0.00     0.135 A 
ATOM     85  F   UNL A   1      48.028  23.961  34.445  1.00  0.00    -0.206 F 
ATOM     86  C   UNL A   1      49.497  22.152  34.385  1.00  0.00     0.059 A 
ATOM     87  C   UNL A   1      48.636  19.900  34.298  1.00  0.00     0.059 A 
ATOM     88  F   UNL A   1      46.317  19.509  34.516  1.00  0.00    -0.206 F 
ATOM     89  C   UNL A   1      49.716  20.784  34.414  1.00  0.00     0.060 A 
BRANCH  89  90
ATOM     90  S   UNL A   1      51.413  20.228  34.753  1.00  0.00     0.124 S 
ATOM     91  O   UNL A   1      52.045  20.314  33.442  1.00  0.00    -0.237 OA
ATOM     92  O   UNL A   1      51.863  21.225  35.724  1.00  0.00    -0.237 OA
ATOM     93  O   UNL A   1      51.220  18.874  35.261  1.00  0.00    -0.744 OA
ENDBRANCH  89  90
ENDBRANCH  57  82
BRANCH  69  94
ATOM     94  C   UNL A   1      45.433  27.041  39.226  1.00  0.00     0.058 A 
ATOM     95  C   UNL A   1      45.252  27.161  40.634  1.00  0.00     0.135 A 
ATOM     96  C   UNL A   1      46.498  27.820  38.736  1.00  0.00     0.135 A 
ATOM     97  F   UNL A   1      44.471  26.317  41.324  1.00  0.00    -0.206 F 
ATOM     98  C   UNL A   1      45.902  28.107  41.433  1.00  0.00     0.059 A 
ATOM     99  C   UNL A   1      47.246  28.701  39.543  1.00  0.00     0.059 A 
ATOM    100  F   UNL A   1      46.872  27.735  37.452  1.00  0.00    -0.206 F 
ATOM    101  C   UNL A   1      46.891  28.893  40.873  1.00  0.00     0.060 A 
BRANCH 101 102
ATOM    102  S   UNL A   1      47.703  30.139  41.898  1.00  0.00     0.124 S 
ATOM    103  O   UNL A   1      48.503  29.302  42.787  1.00  0.00    -0.237 OA
ATOM    104  O   UNL A   1      48.461  30.922  40.926  1.00  0.00    -0.237 OA
ATOM    105  O   UNL A   1      46.588  30.840  42.524  1.00  0.00    -0.744 OA
ENDBRANCH 101 102
ENDBRANCH  69  94
ENDBRANCH  43  44
ENDBRANCH  36  38
ENDBRANCH  35  36
ENDBRANCH  34  35
ENDBRANCH  33  34
ENDBRANCH  32  33
ENDBRANCH  31  32
ENDBRANCH   1  31
TORSDOF 25
ENDMDL
