MODEL 1
REMARK VINA RESULT:     -11.4      0.000      0.000
REMARK SMILES O=C(COc1ccccc1/C=C1\C(=O)Nc2ccccc21)OCCOCCOCCOC(=O)c1ccc(-c2c3nc(c(-c4c(F)cc(S(=O)(=O)[O-])cc4F)c4ccc([nH]4)c(-c4c(F)cc(S(=O)(=O)[O-])cc4F)c4nc(c(-c5c(F)cc(S(=O)(=O)[O-])cc5F)c5ccc2[nH]5)C=C4)C=C3)cc1
REMARK SMILES IDX 26 1 25 2 24 3 23 4 22 5 2 6 1 7 3 8 4 9 5 10 6 11 10 12
REMARK SMILES IDX 7 13 9 14 8 15 11 16 12 17 13 18 21 19 14 20 15 21 16 22
REMARK SMILES IDX 20 23 17 25 19 26 18 27 27 28 28 29 29 30 30 31 31 32 32 33
REMARK SMILES IDX 33 34 34 35 35 36 99 37 36 38 98 39 37 40 38 41 39 42 92 43
REMARK SMILES IDX 40 44 97 45 91 46 93 47 41 48 96 49 90 50 89 51 42 53 76 54
REMARK SMILES IDX 55 55 75 56 56 57 59 58 74 59 94 60 57 61 58 62 73 64 95 65
REMARK SMILES IDX 60 66 43 67 44 68 53 69 45 70 46 71 52 72 54 73 47 74 48 75
REMARK SMILES IDX 49 76 50 77 51 78 77 79 78 80 87 81 79 82 80 83 86 84 88 85
REMARK SMILES IDX 81 86 82 87 83 88 84 89 85 90 61 91 62 92 71 93 63 94 64 95
REMARK SMILES IDX 70 96 72 97 65 98 66 99 67 100 68 101 69 102
REMARK H PARENT 15 24 93 52 59 63
REMARK Flexibility Score: inf
ROOT
ATOM      1  C   UNL A   1      40.777  21.113  27.392  1.00  0.00     0.188 C 
ENDROOT
BRANCH   1   2
ATOM      2  O   UNL A   1      39.675  21.948  27.041  1.00  0.00    -0.376 OA
BRANCH   2   3
ATOM      3  C   UNL A   1      39.146  21.737  25.740  1.00  0.00     0.202 C 
BRANCH   3   4
ATOM      4  C   UNL A   1      37.623  21.799  25.741  1.00  0.00     0.261 C 
BRANCH   4   5
ATOM      5  O   UNL A   1      37.011  21.594  24.441  1.00  0.00    -0.461 OA
BRANCH   5   6
ATOM      6  C   UNL A   1      36.322  22.470  23.671  1.00  0.00     0.344 C 
ATOM      7  O   UNL A   1      36.839  22.884  22.635  1.00  0.00    -0.248 OA
BRANCH   6   8
ATOM      8  C   UNL A   1      34.943  22.936  24.092  1.00  0.00     0.351 C 
BRANCH   8   9
ATOM      9  O   UNL A   1      34.323  22.086  25.036  1.00  0.00    -0.481 OA
BRANCH   9  10
ATOM     10  C   UNL A   1      33.582  21.065  24.509  1.00  0.00     0.127 A 
ATOM     11  C   UNL A   1      34.043  19.798  24.887  1.00  0.00     0.047 A 
ATOM     12  C   UNL A   1      32.577  21.233  23.529  1.00  0.00     0.017 A 
ATOM     13  C   UNL A   1      33.524  18.662  24.287  1.00  0.00     0.004 A 
ATOM     14  C   UNL A   1      32.142  20.072  22.882  1.00  0.00     0.012 A 
ATOM     15  C   UNL A   1      32.589  18.801  23.270  1.00  0.00     0.001 A 
BRANCH  12  16
ATOM     16  C   UNL A   1      32.057  22.569  23.151  1.00  0.00     0.026 C 
ATOM     17  C   UNL A   1      31.346  23.476  23.851  1.00  0.00     0.050 C 
ATOM     18  C   UNL A   1      30.702  23.357  25.218  1.00  0.00     0.256 C 
ATOM     19  C   UNL A   1      31.087  24.865  23.402  1.00  0.00     0.011 A 
ATOM     20  O   UNL A   1      30.658  22.410  25.974  1.00  0.00    -0.269 OA
ATOM     21  N   UNL A   1      30.094  24.581  25.444  1.00  0.00    -0.321 N 
ATOM     22  C   UNL A   1      30.333  25.473  24.410  1.00  0.00     0.049 A 
ATOM     23  C   UNL A   1      31.503  25.622  22.318  1.00  0.00     0.011 A 
ATOM     24  H   UNL A   1      29.559  24.792  26.243  1.00  0.00     0.170 HD
ATOM     25  C   UNL A   1      29.944  26.799  24.374  1.00  0.00     0.027 A 
ATOM     26  C   UNL A   1      31.142  26.977  22.268  1.00  0.00     0.001 A 
ATOM     27  C   UNL A   1      30.364  27.559  23.284  1.00  0.00     0.002 A 
ENDBRANCH  12  16
ENDBRANCH   9  10
ENDBRANCH   8   9
ENDBRANCH   6   8
ENDBRANCH   5   6
ENDBRANCH   4   5
ENDBRANCH   3   4
ENDBRANCH   2   3
ENDBRANCH   1   2
BRANCH   1  28
ATOM     28  C   UNL A   1      41.440  20.450  26.170  1.00  0.00     0.188 C 
BRANCH  28  29
ATOM     29  O   UNL A   1      42.556  21.104  25.570  1.00  0.00    -0.376 OA
BRANCH  29  30
ATOM     30  C   UNL A   1      43.131  22.210  26.251  1.00  0.00     0.202 C 
BRANCH  30  31
ATOM     31  C   UNL A   1      42.903  23.585  25.615  1.00  0.00     0.261 C 
BRANCH  31  32
ATOM     32  O   UNL A   1      41.733  24.247  26.133  1.00  0.00    -0.460 OA
BRANCH  32  33
ATOM     33  C   UNL A   1      41.734  25.598  26.021  1.00  0.00     0.338 C 
ATOM     34  O   UNL A   1      41.565  26.242  24.999  1.00  0.00    -0.246 OA
BRANCH  33  35
ATOM     35  C   UNL A   1      41.798  26.238  27.357  1.00  0.00     0.060 A 
ATOM     36  C   UNL A   1      40.741  25.983  28.243  1.00  0.00     0.016 A 
ATOM     37  C   UNL A   1      42.804  27.141  27.711  1.00  0.00     0.016 A 
ATOM     38  C   UNL A   1      40.643  26.687  29.443  1.00  0.00     0.010 A 
ATOM     39  C   UNL A   1      42.695  27.858  28.913  1.00  0.00     0.010 A 
ATOM     40  C   UNL A   1      41.584  27.674  29.759  1.00  0.00    -0.014 A 
BRANCH  40  41
ATOM     41  C   UNL A   1      41.263  28.649  30.837  1.00  0.00     0.031 A 
ATOM     42  C   UNL A   1      42.106  28.637  32.089  1.00  0.00     0.074 A 
ATOM     43  C   UNL A   1      40.303  29.580  30.694  1.00  0.00     0.049 A 
ATOM     44  N   UNL A   1      42.046  29.416  33.140  1.00  0.00    -0.248 NA
ATOM     45  C   UNL A   1      43.160  27.612  32.161  1.00  0.00     0.031 C 
ATOM     46  C   UNL A   1      39.433  29.730  29.530  1.00  0.00     0.029 A 
ATOM     47  N   UNL A   1      39.902  30.581  31.546  1.00  0.00    -0.354 N 
ATOM     48  C   UNL A   1      43.061  28.987  33.988  1.00  0.00     0.074 A 
ATOM     49  C   UNL A   1      43.692  27.851  33.350  1.00  0.00     0.031 C 
ATOM     50  C   UNL A   1      38.589  30.756  29.747  1.00  0.00     0.029 A 
ATOM     51  C   UNL A   1      38.853  31.329  31.068  1.00  0.00     0.049 A 
ATOM     52  H   UNL A   1      40.328  30.748  32.417  1.00  0.00     0.167 HD
ATOM     53  C   UNL A   1      43.449  29.498  35.181  1.00  0.00     0.037 A 
ATOM     54  C   UNL A   1      38.178  32.350  31.632  1.00  0.00     0.037 A 
ATOM     55  C   UNL A   1      42.826  30.620  35.832  1.00  0.00     0.049 A 
ATOM     56  C   UNL A   1      38.592  32.870  32.987  1.00  0.00     0.074 A 
ATOM     57  C   UNL A   1      43.148  31.198  37.048  1.00  0.00     0.029 A 
ATOM     58  N   UNL A   1      41.753  31.333  35.324  1.00  0.00    -0.354 N 
ATOM     59  N   UNL A   1      39.563  32.461  33.769  1.00  0.00    -0.248 NA
ATOM     60  C   UNL A   1      37.823  34.001  33.529  1.00  0.00     0.031 C 
ATOM     61  C   UNL A   1      42.247  32.241  37.291  1.00  0.00     0.029 A 
ATOM     62  C   UNL A   1      41.392  32.338  36.207  1.00  0.00     0.049 A 
ATOM     63  H   UNL A   1      41.311  31.153  34.462  1.00  0.00     0.167 HD
ATOM     64  C   UNL A   1      39.533  33.295  34.882  1.00  0.00     0.074 A 
ATOM     65  C   UNL A   1      38.461  34.245  34.666  1.00  0.00     0.031 C 
ATOM     66  C   UNL A   1      40.321  33.278  35.986  1.00  0.00     0.037 A 
BRANCH  53  67
ATOM     67  C   UNL A   1      44.611  28.836  35.865  1.00  0.00     0.058 A 
ATOM     68  C   UNL A   1      44.422  27.763  36.752  1.00  0.00     0.135 A 
ATOM     69  C   UNL A   1      45.926  29.257  35.615  1.00  0.00     0.135 A 
ATOM     70  F   UNL A   1      43.183  27.335  37.041  1.00  0.00    -0.206 F 
ATOM     71  C   UNL A   1      45.497  27.145  37.382  1.00  0.00     0.059 A 
ATOM     72  C   UNL A   1      47.017  28.639  36.216  1.00  0.00     0.059 A 
ATOM     73  F   UNL A   1      46.159  30.281  34.778  1.00  0.00    -0.206 F 
ATOM     74  C   UNL A   1      46.791  27.590  37.109  1.00  0.00     0.060 A 
BRANCH  74  75
ATOM     75  S   UNL A   1      48.177  26.775  37.929  1.00  0.00     0.124 S 
ATOM     76  O   UNL A   1      48.019  27.243  39.302  1.00  0.00    -0.237 OA
ATOM     77  O   UNL A   1      47.888  25.362  37.703  1.00  0.00    -0.237 OA
ATOM     78  O   UNL A   1      49.343  27.293  37.220  1.00  0.00    -0.744 OA
ENDBRANCH  74  75
ENDBRANCH  53  67
BRANCH  54  79
ATOM     79  C   UNL A   1      37.014  32.953  30.927  1.00  0.00     0.058 A 
ATOM     80  C   UNL A   1      35.696  32.627  31.277  1.00  0.00     0.135 A 
ATOM     81  C   UNL A   1      37.207  33.848  29.863  1.00  0.00     0.135 A 
ATOM     82  F   UNL A   1      35.462  31.763  32.278  1.00  0.00    -0.206 F 
ATOM     83  C   UNL A   1      34.608  33.151  30.585  1.00  0.00     0.059 A 
ATOM     84  C   UNL A   1      36.135  34.403  29.172  1.00  0.00     0.059 A 
ATOM     85  F   UNL A   1      38.449  34.198  29.495  1.00  0.00    -0.206 F 
ATOM     86  C   UNL A   1      34.839  34.037  29.532  1.00  0.00     0.060 A 
BRANCH  86  87
ATOM     87  S   UNL A   1      33.424  34.747  28.661  1.00  0.00     0.124 S 
ATOM     88  O   UNL A   1      32.490  34.978  29.757  1.00  0.00    -0.237 OA
ATOM     89  O   UNL A   1      34.004  35.942  28.054  1.00  0.00    -0.237 OA
ATOM     90  O   UNL A   1      33.052  33.695  27.721  1.00  0.00    -0.744 OA
ENDBRANCH  86  87
ENDBRANCH  54  79
BRANCH  66  91
ATOM     91  C   UNL A   1      40.070  34.327  37.035  1.00  0.00     0.058 A 
ATOM     92  C   UNL A   1      39.158  34.120  38.082  1.00  0.00     0.135 A 
ATOM     93  C   UNL A   1      40.764  35.547  37.005  1.00  0.00     0.135 A 
ATOM     94  F   UNL A   1      38.466  32.971  38.157  1.00  0.00    -0.206 F 
ATOM     95  C   UNL A   1      38.914  35.099  39.040  1.00  0.00     0.059 A 
ATOM     96  C   UNL A   1      40.554  36.531  37.967  1.00  0.00     0.059 A 
ATOM     97  F   UNL A   1      41.660  35.792  36.036  1.00  0.00    -0.206 F 
ATOM     98  C   UNL A   1      39.613  36.305  38.970  1.00  0.00     0.060 A 
BRANCH  98  99
ATOM     99  S   UNL A   1      39.289  37.572  40.216  1.00  0.00     0.124 S 
ATOM    100  O   UNL A   1      40.581  38.246  40.292  1.00  0.00    -0.237 OA
ATOM    101  O   UNL A   1      38.207  38.343  39.611  1.00  0.00    -0.237 OA
ATOM    102  O   UNL A   1      38.913  36.797  41.396  1.00  0.00    -0.744 OA
ENDBRANCH  98  99
ENDBRANCH  66  91
ENDBRANCH  40  41
ENDBRANCH  33  35
ENDBRANCH  32  33
ENDBRANCH  31  32
ENDBRANCH  30  31
ENDBRANCH  29  30
ENDBRANCH  28  29
ENDBRANCH   1  28
TORSDOF 23
ENDMDL
MODEL 2
REMARK VINA RESULT:     -11.0      2.542      9.008
REMARK SMILES O=C(COc1ccccc1/C=C1\C(=O)Nc2ccccc21)OCCOCCOCCOC(=O)c1ccc(-c2c3nc(c(-c4c(F)cc(S(=O)(=O)[O-])cc4F)c4ccc([nH]4)c(-c4c(F)cc(S(=O)(=O)[O-])cc4F)c4nc(c(-c5c(F)cc(S(=O)(=O)[O-])cc5F)c5ccc2[nH]5)C=C4)C=C3)cc1
REMARK SMILES IDX 26 1 25 2 24 3 23 4 22 5 2 6 1 7 3 8 4 9 5 10 6 11 10 12
REMARK SMILES IDX 7 13 9 14 8 15 11 16 12 17 13 18 21 19 14 20 15 21 16 22
REMARK SMILES IDX 20 23 17 25 19 26 18 27 27 28 28 29 29 30 30 31 31 32 32 33
REMARK SMILES IDX 33 34 34 35 35 36 99 37 36 38 98 39 37 40 38 41 39 42 92 43
REMARK SMILES IDX 40 44 97 45 91 46 93 47 41 48 96 49 90 50 89 51 42 53 76 54
REMARK SMILES IDX 55 55 75 56 56 57 59 58 74 59 94 60 57 61 58 62 73 64 95 65
REMARK SMILES IDX 60 66 43 67 44 68 53 69 45 70 46 71 52 72 54 73 47 74 48 75
REMARK SMILES IDX 49 76 50 77 51 78 77 79 78 80 87 81 79 82 80 83 86 84 88 85
REMARK SMILES IDX 81 86 82 87 83 88 84 89 85 90 61 91 62 92 71 93 63 94 64 95
REMARK SMILES IDX 70 96 72 97 65 98 66 99 67 100 68 101 69 102
REMARK H PARENT 15 24 93 52 59 63
REMARK Flexibility Score: inf
ROOT
ATOM      1  C   UNL A   1      33.136  28.390  27.113  1.00  0.00     0.188 C 
ENDROOT
BRANCH   1   2
ATOM      2  O   UNL A   1      32.756  27.184  26.453  1.00  0.00    -0.376 OA
BRANCH   2   3
ATOM      3  C   UNL A   1      33.834  26.374  26.007  1.00  0.00     0.202 C 
BRANCH   3   4
ATOM      4  C   UNL A   1      34.043  26.505  24.502  1.00  0.00     0.261 C 
BRANCH   4   5
ATOM      5  O   UNL A   1      34.038  27.871  24.011  1.00  0.00    -0.461 OA
BRANCH   5   6
ATOM      6  C   UNL A   1      33.600  28.353  22.823  1.00  0.00     0.344 C 
ATOM      7  O   UNL A   1      34.277  28.155  21.816  1.00  0.00    -0.248 OA
BRANCH   6   8
ATOM      8  C   UNL A   1      32.304  29.135  22.749  1.00  0.00     0.351 C 
BRANCH   8   9
ATOM      9  O   UNL A   1      31.391  28.815  23.778  1.00  0.00    -0.481 OA
BRANCH   9  10
ATOM     10  C   UNL A   1      30.082  28.721  23.393  1.00  0.00     0.127 A 
ATOM     11  C   UNL A   1      29.529  29.951  23.019  1.00  0.00     0.047 A 
ATOM     12  C   UNL A   1      29.290  27.558  23.535  1.00  0.00     0.017 A 
ATOM     13  C   UNL A   1      28.166  30.060  22.789  1.00  0.00     0.004 A 
ATOM     14  C   UNL A   1      27.911  27.725  23.383  1.00  0.00     0.012 A 
ATOM     15  C   UNL A   1      27.355  28.951  22.993  1.00  0.00     0.001 A 
BRANCH  12  16
ATOM     16  C   UNL A   1      29.875  26.243  23.893  1.00  0.00     0.026 C 
ATOM     17  C   UNL A   1      30.784  25.473  23.261  1.00  0.00     0.050 C 
ATOM     18  C   UNL A   1      31.393  25.626  21.882  1.00  0.00     0.256 C 
ATOM     19  C   UNL A   1      31.432  24.281  23.858  1.00  0.00     0.011 A 
ATOM     20  O   UNL A   1      31.178  26.461  21.028  1.00  0.00    -0.269 OA
ATOM     21  N   UNL A   1      32.257  24.553  21.741  1.00  0.00    -0.321 N 
ATOM     22  C   UNL A   1      32.308  23.780  22.891  1.00  0.00     0.049 A 
ATOM     23  C   UNL A   1      31.402  23.693  25.113  1.00  0.00     0.011 A 
ATOM     24  H   UNL A   1      32.773  24.364  20.924  1.00  0.00     0.170 HD
ATOM     25  C   UNL A   1      33.139  22.696  23.105  1.00  0.00     0.027 A 
ATOM     26  C   UNL A   1      32.253  22.606  25.365  1.00  0.00     0.001 A 
ATOM     27  C   UNL A   1      33.108  22.107  24.368  1.00  0.00     0.002 A 
ENDBRANCH  12  16
ENDBRANCH   9  10
ENDBRANCH   8   9
ENDBRANCH   6   8
ENDBRANCH   5   6
ENDBRANCH   4   5
ENDBRANCH   3   4
ENDBRANCH   2   3
ENDBRANCH   1   2
BRANCH   1  28
ATOM     28  C   UNL A   1      32.008  29.439  27.144  1.00  0.00     0.188 C 
BRANCH  28  29
ATOM     29  O   UNL A   1      32.371  30.818  27.168  1.00  0.00    -0.376 OA
BRANCH  29  30
ATOM     30  C   UNL A   1      33.653  31.167  27.668  1.00  0.00     0.202 C 
BRANCH  30  31
ATOM     31  C   UNL A   1      34.006  32.657  27.636  1.00  0.00     0.261 C 
BRANCH  31  32
ATOM     32  O   UNL A   1      32.896  33.497  28.009  1.00  0.00    -0.460 OA
BRANCH  32  33
ATOM     33  C   UNL A   1      33.222  34.614  28.704  1.00  0.00     0.338 C 
ATOM     34  O   UNL A   1      32.621  35.676  28.697  1.00  0.00    -0.246 OA
BRANCH  33  35
ATOM     35  C   UNL A   1      34.339  34.345  29.642  1.00  0.00     0.060 A 
ATOM     36  C   UNL A   1      35.642  34.548  29.164  1.00  0.00     0.016 A 
ATOM     37  C   UNL A   1      34.138  33.816  30.920  1.00  0.00     0.016 A 
ATOM     38  C   UNL A   1      36.741  34.149  29.925  1.00  0.00     0.010 A 
ATOM     39  C   UNL A   1      35.246  33.401  31.676  1.00  0.00     0.010 A 
ATOM     40  C   UNL A   1      36.550  33.515  31.159  1.00  0.00    -0.014 A 
BRANCH  40  41
ATOM     41  C   UNL A   1      37.691  32.779  31.769  1.00  0.00     0.031 A 
ATOM     42  C   UNL A   1      38.222  33.254  33.099  1.00  0.00     0.074 A 
ATOM     43  C   UNL A   1      38.203  31.668  31.209  1.00  0.00     0.049 A 
ATOM     44  N   UNL A   1      39.175  32.750  33.842  1.00  0.00    -0.248 NA
ATOM     45  C   UNL A   1      37.591  34.456  33.667  1.00  0.00     0.031 C 
ATOM     46  C   UNL A   1      37.770  31.077  29.945  1.00  0.00     0.029 A 
ATOM     47  N   UNL A   1      39.208  30.837  31.643  1.00  0.00    -0.354 N 
ATOM     48  C   UNL A   1      39.245  33.560  34.970  1.00  0.00     0.074 A 
ATOM     49  C   UNL A   1      38.271  34.616  34.792  1.00  0.00     0.031 C 
ATOM     50  C   UNL A   1      38.516  29.984  29.698  1.00  0.00     0.029 A 
ATOM     51  C   UNL A   1      39.484  29.804  30.780  1.00  0.00     0.049 A 
ATOM     52  H   UNL A   1      39.685  30.969  32.494  1.00  0.00     0.167 HD
ATOM     53  C   UNL A   1      40.033  33.433  36.064  1.00  0.00     0.037 A 
ATOM     54  C   UNL A   1      40.415  28.831  30.850  1.00  0.00     0.037 A 
ATOM     55  C   UNL A   1      41.012  32.396  36.251  1.00  0.00     0.049 A 
ATOM     56  C   UNL A   1      41.320  28.739  32.054  1.00  0.00     0.074 A 
ATOM     57  C   UNL A   1      41.863  32.198  37.325  1.00  0.00     0.029 A 
ATOM     58  N   UNL A   1      41.275  31.383  35.343  1.00  0.00    -0.354 N 
ATOM     59  N   UNL A   1      41.364  29.506  33.117  1.00  0.00    -0.248 NA
ATOM     60  C   UNL A   1      42.296  27.638  32.070  1.00  0.00     0.031 C 
ATOM     61  C   UNL A   1      42.664  31.084  37.052  1.00  0.00     0.029 A 
ATOM     62  C   UNL A   1      42.284  30.564  35.827  1.00  0.00     0.049 A 
ATOM     63  H   UNL A   1      40.814  31.263  34.481  1.00  0.00     0.167 HD
ATOM     64  C   UNL A   1      42.354  28.970  33.934  1.00  0.00     0.074 A 
ATOM     65  C   UNL A   1      42.873  27.803  33.253  1.00  0.00     0.031 C 
ATOM     66  C   UNL A   1      42.797  29.405  35.141  1.00  0.00     0.037 A 
BRANCH  53  67
ATOM     67  C   UNL A   1      39.867  34.457  37.152  1.00  0.00     0.058 A 
ATOM     68  C   UNL A   1      40.522  35.697  37.094  1.00  0.00     0.135 A 
ATOM     69  C   UNL A   1      39.026  34.208  38.247  1.00  0.00     0.135 A 
ATOM     70  F   UNL A   1      41.354  35.976  36.078  1.00  0.00    -0.206 F 
ATOM     71  C   UNL A   1      40.365  36.648  38.097  1.00  0.00     0.059 A 
ATOM     72  C   UNL A   1      38.836  35.154  39.250  1.00  0.00     0.059 A 
ATOM     73  F   UNL A   1      38.380  33.036  38.350  1.00  0.00    -0.206 F 
ATOM     74  C   UNL A   1      39.521  36.367  39.171  1.00  0.00     0.060 A 
BRANCH  74  75
ATOM     75  S   UNL A   1      39.320  37.613  40.463  1.00  0.00     0.124 S 
ATOM     76  O   UNL A   1      38.192  38.384  39.951  1.00  0.00    -0.237 OA
ATOM     77  O   UNL A   1      39.048  36.798  41.644  1.00  0.00    -0.237 OA
ATOM     78  O   UNL A   1      40.604  38.307  40.467  1.00  0.00    -0.744 OA
ENDBRANCH  74  75
ENDBRANCH  53  67
BRANCH  54  79
ATOM     79  C   UNL A   1      40.561  27.859  29.733  1.00  0.00     0.058 A 
ATOM     80  C   UNL A   1      41.571  27.995  28.770  1.00  0.00     0.135 A 
ATOM     81  C   UNL A   1      39.664  26.788  29.593  1.00  0.00     0.135 A 
ATOM     82  F   UNL A   1      42.443  29.013  28.853  1.00  0.00    -0.206 F 
ATOM     83  C   UNL A   1      41.678  27.117  27.696  1.00  0.00     0.059 A 
ATOM     84  C   UNL A   1      39.764  25.884  28.542  1.00  0.00     0.059 A 
ATOM     85  F   UNL A   1      38.684  26.610  30.493  1.00  0.00    -0.206 F 
ATOM     86  C   UNL A   1      40.767  26.064  27.591  1.00  0.00     0.060 A 
BRANCH  86  87
ATOM     87  S   UNL A   1      40.931  24.901  26.218  1.00  0.00     0.124 S 
ATOM     88  O   UNL A   1      41.818  23.895  26.790  1.00  0.00    -0.237 OA
ATOM     89  O   UNL A   1      39.549  24.484  26.000  1.00  0.00    -0.237 OA
ATOM     90  O   UNL A   1      41.503  25.721  25.155  1.00  0.00    -0.744 OA
ENDBRANCH  86  87
ENDBRANCH  54  79
BRANCH  66  91
ATOM     91  C   UNL A   1      43.880  28.605  35.813  1.00  0.00     0.058 A 
ATOM     92  C   UNL A   1      43.581  27.536  36.673  1.00  0.00     0.135 A 
ATOM     93  C   UNL A   1      45.233  28.898  35.580  1.00  0.00     0.135 A 
ATOM     94  F   UNL A   1      42.303  27.213  36.931  1.00  0.00    -0.206 F 
ATOM     95  C   UNL A   1      44.584  26.810  37.308  1.00  0.00     0.059 A 
ATOM     96  C   UNL A   1      46.253  28.169  36.185  1.00  0.00     0.059 A 
ATOM     97  F   UNL A   1      45.576  29.900  34.755  1.00  0.00    -0.206 F 
ATOM     98  C   UNL A   1      45.918  27.139  37.062  1.00  0.00     0.060 A 
BRANCH  98  99
ATOM     99  S   UNL A   1      47.214  26.193  37.892  1.00  0.00     0.124 S 
ATOM    100  O   UNL A   1      46.436  25.166  38.576  1.00  0.00    -0.237 OA
ATOM    101  O   UNL A   1      48.033  25.730  36.776  1.00  0.00    -0.237 OA
ATOM    102  O   UNL A   1      47.852  27.181  38.758  1.00  0.00    -0.744 OA
ENDBRANCH  98  99
ENDBRANCH  66  91
ENDBRANCH  40  41
ENDBRANCH  33  35
ENDBRANCH  32  33
ENDBRANCH  31  32
ENDBRANCH  30  31
ENDBRANCH  29  30
ENDBRANCH  28  29
ENDBRANCH   1  28
TORSDOF 23
ENDMDL
MODEL 3
REMARK VINA RESULT:     -11.0      1.341      2.207
REMARK SMILES O=C(COc1ccccc1/C=C1\C(=O)Nc2ccccc21)OCCOCCOCCOC(=O)c1ccc(-c2c3nc(c(-c4c(F)cc(S(=O)(=O)[O-])cc4F)c4ccc([nH]4)c(-c4c(F)cc(S(=O)(=O)[O-])cc4F)c4nc(c(-c5c(F)cc(S(=O)(=O)[O-])cc5F)c5ccc2[nH]5)C=C4)C=C3)cc1
REMARK SMILES IDX 26 1 25 2 24 3 23 4 22 5 2 6 1 7 3 8 4 9 5 10 6 11 10 12
REMARK SMILES IDX 7 13 9 14 8 15 11 16 12 17 13 18 21 19 14 20 15 21 16 22
REMARK SMILES IDX 20 23 17 25 19 26 18 27 27 28 28 29 29 30 30 31 31 32 32 33
REMARK SMILES IDX 33 34 34 35 35 36 99 37 36 38 98 39 37 40 38 41 39 42 92 43
REMARK SMILES IDX 40 44 97 45 91 46 93 47 41 48 96 49 90 50 89 51 42 53 76 54
REMARK SMILES IDX 55 55 75 56 56 57 59 58 74 59 94 60 57 61 58 62 73 64 95 65
REMARK SMILES IDX 60 66 43 67 44 68 53 69 45 70 46 71 52 72 54 73 47 74 48 75
REMARK SMILES IDX 49 76 50 77 51 78 77 79 78 80 87 81 79 82 80 83 86 84 88 85
REMARK SMILES IDX 81 86 82 87 83 88 84 89 85 90 61 91 62 92 71 93 63 94 64 95
REMARK SMILES IDX 70 96 72 97 65 98 66 99 67 100 68 101 69 102
REMARK H PARENT 15 24 93 52 59 63
REMARK Flexibility Score: inf
ROOT
ATOM      1  C   UNL A   1      40.951  21.806  27.441  1.00  0.00     0.188 C 
ENDROOT
BRANCH   1   2
ATOM      2  O   UNL A   1      39.667  22.129  26.909  1.00  0.00    -0.376 OA
BRANCH   2   3
ATOM      3  C   UNL A   1      39.305  21.422  25.732  1.00  0.00     0.202 C 
BRANCH   3   4
ATOM      4  C   UNL A   1      37.793  21.404  25.536  1.00  0.00     0.261 C 
BRANCH   4   5
ATOM      5  O   UNL A   1      37.352  21.822  24.218  1.00  0.00    -0.461 OA
BRANCH   5   6
ATOM      6  C   UNL A   1      36.591  22.886  23.866  1.00  0.00     0.344 C 
ATOM      7  O   UNL A   1      36.475  23.165  22.674  1.00  0.00    -0.248 OA
BRANCH   6   8
ATOM      8  C   UNL A   1      35.908  23.720  24.931  1.00  0.00     0.351 C 
BRANCH   8   9
ATOM      9  O   UNL A   1      34.975  22.996  25.706  1.00  0.00    -0.481 OA
BRANCH   9  10
ATOM     10  C   UNL A   1      33.808  22.674  25.071  1.00  0.00     0.127 A 
ATOM     11  C   UNL A   1      33.848  21.421  24.447  1.00  0.00     0.047 A 
ATOM     12  C   UNL A   1      32.731  23.570  24.879  1.00  0.00     0.017 A 
ATOM     13  C   UNL A   1      32.820  21.031  23.603  1.00  0.00     0.004 A 
ATOM     14  C   UNL A   1      31.759  23.181  23.952  1.00  0.00     0.012 A 
ATOM     15  C   UNL A   1      31.787  21.921  23.339  1.00  0.00     0.001 A 
BRANCH  12  16
ATOM     16  C   UNL A   1      32.663  24.882  25.566  1.00  0.00     0.026 C 
ATOM     17  C   UNL A   1      32.924  26.130  25.127  1.00  0.00     0.050 C 
ATOM     18  C   UNL A   1      33.535  26.589  23.818  1.00  0.00     0.256 C 
ATOM     19  C   UNL A   1      32.597  27.366  25.876  1.00  0.00     0.011 A 
ATOM     20  O   UNL A   1      33.950  25.934  22.885  1.00  0.00    -0.269 OA
ATOM     21  N   UNL A   1      33.581  27.970  23.899  1.00  0.00    -0.321 N 
ATOM     22  C   UNL A   1      33.016  28.435  25.077  1.00  0.00     0.049 A 
ATOM     23  C   UNL A   1      31.927  27.629  27.060  1.00  0.00     0.011 A 
ATOM     24  H   UNL A   1      33.967  28.552  23.205  1.00  0.00     0.170 HD
ATOM     25  C   UNL A   1      32.825  29.760  25.420  1.00  0.00     0.027 A 
ATOM     26  C   UNL A   1      31.699  28.966  27.420  1.00  0.00     0.001 A 
ATOM     27  C   UNL A   1      32.150  30.023  26.610  1.00  0.00     0.002 A 
ENDBRANCH  12  16
ENDBRANCH   9  10
ENDBRANCH   8   9
ENDBRANCH   6   8
ENDBRANCH   5   6
ENDBRANCH   4   5
ENDBRANCH   3   4
ENDBRANCH   2   3
ENDBRANCH   1   2
BRANCH   1  28
ATOM     28  C   UNL A   1      41.757  20.861  26.529  1.00  0.00     0.188 C 
BRANCH  28  29
ATOM     29  O   UNL A   1      42.768  21.428  25.698  1.00  0.00    -0.376 OA
BRANCH  29  30
ATOM     30  C   UNL A   1      43.467  22.569  26.173  1.00  0.00     0.202 C 
BRANCH  30  31
ATOM     31  C   UNL A   1      43.270  23.860  25.373  1.00  0.00     0.261 C 
BRANCH  31  32
ATOM     32  O   UNL A   1      42.074  24.569  25.751  1.00  0.00    -0.460 OA
BRANCH  32  33
ATOM     33  C   UNL A   1      42.172  25.921  25.737  1.00  0.00     0.338 C 
ATOM     34  O   UNL A   1      42.133  26.642  24.754  1.00  0.00    -0.246 OA
BRANCH  33  35
ATOM     35  C   UNL A   1      42.163  26.464  27.117  1.00  0.00     0.060 A 
ATOM     36  C   UNL A   1      41.062  26.146  27.925  1.00  0.00     0.016 A 
ATOM     37  C   UNL A   1      43.145  27.340  27.587  1.00  0.00     0.016 A 
ATOM     38  C   UNL A   1      40.898  26.763  29.166  1.00  0.00     0.010 A 
ATOM     39  C   UNL A   1      42.969  27.971  28.829  1.00  0.00     0.010 A 
ATOM     40  C   UNL A   1      41.817  27.726  29.600  1.00  0.00    -0.014 A 
BRANCH  40  41
ATOM     41  C   UNL A   1      41.435  28.621  30.726  1.00  0.00     0.031 A 
ATOM     42  C   UNL A   1      42.235  28.547  32.004  1.00  0.00     0.074 A 
ATOM     43  C   UNL A   1      40.457  29.537  30.609  1.00  0.00     0.049 A 
ATOM     44  N   UNL A   1      42.119  29.255  33.099  1.00  0.00    -0.248 NA
ATOM     45  C   UNL A   1      43.311  27.544  32.048  1.00  0.00     0.031 C 
ATOM     46  C   UNL A   1      39.624  29.743  29.427  1.00  0.00     0.029 A 
ATOM     47  N   UNL A   1      40.003  30.472  31.508  1.00  0.00    -0.354 N 
ATOM     48  C   UNL A   1      43.115  28.795  33.954  1.00  0.00     0.074 A 
ATOM     49  C   UNL A   1      43.796  27.718  33.268  1.00  0.00     0.031 C 
ATOM     50  C   UNL A   1      38.748  30.733  29.679  1.00  0.00     0.029 A 
ATOM     51  C   UNL A   1      38.952  31.225  31.042  1.00  0.00     0.049 A 
ATOM     52  H   UNL A   1      40.394  30.592  32.403  1.00  0.00     0.167 HD
ATOM     53  C   UNL A   1      43.450  29.236  35.190  1.00  0.00     0.037 A 
ATOM     54  C   UNL A   1      38.233  32.192  31.646  1.00  0.00     0.037 A 
ATOM     55  C   UNL A   1      42.777  30.299  35.889  1.00  0.00     0.049 A 
ATOM     56  C   UNL A   1      38.588  32.632  33.045  1.00  0.00     0.074 A 
ATOM     57  C   UNL A   1      43.043  30.804  37.151  1.00  0.00     0.029 A 
ATOM     58  N   UNL A   1      41.705  31.020  35.390  1.00  0.00    -0.354 N 
ATOM     59  N   UNL A   1      39.541  32.196  33.833  1.00  0.00    -0.248 NA
ATOM     60  C   UNL A   1      37.773  33.708  33.631  1.00  0.00     0.031 C 
ATOM     61  C   UNL A   1      42.109  31.808  37.427  1.00  0.00     0.029 A 
ATOM     62  C   UNL A   1      41.289  31.956  36.323  1.00  0.00     0.049 A 
ATOM     63  H   UNL A   1      41.297  30.886  34.503  1.00  0.00     0.167 HD
ATOM     64  C   UNL A   1      39.452  32.955  34.996  1.00  0.00     0.074 A 
ATOM     65  C   UNL A   1      38.366  33.892  34.803  1.00  0.00     0.031 C 
ATOM     66  C   UNL A   1      40.203  32.884  36.124  1.00  0.00     0.037 A 
BRANCH  53  67
ATOM     67  C   UNL A   1      44.604  28.557  35.872  1.00  0.00     0.058 A 
ATOM     68  C   UNL A   1      44.406  27.459  36.724  1.00  0.00     0.135 A 
ATOM     69  C   UNL A   1      45.921  28.990  35.652  1.00  0.00     0.135 A 
ATOM     70  F   UNL A   1      43.164  27.020  36.984  1.00  0.00    -0.206 F 
ATOM     71  C   UNL A   1      45.474  26.826  37.352  1.00  0.00     0.059 A 
ATOM     72  C   UNL A   1      47.005  28.357  36.251  1.00  0.00     0.059 A 
ATOM     73  F   UNL A   1      46.162  30.037  34.848  1.00  0.00    -0.206 F 
ATOM     74  C   UNL A   1      46.770  27.283  37.110  1.00  0.00     0.060 A 
BRANCH  74  75
ATOM     75  S   UNL A   1      48.147  26.448  37.926  1.00  0.00     0.124 S 
ATOM     76  O   UNL A   1      49.159  26.460  36.873  1.00  0.00    -0.237 OA
ATOM     77  O   UNL A   1      48.409  27.319  39.067  1.00  0.00    -0.237 OA
ATOM     78  O   UNL A   1      47.601  25.135  38.256  1.00  0.00    -0.744 OA
ENDBRANCH  74  75
ENDBRANCH  53  67
BRANCH  54  79
ATOM     79  C   UNL A   1      37.079  32.813  30.940  1.00  0.00     0.058 A 
ATOM     80  C   UNL A   1      37.266  33.759  29.923  1.00  0.00     0.135 A 
ATOM     81  C   UNL A   1      35.761  32.489  31.299  1.00  0.00     0.135 A 
ATOM     82  F   UNL A   1      38.508  34.113  29.556  1.00  0.00    -0.206 F 
ATOM     83  C   UNL A   1      36.188  34.379  29.297  1.00  0.00     0.059 A 
ATOM     84  C   UNL A   1      34.668  33.078  30.673  1.00  0.00     0.059 A 
ATOM     85  F   UNL A   1      35.530  31.583  32.263  1.00  0.00    -0.206 F 
ATOM     86  C   UNL A   1      34.892  34.031  29.681  1.00  0.00     0.060 A 
BRANCH  86  87
ATOM     87  S   UNL A   1      33.494  34.807  28.841  1.00  0.00     0.124 S 
ATOM     88  O   UNL A   1      33.180  33.816  27.818  1.00  0.00    -0.237 OA
ATOM     89  O   UNL A   1      32.520  34.941  29.921  1.00  0.00    -0.237 OA
ATOM     90  O   UNL A   1      34.054  36.064  28.356  1.00  0.00    -0.744 OA
ENDBRANCH  86  87
ENDBRANCH  54  79
BRANCH  66  91
ATOM     91  C   UNL A   1      39.891  33.857  37.229  1.00  0.00     0.058 A 
ATOM     92  C   UNL A   1      40.523  35.108  37.310  1.00  0.00     0.135 A 
ATOM     93  C   UNL A   1      38.934  33.543  38.207  1.00  0.00     0.135 A 
ATOM     94  F   UNL A   1      41.447  35.458  36.400  1.00  0.00    -0.206 F 
ATOM     95  C   UNL A   1      40.246  35.998  38.343  1.00  0.00     0.059 A 
ATOM     96  C   UNL A   1      38.623  34.428  39.236  1.00  0.00     0.059 A 
ATOM     97  F   UNL A   1      38.288  32.367  38.169  1.00  0.00    -0.206 F 
ATOM     98  C   UNL A   1      39.298  35.646  39.306  1.00  0.00     0.060 A 
BRANCH  98  99
ATOM     99  S   UNL A   1      38.946  36.806  40.645  1.00  0.00     0.124 S 
ATOM    100  O   UNL A   1      38.248  37.871  39.935  1.00  0.00    -0.237 OA
ATOM    101  O   UNL A   1      38.126  36.005  41.550  1.00  0.00    -0.237 OA
ATOM    102  O   UNL A   1      40.272  37.149  41.152  1.00  0.00    -0.744 OA
ENDBRANCH  98  99
ENDBRANCH  66  91
ENDBRANCH  40  41
ENDBRANCH  33  35
ENDBRANCH  32  33
ENDBRANCH  31  32
ENDBRANCH  30  31
ENDBRANCH  29  30
ENDBRANCH  28  29
ENDBRANCH   1  28
TORSDOF 23
ENDMDL
