MODEL 1
REMARK VINA RESULT:     -10.1      0.000      0.000
REMARK SMILES CC(C)Cc1ccc(-c2cc(Cl)cc3c2O[C@H](C(F)(F)F)C(C(=O)OCCOCCOCCOC(=O)c2ccc(-c4c5nc(c(-c6c(F)cc(S(=O)(=O)[O-])cc6F)c6ccc([nH]6)c(-c6c(F)cc(S(=O)(=O)[O-])cc6F)c6nc(c(-c7c(F)cc(S(=O)(=O)[O-])cc7F)c7ccc4[nH]7)C=C6)C=C5)cc2)=C3)cc1
REMARK SMILES IDX 29 1 28 2 27 3 26 4 25 5 23 6 24 7 22 8 9 9 10 10 15 11
REMARK SMILES IDX 11 12 14 13 16 14 12 15 13 16 103 17 17 18 8 19 5 20 6 21
REMARK SMILES IDX 105 22 7 23 104 24 4 25 2 26 1 27 3 28 18 29 19 30 20 31
REMARK SMILES IDX 21 32 30 33 31 34 32 35 33 36 34 37 35 38 36 39 37 40 38 41
REMARK SMILES IDX 102 42 39 43 101 44 40 45 41 46 42 47 95 48 43 49 100 50
REMARK SMILES IDX 94 51 96 52 44 53 99 54 93 55 92 56 45 58 79 59 58 60 78 61
REMARK SMILES IDX 59 62 62 63 77 64 97 65 60 66 61 67 76 69 98 70 63 71 46 72
REMARK SMILES IDX 47 73 56 74 48 75 49 76 55 77 57 78 50 79 51 80 52 81 53 82
REMARK SMILES IDX 54 83 80 84 81 85 90 86 82 87 83 88 89 89 91 90 84 91 85 92
REMARK SMILES IDX 86 93 87 94 88 95 64 96 65 97 74 98 66 99 67 100 73 101
REMARK SMILES IDX 75 102 68 103 69 104 70 105 71 106 72 107
REMARK H PARENT 96 57 62 68
REMARK Flexibility Score: inf
ROOT
ATOM      1  C   UNL A   1      34.582  30.969  28.330  1.00  0.00     0.188 C 
ENDROOT
BRANCH   1   2
ATOM      2  O   UNL A   1      33.790  30.074  27.571  1.00  0.00    -0.376 OA
BRANCH   2   3
ATOM      3  C   UNL A   1      34.462  28.949  27.012  1.00  0.00     0.202 C 
BRANCH   3   4
ATOM      4  C   UNL A   1      34.426  28.824  25.479  1.00  0.00     0.261 C 
BRANCH   4   5
ATOM      5  O   UNL A   1      33.692  27.653  25.039  1.00  0.00    -0.460 OA
BRANCH   5   6
ATOM      6  C   UNL A   1      33.456  27.578  23.712  1.00  0.00     0.338 C 
ATOM      7  O   UNL A   1      33.853  28.392  22.889  1.00  0.00    -0.246 OA
BRANCH   6   8
ATOM      8  C   UNL A   1      32.775  26.311  23.329  1.00  0.00     0.087 C 
ATOM      9  C   UNL A   1      33.303  22.611  25.122  1.00  0.00     0.026 A 
ATOM     10  C   UNL A   1      34.566  22.663  25.753  1.00  0.00     0.033 A 
ATOM     11  C   UNL A   1      32.987  23.721  24.332  1.00  0.00     0.135 A 
ATOM     12  C   UNL A   1      35.528  23.622  25.434  1.00  0.00     0.042 A 
ATOM     13  C   UNL A   1      34.029  24.523  23.831  1.00  0.00     0.019 A 
ATOM     14  O   UNL A   1      31.694  24.164  24.069  1.00  0.00    -0.475 OA
ATOM     15  Cl  UNL A   1      37.037  23.645  26.253  1.00  0.00    -0.084 Cl
ATOM     16  C   UNL A   1      35.294  24.507  24.400  1.00  0.00     0.032 A 
ATOM     17  C   UNL A   1      33.674  25.486  22.768  1.00  0.00     0.027 C 
ATOM     18  C   UNL A   1      31.646  25.665  24.133  1.00  0.00     0.316 C 
BRANCH   9  19
ATOM     19  C   UNL A   1      32.739  21.237  24.969  1.00  0.00    -0.015 A 
ATOM     20  C   UNL A   1      32.782  18.429  24.399  1.00  0.00    -0.048 A 
ATOM     21  C   UNL A   1      32.833  18.893  25.716  1.00  0.00     0.004 A 
ATOM     22  C   UNL A   1      32.553  19.370  23.390  1.00  0.00     0.004 A 
ATOM     23  C   UNL A   1      32.807  20.272  25.993  1.00  0.00     0.009 A 
ATOM     24  C   UNL A   1      32.543  20.746  23.668  1.00  0.00     0.009 A 
BRANCH  20  25
ATOM     25  C   UNL A   1      33.023  16.957  24.105  1.00  0.00     0.038 C 
BRANCH  25  26
ATOM     26  C   UNL A   1      33.522  16.092  25.292  1.00  0.00    -0.013 C 
ATOM     27  C   UNL A   1      32.687  14.821  25.458  1.00  0.00     0.008 C 
ATOM     28  C   UNL A   1      35.012  15.765  25.134  1.00  0.00     0.008 C 
ENDBRANCH  25  26
ENDBRANCH  20  25
ENDBRANCH   9  19
BRANCH  18  29
ATOM     29  C   UNL A   1      30.300  26.229  23.668  1.00  0.00     0.430 C 
ATOM     30  F   UNL A   1      30.365  26.759  22.426  1.00  0.00    -0.167 F 
ATOM     31  F   UNL A   1      29.329  25.290  23.670  1.00  0.00    -0.167 F 
ATOM     32  F   UNL A   1      29.883  27.220  24.500  1.00  0.00    -0.167 F 
ENDBRANCH  18  29
ENDBRANCH   6   8
ENDBRANCH   5   6
ENDBRANCH   4   5
ENDBRANCH   3   4
ENDBRANCH   2   3
ENDBRANCH   1   2
BRANCH   1  33
ATOM     33  C   UNL A   1      35.964  31.279  27.710  1.00  0.00     0.188 C 
BRANCH  33  34
ATOM     34  O   UNL A   1      37.143  31.021  28.455  1.00  0.00    -0.376 OA
BRANCH  34  35
ATOM     35  C   UNL A   1      37.342  29.721  28.996  1.00  0.00     0.202 C 
BRANCH  35  36
ATOM     36  C   UNL A   1      38.304  28.740  28.301  1.00  0.00     0.261 C 
BRANCH  36  37
ATOM     37  O   UNL A   1      39.384  28.231  29.111  1.00  0.00    -0.460 OA
BRANCH  37  38
ATOM     38  C   UNL A   1      40.611  28.275  28.535  1.00  0.00     0.338 C 
ATOM     39  O   UNL A   1      40.944  28.982  27.592  1.00  0.00    -0.246 OA
BRANCH  38  40
ATOM     40  C   UNL A   1      41.604  27.479  29.292  1.00  0.00     0.060 A 
ATOM     41  C   UNL A   1      42.143  28.042  30.454  1.00  0.00     0.016 A 
ATOM     42  C   UNL A   1      42.126  26.281  28.797  1.00  0.00     0.016 A 
ATOM     43  C   UNL A   1      43.243  27.447  31.082  1.00  0.00     0.010 A 
ATOM     44  C   UNL A   1      43.230  25.683  29.434  1.00  0.00     0.010 A 
ATOM     45  C   UNL A   1      43.824  26.280  30.562  1.00  0.00    -0.014 A 
BRANCH  45  46
ATOM     46  C   UNL A   1      45.191  25.875  31.027  1.00  0.00     0.031 A 
ATOM     47  C   UNL A   1      46.360  26.319  30.186  1.00  0.00     0.074 A 
ATOM     48  C   UNL A   1      45.404  25.141  32.140  1.00  0.00     0.049 A 
ATOM     49  N   UNL A   1      47.640  26.207  30.417  1.00  0.00    -0.248 NA
ATOM     50  C   UNL A   1      46.035  26.946  28.893  1.00  0.00     0.031 C 
ATOM     51  C   UNL A   1      44.346  24.595  32.972  1.00  0.00     0.029 A 
ATOM     52  N   UNL A   1      46.556  24.738  32.786  1.00  0.00    -0.354 N 
ATOM     53  C   UNL A   1      48.271  26.686  29.273  1.00  0.00     0.074 A 
ATOM     54  C   UNL A   1      47.235  27.117  28.363  1.00  0.00     0.031 C 
ATOM     55  C   UNL A   1      44.880  24.027  34.067  1.00  0.00     0.029 A 
ATOM     56  C   UNL A   1      46.338  24.047  33.971  1.00  0.00     0.049 A 
ATOM     57  H   UNL A   1      47.457  24.924  32.435  1.00  0.00     0.167 HD
ATOM     58  C   UNL A   1      49.596  26.731  28.997  1.00  0.00     0.037 A 
ATOM     59  C   UNL A   1      47.219  23.499  34.850  1.00  0.00     0.037 A 
ATOM     60  C   UNL A   1      50.614  26.316  29.923  1.00  0.00     0.049 A 
ATOM     61  C   UNL A   1      48.699  23.708  34.528  1.00  0.00     0.074 A 
ATOM     62  C   UNL A   1      51.988  26.330  29.759  1.00  0.00     0.029 A 
ATOM     63  N   UNL A   1      50.367  25.801  31.187  1.00  0.00    -0.354 N 
ATOM     64  N   UNL A   1      49.254  24.468  33.606  1.00  0.00    -0.248 NA
ATOM     65  C   UNL A   1      49.678  23.031  35.388  1.00  0.00     0.031 C 
ATOM     66  C   UNL A   1      52.569  25.780  30.906  1.00  0.00     0.029 A 
ATOM     67  C   UNL A   1      51.558  25.460  31.800  1.00  0.00     0.049 A 
ATOM     68  H   UNL A   1      49.474  25.695  31.589  1.00  0.00     0.167 HD
ATOM     69  C   UNL A   1      50.627  24.418  33.850  1.00  0.00     0.074 A 
ATOM     70  C   UNL A   1      50.794  23.673  35.077  1.00  0.00     0.031 C 
ATOM     71  C   UNL A   1      51.675  24.857  33.102  1.00  0.00     0.037 A 
BRANCH  58  72
ATOM     72  C   UNL A   1      50.013  27.181  27.625  1.00  0.00     0.058 A 
ATOM     73  C   UNL A   1      50.304  28.521  27.329  1.00  0.00     0.135 A 
ATOM     74  C   UNL A   1      50.147  26.239  26.591  1.00  0.00     0.135 A 
ATOM     75  F   UNL A   1      50.167  29.466  28.272  1.00  0.00    -0.206 F 
ATOM     76  C   UNL A   1      50.695  28.914  26.053  1.00  0.00     0.059 A 
ATOM     77  C   UNL A   1      50.565  26.604  25.315  1.00  0.00     0.059 A 
ATOM     78  F   UNL A   1      49.873  24.943  26.815  1.00  0.00    -0.206 F 
ATOM     79  C   UNL A   1      50.826  27.948  25.053  1.00  0.00     0.060 A 
BRANCH  79  80
ATOM     80  S   UNL A   1      51.355  28.471  23.408  1.00  0.00     0.124 S 
ATOM     81  O   UNL A   1      51.648  29.884  23.631  1.00  0.00    -0.237 OA
ATOM     82  O   UNL A   1      52.512  27.614  23.167  1.00  0.00    -0.237 OA
ATOM     83  O   UNL A   1      50.190  28.197  22.572  1.00  0.00    -0.744 OA
ENDBRANCH  79  80
ENDBRANCH  58  72
BRANCH  59  84
ATOM     84  C   UNL A   1      46.790  22.811  36.144  1.00  0.00     0.058 A 
ATOM     85  C   UNL A   1      46.617  21.412  36.212  1.00  0.00     0.135 A 
ATOM     86  C   UNL A   1      46.579  23.484  37.362  1.00  0.00     0.135 A 
ATOM     87  F   UNL A   1      46.814  20.657  35.124  1.00  0.00    -0.206 F 
ATOM     88  C   UNL A   1      46.309  20.723  37.388  1.00  0.00     0.059 A 
ATOM     89  C   UNL A   1      46.382  22.811  38.577  1.00  0.00     0.059 A 
ATOM     90  F   UNL A   1      46.600  24.826  37.408  1.00  0.00    -0.206 F 
ATOM     91  C   UNL A   1      46.282  21.423  38.583  1.00  0.00     0.060 A 
BRANCH  91  92
ATOM     92  S   UNL A   1      46.209  20.496  40.135  1.00  0.00     0.124 S 
ATOM     93  O   UNL A   1      47.599  20.512  40.579  1.00  0.00    -0.237 OA
ATOM     94  O   UNL A   1      45.285  21.309  40.921  1.00  0.00    -0.237 OA
ATOM     95  O   UNL A   1      45.699  19.194  39.722  1.00  0.00    -0.744 OA
ENDBRANCH  91  92
ENDBRANCH  59  84
BRANCH  71  96
ATOM     96  C   UNL A   1      53.066  24.611  33.641  1.00  0.00     0.058 A 
ATOM     97  C   UNL A   1      53.718  25.560  34.448  1.00  0.00     0.135 A 
ATOM     98  C   UNL A   1      53.751  23.415  33.366  1.00  0.00     0.135 A 
ATOM     99  F   UNL A   1      53.106  26.711  34.768  1.00  0.00    -0.206 F 
ATOM    100  C   UNL A   1      55.026  25.377  34.882  1.00  0.00     0.059 A 
ATOM    101  C   UNL A   1      55.042  23.188  33.837  1.00  0.00     0.059 A 
ATOM    102  F   UNL A   1      53.167  22.451  32.639  1.00  0.00    -0.206 F 
ATOM    103  C   UNL A   1      55.683  24.190  34.565  1.00  0.00     0.060 A 
BRANCH 103 104
ATOM    104  S   UNL A   1      57.384  23.973  35.126  1.00  0.00     0.124 S 
ATOM    105  O   UNL A   1      57.793  22.794  34.371  1.00  0.00    -0.237 OA
ATOM    106  O   UNL A   1      58.010  25.230  34.725  1.00  0.00    -0.237 OA
ATOM    107  O   UNL A   1      57.243  23.782  36.566  1.00  0.00    -0.744 OA
ENDBRANCH 103 104
ENDBRANCH  71  96
ENDBRANCH  45  46
ENDBRANCH  38  40
ENDBRANCH  37  38
ENDBRANCH  36  37
ENDBRANCH  35  36
ENDBRANCH  34  35
ENDBRANCH  33  34
ENDBRANCH   1  33
TORSDOF 24
ENDMDL
MODEL 2
REMARK VINA RESULT:      -9.8      7.414     15.390
REMARK SMILES CC(C)Cc1ccc(-c2cc(Cl)cc3c2O[C@H](C(F)(F)F)C(C(=O)OCCOCCOCCOC(=O)c2ccc(-c4c5nc(c(-c6c(F)cc(S(=O)(=O)[O-])cc6F)c6ccc([nH]6)c(-c6c(F)cc(S(=O)(=O)[O-])cc6F)c6nc(c(-c7c(F)cc(S(=O)(=O)[O-])cc7F)c7ccc4[nH]7)C=C6)C=C5)cc2)=C3)cc1
REMARK SMILES IDX 29 1 28 2 27 3 26 4 25 5 23 6 24 7 22 8 9 9 10 10 15 11
REMARK SMILES IDX 11 12 14 13 16 14 12 15 13 16 103 17 17 18 8 19 5 20 6 21
REMARK SMILES IDX 105 22 7 23 104 24 4 25 2 26 1 27 3 28 18 29 19 30 20 31
REMARK SMILES IDX 21 32 30 33 31 34 32 35 33 36 34 37 35 38 36 39 37 40 38 41
REMARK SMILES IDX 102 42 39 43 101 44 40 45 41 46 42 47 95 48 43 49 100 50
REMARK SMILES IDX 94 51 96 52 44 53 99 54 93 55 92 56 45 58 79 59 58 60 78 61
REMARK SMILES IDX 59 62 62 63 77 64 97 65 60 66 61 67 76 69 98 70 63 71 46 72
REMARK SMILES IDX 47 73 56 74 48 75 49 76 55 77 57 78 50 79 51 80 52 81 53 82
REMARK SMILES IDX 54 83 80 84 81 85 90 86 82 87 83 88 89 89 91 90 84 91 85 92
REMARK SMILES IDX 86 93 87 94 88 95 64 96 65 97 74 98 66 99 67 100 73 101
REMARK SMILES IDX 75 102 68 103 69 104 70 105 71 106 72 107
REMARK H PARENT 96 57 62 68
REMARK Flexibility Score: inf
ROOT
ATOM      1  C   UNL A   1      49.671  27.510  31.016  1.00  0.00     0.188 C 
ENDROOT
BRANCH   1   2
ATOM      2  O   UNL A   1      49.198  26.376  31.718  1.00  0.00    -0.376 OA
BRANCH   2   3
ATOM      3  C   UNL A   1      47.891  26.476  32.278  1.00  0.00     0.202 C 
BRANCH   3   4
ATOM      4  C   UNL A   1      47.352  25.219  32.982  1.00  0.00     0.261 C 
BRANCH   4   5
ATOM      5  O   UNL A   1      45.970  25.371  33.397  1.00  0.00    -0.460 OA
BRANCH   5   6
ATOM      6  C   UNL A   1      45.101  24.487  32.861  1.00  0.00     0.338 C 
ATOM      7  O   UNL A   1      44.875  24.375  31.663  1.00  0.00    -0.246 OA
BRANCH   6   8
ATOM      8  C   UNL A   1      44.544  23.553  33.878  1.00  0.00     0.087 C 
ATOM      9  C   UNL A   1      46.628  21.830  37.019  1.00  0.00     0.026 A 
ATOM     10  C   UNL A   1      47.989  21.857  36.641  1.00  0.00     0.033 A 
ATOM     11  C   UNL A   1      45.729  22.241  36.029  1.00  0.00     0.135 A 
ATOM     12  C   UNL A   1      48.402  22.047  35.322  1.00  0.00     0.042 A 
ATOM     13  C   UNL A   1      46.122  22.180  34.680  1.00  0.00     0.019 A 
ATOM     14  O   UNL A   1      44.482  22.807  36.278  1.00  0.00    -0.475 OA
ATOM     15  Cl  UNL A   1      50.073  22.092  34.932  1.00  0.00    -0.084 Cl
ATOM     16  C   UNL A   1      47.459  22.119  34.316  1.00  0.00     0.032 A 
ATOM     17  C   UNL A   1      45.053  22.328  33.670  1.00  0.00     0.027 C 
ATOM     18  C   UNL A   1      44.237  23.942  35.324  1.00  0.00     0.316 C 
BRANCH   9  19
ATOM     19  C   UNL A   1      46.318  20.924  38.164  1.00  0.00    -0.015 A 
ATOM     20  C   UNL A   1      46.891  19.223  40.398  1.00  0.00    -0.048 A 
ATOM     21  C   UNL A   1      46.510  20.555  40.591  1.00  0.00     0.004 A 
ATOM     22  C   UNL A   1      46.829  18.715  39.098  1.00  0.00     0.004 A 
ATOM     23  C   UNL A   1      46.224  21.385  39.491  1.00  0.00     0.009 A 
ATOM     24  C   UNL A   1      46.560  19.550  38.002  1.00  0.00     0.009 A 
BRANCH  20  25
ATOM     25  C   UNL A   1      47.398  18.404  41.574  1.00  0.00     0.038 C 
BRANCH  25  26
ATOM     26  C   UNL A   1      46.448  17.298  42.102  1.00  0.00    -0.013 C 
ATOM     27  C   UNL A   1      44.982  17.612  41.793  1.00  0.00     0.008 C 
ATOM     28  C   UNL A   1      46.853  15.926  41.545  1.00  0.00     0.008 C 
ENDBRANCH  25  26
ENDBRANCH  20  25
ENDBRANCH   9  19
BRANCH  18  29
ATOM     29  C   UNL A   1      42.808  24.487  35.415  1.00  0.00     0.430 C 
ATOM     30  F   UNL A   1      42.646  25.626  34.706  1.00  0.00    -0.167 F 
ATOM     31  F   UNL A   1      41.895  23.591  34.980  1.00  0.00    -0.167 F 
ATOM     32  F   UNL A   1      42.486  24.773  36.704  1.00  0.00    -0.167 F 
ENDBRANCH  18  29
ENDBRANCH   6   8
ENDBRANCH   5   6
ENDBRANCH   4   5
ENDBRANCH   3   4
ENDBRANCH   2   3
ENDBRANCH   1   2
BRANCH   1  33
ATOM     33  C   UNL A   1      49.149  27.627  29.566  1.00  0.00     0.188 C 
BRANCH  33  34
ATOM     34  O   UNL A   1      49.043  26.463  28.761  1.00  0.00    -0.376 OA
BRANCH  34  35
ATOM     35  C   UNL A   1      47.851  26.253  28.014  1.00  0.00     0.202 C 
BRANCH  35  36
ATOM     36  C   UNL A   1      46.621  25.623  28.692  1.00  0.00     0.261 C 
BRANCH  36  37
ATOM     37  O   UNL A   1      45.764  24.833  27.842  1.00  0.00    -0.460 OA
BRANCH  37  38
ATOM     38  C   UNL A   1      44.980  25.541  26.991  1.00  0.00     0.338 C 
ATOM     39  O   UNL A   1      44.947  25.427  25.772  1.00  0.00    -0.246 OA
BRANCH  38  40
ATOM     40  C   UNL A   1      44.001  26.384  27.714  1.00  0.00     0.060 A 
ATOM     41  C   UNL A   1      44.185  27.771  27.682  1.00  0.00     0.016 A 
ATOM     42  C   UNL A   1      43.020  25.835  28.543  1.00  0.00     0.016 A 
ATOM     43  C   UNL A   1      43.439  28.601  28.525  1.00  0.00     0.010 A 
ATOM     44  C   UNL A   1      42.268  26.675  29.388  1.00  0.00     0.010 A 
ATOM     45  C   UNL A   1      42.495  28.063  29.415  1.00  0.00    -0.014 A 
BRANCH  45  46
ATOM     46  C   UNL A   1      41.983  28.914  30.538  1.00  0.00     0.031 A 
ATOM     47  C   UNL A   1      42.794  28.933  31.808  1.00  0.00     0.074 A 
ATOM     48  C   UNL A   1      40.847  29.640  30.456  1.00  0.00     0.049 A 
ATOM     49  N   UNL A   1      42.643  29.662  32.880  1.00  0.00    -0.248 NA
ATOM     50  C   UNL A   1      43.907  27.970  31.887  1.00  0.00     0.031 C 
ATOM     51  C   UNL A   1      39.952  29.626  29.312  1.00  0.00     0.029 A 
ATOM     52  N   UNL A   1      40.249  30.538  31.317  1.00  0.00    -0.354 N 
ATOM     53  C   UNL A   1      43.596  29.203  33.784  1.00  0.00     0.074 A 
ATOM     54  C   UNL A   1      44.339  28.153  33.125  1.00  0.00     0.031 C 
ATOM     55  C   UNL A   1      38.986  30.546  29.483  1.00  0.00     0.029 A 
ATOM     56  C   UNL A   1      39.104  31.141  30.812  1.00  0.00     0.049 A 
ATOM     57  H   UNL A   1      40.605  30.735  32.213  1.00  0.00     0.167 HD
ATOM     58  C   UNL A   1      43.810  29.601  35.060  1.00  0.00     0.037 A 
ATOM     59  C   UNL A   1      38.263  32.051  31.373  1.00  0.00     0.037 A 
ATOM     60  C   UNL A   1      43.074  30.662  35.694  1.00  0.00     0.049 A 
ATOM     61  C   UNL A   1      38.650  32.544  32.768  1.00  0.00     0.074 A 
ATOM     62  C   UNL A   1      43.212  31.161  36.977  1.00  0.00     0.029 A 
ATOM     63  N   UNL A   1      42.051  31.379  35.092  1.00  0.00    -0.354 N 
ATOM     64  N   UNL A   1      39.756  32.333  33.452  1.00  0.00    -0.248 NA
ATOM     65  C   UNL A   1      37.706  33.435  33.454  1.00  0.00     0.031 C 
ATOM     66  C   UNL A   1      42.242  32.150  37.165  1.00  0.00     0.029 A 
ATOM     67  C   UNL A   1      41.525  32.293  35.986  1.00  0.00     0.049 A 
ATOM     68  H   UNL A   1      41.745  31.258  34.163  1.00  0.00     0.167 HD
ATOM     69  C   UNL A   1      39.660  33.140  34.587  1.00  0.00     0.074 A 
ATOM     70  C   UNL A   1      38.462  33.932  34.420  1.00  0.00     0.031 C 
ATOM     71  C   UNL A   1      40.421  33.176  35.713  1.00  0.00     0.037 A 
BRANCH  58  72
ATOM     72  C   UNL A   1      44.827  28.849  35.871  1.00  0.00     0.058 A 
ATOM     73  C   UNL A   1      46.201  29.121  35.793  1.00  0.00     0.135 A 
ATOM     74  C   UNL A   1      44.408  27.849  36.765  1.00  0.00     0.135 A 
ATOM     75  F   UNL A   1      46.659  30.047  34.936  1.00  0.00    -0.206 F 
ATOM     76  C   UNL A   1      47.125  28.416  36.558  1.00  0.00     0.059 A 
ATOM     77  C   UNL A   1      45.311  27.151  37.561  1.00  0.00     0.059 A 
ATOM     78  F   UNL A   1      43.106  27.540  36.874  1.00  0.00    -0.206 F 
ATOM     79  C   UNL A   1      46.670  27.436  37.442  1.00  0.00     0.060 A 
BRANCH  79  80
ATOM     80  S   UNL A   1      47.881  26.545  38.443  1.00  0.00     0.124 S 
ATOM     81  O   UNL A   1      49.074  27.364  38.256  1.00  0.00    -0.237 OA
ATOM     82  O   UNL A   1      47.280  26.594  39.773  1.00  0.00    -0.237 OA
ATOM     83  O   UNL A   1      47.925  25.222  37.828  1.00  0.00    -0.744 OA
ENDBRANCH  79  80
ENDBRANCH  58  72
BRANCH  59  84
ATOM     84  C   UNL A   1      37.065  32.646  30.639  1.00  0.00     0.058 A 
ATOM     85  C   UNL A   1      35.741  32.330  31.010  1.00  0.00     0.135 A 
ATOM     86  C   UNL A   1      37.168  33.573  29.584  1.00  0.00     0.135 A 
ATOM     87  F   UNL A   1      35.511  31.478  32.018  1.00  0.00    -0.206 F 
ATOM     88  C   UNL A   1      34.611  32.909  30.429  1.00  0.00     0.059 A 
ATOM     89  C   UNL A   1      36.059  34.254  29.060  1.00  0.00     0.059 A 
ATOM     90  F   UNL A   1      38.367  33.872  29.058  1.00  0.00    -0.206 F 
ATOM     91  C   UNL A   1      34.783  33.937  29.516  1.00  0.00     0.060 A 
BRANCH  91  92
ATOM     92  S   UNL A   1      33.341  34.905  29.009  1.00  0.00     0.124 S 
ATOM     93  O   UNL A   1      32.576  35.006  30.248  1.00  0.00    -0.237 OA
ATOM     94  O   UNL A   1      33.963  36.142  28.548  1.00  0.00    -0.237 OA
ATOM     95  O   UNL A   1      32.738  34.083  27.966  1.00  0.00    -0.744 OA
ENDBRANCH  91  92
ENDBRANCH  59  84
BRANCH  71  96
ATOM     96  C   UNL A   1      40.020  34.155  36.793  1.00  0.00     0.058 A 
ATOM     97  C   UNL A   1      40.418  35.503  36.745  1.00  0.00     0.135 A 
ATOM     98  C   UNL A   1      39.220  33.756  37.876  1.00  0.00     0.135 A 
ATOM     99  F   UNL A   1      41.162  35.953  35.721  1.00  0.00    -0.206 F 
ATOM    100  C   UNL A   1      40.122  36.392  37.771  1.00  0.00     0.059 A 
ATOM    101  C   UNL A   1      38.865  34.644  38.890  1.00  0.00     0.059 A 
ATOM    102  F   UNL A   1      38.770  32.494  37.959  1.00  0.00    -0.206 F 
ATOM    103  C   UNL A   1      39.350  35.950  38.845  1.00  0.00     0.060 A 
BRANCH 103 104
ATOM    104  S   UNL A   1      38.984  37.114  40.174  1.00  0.00     0.124 S 
ATOM    105  O   UNL A   1      38.387  38.222  39.436  1.00  0.00    -0.237 OA
ATOM    106  O   UNL A   1      38.069  36.349  41.017  1.00  0.00    -0.237 OA
ATOM    107  O   UNL A   1      40.293  37.380  40.761  1.00  0.00    -0.744 OA
ENDBRANCH 103 104
ENDBRANCH  71  96
ENDBRANCH  45  46
ENDBRANCH  38  40
ENDBRANCH  37  38
ENDBRANCH  36  37
ENDBRANCH  35  36
ENDBRANCH  34  35
ENDBRANCH  33  34
ENDBRANCH   1  33
TORSDOF 24
ENDMDL
MODEL 3
REMARK VINA RESULT:      -9.7     11.040     16.733
REMARK SMILES CC(C)Cc1ccc(-c2cc(Cl)cc3c2O[C@H](C(F)(F)F)C(C(=O)OCCOCCOCCOC(=O)c2ccc(-c4c5nc(c(-c6c(F)cc(S(=O)(=O)[O-])cc6F)c6ccc([nH]6)c(-c6c(F)cc(S(=O)(=O)[O-])cc6F)c6nc(c(-c7c(F)cc(S(=O)(=O)[O-])cc7F)c7ccc4[nH]7)C=C6)C=C5)cc2)=C3)cc1
REMARK SMILES IDX 29 1 28 2 27 3 26 4 25 5 23 6 24 7 22 8 9 9 10 10 15 11
REMARK SMILES IDX 11 12 14 13 16 14 12 15 13 16 103 17 17 18 8 19 5 20 6 21
REMARK SMILES IDX 105 22 7 23 104 24 4 25 2 26 1 27 3 28 18 29 19 30 20 31
REMARK SMILES IDX 21 32 30 33 31 34 32 35 33 36 34 37 35 38 36 39 37 40 38 41
REMARK SMILES IDX 102 42 39 43 101 44 40 45 41 46 42 47 95 48 43 49 100 50
REMARK SMILES IDX 94 51 96 52 44 53 99 54 93 55 92 56 45 58 79 59 58 60 78 61
REMARK SMILES IDX 59 62 62 63 77 64 97 65 60 66 61 67 76 69 98 70 63 71 46 72
REMARK SMILES IDX 47 73 56 74 48 75 49 76 55 77 57 78 50 79 51 80 52 81 53 82
REMARK SMILES IDX 54 83 80 84 81 85 90 86 82 87 83 88 89 89 91 90 84 91 85 92
REMARK SMILES IDX 86 93 87 94 88 95 64 96 65 97 74 98 66 99 67 100 73 101
REMARK SMILES IDX 75 102 68 103 69 104 70 105 71 106 72 107
REMARK H PARENT 96 57 62 68
REMARK Flexibility Score: inf
ROOT
ATOM      1  C   UNL A   1      46.741  40.151  27.979  1.00  0.00     0.188 C 
ENDROOT
BRANCH   1   2
ATOM      2  O   UNL A   1      46.786  41.055  26.890  1.00  0.00    -0.376 OA
BRANCH   2   3
ATOM      3  C   UNL A   1      46.722  40.483  25.587  1.00  0.00     0.202 C 
BRANCH   3   4
ATOM      4  C   UNL A   1      46.288  41.424  24.449  1.00  0.00     0.261 C 
BRANCH   4   5
ATOM      5  O   UNL A   1      44.848  41.585  24.388  1.00  0.00    -0.460 OA
BRANCH   5   6
ATOM      6  C   UNL A   1      44.378  42.785  24.791  1.00  0.00     0.338 C 
ATOM      7  O   UNL A   1      44.438  43.203  25.939  1.00  0.00    -0.246 OA
BRANCH   6   8
ATOM      8  C   UNL A   1      43.903  43.618  23.653  1.00  0.00     0.087 C 
ATOM      9  C   UNL A   1      46.039  44.515  20.216  1.00  0.00     0.026 A 
ATOM     10  C   UNL A   1      47.401  44.353  20.554  1.00  0.00     0.033 A 
ATOM     11  C   UNL A   1      45.144  44.396  21.284  1.00  0.00     0.135 A 
ATOM     12  C   UNL A   1      47.851  44.315  21.874  1.00  0.00     0.042 A 
ATOM     13  C   UNL A   1      45.610  44.610  22.594  1.00  0.00     0.019 A 
ATOM     14  O   UNL A   1      43.821  43.981  21.166  1.00  0.00    -0.475 OA
ATOM     15  Cl  UNL A   1      49.518  44.094  22.219  1.00  0.00    -0.084 Cl
ATOM     16  C   UNL A   1      46.959  44.536  22.905  1.00  0.00     0.032 A 
ATOM     17  C   UNL A   1      44.584  44.775  23.645  1.00  0.00     0.027 C 
ATOM     18  C   UNL A   1      43.472  43.056  22.298  1.00  0.00     0.316 C 
BRANCH   9  19
ATOM     19  C   UNL A   1      45.797  45.265  18.948  1.00  0.00    -0.015 A 
ATOM     20  C   UNL A   1      45.640  47.565  17.246  1.00  0.00    -0.048 A 
ATOM     21  C   UNL A   1      46.763  46.732  17.223  1.00  0.00     0.004 A 
ATOM     22  C   UNL A   1      44.543  47.151  18.007  1.00  0.00     0.004 A 
ATOM     23  C   UNL A   1      46.834  45.601  18.057  1.00  0.00     0.009 A 
ATOM     24  C   UNL A   1      44.623  46.031  18.849  1.00  0.00     0.009 A 
BRANCH  20  25
ATOM     25  C   UNL A   1      45.667  48.890  16.502  1.00  0.00     0.038 C 
BRANCH  25  26
ATOM     26  C   UNL A   1      45.293  50.149  17.327  1.00  0.00    -0.013 C 
ATOM     27  C   UNL A   1      46.354  50.474  18.380  1.00  0.00     0.008 C 
ATOM     28  C   UNL A   1      45.042  51.347  16.401  1.00  0.00     0.008 C 
ENDBRANCH  25  26
ENDBRANCH  20  25
ENDBRANCH   9  19
BRANCH  18  29
ATOM     29  C   UNL A   1      41.980  42.713  22.337  1.00  0.00     0.430 C 
ATOM     30  F   UNL A   1      41.431  42.663  21.103  1.00  0.00    -0.167 F 
ATOM     31  F   UNL A   1      41.747  41.529  22.945  1.00  0.00    -0.167 F 
ATOM     32  F   UNL A   1      41.291  43.651  23.039  1.00  0.00    -0.167 F 
ENDBRANCH  18  29
ENDBRANCH   6   8
ENDBRANCH   5   6
ENDBRANCH   4   5
ENDBRANCH   3   4
ENDBRANCH   2   3
ENDBRANCH   1   2
BRANCH   1  33
ATOM     33  C   UNL A   1      46.314  40.788  29.320  1.00  0.00     0.188 C 
BRANCH  33  34
ATOM     34  O   UNL A   1      45.383  40.115  30.154  1.00  0.00    -0.376 OA
BRANCH  34  35
ATOM     35  C   UNL A   1      45.874  39.242  31.164  1.00  0.00     0.202 C 
BRANCH  35  36
ATOM     36  C   UNL A   1      45.648  37.724  31.042  1.00  0.00     0.261 C 
BRANCH  36  37
ATOM     37  O   UNL A   1      46.823  36.896  31.169  1.00  0.00    -0.460 OA
BRANCH  37  38
ATOM     38  C   UNL A   1      47.506  36.679  30.018  1.00  0.00     0.338 C 
ATOM     39  O   UNL A   1      48.191  37.496  29.416  1.00  0.00    -0.246 OA
BRANCH  38  40
ATOM     40  C   UNL A   1      47.485  35.251  29.626  1.00  0.00     0.060 A 
ATOM     41  C   UNL A   1      47.272  34.948  28.276  1.00  0.00     0.016 A 
ATOM     42  C   UNL A   1      47.507  34.222  30.570  1.00  0.00     0.016 A 
ATOM     43  C   UNL A   1      47.013  33.631  27.881  1.00  0.00     0.010 A 
ATOM     44  C   UNL A   1      47.250  32.897  30.168  1.00  0.00     0.010 A 
ATOM     45  C   UNL A   1      46.964  32.593  28.824  1.00  0.00    -0.014 A 
BRANCH  45  46
ATOM     46  C   UNL A   1      46.340  31.285  28.438  1.00  0.00     0.031 A 
ATOM     47  C   UNL A   1      47.251  30.236  27.856  1.00  0.00     0.074 A 
ATOM     48  C   UNL A   1      45.023  31.025  28.585  1.00  0.00     0.049 A 
ATOM     49  N   UNL A   1      46.998  28.993  27.548  1.00  0.00    -0.248 NA
ATOM     50  C   UNL A   1      48.629  30.663  27.550  1.00  0.00     0.031 C 
ATOM     51  C   UNL A   1      44.048  31.992  29.056  1.00  0.00     0.029 A 
ATOM     52  N   UNL A   1      44.269  29.887  28.380  1.00  0.00    -0.354 N 
ATOM     53  C   UNL A   1      48.160  28.510  26.953  1.00  0.00     0.074 A 
ATOM     54  C   UNL A   1      49.127  29.583  26.970  1.00  0.00     0.031 C 
ATOM     55  C   UNL A   1      42.854  31.392  29.212  1.00  0.00     0.029 A 
ATOM     56  C   UNL A   1      42.931  30.014  28.731  1.00  0.00     0.049 A 
ATOM     57  H   UNL A   1      44.648  29.054  28.015  1.00  0.00     0.167 HD
ATOM     58  C   UNL A   1      48.385  27.289  26.413  1.00  0.00     0.037 A 
ATOM     59  C   UNL A   1      41.908  29.121  28.658  1.00  0.00     0.037 A 
ATOM     60  C   UNL A   1      47.418  26.226  26.422  1.00  0.00     0.049 A 
ATOM     61  C   UNL A   1      42.278  27.725  28.155  1.00  0.00     0.074 A 
ATOM     62  C   UNL A   1      47.540  24.943  25.918  1.00  0.00     0.029 A 
ATOM     63  N   UNL A   1      46.142  26.328  26.956  1.00  0.00    -0.354 N 
ATOM     64  N   UNL A   1      43.467  27.208  27.924  1.00  0.00    -0.248 NA
ATOM     65  C   UNL A   1      41.181  26.770  27.950  1.00  0.00     0.031 C 
ATOM     66  C   UNL A   1      46.321  24.284  26.106  1.00  0.00     0.029 A 
ATOM     67  C   UNL A   1      45.453  25.144  26.762  1.00  0.00     0.049 A 
ATOM     68  H   UNL A   1      45.779  27.124  27.408  1.00  0.00     0.167 HD
ATOM     69  C   UNL A   1      43.246  25.859  27.641  1.00  0.00     0.074 A 
ATOM     70  C   UNL A   1      41.838  25.624  27.867  1.00  0.00     0.031 C 
ATOM     71  C   UNL A   1      44.087  24.909  27.151  1.00  0.00     0.037 A 
BRANCH  58  72
ATOM     72  C   UNL A   1      49.696  27.062  25.712  1.00  0.00     0.058 A 
ATOM     73  C   UNL A   1      49.889  27.378  24.359  1.00  0.00     0.135 A 
ATOM     74  C   UNL A   1      50.788  26.539  26.424  1.00  0.00     0.135 A 
ATOM     75  F   UNL A   1      48.872  27.856  23.624  1.00  0.00    -0.206 F 
ATOM     76  C   UNL A   1      51.113  27.166  23.732  1.00  0.00     0.059 A 
ATOM     77  C   UNL A   1      52.029  26.345  25.825  1.00  0.00     0.059 A 
ATOM     78  F   UNL A   1      50.657  26.210  27.719  1.00  0.00    -0.206 F 
ATOM     79  C   UNL A   1      52.178  26.652  24.474  1.00  0.00     0.060 A 
BRANCH  79  80
ATOM     80  S   UNL A   1      53.766  26.402  23.651  1.00  0.00     0.124 S 
ATOM     81  O   UNL A   1      54.419  25.462  24.556  1.00  0.00    -0.237 OA
ATOM     82  O   UNL A   1      53.362  25.860  22.357  1.00  0.00    -0.237 OA
ATOM     83  O   UNL A   1      54.345  27.741  23.613  1.00  0.00    -0.744 OA
ENDBRANCH  79  80
ENDBRANCH  58  72
BRANCH  59  84
ATOM     84  C   UNL A   1      40.493  29.428  29.143  1.00  0.00     0.058 A 
ATOM     85  C   UNL A   1      40.181  29.480  30.519  1.00  0.00     0.135 A 
ATOM     86  C   UNL A   1      39.414  29.722  28.290  1.00  0.00     0.135 A 
ATOM     87  F   UNL A   1      41.131  29.243  31.432  1.00  0.00    -0.206 F 
ATOM     88  C   UNL A   1      38.927  29.838  31.018  1.00  0.00     0.059 A 
ATOM     89  C   UNL A   1      38.179  30.194  28.762  1.00  0.00     0.059 A 
ATOM     90  F   UNL A   1      39.545  29.595  26.960  1.00  0.00    -0.206 F 
ATOM     91  C   UNL A   1      37.958  30.280  30.132  1.00  0.00     0.060 A 
BRANCH  91  92
ATOM     92  S   UNL A   1      36.459  31.047  30.792  1.00  0.00     0.124 S 
ATOM     93  O   UNL A   1      36.327  30.413  32.099  1.00  0.00    -0.237 OA
ATOM     94  O   UNL A   1      36.832  32.459  30.808  1.00  0.00    -0.237 OA
ATOM     95  O   UNL A   1      35.439  30.684  29.814  1.00  0.00    -0.744 OA
ENDBRANCH  91  92
ENDBRANCH  59  84
BRANCH  71  96
ATOM     96  C   UNL A   1      43.516  23.529  26.916  1.00  0.00     0.058 A 
ATOM     97  C   UNL A   1      43.236  22.659  27.986  1.00  0.00     0.135 A 
ATOM     98  C   UNL A   1      43.229  23.073  25.619  1.00  0.00     0.135 A 
ATOM     99  F   UNL A   1      43.464  23.047  29.251  1.00  0.00    -0.206 F 
ATOM    100  C   UNL A   1      42.787  21.362  27.776  1.00  0.00     0.059 A 
ATOM    101  C   UNL A   1      42.726  21.794  25.389  1.00  0.00     0.059 A 
ATOM    102  F   UNL A   1      43.432  23.869  24.559  1.00  0.00    -0.206 F 
ATOM    103  C   UNL A   1      42.541  20.934  26.472  1.00  0.00     0.060 A 
BRANCH 103 104
ATOM    104  S   UNL A   1      41.968  19.243  26.216  1.00  0.00     0.124 S 
ATOM    105  O   UNL A   1      42.785  18.826  25.081  1.00  0.00    -0.237 OA
ATOM    106  O   UNL A   1      42.286  18.607  27.492  1.00  0.00    -0.237 OA
ATOM    107  O   UNL A   1      40.545  19.406  25.941  1.00  0.00    -0.744 OA
ENDBRANCH 103 104
ENDBRANCH  71  96
ENDBRANCH  45  46
ENDBRANCH  38  40
ENDBRANCH  37  38
ENDBRANCH  36  37
ENDBRANCH  35  36
ENDBRANCH  34  35
ENDBRANCH  33  34
ENDBRANCH   1  33
TORSDOF 24
ENDMDL
