MODEL 1
REMARK VINA RESULT:     -10.3      0.000      0.000
REMARK SMILES COc1cccc(CC2(CO)CCN(c3nc(C)ccc3C(=O)OCCOCCOCCOC(=O)c3ccc(-c4c5nc(c(-c6c(F)cc(S(=O)(=O)[O-])cc6F)c6ccc([nH]6)c(-c6c(F)cc(S(=O)(=O)[O-])cc6F)c6nc(c(-c7c(F)cc(S(=O)(=O)[O-])cc7F)c7ccc4[nH]7)C=C6)C=C5)cc3)CC2)c1
REMARK SMILES IDX 28 1 27 2 26 3 25 4 24 5 22 6 23 7 21 8 15 9 16 10 17 11
REMARK SMILES IDX 20 12 18 13 19 14 14 15 9 16 12 17 103 18 13 19 102 20 8 21
REMARK SMILES IDX 7 22 3 23 4 24 104 25 5 26 6 27 2 28 1 29 10 30 11 31 29 33
REMARK SMILES IDX 30 34 31 35 32 36 33 37 34 38 35 39 36 40 37 41 101 42 38 43
REMARK SMILES IDX 100 44 39 45 40 46 41 47 94 48 42 49 99 50 93 51 95 52 43 53
REMARK SMILES IDX 98 54 92 55 91 56 44 58 78 59 57 60 77 61 58 62 61 63 76 64
REMARK SMILES IDX 96 65 59 66 60 67 75 69 97 70 62 71 45 72 46 73 55 74 47 75
REMARK SMILES IDX 48 76 54 77 56 78 49 79 50 80 51 81 52 82 53 83 79 84 80 85
REMARK SMILES IDX 89 86 81 87 82 88 88 89 90 90 83 91 84 92 85 93 86 94 87 95
REMARK SMILES IDX 63 96 64 97 73 98 65 99 66 100 72 101 74 102 67 103 68 104
REMARK SMILES IDX 69 105 70 106 71 107
REMARK H PARENT 11 32 95 57 61 68
REMARK Flexibility Score: inf
ROOT
ATOM      1  C   UNL A   1      38.620  21.996  25.615  1.00  0.00     0.188 C 
ENDROOT
BRANCH   1   2
ATOM      2  O   UNL A   1      37.958  23.243  25.466  1.00  0.00    -0.376 OA
BRANCH   2   3
ATOM      3  C   UNL A   1      36.710  23.341  26.127  1.00  0.00     0.202 C 
BRANCH   3   4
ATOM      4  C   UNL A   1      35.578  23.955  25.296  1.00  0.00     0.261 C 
BRANCH   4   5
ATOM      5  O   UNL A   1      34.293  24.002  25.947  1.00  0.00    -0.460 OA
BRANCH   5   6
ATOM      6  C   UNL A   1      33.838  22.890  26.569  1.00  0.00     0.341 C 
ATOM      7  O   UNL A   1      33.798  22.723  27.787  1.00  0.00    -0.246 OA
BRANCH   6   8
ATOM      8  C   UNL A   1      33.468  21.872  25.557  1.00  0.00     0.102 A 
ATOM      9  C   UNL A   1      32.271  21.927  24.840  1.00  0.00     0.143 A 
ATOM     10  N   UNL A   1      31.873  20.900  24.051  1.00  0.00    -0.235 NA
ATOM     11  C   UNL A   1      32.666  19.822  23.905  1.00  0.00     0.040 A 
ATOM     12  C   UNL A   1      34.303  20.763  25.367  1.00  0.00     0.021 A 
ATOM     13  C   UNL A   1      32.120  18.740  23.027  1.00  0.00     0.067 C 
ATOM     14  C   UNL A   1      33.903  19.730  24.520  1.00  0.00     0.024 A 
BRANCH   9  15
ATOM     15  N   UNL A   1      31.450  23.016  24.766  1.00  0.00    -0.356 N 
ATOM     16  C   UNL A   1      30.537  25.769  24.900  1.00  0.00     0.001 C 
ATOM     17  C   UNL A   1      31.316  25.212  23.681  1.00  0.00     0.031 C 
ATOM     18  C   UNL A   1      30.790  24.902  26.149  1.00  0.00     0.031 C 
ATOM     19  C   UNL A   1      31.321  23.698  23.500  1.00  0.00     0.119 C 
ATOM     20  C   UNL A   1      30.674  23.410  25.909  1.00  0.00     0.119 C 
BRANCH  16  21
ATOM     21  C   UNL A   1      29.004  25.965  24.617  1.00  0.00     0.045 C 
BRANCH  21  22
ATOM     22  C   UNL A   1      28.529  27.129  23.780  1.00  0.00    -0.044 A 
ATOM     23  C   UNL A   1      28.982  29.020  22.324  1.00  0.00     0.119 A 
ATOM     24  C   UNL A   1      27.673  29.463  22.495  1.00  0.00     0.046 A 
ATOM     25  C   UNL A   1      29.418  27.860  22.966  1.00  0.00     0.050 A 
ATOM     26  C   UNL A   1      26.770  28.697  23.225  1.00  0.00     0.004 A 
ATOM     27  C   UNL A   1      27.188  27.516  23.832  1.00  0.00     0.004 A 
BRANCH  23  28
ATOM     28  O   UNL A   1      29.824  29.845  21.630  1.00  0.00    -0.497 OA
ATOM     29  C   UNL A   1      29.177  31.018  21.149  1.00  0.00     0.278 C 
ENDBRANCH  23  28
ENDBRANCH  21  22
ENDBRANCH  16  21
BRANCH  16  30
ATOM     30  C   UNL A   1      31.161  27.162  25.211  1.00  0.00     0.163 C 
BRANCH  30  31
ATOM     31  O   UNL A   1      30.993  27.514  26.573  1.00  0.00    -0.396 OA
ATOM     32  H   UNL A   1      31.573  28.262  26.788  1.00  0.00     0.210 HD
ENDBRANCH  30  31
ENDBRANCH  16  30
ENDBRANCH   9  15
ENDBRANCH   6   8
ENDBRANCH   5   6
ENDBRANCH   4   5
ENDBRANCH   3   4
ENDBRANCH   2   3
ENDBRANCH   1   2
BRANCH   1  33
ATOM     33  C   UNL A   1      37.863  20.834  24.941  1.00  0.00     0.188 C 
BRANCH  33  34
ATOM     34  O   UNL A   1      38.440  19.535  24.863  1.00  0.00    -0.376 OA
BRANCH  34  35
ATOM     35  C   UNL A   1      39.333  19.112  25.876  1.00  0.00     0.202 C 
BRANCH  35  36
ATOM     36  C   UNL A   1      40.741  19.720  25.904  1.00  0.00     0.261 C 
BRANCH  36  37
ATOM     37  O   UNL A   1      41.800  18.911  25.366  1.00  0.00    -0.460 OA
BRANCH  37  38
ATOM     38  C   UNL A   1      43.044  19.224  25.813  1.00  0.00     0.338 C 
ATOM     39  O   UNL A   1      43.978  18.454  25.958  1.00  0.00    -0.246 OA
BRANCH  38  40
ATOM     40  C   UNL A   1      43.170  20.690  26.015  1.00  0.00     0.060 A 
ATOM     41  C   UNL A   1      43.421  21.492  24.897  1.00  0.00     0.016 A 
ATOM     42  C   UNL A   1      43.134  21.268  27.289  1.00  0.00     0.016 A 
ATOM     43  C   UNL A   1      43.672  22.860  25.058  1.00  0.00     0.010 A 
ATOM     44  C   UNL A   1      43.412  22.637  27.450  1.00  0.00     0.010 A 
ATOM     45  C   UNL A   1      43.706  23.442  26.340  1.00  0.00    -0.014 A 
BRANCH  45  46
ATOM     46  C   UNL A   1      44.223  24.836  26.484  1.00  0.00     0.031 A 
ATOM     47  C   UNL A   1      43.365  25.843  27.196  1.00  0.00     0.074 A 
ATOM     48  C   UNL A   1      45.431  25.223  26.027  1.00  0.00     0.049 A 
ATOM     49  N   UNL A   1      43.657  27.061  27.566  1.00  0.00    -0.248 NA
ATOM     50  C   UNL A   1      41.979  25.437  27.477  1.00  0.00     0.031 C 
ATOM     51  C   UNL A   1      46.311  24.401  25.213  1.00  0.00     0.029 A 
ATOM     52  N   UNL A   1      46.167  26.368  26.251  1.00  0.00    -0.354 N 
ATOM     53  C   UNL A   1      42.475  27.593  28.065  1.00  0.00     0.074 A 
ATOM     54  C   UNL A   1      41.477  26.547  27.999  1.00  0.00     0.031 C 
ATOM     55  C   UNL A   1      47.521  24.987  25.149  1.00  0.00     0.029 A 
ATOM     56  C   UNL A   1      47.498  26.241  25.890  1.00  0.00     0.049 A 
ATOM     57  H   UNL A   1      45.785  27.194  26.630  1.00  0.00     0.167 HD
ATOM     58  C   UNL A   1      42.232  28.858  28.481  1.00  0.00     0.037 A 
ATOM     59  C   UNL A   1      48.570  27.016  26.177  1.00  0.00     0.037 A 
ATOM     60  C   UNL A   1      43.214  29.909  28.490  1.00  0.00     0.049 A 
ATOM     61  C   UNL A   1      48.313  28.365  26.804  1.00  0.00     0.074 A 
ATOM     62  C   UNL A   1      43.043  31.246  28.801  1.00  0.00     0.029 A 
ATOM     63  N   UNL A   1      44.554  29.744  28.168  1.00  0.00    -0.354 N 
ATOM     64  N   UNL A   1      47.191  28.859  27.269  1.00  0.00    -0.248 NA
ATOM     65  C   UNL A   1      49.451  29.297  26.871  1.00  0.00     0.031 C 
ATOM     66  C   UNL A   1      44.271  31.897  28.636  1.00  0.00     0.029 A 
ATOM     67  C   UNL A   1      45.220  30.952  28.278  1.00  0.00     0.049 A 
ATOM     68  H   UNL A   1      44.969  28.891  27.902  1.00  0.00     0.167 HD
ATOM     69  C   UNL A   1      47.480  30.168  27.643  1.00  0.00     0.074 A 
ATOM     70  C   UNL A   1      48.898  30.363  27.433  1.00  0.00     0.031 C 
ATOM     71  C   UNL A   1      46.634  31.136  28.070  1.00  0.00     0.037 A 
BRANCH  58  72
ATOM     72  C   UNL A   1      40.819  29.184  28.865  1.00  0.00     0.058 A 
ATOM     73  C   UNL A   1      40.408  29.234  30.205  1.00  0.00     0.135 A 
ATOM     74  C   UNL A   1      39.858  29.431  27.870  1.00  0.00     0.135 A 
ATOM     75  F   UNL A   1      41.280  28.969  31.190  1.00  0.00    -0.206 F 
ATOM     76  C   UNL A   1      39.086  29.494  30.546  1.00  0.00     0.059 A 
ATOM     77  C   UNL A   1      38.538  29.723  28.190  1.00  0.00     0.059 A 
ATOM     78  F   UNL A   1      40.198  29.379  26.573  1.00  0.00    -0.206 F 
ATOM     79  C   UNL A   1      38.157  29.737  29.531  1.00  0.00     0.060 A 
BRANCH  79  80
ATOM     80  S   UNL A   1      36.445  30.072  29.990  1.00  0.00     0.124 S 
ATOM     81  O   UNL A   1      36.268  29.175  31.128  1.00  0.00    -0.237 OA
ATOM     82  O   UNL A   1      36.482  31.497  30.305  1.00  0.00    -0.237 OA
ATOM     83  O   UNL A   1      35.695  29.718  28.789  1.00  0.00    -0.744 OA
ENDBRANCH  79  80
ENDBRANCH  58  72
BRANCH  59  84
ATOM     84  C   UNL A   1      49.984  26.583  25.914  1.00  0.00     0.058 A 
ATOM     85  C   UNL A   1      50.692  25.842  26.884  1.00  0.00     0.135 A 
ATOM     86  C   UNL A   1      50.692  26.935  24.755  1.00  0.00     0.135 A 
ATOM     87  F   UNL A   1      50.089  25.484  28.030  1.00  0.00    -0.206 F 
ATOM     88  C   UNL A   1      52.038  25.506  26.733  1.00  0.00     0.059 A 
ATOM     89  C   UNL A   1      52.025  26.571  24.560  1.00  0.00     0.059 A 
ATOM     90  F   UNL A   1      50.096  27.657  23.794  1.00  0.00    -0.206 F 
ATOM     91  C   UNL A   1      52.698  25.880  25.566  1.00  0.00     0.060 A 
BRANCH  91  92
ATOM     92  S   UNL A   1      54.443  25.448  25.368  1.00  0.00     0.124 S 
ATOM     93  O   UNL A   1      54.681  25.816  23.978  1.00  0.00    -0.237 OA
ATOM     94  O   UNL A   1      55.092  26.287  26.371  1.00  0.00    -0.237 OA
ATOM     95  O   UNL A   1      54.466  24.016  25.654  1.00  0.00    -0.744 OA
ENDBRANCH  91  92
ENDBRANCH  59  84
BRANCH  71  96
ATOM     96  C   UNL A   1      47.209  32.502  28.324  1.00  0.00     0.058 A 
ATOM     97  C   UNL A   1      47.757  32.848  29.571  1.00  0.00     0.135 A 
ATOM     98  C   UNL A   1      47.272  33.453  27.294  1.00  0.00     0.135 A 
ATOM     99  F   UNL A   1      47.722  31.976  30.591  1.00  0.00    -0.206 F 
ATOM    100  C   UNL A   1      48.328  34.097  29.793  1.00  0.00     0.059 A 
ATOM    101  C   UNL A   1      47.863  34.698  27.487  1.00  0.00     0.059 A 
ATOM    102  F   UNL A   1      46.774  33.170  26.080  1.00  0.00    -0.206 F 
ATOM    103  C   UNL A   1      48.379  35.015  28.743  1.00  0.00     0.060 A 
BRANCH 103 104
ATOM    104  S   UNL A   1      49.160  36.616  29.034  1.00  0.00     0.124 S 
ATOM    105  O   UNL A   1      50.416  36.468  28.305  1.00  0.00    -0.237 OA
ATOM    106  O   UNL A   1      48.195  37.545  28.453  1.00  0.00    -0.237 OA
ATOM    107  O   UNL A   1      49.281  36.676  30.488  1.00  0.00    -0.744 OA
ENDBRANCH 103 104
ENDBRANCH  71  96
ENDBRANCH  45  46
ENDBRANCH  38  40
ENDBRANCH  37  38
ENDBRANCH  36  37
ENDBRANCH  35  36
ENDBRANCH  34  35
ENDBRANCH  33  34
ENDBRANCH   1  33
TORSDOF 26
ENDMDL
MODEL 2
REMARK VINA RESULT:     -10.2      3.492      4.042
REMARK SMILES COc1cccc(CC2(CO)CCN(c3nc(C)ccc3C(=O)OCCOCCOCCOC(=O)c3ccc(-c4c5nc(c(-c6c(F)cc(S(=O)(=O)[O-])cc6F)c6ccc([nH]6)c(-c6c(F)cc(S(=O)(=O)[O-])cc6F)c6nc(c(-c7c(F)cc(S(=O)(=O)[O-])cc7F)c7ccc4[nH]7)C=C6)C=C5)cc3)CC2)c1
REMARK SMILES IDX 28 1 27 2 26 3 25 4 24 5 22 6 23 7 21 8 15 9 16 10 17 11
REMARK SMILES IDX 20 12 18 13 19 14 14 15 9 16 12 17 103 18 13 19 102 20 8 21
REMARK SMILES IDX 7 22 3 23 4 24 104 25 5 26 6 27 2 28 1 29 10 30 11 31 29 33
REMARK SMILES IDX 30 34 31 35 32 36 33 37 34 38 35 39 36 40 37 41 101 42 38 43
REMARK SMILES IDX 100 44 39 45 40 46 41 47 94 48 42 49 99 50 93 51 95 52 43 53
REMARK SMILES IDX 98 54 92 55 91 56 44 58 78 59 57 60 77 61 58 62 61 63 76 64
REMARK SMILES IDX 96 65 59 66 60 67 75 69 97 70 62 71 45 72 46 73 55 74 47 75
REMARK SMILES IDX 48 76 54 77 56 78 49 79 50 80 51 81 52 82 53 83 79 84 80 85
REMARK SMILES IDX 89 86 81 87 82 88 88 89 90 90 83 91 84 92 85 93 86 94 87 95
REMARK SMILES IDX 63 96 64 97 73 98 65 99 66 100 72 101 74 102 67 103 68 104
REMARK SMILES IDX 69 105 70 106 71 107
REMARK H PARENT 11 32 95 57 61 68
REMARK Flexibility Score: inf
ROOT
ATOM      1  C   UNL A   1      38.461  22.204  25.657  1.00  0.00     0.188 C 
ENDROOT
BRANCH   1   2
ATOM      2  O   UNL A   1      37.870  23.492  25.571  1.00  0.00    -0.376 OA
BRANCH   2   3
ATOM      3  C   UNL A   1      36.652  23.640  26.276  1.00  0.00     0.202 C 
BRANCH   3   4
ATOM      4  C   UNL A   1      35.459  24.095  25.428  1.00  0.00     0.261 C 
BRANCH   4   5
ATOM      5  O   UNL A   1      34.175  24.005  26.076  1.00  0.00    -0.460 OA
BRANCH   5   6
ATOM      6  C   UNL A   1      33.848  22.859  26.716  1.00  0.00     0.341 C 
ATOM      7  O   UNL A   1      33.874  22.693  27.935  1.00  0.00    -0.246 OA
BRANCH   6   8
ATOM      8  C   UNL A   1      33.532  21.808  25.720  1.00  0.00     0.102 A 
ATOM      9  C   UNL A   1      32.355  21.817  24.968  1.00  0.00     0.143 A 
ATOM     10  N   UNL A   1      32.004  20.762  24.194  1.00  0.00    -0.235 NA
ATOM     11  C   UNL A   1      32.825  19.699  24.098  1.00  0.00     0.040 A 
ATOM     12  C   UNL A   1      34.397  20.714  25.582  1.00  0.00     0.021 A 
ATOM     13  C   UNL A   1      32.330  18.583  23.232  1.00  0.00     0.067 C 
ATOM     14  C   UNL A   1      34.045  19.651  24.750  1.00  0.00     0.024 A 
BRANCH   9  15
ATOM     15  N   UNL A   1      31.512  22.884  24.842  1.00  0.00    -0.356 N 
ATOM     16  C   UNL A   1      30.506  25.605  24.960  1.00  0.00     0.001 C 
ATOM     17  C   UNL A   1      31.417  25.107  23.810  1.00  0.00     0.031 C 
ATOM     18  C   UNL A   1      30.662  24.709  26.204  1.00  0.00     0.031 C 
ATOM     19  C   UNL A   1      31.487  23.601  23.589  1.00  0.00     0.119 C 
ATOM     20  C   UNL A   1      30.616  23.222  25.913  1.00  0.00     0.119 C 
BRANCH  16  21
ATOM     21  C   UNL A   1      29.003  25.767  24.533  1.00  0.00     0.045 C 
BRANCH  21  22
ATOM     22  C   UNL A   1      28.555  26.999  23.782  1.00  0.00    -0.044 A 
ATOM     23  C   UNL A   1      29.047  28.954  22.429  1.00  0.00     0.119 A 
ATOM     24  C   UNL A   1      27.765  29.441  22.668  1.00  0.00     0.046 A 
ATOM     25  C   UNL A   1      29.451  27.740  22.985  1.00  0.00     0.050 A 
ATOM     26  C   UNL A   1      26.851  28.672  23.381  1.00  0.00     0.004 A 
ATOM     27  C   UNL A   1      27.235  27.439  23.902  1.00  0.00     0.004 A 
BRANCH  23  28
ATOM     28  O   UNL A   1      29.904  29.784  21.757  1.00  0.00    -0.497 OA
ATOM     29  C   UNL A   1      29.279  30.984  21.315  1.00  0.00     0.278 C 
ENDBRANCH  23  28
ENDBRANCH  21  22
ENDBRANCH  16  21
BRANCH  16  30
ATOM     30  C   UNL A   1      31.053  27.006  25.369  1.00  0.00     0.163 C 
BRANCH  30  31
ATOM     31  O   UNL A   1      31.037  27.179  26.775  1.00  0.00    -0.396 OA
ATOM     32  H   UNL A   1      31.578  27.948  27.012  1.00  0.00     0.210 HD
ENDBRANCH  30  31
ENDBRANCH  16  30
ENDBRANCH   9  15
ENDBRANCH   6   8
ENDBRANCH   5   6
ENDBRANCH   4   5
ENDBRANCH   3   4
ENDBRANCH   2   3
ENDBRANCH   1   2
BRANCH   1  33
ATOM     33  C   UNL A   1      37.643  21.121  24.927  1.00  0.00     0.188 C 
BRANCH  33  34
ATOM     34  O   UNL A   1      38.161  19.807  24.755  1.00  0.00    -0.376 OA
BRANCH  34  35
ATOM     35  C   UNL A   1      39.026  19.269  25.738  1.00  0.00     0.202 C 
BRANCH  35  36
ATOM     36  C   UNL A   1      40.387  19.944  25.956  1.00  0.00     0.261 C 
BRANCH  36  37
ATOM     37  O   UNL A   1      41.523  19.305  25.353  1.00  0.00    -0.460 OA
BRANCH  37  38
ATOM     38  C   UNL A   1      42.730  19.763  25.776  1.00  0.00     0.338 C 
ATOM     39  O   UNL A   1      43.811  19.231  25.595  1.00  0.00    -0.246 OA
BRANCH  38  40
ATOM     40  C   UNL A   1      42.583  21.092  26.422  1.00  0.00     0.060 A 
ATOM     41  C   UNL A   1      42.818  22.233  25.648  1.00  0.00     0.016 A 
ATOM     42  C   UNL A   1      42.310  21.225  27.789  1.00  0.00     0.016 A 
ATOM     43  C   UNL A   1      42.815  23.499  26.246  1.00  0.00     0.010 A 
ATOM     44  C   UNL A   1      42.334  22.495  28.391  1.00  0.00     0.010 A 
ATOM     45  C   UNL A   1      42.609  23.642  27.631  1.00  0.00    -0.014 A 
BRANCH  45  46
ATOM     46  C   UNL A   1      42.864  24.971  28.264  1.00  0.00     0.031 A 
ATOM     47  C   UNL A   1      41.697  25.891  28.482  1.00  0.00     0.074 A 
ATOM     48  C   UNL A   1      44.087  25.370  28.668  1.00  0.00     0.049 A 
ATOM     49  N   UNL A   1      41.648  27.021  29.135  1.00  0.00    -0.248 NA
ATOM     50  C   UNL A   1      40.434  25.509  27.831  1.00  0.00     0.031 C 
ATOM     51  C   UNL A   1      45.322  24.648  28.410  1.00  0.00     0.029 A 
ATOM     52  N   UNL A   1      44.487  26.431  29.454  1.00  0.00    -0.354 N 
ATOM     53  C   UNL A   1      40.370  27.521  28.921  1.00  0.00     0.074 A 
ATOM     54  C   UNL A   1      39.660  26.545  28.122  1.00  0.00     0.031 C 
ATOM     55  C   UNL A   1      46.304  25.181  29.158  1.00  0.00     0.029 A 
ATOM     56  C   UNL A   1      45.782  26.303  29.927  1.00  0.00     0.049 A 
ATOM     57  H   UNL A   1      43.910  27.203  29.658  1.00  0.00     0.167 HD
ATOM     58  C   UNL A   1      39.859  28.714  29.304  1.00  0.00     0.037 A 
ATOM     59  C   UNL A   1      46.438  26.973  30.903  1.00  0.00     0.037 A 
ATOM     60  C   UNL A   1      40.589  29.706  30.048  1.00  0.00     0.049 A 
ATOM     61  C   UNL A   1      45.787  28.216  31.459  1.00  0.00     0.074 A 
ATOM     62  C   UNL A   1      40.193  30.984  30.401  1.00  0.00     0.029 A 
ATOM     63  N   UNL A   1      41.870  29.532  30.552  1.00  0.00    -0.354 N 
ATOM     64  N   UNL A   1      44.579  28.682  31.247  1.00  0.00    -0.248 NA
ATOM     65  C   UNL A   1      46.615  29.074  32.322  1.00  0.00     0.031 C 
ATOM     66  C   UNL A   1      41.246  31.596  31.090  1.00  0.00     0.029 A 
ATOM     67  C   UNL A   1      42.277  30.677  31.216  1.00  0.00     0.049 A 
ATOM     68  H   UNL A   1      42.410  28.715  30.453  1.00  0.00     0.167 HD
ATOM     69  C   UNL A   1      44.521  29.901  31.915  1.00  0.00     0.074 A 
ATOM     70  C   UNL A   1      45.780  30.062  32.609  1.00  0.00     0.031 C 
ATOM     71  C   UNL A   1      43.532  30.828  31.908  1.00  0.00     0.037 A 
BRANCH  58  72
ATOM     72  C   UNL A   1      38.473  29.040  28.831  1.00  0.00     0.058 A 
ATOM     73  C   UNL A   1      37.357  28.922  29.671  1.00  0.00     0.135 A 
ATOM     74  C   UNL A   1      38.260  29.458  27.506  1.00  0.00     0.135 A 
ATOM     75  F   UNL A   1      37.503  28.491  30.934  1.00  0.00    -0.206 F 
ATOM     76  C   UNL A   1      36.072  29.184  29.208  1.00  0.00     0.059 A 
ATOM     77  C   UNL A   1      36.989  29.754  27.031  1.00  0.00     0.059 A 
ATOM     78  F   UNL A   1      39.295  29.571  26.659  1.00  0.00    -0.206 F 
ATOM     79  C   UNL A   1      35.898  29.599  27.886  1.00  0.00     0.060 A 
BRANCH  79  80
ATOM     80  S   UNL A   1      34.226  29.936  27.300  1.00  0.00     0.124 S 
ATOM     81  O   UNL A   1      33.448  28.971  28.072  1.00  0.00    -0.237 OA
ATOM     82  O   UNL A   1      34.043  31.336  27.668  1.00  0.00    -0.237 OA
ATOM     83  O   UNL A   1      34.307  29.672  25.868  1.00  0.00    -0.744 OA
ENDBRANCH  79  80
ENDBRANCH  58  72
BRANCH  59  84
ATOM     84  C   UNL A   1      47.760  26.523  31.456  1.00  0.00     0.058 A 
ATOM     85  C   UNL A   1      47.810  25.751  32.636  1.00  0.00     0.135 A 
ATOM     86  C   UNL A   1      48.992  26.888  30.893  1.00  0.00     0.135 A 
ATOM     87  F   UNL A   1      46.673  25.380  33.247  1.00  0.00    -0.206 F 
ATOM     88  C   UNL A   1      49.014  25.397  33.248  1.00  0.00     0.059 A 
ATOM     89  C   UNL A   1      50.209  26.507  31.460  1.00  0.00     0.059 A 
ATOM     90  F   UNL A   1      49.030  27.639  29.781  1.00  0.00    -0.206 F 
ATOM     91  C   UNL A   1      50.211  25.784  32.652  1.00  0.00     0.060 A 
BRANCH  91  92
ATOM     92  S   UNL A   1      51.772  25.329  33.442  1.00  0.00     0.124 S 
ATOM     93  O   UNL A   1      51.391  25.297  34.849  1.00  0.00    -0.237 OA
ATOM     94  O   UNL A   1      52.070  24.037  32.832  1.00  0.00    -0.237 OA
ATOM     95  O   UNL A   1      52.669  26.415  33.056  1.00  0.00    -0.744 OA
ENDBRANCH  91  92
ENDBRANCH  59  84
BRANCH  71  96
ATOM     96  C   UNL A   1      43.772  32.109  32.657  1.00  0.00     0.058 A 
ATOM     97  C   UNL A   1      43.428  32.242  34.013  1.00  0.00     0.135 A 
ATOM     98  C   UNL A   1      44.409  33.192  32.033  1.00  0.00     0.135 A 
ATOM     99  F   UNL A   1      42.817  31.236  34.658  1.00  0.00    -0.206 F 
ATOM    100  C   UNL A   1      43.689  33.413  34.717  1.00  0.00     0.059 A 
ATOM    101  C   UNL A   1      44.704  34.363  32.726  1.00  0.00     0.059 A 
ATOM    102  F   UNL A   1      44.768  33.114  30.742  1.00  0.00    -0.206 F 
ATOM    103  C   UNL A   1      44.331  34.467  34.065  1.00  0.00     0.060 A 
BRANCH 103 104
ATOM    104  S   UNL A   1      44.701  35.965  35.004  1.00  0.00     0.124 S 
ATOM    105  O   UNL A   1      46.041  35.677  35.502  1.00  0.00    -0.237 OA
ATOM    106  O   UNL A   1      44.613  37.004  33.981  1.00  0.00    -0.237 OA
ATOM    107  O   UNL A   1      43.648  36.000  36.016  1.00  0.00    -0.744 OA
ENDBRANCH 103 104
ENDBRANCH  71  96
ENDBRANCH  45  46
ENDBRANCH  38  40
ENDBRANCH  37  38
ENDBRANCH  36  37
ENDBRANCH  35  36
ENDBRANCH  34  35
ENDBRANCH  33  34
ENDBRANCH   1  33
TORSDOF 26
ENDMDL
MODEL 3
REMARK VINA RESULT:     -10.1      6.061     11.289
REMARK SMILES COc1cccc(CC2(CO)CCN(c3nc(C)ccc3C(=O)OCCOCCOCCOC(=O)c3ccc(-c4c5nc(c(-c6c(F)cc(S(=O)(=O)[O-])cc6F)c6ccc([nH]6)c(-c6c(F)cc(S(=O)(=O)[O-])cc6F)c6nc(c(-c7c(F)cc(S(=O)(=O)[O-])cc7F)c7ccc4[nH]7)C=C6)C=C5)cc3)CC2)c1
REMARK SMILES IDX 28 1 27 2 26 3 25 4 24 5 22 6 23 7 21 8 15 9 16 10 17 11
REMARK SMILES IDX 20 12 18 13 19 14 14 15 9 16 12 17 103 18 13 19 102 20 8 21
REMARK SMILES IDX 7 22 3 23 4 24 104 25 5 26 6 27 2 28 1 29 10 30 11 31 29 33
REMARK SMILES IDX 30 34 31 35 32 36 33 37 34 38 35 39 36 40 37 41 101 42 38 43
REMARK SMILES IDX 100 44 39 45 40 46 41 47 94 48 42 49 99 50 93 51 95 52 43 53
REMARK SMILES IDX 98 54 92 55 91 56 44 58 78 59 57 60 77 61 58 62 61 63 76 64
REMARK SMILES IDX 96 65 59 66 60 67 75 69 97 70 62 71 45 72 46 73 55 74 47 75
REMARK SMILES IDX 48 76 54 77 56 78 49 79 50 80 51 81 52 82 53 83 79 84 80 85
REMARK SMILES IDX 89 86 81 87 82 88 88 89 90 90 83 91 84 92 85 93 86 94 87 95
REMARK SMILES IDX 63 96 64 97 73 98 65 99 66 100 72 101 74 102 67 103 68 104
REMARK SMILES IDX 69 105 70 106 71 107
REMARK H PARENT 11 32 95 57 61 68
REMARK Flexibility Score: inf
ROOT
ATOM      1  C   UNL A   1      38.430  29.146  27.433  1.00  0.00     0.188 C 
ENDROOT
BRANCH   1   2
ATOM      2  O   UNL A   1      37.385  29.559  28.301  1.00  0.00    -0.376 OA
BRANCH   2   3
ATOM      3  C   UNL A   1      36.224  30.042  27.651  1.00  0.00     0.202 C 
BRANCH   3   4
ATOM      4  C   UNL A   1      35.199  28.970  27.263  1.00  0.00     0.261 C 
BRANCH   4   5
ATOM      5  O   UNL A   1      33.989  29.467  26.661  1.00  0.00    -0.460 OA
BRANCH   5   6
ATOM      6  C   UNL A   1      32.829  28.811  26.894  1.00  0.00     0.341 C 
ATOM      7  O   UNL A   1      32.591  28.116  27.880  1.00  0.00    -0.246 OA
BRANCH   6   8
ATOM      8  C   UNL A   1      31.916  28.991  25.739  1.00  0.00     0.102 A 
ATOM      9  C   UNL A   1      31.706  27.994  24.785  1.00  0.00     0.143 A 
ATOM     10  N   UNL A   1      31.009  28.238  23.649  1.00  0.00    -0.235 NA
ATOM     11  C   UNL A   1      30.456  29.450  23.451  1.00  0.00     0.040 A 
ATOM     12  C   UNL A   1      31.304  30.237  25.540  1.00  0.00     0.021 A 
ATOM     13  C   UNL A   1      29.726  29.616  22.155  1.00  0.00     0.067 C 
ATOM     14  C   UNL A   1      30.554  30.465  24.387  1.00  0.00     0.024 A 
BRANCH   9  15
ATOM     15  N   UNL A   1      32.067  26.684  24.927  1.00  0.00    -0.356 N 
ATOM     16  C   UNL A   1      32.261  23.829  24.432  1.00  0.00     0.001 C 
ATOM     17  C   UNL A   1      33.122  24.864  23.665  1.00  0.00     0.031 C 
ATOM     18  C   UNL A   1      31.006  24.499  25.025  1.00  0.00     0.031 C 
ATOM     19  C   UNL A   1      33.293  26.234  24.313  1.00  0.00     0.119 C 
ATOM     20  C   UNL A   1      31.275  25.806  25.745  1.00  0.00     0.119 C 
BRANCH  16  21
ATOM     21  C   UNL A   1      33.072  23.031  25.515  1.00  0.00     0.045 C 
BRANCH  21  22
ATOM     22  C   UNL A   1      34.563  22.845  25.362  1.00  0.00    -0.044 A 
ATOM     23  C   UNL A   1      36.845  23.565  25.782  1.00  0.00     0.119 A 
ATOM     24  C   UNL A   1      37.302  22.678  24.811  1.00  0.00     0.046 A 
ATOM     25  C   UNL A   1      35.480  23.659  26.059  1.00  0.00     0.050 A 
ATOM     26  C   UNL A   1      36.410  21.812  24.185  1.00  0.00     0.004 A 
ATOM     27  C   UNL A   1      35.053  21.871  24.489  1.00  0.00     0.004 A 
BRANCH  23  28
ATOM     28  O   UNL A   1      37.772  24.414  26.324  1.00  0.00    -0.497 OA
ATOM     29  C   UNL A   1      38.952  23.744  26.750  1.00  0.00     0.278 C 
ENDBRANCH  23  28
ENDBRANCH  21  22
ENDBRANCH  16  21
BRANCH  16  30
ATOM     30  C   UNL A   1      31.744  22.821  23.363  1.00  0.00     0.163 C 
BRANCH  30  31
ATOM     31  O   UNL A   1      32.543  22.849  22.194  1.00  0.00    -0.396 OA
ATOM     32  H   UNL A   1      33.473  22.713  22.434  1.00  0.00     0.210 HD
ENDBRANCH  30  31
ENDBRANCH  16  30
ENDBRANCH   9  15
ENDBRANCH   6   8
ENDBRANCH   5   6
ENDBRANCH   4   5
ENDBRANCH   3   4
ENDBRANCH   2   3
ENDBRANCH   1   2
BRANCH   1  33
ATOM     33  C   UNL A   1      39.090  27.826  27.879  1.00  0.00     0.188 C 
BRANCH  33  34
ATOM     34  O   UNL A   1      40.468  27.577  27.625  1.00  0.00    -0.376 OA
BRANCH  34  35
ATOM     35  C   UNL A   1      40.884  27.258  26.310  1.00  0.00     0.202 C 
BRANCH  35  36
ATOM     36  C   UNL A   1      41.775  26.025  26.109  1.00  0.00     0.261 C 
BRANCH  36  37
ATOM     37  O   UNL A   1      43.189  26.264  26.022  1.00  0.00    -0.460 OA
BRANCH  37  38
ATOM     38  C   UNL A   1      43.920  25.761  27.050  1.00  0.00     0.338 C 
ATOM     39  O   UNL A   1      44.621  24.764  27.021  1.00  0.00    -0.246 OA
BRANCH  38  40
ATOM     40  C   UNL A   1      43.842  26.659  28.231  1.00  0.00     0.060 A 
ATOM     41  C   UNL A   1      43.374  26.127  29.436  1.00  0.00     0.016 A 
ATOM     42  C   UNL A   1      44.136  28.024  28.143  1.00  0.00     0.016 A 
ATOM     43  C   UNL A   1      43.165  26.964  30.538  1.00  0.00     0.010 A 
ATOM     44  C   UNL A   1      43.902  28.867  29.244  1.00  0.00     0.010 A 
ATOM     45  C   UNL A   1      43.392  28.350  30.444  1.00  0.00    -0.014 A 
BRANCH  45  46
ATOM     46  C   UNL A   1      42.920  29.234  31.553  1.00  0.00     0.031 A 
ATOM     47  C   UNL A   1      43.897  29.609  32.629  1.00  0.00     0.074 A 
ATOM     48  C   UNL A   1      41.667  29.728  31.615  1.00  0.00     0.049 A 
ATOM     49  N   UNL A   1      43.763  30.468  33.603  1.00  0.00    -0.248 NA
ATOM     50  C   UNL A   1      45.173  28.875  32.637  1.00  0.00     0.031 C 
ATOM     51  C   UNL A   1      40.583  29.354  30.722  1.00  0.00     0.029 A 
ATOM     52  N   UNL A   1      41.113  30.712  32.408  1.00  0.00    -0.354 N 
ATOM     53  C   UNL A   1      44.907  30.336  34.379  1.00  0.00     0.074 A 
ATOM     54  C   UNL A   1      45.747  29.350  33.733  1.00  0.00     0.031 C 
ATOM     55  C   UNL A   1      39.558  30.208  30.898  1.00  0.00     0.029 A 
ATOM     56  C   UNL A   1      39.895  31.172  31.936  1.00  0.00     0.049 A 
ATOM     57  H   UNL A   1      41.541  31.054  33.227  1.00  0.00     0.167 HD
ATOM     58  C   UNL A   1      45.198  30.936  35.557  1.00  0.00     0.037 A 
ATOM     59  C   UNL A   1      39.176  32.270  32.266  1.00  0.00     0.037 A 
ATOM     60  C   UNL A   1      44.332  31.871  36.225  1.00  0.00     0.049 A 
ATOM     61  C   UNL A   1      39.604  33.048  33.488  1.00  0.00     0.074 A 
ATOM     62  C   UNL A   1      44.492  32.460  37.466  1.00  0.00     0.029 A 
ATOM     63  N   UNL A   1      43.138  32.352  35.707  1.00  0.00    -0.354 N 
ATOM     64  N   UNL A   1      40.686  32.911  34.217  1.00  0.00    -0.248 NA
ATOM     65  C   UNL A   1      38.674  34.075  33.984  1.00  0.00     0.031 C 
ATOM     66  C   UNL A   1      43.380  33.272  37.714  1.00  0.00     0.029 A 
ATOM     67  C   UNL A   1      42.554  33.233  36.602  1.00  0.00     0.049 A 
ATOM     68  H   UNL A   1      42.761  32.104  34.831  1.00  0.00     0.167 HD
ATOM     69  C   UNL A   1      40.544  33.803  35.275  1.00  0.00     0.074 A 
ATOM     70  C   UNL A   1      39.317  34.535  35.047  1.00  0.00     0.031 C 
ATOM     71  C   UNL A   1      41.333  33.961  36.365  1.00  0.00     0.037 A 
BRANCH  58  72
ATOM     72  C   UNL A   1      46.467  30.513  36.236  1.00  0.00     0.058 A 
ATOM     73  C   UNL A   1      47.677  31.193  36.036  1.00  0.00     0.135 A 
ATOM     74  C   UNL A   1      46.472  29.395  37.087  1.00  0.00     0.135 A 
ATOM     75  F   UNL A   1      47.731  32.246  35.204  1.00  0.00    -0.206 F 
ATOM     76  C   UNL A   1      48.855  30.766  36.637  1.00  0.00     0.059 A 
ATOM     77  C   UNL A   1      47.632  28.967  37.721  1.00  0.00     0.059 A 
ATOM     78  F   UNL A   1      45.343  28.700  37.298  1.00  0.00    -0.206 F 
ATOM     79  C   UNL A   1      48.823  29.651  37.477  1.00  0.00     0.060 A 
BRANCH  79  80
ATOM     80  S   UNL A   1      50.360  29.108  38.249  1.00  0.00     0.124 S 
ATOM     81  O   UNL A   1      49.924  27.902  38.947  1.00  0.00    -0.237 OA
ATOM     82  O   UNL A   1      51.228  28.893  37.095  1.00  0.00    -0.237 OA
ATOM     83  O   UNL A   1      50.727  30.230  39.106  1.00  0.00    -0.744 OA
ENDBRANCH  79  80
ENDBRANCH  58  72
BRANCH  59  84
ATOM     84  C   UNL A   1      37.998  32.746  31.465  1.00  0.00     0.058 A 
ATOM     85  C   UNL A   1      36.688  32.389  31.847  1.00  0.00     0.135 A 
ATOM     86  C   UNL A   1      38.125  33.494  30.285  1.00  0.00     0.135 A 
ATOM     87  F   UNL A   1      36.486  31.655  32.954  1.00  0.00    -0.206 F 
ATOM     88  C   UNL A   1      35.569  32.717  31.080  1.00  0.00     0.059 A 
ATOM     89  C   UNL A   1      37.017  33.875  29.525  1.00  0.00     0.059 A 
ATOM     90  F   UNL A   1      39.339  33.857  29.843  1.00  0.00    -0.206 F 
ATOM     91  C   UNL A   1      35.746  33.459  29.916  1.00  0.00     0.060 A 
BRANCH  91  92
ATOM     92  S   UNL A   1      34.299  33.885  28.919  1.00  0.00     0.124 S 
ATOM     93  O   UNL A   1      34.018  32.619  28.253  1.00  0.00    -0.237 OA
ATOM     94  O   UNL A   1      33.330  34.303  29.929  1.00  0.00    -0.237 OA
ATOM     95  O   UNL A   1      34.792  34.956  28.057  1.00  0.00    -0.744 OA
ENDBRANCH  91  92
ENDBRANCH  59  84
BRANCH  71  96
ATOM     96  C   UNL A   1      40.892  34.950  37.408  1.00  0.00     0.058 A 
ATOM     97  C   UNL A   1      41.435  36.244  37.469  1.00  0.00     0.135 A 
ATOM     98  C   UNL A   1      39.872  34.623  38.314  1.00  0.00     0.135 A 
ATOM     99  F   UNL A   1      42.414  36.608  36.626  1.00  0.00    -0.206 F 
ATOM    100  C   UNL A   1      40.996  37.173  38.407  1.00  0.00     0.059 A 
ATOM    101  C   UNL A   1      39.399  35.546  39.243  1.00  0.00     0.059 A 
ATOM    102  F   UNL A   1      39.310  33.404  38.292  1.00  0.00    -0.206 F 
ATOM    103  C   UNL A   1      39.974  36.815  39.289  1.00  0.00     0.060 A 
BRANCH 103 104
ATOM    104  S   UNL A   1      39.386  38.044  40.472  1.00  0.00     0.124 S 
ATOM    105  O   UNL A   1      40.462  39.029  40.436  1.00  0.00    -0.237 OA
ATOM    106  O   UNL A   1      38.119  38.466  39.881  1.00  0.00    -0.237 OA
ATOM    107  O   UNL A   1      39.268  37.289  41.717  1.00  0.00    -0.744 OA
ENDBRANCH 103 104
ENDBRANCH  71  96
ENDBRANCH  45  46
ENDBRANCH  38  40
ENDBRANCH  37  38
ENDBRANCH  36  37
ENDBRANCH  35  36
ENDBRANCH  34  35
ENDBRANCH  33  34
ENDBRANCH   1  33
TORSDOF 26
ENDMDL
