MODEL 1
REMARK VINA RESULT:     -10.2      0.000      0.000
REMARK SMILES CC(=O)NS(=O)(=O)c1ccc(-c2ccn(C(F)F)c(=O)c2)cc1C(=O)OCCOCCOCCOC(=O)c1ccc(-c2c3nc(c(-c4c(F)cc(S(=O)(=O)[O-])cc4F)c4ccc([nH]4)c(-c4c(F)cc(S(=O)(=O)[O-])cc4F)c4nc(c(-c5c(F)cc(S(=O)(=O)[O-])cc5F)c5ccc2[nH]5)C=C4)C=C3)cc1
REMARK SMILES IDX 31 1 30 2 29 3 28 4 27 5 26 6 24 7 25 8 23 9 8 10 9 11 10 12
REMARK SMILES IDX 22 13 11 14 5 15 6 16 7 17 4 18 1 19 2 20 3 21 12 23 13 24
REMARK SMILES IDX 21 25 14 26 19 27 15 28 20 29 16 30 17 31 18 32 32 33 33 34
REMARK SMILES IDX 34 35 35 36 36 37 37 38 38 39 39 40 103 41 40 42 102 43
REMARK SMILES IDX 41 44 42 45 43 46 96 47 44 48 101 49 95 50 97 51 45 52
REMARK SMILES IDX 100 53 94 54 93 55 46 57 80 58 59 59 79 60 60 61 63 62 78 63
REMARK SMILES IDX 98 64 61 65 62 66 77 68 99 69 64 70 47 71 48 72 57 73 49 74
REMARK SMILES IDX 50 75 56 76 58 77 51 78 52 79 53 80 54 81 55 82 81 83 82 84
REMARK SMILES IDX 91 85 83 86 84 87 90 88 92 89 85 90 86 91 87 92 88 93 89 94
REMARK SMILES IDX 65 95 66 96 75 97 67 98 68 99 74 100 76 101 69 102 70 103
REMARK SMILES IDX 71 104 72 105 73 106
REMARK H PARENT 4 22 97 56 63 67
REMARK Flexibility Score: inf
ROOT
ATOM      1  C   UNL A   1      33.225  30.254  26.631  1.00  0.00     0.188 C 
ENDROOT
BRANCH   1   2
ATOM      2  C   UNL A   1      33.359  28.812  27.169  1.00  0.00     0.188 C 
BRANCH   2   3
ATOM      3  O   UNL A   1      32.228  28.377  27.893  1.00  0.00    -0.376 OA
BRANCH   3   4
ATOM      4  C   UNL A   1      31.214  27.680  27.193  1.00  0.00     0.202 C 
BRANCH   4   5
ATOM      5  C   UNL A   1      31.452  26.245  26.689  1.00  0.00     0.261 C 
BRANCH   5   6
ATOM      6  O   UNL A   1      31.832  26.109  25.311  1.00  0.00    -0.460 OA
BRANCH   6   7
ATOM      7  C   UNL A   1      32.924  25.381  25.035  1.00  0.00     0.339 C 
ATOM      8  O   UNL A   1      33.979  25.420  25.645  1.00  0.00    -0.246 OA
BRANCH   7   9
ATOM      9  C   UNL A   1      32.684  24.371  23.970  1.00  0.00     0.081 A 
ATOM     10  C   UNL A   1      32.676  24.634  22.593  1.00  0.00     0.102 A 
ATOM     11  C   UNL A   1      32.899  23.582  21.696  1.00  0.00     0.024 A 
ATOM     12  C   UNL A   1      32.901  22.262  22.139  1.00  0.00     0.010 A 
ATOM     13  C   UNL A   1      32.684  23.028  24.411  1.00  0.00     0.025 A 
ATOM     14  C   UNL A   1      32.747  21.969  23.497  1.00  0.00    -0.017 A 
BRANCH  10  15
ATOM     15  S   UNL A   1      32.255  26.209  21.908  1.00  0.00     0.264 S 
ATOM     16  O   UNL A   1      31.869  25.982  20.543  1.00  0.00    -0.201 OA
ATOM     17  O   UNL A   1      33.251  27.194  22.271  1.00  0.00    -0.201 OA
BRANCH  15  18
ATOM     18  N   UNL A   1      30.852  26.706  22.712  1.00  0.00    -0.249 N 
ATOM     19  C   UNL A   1      31.139  29.027  23.610  1.00  0.00     0.115 C 
ATOM     20  C   UNL A   1      30.377  28.041  22.764  1.00  0.00     0.230 C 
ATOM     21  O   UNL A   1      29.258  28.291  22.340  1.00  0.00    -0.274 OA
ATOM     22  H   UNL A   1      30.326  26.018  23.179  1.00  0.00     0.183 HD
ENDBRANCH  15  18
ENDBRANCH  10  15
BRANCH  14  23
ATOM     23  C   UNL A   1      32.753  20.563  23.939  1.00  0.00    -0.011 A 
ATOM     24  C   UNL A   1      32.893  20.134  25.320  1.00  0.00     0.027 A 
ATOM     25  C   UNL A   1      32.588  19.633  22.984  1.00  0.00     0.080 A 
ATOM     26  C   UNL A   1      32.872  18.830  25.629  1.00  0.00     0.095 A 
ATOM     27  C   UNL A   1      32.517  18.188  23.315  1.00  0.00     0.255 A 
ATOM     28  N   UNL A   1      32.699  17.867  24.648  1.00  0.00    -0.258 N 
ATOM     29  O   UNL A   1      32.286  17.402  22.402  1.00  0.00    -0.269 OA
BRANCH  28  30
ATOM     30  C   UNL A   1      32.690  16.464  24.979  1.00  0.00     0.451 C 
ATOM     31  F   UNL A   1      33.959  15.993  25.082  1.00  0.00    -0.185 F 
ATOM     32  F   UNL A   1      32.073  16.256  26.166  1.00  0.00    -0.185 F 
ENDBRANCH  28  30
ENDBRANCH  14  23
ENDBRANCH   7   9
ENDBRANCH   6   7
ENDBRANCH   5   6
ENDBRANCH   4   5
ENDBRANCH   3   4
ENDBRANCH   2   3
ENDBRANCH   1   2
BRANCH   1  33
ATOM     33  O   UNL A   1      33.312  31.392  27.477  1.00  0.00    -0.376 OA
BRANCH  33  34
ATOM     34  C   UNL A   1      34.565  31.835  27.963  1.00  0.00     0.202 C 
BRANCH  34  35
ATOM     35  C   UNL A   1      34.626  32.471  29.358  1.00  0.00     0.261 C 
BRANCH  35  36
ATOM     36  O   UNL A   1      35.138  31.628  30.401  1.00  0.00    -0.460 OA
BRANCH  36  37
ATOM     37  C   UNL A   1      36.224  32.114  31.055  1.00  0.00     0.338 C 
ATOM     38  O   UNL A   1      36.238  32.905  31.982  1.00  0.00    -0.246 OA
BRANCH  37  39
ATOM     39  C   UNL A   1      37.429  31.392  30.600  1.00  0.00     0.060 A 
ATOM     40  C   UNL A   1      38.151  30.644  31.542  1.00  0.00     0.016 A 
ATOM     41  C   UNL A   1      37.868  31.478  29.278  1.00  0.00     0.016 A 
ATOM     42  C   UNL A   1      39.318  29.985  31.169  1.00  0.00     0.010 A 
ATOM     43  C   UNL A   1      39.062  30.847  28.913  1.00  0.00     0.010 A 
ATOM     44  C   UNL A   1      39.802  30.118  29.863  1.00  0.00    -0.014 A 
BRANCH  44  45
ATOM     45  C   UNL A   1      41.176  29.665  29.553  1.00  0.00     0.031 A 
ATOM     46  C   UNL A   1      42.295  30.663  29.659  1.00  0.00     0.074 A 
ATOM     47  C   UNL A   1      41.430  28.387  29.220  1.00  0.00     0.049 A 
ATOM     48  N   UNL A   1      43.563  30.518  29.383  1.00  0.00    -0.248 NA
ATOM     49  C   UNL A   1      41.932  32.004  30.146  1.00  0.00     0.031 C 
ATOM     50  C   UNL A   1      40.435  27.318  29.141  1.00  0.00     0.029 A 
ATOM     51  N   UNL A   1      42.609  27.776  28.872  1.00  0.00    -0.354 N 
ATOM     52  C   UNL A   1      44.150  31.750  29.650  1.00  0.00     0.074 A 
ATOM     53  C   UNL A   1      43.094  32.636  30.092  1.00  0.00     0.031 C 
ATOM     54  C   UNL A   1      41.041  26.188  28.740  1.00  0.00     0.029 A 
ATOM     55  C   UNL A   1      42.457  26.462  28.498  1.00  0.00     0.049 A 
ATOM     56  H   UNL A   1      43.479  28.236  28.889  1.00  0.00     0.167 HD
ATOM     57  C   UNL A   1      45.450  32.109  29.539  1.00  0.00     0.037 A 
ATOM     58  C   UNL A   1      43.354  25.596  27.985  1.00  0.00     0.037 A 
ATOM     59  C   UNL A   1      46.491  31.225  29.087  1.00  0.00     0.049 A 
ATOM     60  C   UNL A   1      44.781  26.042  27.786  1.00  0.00     0.074 A 
ATOM     61  C   UNL A   1      47.842  31.487  28.946  1.00  0.00     0.029 A 
ATOM     62  N   UNL A   1      46.295  29.911  28.687  1.00  0.00    -0.354 N 
ATOM     63  N   UNL A   1      45.328  27.203  28.059  1.00  0.00    -0.248 NA
ATOM     64  C   UNL A   1      45.713  25.061  27.212  1.00  0.00     0.031 C 
ATOM     65  C   UNL A   1      48.454  30.348  28.412  1.00  0.00     0.029 A 
ATOM     66  C   UNL A   1      47.496  29.356  28.280  1.00  0.00     0.049 A 
ATOM     67  H   UNL A   1      45.429  29.442  28.693  1.00  0.00     0.167 HD
ATOM     68  C   UNL A   1      46.672  27.083  27.719  1.00  0.00     0.074 A 
ATOM     69  C   UNL A   1      46.857  25.732  27.230  1.00  0.00     0.031 C 
ATOM     70  C   UNL A   1      47.665  28.003  27.807  1.00  0.00     0.037 A 
BRANCH  57  71
ATOM     71  C   UNL A   1      45.811  33.528  29.879  1.00  0.00     0.058 A 
ATOM     72  C   UNL A   1      46.229  33.897  31.168  1.00  0.00     0.135 A 
ATOM     73  C   UNL A   1      45.763  34.528  28.895  1.00  0.00     0.135 A 
ATOM     74  F   UNL A   1      46.270  32.985  32.153  1.00  0.00    -0.206 F 
ATOM     75  C   UNL A   1      46.561  35.212  31.475  1.00  0.00     0.059 A 
ATOM     76  C   UNL A   1      46.119  35.844  29.171  1.00  0.00     0.059 A 
ATOM     77  F   UNL A   1      45.365  34.231  27.647  1.00  0.00    -0.206 F 
ATOM     78  C   UNL A   1      46.504  36.180  30.468  1.00  0.00     0.060 A 
BRANCH  78  79
ATOM     79  S   UNL A   1      46.945  37.880  30.882  1.00  0.00     0.124 S 
ATOM     80  O   UNL A   1      46.769  38.547  29.595  1.00  0.00    -0.237 OA
ATOM     81  O   UNL A   1      45.962  38.215  31.907  1.00  0.00    -0.237 OA
ATOM     82  O   UNL A   1      48.322  37.771  31.349  1.00  0.00    -0.744 OA
ENDBRANCH  78  79
ENDBRANCH  57  71
BRANCH  58  83
ATOM     83  C   UNL A   1      42.928  24.224  27.600  1.00  0.00     0.058 A 
ATOM     84  C   UNL A   1      42.898  23.182  28.537  1.00  0.00     0.135 A 
ATOM     85  C   UNL A   1      42.552  23.925  26.280  1.00  0.00     0.135 A 
ATOM     86  F   UNL A   1      43.259  23.417  29.809  1.00  0.00    -0.206 F 
ATOM     87  C   UNL A   1      42.527  21.889  28.181  1.00  0.00     0.059 A 
ATOM     88  C   UNL A   1      42.150  22.648  25.904  1.00  0.00     0.059 A 
ATOM     89  F   UNL A   1      42.553  24.888  25.346  1.00  0.00    -0.206 F 
ATOM     90  C   UNL A   1      42.152  21.633  26.861  1.00  0.00     0.060 A 
BRANCH  90  91
ATOM     91  S   UNL A   1      41.632  19.962  26.414  1.00  0.00     0.124 S 
ATOM     92  O   UNL A   1      42.041  19.203  27.590  1.00  0.00    -0.237 OA
ATOM     93  O   UNL A   1      40.194  20.130  26.229  1.00  0.00    -0.237 OA
ATOM     94  O   UNL A   1      42.386  19.691  25.194  1.00  0.00    -0.744 OA
ENDBRANCH  90  91
ENDBRANCH  58  83
BRANCH  70  95
ATOM     95  C   UNL A   1      49.054  27.573  27.417  1.00  0.00     0.058 A 
ATOM     96  C   UNL A   1      49.983  27.114  28.364  1.00  0.00     0.135 A 
ATOM     97  C   UNL A   1      49.437  27.560  26.066  1.00  0.00     0.135 A 
ATOM     98  F   UNL A   1      49.671  27.109  29.669  1.00  0.00    -0.206 F 
ATOM     99  C   UNL A   1      51.251  26.681  27.987  1.00  0.00     0.059 A 
ATOM    100  C   UNL A   1      50.687  27.103  25.663  1.00  0.00     0.059 A 
ATOM    101  F   UNL A   1      48.582  27.976  25.117  1.00  0.00    -0.206 F 
ATOM    102  C   UNL A   1      51.593  26.677  26.633  1.00  0.00     0.060 A 
BRANCH 102 103
ATOM    103  S   UNL A   1      53.227  26.078  26.154  1.00  0.00     0.124 S 
ATOM    104  O   UNL A   1      53.883  27.314  25.739  1.00  0.00    -0.237 OA
ATOM    105  O   UNL A   1      53.718  25.485  27.394  1.00  0.00    -0.237 OA
ATOM    106  O   UNL A   1      52.941  25.129  25.082  1.00  0.00    -0.744 OA
ENDBRANCH 102 103
ENDBRANCH  70  95
ENDBRANCH  44  45
ENDBRANCH  37  39
ENDBRANCH  36  37
ENDBRANCH  35  36
ENDBRANCH  34  35
ENDBRANCH  33  34
ENDBRANCH   1  33
TORSDOF 24
ENDMDL
MODEL 2
REMARK VINA RESULT:     -10.1      4.177      6.173
REMARK SMILES CC(=O)NS(=O)(=O)c1ccc(-c2ccn(C(F)F)c(=O)c2)cc1C(=O)OCCOCCOCCOC(=O)c1ccc(-c2c3nc(c(-c4c(F)cc(S(=O)(=O)[O-])cc4F)c4ccc([nH]4)c(-c4c(F)cc(S(=O)(=O)[O-])cc4F)c4nc(c(-c5c(F)cc(S(=O)(=O)[O-])cc5F)c5ccc2[nH]5)C=C4)C=C3)cc1
REMARK SMILES IDX 31 1 30 2 29 3 28 4 27 5 26 6 24 7 25 8 23 9 8 10 9 11 10 12
REMARK SMILES IDX 22 13 11 14 5 15 6 16 7 17 4 18 1 19 2 20 3 21 12 23 13 24
REMARK SMILES IDX 21 25 14 26 19 27 15 28 20 29 16 30 17 31 18 32 32 33 33 34
REMARK SMILES IDX 34 35 35 36 36 37 37 38 38 39 39 40 103 41 40 42 102 43
REMARK SMILES IDX 41 44 42 45 43 46 96 47 44 48 101 49 95 50 97 51 45 52
REMARK SMILES IDX 100 53 94 54 93 55 46 57 80 58 59 59 79 60 60 61 63 62 78 63
REMARK SMILES IDX 98 64 61 65 62 66 77 68 99 69 64 70 47 71 48 72 57 73 49 74
REMARK SMILES IDX 50 75 56 76 58 77 51 78 52 79 53 80 54 81 55 82 81 83 82 84
REMARK SMILES IDX 91 85 83 86 84 87 90 88 92 89 85 90 86 91 87 92 88 93 89 94
REMARK SMILES IDX 65 95 66 96 75 97 67 98 68 99 74 100 76 101 69 102 70 103
REMARK SMILES IDX 71 104 72 105 73 106
REMARK H PARENT 4 22 97 56 63 67
REMARK Flexibility Score: inf
ROOT
ATOM      1  C   UNL A   1      31.597  29.679  25.073  1.00  0.00     0.188 C 
ENDROOT
BRANCH   1   2
ATOM      2  C   UNL A   1      31.644  28.194  24.652  1.00  0.00     0.188 C 
BRANCH   2   3
ATOM      3  O   UNL A   1      31.420  27.995  23.273  1.00  0.00    -0.376 OA
BRANCH   3   4
ATOM      4  C   UNL A   1      32.255  27.083  22.584  1.00  0.00     0.202 C 
BRANCH   4   5
ATOM      5  C   UNL A   1      33.499  26.488  23.269  1.00  0.00     0.261 C 
BRANCH   5   6
ATOM      6  O   UNL A   1      33.341  25.189  23.859  1.00  0.00    -0.460 OA
BRANCH   6   7
ATOM      7  C   UNL A   1      33.876  24.143  23.212  1.00  0.00     0.339 C 
ATOM      8  O   UNL A   1      34.004  24.041  22.004  1.00  0.00    -0.246 OA
BRANCH   7   9
ATOM      9  C   UNL A   1      34.460  23.136  24.138  1.00  0.00     0.081 A 
ATOM     10  C   UNL A   1      33.949  21.851  24.365  1.00  0.00     0.102 A 
ATOM     11  C   UNL A   1      34.795  20.859  24.872  1.00  0.00     0.024 A 
ATOM     12  C   UNL A   1      36.058  21.186  25.360  1.00  0.00     0.010 A 
ATOM     13  C   UNL A   1      35.742  23.461  24.639  1.00  0.00     0.025 A 
ATOM     14  C   UNL A   1      36.526  22.501  25.291  1.00  0.00    -0.017 A 
BRANCH  10  15
ATOM     15  S   UNL A   1      32.238  21.442  24.180  1.00  0.00     0.264 S 
ATOM     16  O   UNL A   1      32.178  20.069  23.763  1.00  0.00    -0.201 OA
ATOM     17  O   UNL A   1      31.547  22.494  23.464  1.00  0.00    -0.201 OA
BRANCH  15  18
ATOM     18  N   UNL A   1      31.578  21.484  25.737  1.00  0.00    -0.249 N 
ATOM     19  C   UNL A   1      31.994  23.714  26.801  1.00  0.00     0.115 C 
ATOM     20  C   UNL A   1      31.037  22.638  26.358  1.00  0.00     0.230 C 
ATOM     21  O   UNL A   1      29.874  22.621  26.734  1.00  0.00    -0.274 OA
ATOM     22  H   UNL A   1      31.569  20.645  26.252  1.00  0.00     0.183 HD
ENDBRANCH  15  18
ENDBRANCH  10  15
BRANCH  14  23
ATOM     23  C   UNL A   1      37.867  22.820  25.814  1.00  0.00    -0.011 A 
ATOM     24  C   UNL A   1      38.275  24.130  26.289  1.00  0.00     0.027 A 
ATOM     25  C   UNL A   1      38.745  21.805  25.873  1.00  0.00     0.080 A 
ATOM     26  C   UNL A   1      39.514  24.322  26.763  1.00  0.00     0.095 A 
ATOM     27  C   UNL A   1      40.105  21.991  26.437  1.00  0.00     0.255 A 
ATOM     28  N   UNL A   1      40.422  23.279  26.829  1.00  0.00    -0.258 N 
ATOM     29  O   UNL A   1      40.825  21.003  26.531  1.00  0.00    -0.269 OA
BRANCH  28  30
ATOM     30  C   UNL A   1      41.760  23.488  27.327  1.00  0.00     0.451 C 
ATOM     31  F   UNL A   1      42.219  24.709  26.949  1.00  0.00    -0.185 F 
ATOM     32  F   UNL A   1      41.780  23.438  28.679  1.00  0.00    -0.185 F 
ENDBRANCH  28  30
ENDBRANCH  14  23
ENDBRANCH   7   9
ENDBRANCH   6   7
ENDBRANCH   5   6
ENDBRANCH   4   5
ENDBRANCH   3   4
ENDBRANCH   2   3
ENDBRANCH   1   2
BRANCH   1  33
ATOM     33  O   UNL A   1      32.662  30.304  25.776  1.00  0.00    -0.376 OA
BRANCH  33  34
ATOM     34  C   UNL A   1      32.399  31.144  26.885  1.00  0.00     0.202 C 
BRANCH  34  35
ATOM     35  C   UNL A   1      33.567  31.537  27.798  1.00  0.00     0.261 C 
BRANCH  35  36
ATOM     36  O   UNL A   1      34.851  31.017  27.421  1.00  0.00    -0.460 OA
BRANCH  36  37
ATOM     37  C   UNL A   1      35.155  29.800  27.939  1.00  0.00     0.338 C 
ATOM     38  O   UNL A   1      34.586  28.743  27.729  1.00  0.00    -0.246 OA
BRANCH  37  39
ATOM     39  C   UNL A   1      36.430  29.891  28.678  1.00  0.00     0.060 A 
ATOM     40  C   UNL A   1      37.440  30.715  28.161  1.00  0.00     0.016 A 
ATOM     41  C   UNL A   1      36.647  29.148  29.839  1.00  0.00     0.016 A 
ATOM     42  C   UNL A   1      38.674  30.796  28.799  1.00  0.00     0.010 A 
ATOM     43  C   UNL A   1      37.900  29.201  30.459  1.00  0.00     0.010 A 
ATOM     44  C   UNL A   1      38.924  30.007  29.927  1.00  0.00    -0.014 A 
BRANCH  44  45
ATOM     45  C   UNL A   1      40.313  29.876  30.423  1.00  0.00     0.031 A 
ATOM     46  C   UNL A   1      40.728  30.707  31.604  1.00  0.00     0.074 A 
ATOM     47  C   UNL A   1      41.175  29.011  29.859  1.00  0.00     0.049 A 
ATOM     48  N   UNL A   1      41.898  30.808  32.176  1.00  0.00    -0.248 NA
ATOM     49  C   UNL A   1      39.678  31.532  32.225  1.00  0.00     0.031 C 
ATOM     50  C   UNL A   1      40.868  28.113  28.745  1.00  0.00     0.029 A 
ATOM     51  N   UNL A   1      42.495  28.760  30.141  1.00  0.00    -0.354 N 
ATOM     52  C   UNL A   1      41.731  31.715  33.216  1.00  0.00     0.074 A 
ATOM     53  C   UNL A   1      40.351  32.150  33.184  1.00  0.00     0.031 C 
ATOM     54  C   UNL A   1      41.978  27.429  28.420  1.00  0.00     0.029 A 
ATOM     55  C   UNL A   1      43.081  27.867  29.276  1.00  0.00     0.049 A 
ATOM     56  H   UNL A   1      42.974  29.180  30.890  1.00  0.00     0.167 HD
ATOM     57  C   UNL A   1      42.645  32.145  34.117  1.00  0.00     0.037 A 
ATOM     58  C   UNL A   1      44.367  27.480  29.167  1.00  0.00     0.037 A 
ATOM     59  C   UNL A   1      44.019  31.716  34.134  1.00  0.00     0.049 A 
ATOM     60  C   UNL A   1      45.390  28.037  30.126  1.00  0.00     0.074 A 
ATOM     61  C   UNL A   1      45.024  32.085  35.009  1.00  0.00     0.029 A 
ATOM     62  N   UNL A   1      44.584  30.835  33.224  1.00  0.00    -0.354 N 
ATOM     63  N   UNL A   1      45.217  28.881  31.117  1.00  0.00    -0.248 NA
ATOM     64  C   UNL A   1      46.779  27.590  29.955  1.00  0.00     0.031 C 
ATOM     65  C   UNL A   1      46.210  31.467  34.597  1.00  0.00     0.029 A 
ATOM     66  C   UNL A   1      45.929  30.664  33.503  1.00  0.00     0.049 A 
ATOM     67  H   UNL A   1      44.100  30.395  32.488  1.00  0.00     0.167 HD
ATOM     68  C   UNL A   1      46.469  29.041  31.705  1.00  0.00     0.074 A 
ATOM     69  C   UNL A   1      47.386  28.199  30.965  1.00  0.00     0.031 C 
ATOM     70  C   UNL A   1      46.827  29.810  32.763  1.00  0.00     0.037 A 
BRANCH  57  71
ATOM     71  C   UNL A   1      42.196  33.155  35.135  1.00  0.00     0.058 A 
ATOM     72  C   UNL A   1      42.392  34.533  34.948  1.00  0.00     0.135 A 
ATOM     73  C   UNL A   1      41.539  32.741  36.305  1.00  0.00     0.135 A 
ATOM     74  F   UNL A   1      43.036  34.983  33.859  1.00  0.00    -0.206 F 
ATOM     75  C   UNL A   1      41.975  35.462  35.895  1.00  0.00     0.059 A 
ATOM     76  C   UNL A   1      41.087  33.653  37.252  1.00  0.00     0.059 A 
ATOM     77  F   UNL A   1      41.332  31.434  36.537  1.00  0.00    -0.206 F 
ATOM     78  C   UNL A   1      41.321  35.011  37.045  1.00  0.00     0.060 A 
BRANCH  78  79
ATOM     79  S   UNL A   1      40.781  36.230  38.262  1.00  0.00     0.124 S 
ATOM     80  O   UNL A   1      39.569  36.747  37.635  1.00  0.00    -0.237 OA
ATOM     81  O   UNL A   1      40.578  35.411  39.453  1.00  0.00    -0.237 OA
ATOM     82  O   UNL A   1      41.900  37.163  38.329  1.00  0.00    -0.744 OA
ENDBRANCH  78  79
ENDBRANCH  57  71
BRANCH  58  83
ATOM     83  C   UNL A   1      44.772  26.529  28.096  1.00  0.00     0.058 A 
ATOM     84  C   UNL A   1      44.946  26.957  26.773  1.00  0.00     0.135 A 
ATOM     85  C   UNL A   1      44.982  25.169  28.376  1.00  0.00     0.135 A 
ATOM     86  F   UNL A   1      44.746  28.247  26.455  1.00  0.00    -0.206 F 
ATOM     87  C   UNL A   1      45.298  26.071  25.760  1.00  0.00     0.059 A 
ATOM     88  C   UNL A   1      45.361  24.269  27.386  1.00  0.00     0.059 A 
ATOM     89  F   UNL A   1      44.838  24.710  29.628  1.00  0.00    -0.206 F 
ATOM     90  C   UNL A   1      45.506  24.728  26.078  1.00  0.00     0.060 A 
BRANCH  90  91
ATOM     91  S   UNL A   1      46.002  23.591  24.764  1.00  0.00     0.124 S 
ATOM     92  O   UNL A   1      47.042  24.358  24.090  1.00  0.00    -0.237 OA
ATOM     93  O   UNL A   1      46.453  22.429  25.523  1.00  0.00    -0.237 OA
ATOM     94  O   UNL A   1      44.770  23.396  24.007  1.00  0.00    -0.744 OA
ENDBRANCH  90  91
ENDBRANCH  58  83
BRANCH  70  95
ATOM     95  C   UNL A   1      48.258  29.744  33.224  1.00  0.00     0.058 A 
ATOM     96  C   UNL A   1      49.219  30.678  32.804  1.00  0.00     0.135 A 
ATOM     97  C   UNL A   1      48.658  28.767  34.151  1.00  0.00     0.135 A 
ATOM     98  F   UNL A   1      48.892  31.629  31.916  1.00  0.00    -0.206 F 
ATOM     99  C   UNL A   1      50.530  30.630  33.268  1.00  0.00     0.059 A 
ATOM    100  C   UNL A   1      49.955  28.719  34.652  1.00  0.00     0.059 A 
ATOM    101  F   UNL A   1      47.776  27.857  34.596  1.00  0.00    -0.206 F 
ATOM    102  C   UNL A   1      50.887  29.649  34.194  1.00  0.00     0.060 A 
BRANCH 102 103
ATOM    103  S   UNL A   1      52.582  29.621  34.817  1.00  0.00     0.124 S 
ATOM    104  O   UNL A   1      53.351  29.669  33.577  1.00  0.00    -0.237 OA
ATOM    105  O   UNL A   1      52.631  30.824  35.641  1.00  0.00    -0.237 OA
ATOM    106  O   UNL A   1      52.654  28.361  35.551  1.00  0.00    -0.744 OA
ENDBRANCH 102 103
ENDBRANCH  70  95
ENDBRANCH  44  45
ENDBRANCH  37  39
ENDBRANCH  36  37
ENDBRANCH  35  36
ENDBRANCH  34  35
ENDBRANCH  33  34
ENDBRANCH   1  33
TORSDOF 24
ENDMDL
MODEL 3
REMARK VINA RESULT:      -9.6      5.798     12.344
REMARK SMILES CC(=O)NS(=O)(=O)c1ccc(-c2ccn(C(F)F)c(=O)c2)cc1C(=O)OCCOCCOCCOC(=O)c1ccc(-c2c3nc(c(-c4c(F)cc(S(=O)(=O)[O-])cc4F)c4ccc([nH]4)c(-c4c(F)cc(S(=O)(=O)[O-])cc4F)c4nc(c(-c5c(F)cc(S(=O)(=O)[O-])cc5F)c5ccc2[nH]5)C=C4)C=C3)cc1
REMARK SMILES IDX 31 1 30 2 29 3 28 4 27 5 26 6 24 7 25 8 23 9 8 10 9 11 10 12
REMARK SMILES IDX 22 13 11 14 5 15 6 16 7 17 4 18 1 19 2 20 3 21 12 23 13 24
REMARK SMILES IDX 21 25 14 26 19 27 15 28 20 29 16 30 17 31 18 32 32 33 33 34
REMARK SMILES IDX 34 35 35 36 36 37 37 38 38 39 39 40 103 41 40 42 102 43
REMARK SMILES IDX 41 44 42 45 43 46 96 47 44 48 101 49 95 50 97 51 45 52
REMARK SMILES IDX 100 53 94 54 93 55 46 57 80 58 59 59 79 60 60 61 63 62 78 63
REMARK SMILES IDX 98 64 61 65 62 66 77 68 99 69 64 70 47 71 48 72 57 73 49 74
REMARK SMILES IDX 50 75 56 76 58 77 51 78 52 79 53 80 54 81 55 82 81 83 82 84
REMARK SMILES IDX 91 85 83 86 84 87 90 88 92 89 85 90 86 91 87 92 88 93 89 94
REMARK SMILES IDX 65 95 66 96 75 97 67 98 68 99 74 100 76 101 69 102 70 103
REMARK SMILES IDX 71 104 72 105 73 106
REMARK H PARENT 4 22 97 56 63 67
REMARK Flexibility Score: inf
ROOT
ATOM      1  C   UNL A   1      38.817  34.409  36.610  1.00  0.00     0.188 C 
ENDROOT
BRANCH   1   2
ATOM      2  C   UNL A   1      39.957  35.323  37.110  1.00  0.00     0.188 C 
BRANCH   2   3
ATOM      3  O   UNL A   1      40.178  36.446  36.284  1.00  0.00    -0.376 OA
BRANCH   3   4
ATOM      4  C   UNL A   1      40.967  36.277  35.121  1.00  0.00     0.202 C 
BRANCH   4   5
ATOM      5  C   UNL A   1      42.050  35.185  35.061  1.00  0.00     0.261 C 
BRANCH   5   6
ATOM      6  O   UNL A   1      42.927  35.219  33.925  1.00  0.00    -0.460 OA
BRANCH   6   7
ATOM      7  C   UNL A   1      42.804  34.243  33.014  1.00  0.00     0.339 C 
ATOM      8  O   UNL A   1      43.066  33.065  33.191  1.00  0.00    -0.246 OA
BRANCH   7   9
ATOM      9  C   UNL A   1      42.153  34.709  31.760  1.00  0.00     0.081 A 
ATOM     10  C   UNL A   1      42.824  35.237  30.648  1.00  0.00     0.102 A 
ATOM     11  C   UNL A   1      42.197  35.209  29.397  1.00  0.00     0.024 A 
ATOM     12  C   UNL A   1      40.849  34.878  29.287  1.00  0.00     0.010 A 
ATOM     13  C   UNL A   1      40.784  34.377  31.641  1.00  0.00     0.025 A 
ATOM     14  C   UNL A   1      40.116  34.503  30.417  1.00  0.00    -0.017 A 
BRANCH  10  15
ATOM     15  S   UNL A   1      44.376  36.076  30.760  1.00  0.00     0.264 S 
ATOM     16  O   UNL A   1      44.612  36.693  29.484  1.00  0.00    -0.201 OA
ATOM     17  O   UNL A   1      45.360  35.224  31.395  1.00  0.00    -0.201 OA
BRANCH  15  18
ATOM     18  N   UNL A   1      44.143  37.344  31.855  1.00  0.00    -0.249 N 
ATOM     19  C   UNL A   1      45.800  37.195  33.728  1.00  0.00     0.115 C 
ATOM     20  C   UNL A   1      45.173  37.972  32.600  1.00  0.00     0.230 C 
ATOM     21  O   UNL A   1      45.346  39.176  32.478  1.00  0.00    -0.274 OA
ATOM     22  H   UNL A   1      43.224  37.671  31.984  1.00  0.00     0.183 HD
ENDBRANCH  15  18
ENDBRANCH  10  15
BRANCH  14  23
ATOM     23  C   UNL A   1      38.691  34.156  30.272  1.00  0.00    -0.011 A 
ATOM     24  C   UNL A   1      38.097  33.602  29.068  1.00  0.00     0.027 A 
ATOM     25  C   UNL A   1      37.914  34.347  31.351  1.00  0.00     0.080 A 
ATOM     26  C   UNL A   1      36.790  33.302  29.035  1.00  0.00     0.095 A 
ATOM     27  C   UNL A   1      36.477  33.978  31.344  1.00  0.00     0.255 A 
ATOM     28  N   UNL A   1      35.985  33.495  30.145  1.00  0.00    -0.258 N 
ATOM     29  O   UNL A   1      35.848  34.108  32.389  1.00  0.00    -0.269 OA
BRANCH  28  30
ATOM     30  C   UNL A   1      34.577  33.186  30.105  1.00  0.00     0.451 C 
ATOM     31  F   UNL A   1      34.245  32.360  31.130  1.00  0.00    -0.185 F 
ATOM     32  F   UNL A   1      33.836  34.312  30.223  1.00  0.00    -0.185 F 
ENDBRANCH  28  30
ENDBRANCH  14  23
ENDBRANCH   7   9
ENDBRANCH   6   7
ENDBRANCH   5   6
ENDBRANCH   4   5
ENDBRANCH   3   4
ENDBRANCH   2   3
ENDBRANCH   1   2
BRANCH   1  33
ATOM     33  O   UNL A   1      39.064  33.218  35.876  1.00  0.00    -0.376 OA
BRANCH  33  34
ATOM     34  C   UNL A   1      38.321  32.042  36.138  1.00  0.00     0.202 C 
BRANCH  34  35
ATOM     35  C   UNL A   1      38.013  31.095  34.971  1.00  0.00     0.261 C 
BRANCH  35  36
ATOM     36  O   UNL A   1      38.503  31.514  33.688  1.00  0.00    -0.460 OA
BRANCH  36  37
ATOM     37  C   UNL A   1      37.967  30.862  32.625  1.00  0.00     0.338 C 
ATOM     38  O   UNL A   1      36.795  30.828  32.291  1.00  0.00    -0.246 OA
BRANCH  37  39
ATOM     39  C   UNL A   1      39.056  30.325  31.784  1.00  0.00     0.060 A 
ATOM     40  C   UNL A   1      40.136  29.695  32.419  1.00  0.00     0.016 A 
ATOM     41  C   UNL A   1      39.038  30.473  30.397  1.00  0.00     0.016 A 
ATOM     42  C   UNL A   1      41.206  29.214  31.671  1.00  0.00     0.010 A 
ATOM     43  C   UNL A   1      40.131  30.024  29.649  1.00  0.00     0.010 A 
ATOM     44  C   UNL A   1      41.228  29.415  30.286  1.00  0.00    -0.014 A 
BRANCH  44  45
ATOM     45  C   UNL A   1      42.484  29.169  29.542  1.00  0.00     0.031 A 
ATOM     46  C   UNL A   1      42.697  27.810  28.936  1.00  0.00     0.074 A 
ATOM     47  C   UNL A   1      43.398  30.142  29.377  1.00  0.00     0.049 A 
ATOM     48  N   UNL A   1      43.735  27.342  28.295  1.00  0.00    -0.248 NA
ATOM     49  C   UNL A   1      41.587  26.853  29.069  1.00  0.00     0.031 C 
ATOM     50  C   UNL A   1      43.274  31.513  29.870  1.00  0.00     0.029 A 
ATOM     51  N   UNL A   1      44.622  30.116  28.757  1.00  0.00    -0.354 N 
ATOM     52  C   UNL A   1      43.410  26.033  27.958  1.00  0.00     0.074 A 
ATOM     53  C   UNL A   1      42.086  25.775  28.483  1.00  0.00     0.031 C 
ATOM     54  C   UNL A   1      44.392  32.190  29.557  1.00  0.00     0.029 A 
ATOM     55  C   UNL A   1      45.324  31.291  28.877  1.00  0.00     0.049 A 
ATOM     56  H   UNL A   1      44.964  29.329  28.273  1.00  0.00     0.167 HD
ATOM     57  C   UNL A   1      44.147  25.129  27.272  1.00  0.00     0.037 A 
ATOM     58  C   UNL A   1      46.587  31.590  28.512  1.00  0.00     0.037 A 
ATOM     59  C   UNL A   1      45.468  25.391  26.765  1.00  0.00     0.049 A 
ATOM     60  C   UNL A   1      47.425  30.541  27.826  1.00  0.00     0.074 A 
ATOM     61  C   UNL A   1      46.298  24.546  26.049  1.00  0.00     0.029 A 
ATOM     62  N   UNL A   1      46.159  26.582  26.933  1.00  0.00    -0.354 N 
ATOM     63  N   UNL A   1      47.101  29.312  27.496  1.00  0.00    -0.248 NA
ATOM     64  C   UNL A   1      48.798  30.917  27.460  1.00  0.00     0.031 C 
ATOM     65  C   UNL A   1      47.510  25.208  25.830  1.00  0.00     0.029 A 
ATOM     66  C   UNL A   1      47.413  26.488  26.353  1.00  0.00     0.049 A 
ATOM     67  H   UNL A   1      45.809  27.377  27.395  1.00  0.00     0.167 HD
ATOM     68  C   UNL A   1      48.218  28.780  26.858  1.00  0.00     0.074 A 
ATOM     69  C   UNL A   1      49.222  29.824  26.840  1.00  0.00     0.031 C 
ATOM     70  C   UNL A   1      48.397  27.543  26.332  1.00  0.00     0.037 A 
BRANCH  57  71
ATOM     71  C   UNL A   1      43.555  23.764  27.062  1.00  0.00     0.058 A 
ATOM     72  C   UNL A   1      43.432  22.841  28.113  1.00  0.00     0.135 A 
ATOM     73  C   UNL A   1      43.083  23.382  25.797  1.00  0.00     0.135 A 
ATOM     74  F   UNL A   1      43.889  23.145  29.339  1.00  0.00    -0.206 F 
ATOM     75  C   UNL A   1      42.884  21.578  27.911  1.00  0.00     0.059 A 
ATOM     76  C   UNL A   1      42.505  22.136  25.577  1.00  0.00     0.059 A 
ATOM     77  F   UNL A   1      43.183  24.224  24.755  1.00  0.00    -0.206 F 
ATOM     78  C   UNL A   1      42.421  21.236  26.637  1.00  0.00     0.060 A 
BRANCH  78  79
ATOM     79  S   UNL A   1      41.707  19.596  26.393  1.00  0.00     0.124 S 
ATOM     80  O   UNL A   1      42.269  19.225  25.098  1.00  0.00    -0.237 OA
ATOM     81  O   UNL A   1      42.223  18.859  27.542  1.00  0.00    -0.237 OA
ATOM     82  O   UNL A   1      40.270  19.846  26.406  1.00  0.00    -0.744 OA
ENDBRANCH  78  79
ENDBRANCH  57  71
BRANCH  58  83
ATOM     83  C   UNL A   1      47.148  32.936  28.806  1.00  0.00     0.058 A 
ATOM     84  C   UNL A   1      46.976  34.006  27.916  1.00  0.00     0.135 A 
ATOM     85  C   UNL A   1      47.880  33.175  29.980  1.00  0.00     0.135 A 
ATOM     86  F   UNL A   1      46.292  33.822  26.775  1.00  0.00    -0.206 F 
ATOM     87  C   UNL A   1      47.520  35.261  28.169  1.00  0.00     0.059 A 
ATOM     88  C   UNL A   1      48.411  34.428  30.270  1.00  0.00     0.059 A 
ATOM     89  F   UNL A   1      48.066  32.188  30.870  1.00  0.00    -0.206 F 
ATOM     90  C   UNL A   1      48.234  35.463  29.352  1.00  0.00     0.060 A 
BRANCH  90  91
ATOM     91  S   UNL A   1      48.903  37.105  29.693  1.00  0.00     0.124 S 
ATOM     92  O   UNL A   1      50.338  36.851  29.655  1.00  0.00    -0.237 OA
ATOM     93  O   UNL A   1      48.363  37.890  28.587  1.00  0.00    -0.237 OA
ATOM     94  O   UNL A   1      48.352  37.425  31.006  1.00  0.00    -0.744 OA
ENDBRANCH  90  91
ENDBRANCH  58  83
BRANCH  70  95
ATOM     95  C   UNL A   1      49.705  27.258  25.642  1.00  0.00     0.058 A 
ATOM     96  C   UNL A   1      49.868  27.430  24.258  1.00  0.00     0.135 A 
ATOM     97  C   UNL A   1      50.828  26.869  26.390  1.00  0.00     0.135 A 
ATOM     98  F   UNL A   1      48.826  27.796  23.496  1.00  0.00    -0.206 F 
ATOM     99  C   UNL A   1      51.092  27.202  23.638  1.00  0.00     0.059 A 
ATOM    100  C   UNL A   1      52.069  26.666  25.795  1.00  0.00     0.059 A 
ATOM    101  F   UNL A   1      50.732  26.703  27.719  1.00  0.00    -0.206 F 
ATOM    102  C   UNL A   1      52.188  26.823  24.416  1.00  0.00     0.060 A 
BRANCH 102 103
ATOM    103  S   UNL A   1      53.780  26.567  23.603  1.00  0.00     0.124 S 
ATOM    104  O   UNL A   1      54.385  25.549  24.456  1.00  0.00    -0.237 OA
ATOM    105  O   UNL A   1      53.383  26.123  22.271  1.00  0.00    -0.237 OA
ATOM    106  O   UNL A   1      54.407  27.884  23.659  1.00  0.00    -0.744 OA
ENDBRANCH 102 103
ENDBRANCH  70  95
ENDBRANCH  44  45
ENDBRANCH  37  39
ENDBRANCH  36  37
ENDBRANCH  35  36
ENDBRANCH  34  35
ENDBRANCH  33  34
ENDBRANCH   1  33
TORSDOF 24
ENDMDL
