MODEL 1
REMARK VINA RESULT:      -9.1      0.000      0.000
REMARK SMILES C[NH2+][C@]1(C(=O)OCCOCCOCCOC(=O)c2ccc(-c3c4nc(c(-c5c(F)cc(S(=O)(=O)[O-])cc5F)c5ccc([nH]5)c(-c5c(F)cc(S(=O)(=O)[O-])cc5F)c5nc(c(-c6c(F)cc(S(=O)(=O)[O-])cc6F)c6ccc3[nH]6)C=C5)C=C4)cc2)CC[C@H]([NH+](CC2CC2)CC2CC2)C1
REMARK SMILES IDX 10 1 9 2 8 3 7 4 6 5 4 6 5 7 3 8 84 9 96 10 85 11 86 12 2 13
REMARK SMILES IDX 1 14 87 17 88 19 89 20 90 21 91 22 92 23 93 24 94 25 95 26
REMARK SMILES IDX 11 27 12 28 13 29 14 30 15 31 16 32 17 33 18 34 19 35 83 36
REMARK SMILES IDX 20 37 82 38 21 39 22 40 23 41 76 42 24 43 81 44 75 45 77 46
REMARK SMILES IDX 25 47 80 48 74 49 73 50 26 52 60 53 39 54 59 55 40 56 43 57
REMARK SMILES IDX 58 58 78 59 41 60 42 61 57 63 79 64 44 65 27 66 28 67 37 68
REMARK SMILES IDX 29 69 30 70 36 71 38 72 31 73 32 74 33 75 34 76 35 77 61 78
REMARK SMILES IDX 62 79 71 80 63 81 64 82 70 83 72 84 65 85 66 86 67 87 68 88
REMARK SMILES IDX 69 89 45 90 46 91 55 92 47 93 48 94 54 95 56 96 49 97 50 98
REMARK SMILES IDX 51 99 52 100 53 101
REMARK H PARENT 2 15 2 16 87 18 77 51 43 62
REMARK Flexibility Score: inf
ROOT
ATOM      1  C   UNL A   1      39.493  22.681  26.676  1.00  0.00     0.188 C 
ENDROOT
BRANCH   1   2
ATOM      2  O   UNL A   1      38.760  21.664  25.995  1.00  0.00    -0.376 OA
BRANCH   2   3
ATOM      3  C   UNL A   1      37.515  21.998  25.398  1.00  0.00     0.202 C 
BRANCH   3   4
ATOM      4  C   UNL A   1      36.375  20.968  25.460  1.00  0.00     0.261 C 
BRANCH   4   5
ATOM      5  O   UNL A   1      35.208  21.382  26.200  1.00  0.00    -0.459 OA
BRANCH   5   6
ATOM      6  C   UNL A   1      34.002  21.055  25.659  1.00  0.00     0.368 C 
ATOM      7  O   UNL A   1      33.664  19.896  25.431  1.00  0.00    -0.245 OA
BRANCH   6   8
ATOM      8  C   UNL A   1      33.121  22.280  25.280  1.00  0.00     0.200 C 
ATOM      9  C   UNL A   1      31.634  22.304  25.657  1.00  0.00     0.087 C 
ATOM     10  C   UNL A   1      33.616  23.426  26.185  1.00  0.00     0.146 C 
ATOM     11  C   UNL A   1      31.268  23.791  25.667  1.00  0.00     0.072 C 
ATOM     12  C   UNL A   1      32.523  24.522  26.192  1.00  0.00     0.191 C 
BRANCH   8  13
ATOM     13  N   UNL A   1      33.180  22.675  23.845  1.00  0.00    -0.334 N 
ATOM     14  C   UNL A   1      34.454  23.087  23.290  1.00  0.00     0.331 C 
ATOM     15  H   UNL A   1      32.858  21.874  23.300  1.00  0.00     0.347 HD
ATOM     16  H   UNL A   1      32.602  23.514  23.794  1.00  0.00     0.347 HD
ENDBRANCH   8  13
BRANCH  12  17
ATOM     17  N   UNL A   1      33.000  25.738  25.470  1.00  0.00    -0.332 N 
ATOM     18  H   UNL A   1      33.903  25.544  25.036  1.00  0.00     0.348 HD
BRANCH  17  19
ATOM     19  C   UNL A   1      33.134  26.840  26.458  1.00  0.00     0.265 C 
BRANCH  19  20
ATOM     20  C   UNL A   1      33.927  28.085  26.193  1.00  0.00     0.044 C 
ATOM     21  C   UNL A   1      33.255  29.425  26.013  1.00  0.00     0.010 C 
ATOM     22  C   UNL A   1      34.286  29.248  27.089  1.00  0.00     0.010 C 
ENDBRANCH  19  20
ENDBRANCH  17  19
BRANCH  17  23
ATOM     23  C   UNL A   1      32.077  26.120  24.376  1.00  0.00     0.265 C 
BRANCH  23  24
ATOM     24  C   UNL A   1      32.849  26.336  23.115  1.00  0.00     0.044 C 
ATOM     25  C   UNL A   1      32.072  26.677  21.860  1.00  0.00     0.010 C 
ATOM     26  C   UNL A   1      33.033  27.672  22.437  1.00  0.00     0.010 C 
ENDBRANCH  23  24
ENDBRANCH  17  23
ENDBRANCH  12  17
ENDBRANCH   6   8
ENDBRANCH   5   6
ENDBRANCH   4   5
ENDBRANCH   3   4
ENDBRANCH   2   3
ENDBRANCH   1   2
BRANCH   1  27
ATOM     27  C   UNL A   1      40.921  22.380  27.160  1.00  0.00     0.188 C 
BRANCH  27  28
ATOM     28  O   UNL A   1      41.864  22.340  26.112  1.00  0.00    -0.376 OA
BRANCH  28  29
ATOM     29  C   UNL A   1      43.226  22.377  26.466  1.00  0.00     0.202 C 
BRANCH  29  30
ATOM     30  C   UNL A   1      44.027  23.585  25.957  1.00  0.00     0.261 C 
BRANCH  30  31
ATOM     31  O   UNL A   1      43.833  24.831  26.654  1.00  0.00    -0.460 OA
BRANCH  31  32
ATOM     32  C   UNL A   1      42.914  25.685  26.150  1.00  0.00     0.338 C 
ATOM     33  O   UNL A   1      42.442  25.659  25.023  1.00  0.00    -0.246 OA
BRANCH  32  34
ATOM     34  C   UNL A   1      42.403  26.533  27.257  1.00  0.00     0.060 A 
ATOM     35  C   UNL A   1      42.942  27.814  27.448  1.00  0.00     0.016 A 
ATOM     36  C   UNL A   1      41.402  26.064  28.110  1.00  0.00     0.016 A 
ATOM     37  C   UNL A   1      42.507  28.614  28.513  1.00  0.00     0.010 A 
ATOM     38  C   UNL A   1      40.981  26.858  29.184  1.00  0.00     0.010 A 
ATOM     39  C   UNL A   1      41.554  28.124  29.415  1.00  0.00    -0.014 A 
BRANCH  39  40
ATOM     40  C   UNL A   1      41.287  28.827  30.700  1.00  0.00     0.031 A 
ATOM     41  C   UNL A   1      40.159  29.829  30.746  1.00  0.00     0.074 A 
ATOM     42  C   UNL A   1      42.028  28.611  31.803  1.00  0.00     0.049 A 
ATOM     43  N   UNL A   1      39.810  30.649  31.702  1.00  0.00    -0.248 NA
ATOM     44  C   UNL A   1      39.320  29.918  29.540  1.00  0.00     0.031 C 
ATOM     45  C   UNL A   1      43.115  27.643  31.919  1.00  0.00     0.029 A 
ATOM     46  N   UNL A   1      41.983  29.215  33.038  1.00  0.00    -0.354 N 
ATOM     47  C   UNL A   1      38.722  31.363  31.211  1.00  0.00     0.074 A 
ATOM     48  C   UNL A   1      38.488  30.897  29.861  1.00  0.00     0.031 C 
ATOM     49  C   UNL A   1      43.651  27.733  33.150  1.00  0.00     0.029 A 
ATOM     50  C   UNL A   1      42.971  28.792  33.897  1.00  0.00     0.049 A 
ATOM     51  H   UNL A   1      41.308  29.888  33.285  1.00  0.00     0.167 HD
ATOM     52  C   UNL A   1      37.981  32.314  31.827  1.00  0.00     0.037 A 
ATOM     53  C   UNL A   1      43.309  29.229  35.130  1.00  0.00     0.037 A 
ATOM     54  C   UNL A   1      38.212  32.778  33.171  1.00  0.00     0.049 A 
ATOM     55  C   UNL A   1      42.517  30.344  35.771  1.00  0.00     0.074 A 
ATOM     56  C   UNL A   1      37.502  33.726  33.887  1.00  0.00     0.029 A 
ATOM     57  N   UNL A   1      39.234  32.337  33.999  1.00  0.00    -0.354 N 
ATOM     58  N   UNL A   1      41.481  30.999  35.302  1.00  0.00    -0.248 NA
ATOM     59  C   UNL A   1      42.943  30.782  37.110  1.00  0.00     0.031 C 
ATOM     60  C   UNL A   1      38.129  33.900  35.125  1.00  0.00     0.029 A 
ATOM     61  C   UNL A   1      39.190  33.014  35.207  1.00  0.00     0.049 A 
ATOM     62  H   UNL A   1      39.894  31.645  33.763  1.00  0.00     0.167 HD
ATOM     63  C   UNL A   1      41.111  31.897  36.301  1.00  0.00     0.074 A 
ATOM     64  C   UNL A   1      42.029  31.697  37.402  1.00  0.00     0.031 C 
ATOM     65  C   UNL A   1      40.100  32.802  36.307  1.00  0.00     0.037 A 
BRANCH  52  66
ATOM     66  C   UNL A   1      36.862  32.945  31.042  1.00  0.00     0.058 A 
ATOM     67  C   UNL A   1      37.103  33.889  30.031  1.00  0.00     0.135 A 
ATOM     68  C   UNL A   1      35.529  32.571  31.281  1.00  0.00     0.135 A 
ATOM     69  F   UNL A   1      38.356  34.297  29.773  1.00  0.00    -0.206 F 
ATOM     70  C   UNL A   1      36.063  34.461  29.306  1.00  0.00     0.059 A 
ATOM     71  C   UNL A   1      34.475  33.106  30.547  1.00  0.00     0.059 A 
ATOM     72  F   UNL A   1      35.240  31.673  32.237  1.00  0.00    -0.206 F 
ATOM     73  C   UNL A   1      34.752  34.061  29.571  1.00  0.00     0.060 A 
BRANCH  73  74
ATOM     74  S   UNL A   1      33.414  34.809  28.617  1.00  0.00     0.124 S 
ATOM     75  O   UNL A   1      33.089  33.736  27.682  1.00  0.00    -0.237 OA
ATOM     76  O   UNL A   1      32.413  35.080  29.642  1.00  0.00    -0.237 OA
ATOM     77  O   UNL A   1      34.036  35.988  28.024  1.00  0.00    -0.744 OA
ENDBRANCH  73  74
ENDBRANCH  52  66
BRANCH  53  78
ATOM     78  C   UNL A   1      44.468  28.625  35.845  1.00  0.00     0.058 A 
ATOM     79  C   UNL A   1      44.300  27.527  36.704  1.00  0.00     0.135 A 
ATOM     80  C   UNL A   1      45.764  29.142  35.698  1.00  0.00     0.135 A 
ATOM     81  F   UNL A   1      43.078  27.007  36.897  1.00  0.00    -0.206 F 
ATOM     82  C   UNL A   1      45.369  26.975  37.402  1.00  0.00     0.059 A 
ATOM     83  C   UNL A   1      46.855  28.588  36.362  1.00  0.00     0.059 A 
ATOM     84  F   UNL A   1      45.983  30.190  34.888  1.00  0.00    -0.206 F 
ATOM     85  C   UNL A   1      46.646  27.510  37.220  1.00  0.00     0.060 A 
BRANCH  85  86
ATOM     86  S   UNL A   1      48.034  26.752  38.092  1.00  0.00     0.124 S 
ATOM     87  O   UNL A   1      47.651  25.345  38.093  1.00  0.00    -0.237 OA
ATOM     88  O   UNL A   1      49.163  27.106  37.236  1.00  0.00    -0.237 OA
ATOM     89  O   UNL A   1      48.015  27.411  39.394  1.00  0.00    -0.744 OA
ENDBRANCH  85  86
ENDBRANCH  53  78
BRANCH  65  90
ATOM     90  C   UNL A   1      39.890  33.619  37.556  1.00  0.00     0.058 A 
ATOM     91  C   UNL A   1      40.586  34.814  37.791  1.00  0.00     0.135 A 
ATOM     92  C   UNL A   1      38.928  33.229  38.505  1.00  0.00     0.135 A 
ATOM     93  F   UNL A   1      41.519  35.236  36.922  1.00  0.00    -0.206 F 
ATOM     94  C   UNL A   1      40.356  35.580  38.932  1.00  0.00     0.059 A 
ATOM     95  C   UNL A   1      38.660  33.994  39.636  1.00  0.00     0.059 A 
ATOM     96  F   UNL A   1      38.221  32.100  38.326  1.00  0.00    -0.206 F 
ATOM     97  C   UNL A   1      39.388  35.164  39.847  1.00  0.00     0.060 A 
BRANCH  97  98
ATOM     98  S   UNL A   1      39.074  36.184  41.303  1.00  0.00     0.124 S 
ATOM     99  O   UNL A   1      40.329  36.049  42.034  1.00  0.00    -0.237 OA
ATOM    100  O   UNL A   1      38.821  37.496  40.716  1.00  0.00    -0.237 OA
ATOM    101  O   UNL A   1      37.916  35.548  41.924  1.00  0.00    -0.744 OA
ENDBRANCH  97  98
ENDBRANCH  65  90
ENDBRANCH  39  40
ENDBRANCH  32  34
ENDBRANCH  31  32
ENDBRANCH  30  31
ENDBRANCH  29  30
ENDBRANCH  28  29
ENDBRANCH  27  28
ENDBRANCH   1  27
TORSDOF 26
ENDMDL
MODEL 2
REMARK VINA RESULT:      -8.8      1.195      2.048
REMARK SMILES C[NH2+][C@]1(C(=O)OCCOCCOCCOC(=O)c2ccc(-c3c4nc(c(-c5c(F)cc(S(=O)(=O)[O-])cc5F)c5ccc([nH]5)c(-c5c(F)cc(S(=O)(=O)[O-])cc5F)c5nc(c(-c6c(F)cc(S(=O)(=O)[O-])cc6F)c6ccc3[nH]6)C=C5)C=C4)cc2)CC[C@H]([NH+](CC2CC2)CC2CC2)C1
REMARK SMILES IDX 10 1 9 2 8 3 7 4 6 5 4 6 5 7 3 8 84 9 96 10 85 11 86 12 2 13
REMARK SMILES IDX 1 14 87 17 88 19 89 20 90 21 91 22 92 23 93 24 94 25 95 26
REMARK SMILES IDX 11 27 12 28 13 29 14 30 15 31 16 32 17 33 18 34 19 35 83 36
REMARK SMILES IDX 20 37 82 38 21 39 22 40 23 41 76 42 24 43 81 44 75 45 77 46
REMARK SMILES IDX 25 47 80 48 74 49 73 50 26 52 60 53 39 54 59 55 40 56 43 57
REMARK SMILES IDX 58 58 78 59 41 60 42 61 57 63 79 64 44 65 27 66 28 67 37 68
REMARK SMILES IDX 29 69 30 70 36 71 38 72 31 73 32 74 33 75 34 76 35 77 61 78
REMARK SMILES IDX 62 79 71 80 63 81 64 82 70 83 72 84 65 85 66 86 67 87 68 88
REMARK SMILES IDX 69 89 45 90 46 91 55 92 47 93 48 94 54 95 56 96 49 97 50 98
REMARK SMILES IDX 51 99 52 100 53 101
REMARK H PARENT 2 15 2 16 87 18 77 51 43 62
REMARK Flexibility Score: inf
ROOT
ATOM      1  C   UNL A   1      41.308  20.476  26.789  1.00  0.00     0.188 C 
ENDROOT
BRANCH   1   2
ATOM      2  O   UNL A   1      40.129  20.231  26.025  1.00  0.00    -0.376 OA
BRANCH   2   3
ATOM      3  C   UNL A   1      39.201  21.290  25.836  1.00  0.00     0.202 C 
BRANCH   3   4
ATOM      4  C   UNL A   1      37.835  20.962  25.209  1.00  0.00     0.261 C 
BRANCH   4   5
ATOM      5  O   UNL A   1      36.688  21.337  25.999  1.00  0.00    -0.459 OA
BRANCH   5   6
ATOM      6  C   UNL A   1      36.203  22.594  25.800  1.00  0.00     0.368 C 
ATOM      7  O   UNL A   1      36.681  23.588  26.339  1.00  0.00    -0.245 OA
BRANCH   6   8
ATOM      8  C   UNL A   1      34.940  22.652  24.893  1.00  0.00     0.200 C 
ATOM      9  C   UNL A   1      34.113  21.383  24.644  1.00  0.00     0.087 C 
ATOM     10  C   UNL A   1      33.902  23.459  25.699  1.00  0.00     0.146 C 
ATOM     11  C   UNL A   1      32.730  21.904  24.243  1.00  0.00     0.072 C 
ATOM     12  C   UNL A   1      32.511  23.184  25.080  1.00  0.00     0.191 C 
BRANCH   8  13
ATOM     13  N   UNL A   1      35.159  23.260  23.551  1.00  0.00    -0.334 N 
ATOM     14  C   UNL A   1      36.448  23.083  22.912  1.00  0.00     0.331 C 
ATOM     15  H   UNL A   1      34.455  22.868  22.925  1.00  0.00     0.347 HD
ATOM     16  H   UNL A   1      35.100  24.265  23.720  1.00  0.00     0.347 HD
ENDBRANCH   8  13
BRANCH  12  17
ATOM     17  N   UNL A   1      31.993  24.406  24.398  1.00  0.00    -0.332 N 
ATOM     18  H   UNL A   1      32.641  25.180  24.548  1.00  0.00     0.348 HD
BRANCH  17  19
ATOM     19  C   UNL A   1      30.664  24.731  24.979  1.00  0.00     0.265 C 
BRANCH  19  20
ATOM     20  C   UNL A   1      30.179  26.137  25.176  1.00  0.00     0.044 C 
ATOM     21  C   UNL A   1      31.058  27.324  24.867  1.00  0.00     0.010 C 
ATOM     22  C   UNL A   1      29.730  27.184  24.183  1.00  0.00     0.010 C 
ENDBRANCH  19  20
ENDBRANCH  17  19
BRANCH  17  23
ATOM     23  C   UNL A   1      31.895  24.214  22.933  1.00  0.00     0.265 C 
BRANCH  23  24
ATOM     24  C   UNL A   1      32.480  25.394  22.227  1.00  0.00     0.044 C 
ATOM     25  C   UNL A   1      32.709  25.283  20.733  1.00  0.00     0.010 C 
ATOM     26  C   UNL A   1      31.727  26.282  21.266  1.00  0.00     0.010 C 
ENDBRANCH  23  24
ENDBRANCH  17  23
ENDBRANCH  12  17
ENDBRANCH   6   8
ENDBRANCH   5   6
ENDBRANCH   4   5
ENDBRANCH   3   4
ENDBRANCH   2   3
ENDBRANCH   1   2
BRANCH   1  27
ATOM     27  C   UNL A   1      42.677  20.436  26.090  1.00  0.00     0.188 C 
BRANCH  27  28
ATOM     28  O   UNL A   1      43.040  21.670  25.513  1.00  0.00    -0.376 OA
BRANCH  28  29
ATOM     29  C   UNL A   1      44.111  22.370  26.103  1.00  0.00     0.202 C 
BRANCH  29  30
ATOM     30  C   UNL A   1      43.756  23.280  27.288  1.00  0.00     0.261 C 
BRANCH  30  31
ATOM     31  O   UNL A   1      43.453  24.655  26.982  1.00  0.00    -0.460 OA
BRANCH  31  32
ATOM     32  C   UNL A   1      42.151  24.980  26.817  1.00  0.00     0.338 C 
ATOM     33  O   UNL A   1      41.349  24.411  26.090  1.00  0.00    -0.246 OA
BRANCH  32  34
ATOM     34  C   UNL A   1      41.790  26.007  27.826  1.00  0.00     0.060 A 
ATOM     35  C   UNL A   1      42.716  27.011  28.147  1.00  0.00     0.016 A 
ATOM     36  C   UNL A   1      40.547  25.977  28.461  1.00  0.00     0.016 A 
ATOM     37  C   UNL A   1      42.415  27.965  29.129  1.00  0.00     0.010 A 
ATOM     38  C   UNL A   1      40.255  26.920  29.455  1.00  0.00     0.010 A 
ATOM     39  C   UNL A   1      41.199  27.900  29.820  1.00  0.00    -0.014 A 
BRANCH  39  40
ATOM     40  C   UNL A   1      40.974  28.713  31.047  1.00  0.00     0.031 A 
ATOM     41  C   UNL A   1      39.896  29.768  31.018  1.00  0.00     0.074 A 
ATOM     42  C   UNL A   1      41.712  28.548  32.162  1.00  0.00     0.049 A 
ATOM     43  N   UNL A   1      39.593  30.676  31.909  1.00  0.00    -0.248 NA
ATOM     44  C   UNL A   1      39.053  29.803  29.812  1.00  0.00     0.031 C 
ATOM     45  C   UNL A   1      42.752  27.540  32.349  1.00  0.00     0.029 A 
ATOM     46  N   UNL A   1      41.704  29.248  33.346  1.00  0.00    -0.354 N 
ATOM     47  C   UNL A   1      38.536  31.401  31.367  1.00  0.00     0.074 A 
ATOM     48  C   UNL A   1      38.271  30.843  30.058  1.00  0.00     0.031 C 
ATOM     49  C   UNL A   1      43.300  27.701  33.568  1.00  0.00     0.029 A 
ATOM     50  C   UNL A   1      42.677  28.846  34.232  1.00  0.00     0.049 A 
ATOM     51  H   UNL A   1      41.064  29.970  33.542  1.00  0.00     0.167 HD
ATOM     52  C   UNL A   1      37.846  32.432  31.910  1.00  0.00     0.037 A 
ATOM     53  C   UNL A   1      43.044  29.360  35.426  1.00  0.00     0.037 A 
ATOM     54  C   UNL A   1      38.109  32.987  33.213  1.00  0.00     0.049 A 
ATOM     55  C   UNL A   1      42.311  30.560  35.980  1.00  0.00     0.074 A 
ATOM     56  C   UNL A   1      37.449  34.021  33.855  1.00  0.00     0.029 A 
ATOM     57  N   UNL A   1      39.114  32.564  34.069  1.00  0.00    -0.354 N 
ATOM     58  N   UNL A   1      41.303  31.225  35.465  1.00  0.00    -0.248 NA
ATOM     59  C   UNL A   1      42.766  31.079  37.279  1.00  0.00     0.031 C 
ATOM     60  C   UNL A   1      38.092  34.261  35.073  1.00  0.00     0.029 A 
ATOM     61  C   UNL A   1      39.110  33.334  35.221  1.00  0.00     0.049 A 
ATOM     62  H   UNL A   1      39.738  31.825  33.886  1.00  0.00     0.167 HD
ATOM     63  C   UNL A   1      40.984  32.215  36.393  1.00  0.00     0.074 A 
ATOM     64  C   UNL A   1      41.899  32.057  37.503  1.00  0.00     0.031 C 
ATOM     65  C   UNL A   1      40.017  33.165  36.331  1.00  0.00     0.037 A 
BRANCH  52  66
ATOM     66  C   UNL A   1      36.753  33.052  31.081  1.00  0.00     0.058 A 
ATOM     67  C   UNL A   1      37.031  33.929  30.020  1.00  0.00     0.135 A 
ATOM     68  C   UNL A   1      35.407  32.736  31.332  1.00  0.00     0.135 A 
ATOM     69  F   UNL A   1      38.298  34.281  29.748  1.00  0.00    -0.206 F 
ATOM     70  C   UNL A   1      36.015  34.492  29.256  1.00  0.00     0.059 A 
ATOM     71  C   UNL A   1      34.375  33.262  30.560  1.00  0.00     0.059 A 
ATOM     72  F   UNL A   1      35.084  31.905  32.334  1.00  0.00    -0.206 F 
ATOM     73  C   UNL A   1      34.689  34.151  29.533  1.00  0.00     0.060 A 
BRANCH  73  74
ATOM     74  S   UNL A   1      33.382  34.886  28.527  1.00  0.00     0.124 S 
ATOM     75  O   UNL A   1      32.595  35.584  29.539  1.00  0.00    -0.237 OA
ATOM     76  O   UNL A   1      34.135  35.738  27.612  1.00  0.00    -0.237 OA
ATOM     77  O   UNL A   1      32.733  33.731  27.914  1.00  0.00    -0.744 OA
ENDBRANCH  73  74
ENDBRANCH  52  66
BRANCH  53  78
ATOM     78  C   UNL A   1      44.178  28.759  36.183  1.00  0.00     0.058 A 
ATOM     79  C   UNL A   1      45.479  29.273  36.072  1.00  0.00     0.135 A 
ATOM     80  C   UNL A   1      43.987  27.648  37.019  1.00  0.00     0.135 A 
ATOM     81  F   UNL A   1      45.720  30.321  35.269  1.00  0.00    -0.206 F 
ATOM     82  C   UNL A   1      46.551  28.701  36.749  1.00  0.00     0.059 A 
ATOM     83  C   UNL A   1      45.038  27.076  37.731  1.00  0.00     0.059 A 
ATOM     84  F   UNL A   1      42.763  27.116  37.164  1.00  0.00    -0.206 F 
ATOM     85  C   UNL A   1      46.319  27.604  37.582  1.00  0.00     0.060 A 
BRANCH  85  86
ATOM     86  S   UNL A   1      47.710  26.901  38.495  1.00  0.00     0.124 S 
ATOM     87  O   UNL A   1      47.151  26.778  39.837  1.00  0.00    -0.237 OA
ATOM     88  O   UNL A   1      47.941  25.648  37.782  1.00  0.00    -0.237 OA
ATOM     89  O   UNL A   1      48.758  27.905  38.339  1.00  0.00    -0.744 OA
ENDBRANCH  85  86
ENDBRANCH  53  78
BRANCH  65  90
ATOM     90  C   UNL A   1      39.855  34.085  37.513  1.00  0.00     0.058 A 
ATOM     91  C   UNL A   1      39.108  33.723  38.644  1.00  0.00     0.135 A 
ATOM     92  C   UNL A   1      40.513  35.328  37.539  1.00  0.00     0.135 A 
ATOM     93  F   UNL A   1      38.455  32.550  38.675  1.00  0.00    -0.206 F 
ATOM     94  C   UNL A   1      38.997  34.567  39.746  1.00  0.00     0.059 A 
ATOM     95  C   UNL A   1      40.441  36.174  38.641  1.00  0.00     0.059 A 
ATOM     96  F   UNL A   1      41.254  35.723  36.490  1.00  0.00    -0.206 F 
ATOM     97  C   UNL A   1      39.671  35.790  39.737  1.00  0.00     0.060 A 
BRANCH  97  98
ATOM     98  S   UNL A   1      39.547  36.859  41.187  1.00  0.00     0.124 S 
ATOM     99  O   UNL A   1      38.898  38.040  40.628  1.00  0.00    -0.237 OA
ATOM    100  O   UNL A   1      38.733  36.059  42.096  1.00  0.00    -0.237 OA
ATOM    101  O   UNL A   1      40.937  37.042  41.596  1.00  0.00    -0.744 OA
ENDBRANCH  97  98
ENDBRANCH  65  90
ENDBRANCH  39  40
ENDBRANCH  32  34
ENDBRANCH  31  32
ENDBRANCH  30  31
ENDBRANCH  29  30
ENDBRANCH  28  29
ENDBRANCH  27  28
ENDBRANCH   1  27
TORSDOF 26
ENDMDL
MODEL 3
REMARK VINA RESULT:      -8.8      6.147     12.064
REMARK SMILES C[NH2+][C@]1(C(=O)OCCOCCOCCOC(=O)c2ccc(-c3c4nc(c(-c5c(F)cc(S(=O)(=O)[O-])cc5F)c5ccc([nH]5)c(-c5c(F)cc(S(=O)(=O)[O-])cc5F)c5nc(c(-c6c(F)cc(S(=O)(=O)[O-])cc6F)c6ccc3[nH]6)C=C5)C=C4)cc2)CC[C@H]([NH+](CC2CC2)CC2CC2)C1
REMARK SMILES IDX 10 1 9 2 8 3 7 4 6 5 4 6 5 7 3 8 84 9 96 10 85 11 86 12 2 13
REMARK SMILES IDX 1 14 87 17 88 19 89 20 90 21 91 22 92 23 93 24 94 25 95 26
REMARK SMILES IDX 11 27 12 28 13 29 14 30 15 31 16 32 17 33 18 34 19 35 83 36
REMARK SMILES IDX 20 37 82 38 21 39 22 40 23 41 76 42 24 43 81 44 75 45 77 46
REMARK SMILES IDX 25 47 80 48 74 49 73 50 26 52 60 53 39 54 59 55 40 56 43 57
REMARK SMILES IDX 58 58 78 59 41 60 42 61 57 63 79 64 44 65 27 66 28 67 37 68
REMARK SMILES IDX 29 69 30 70 36 71 38 72 31 73 32 74 33 75 34 76 35 77 61 78
REMARK SMILES IDX 62 79 71 80 63 81 64 82 70 83 72 84 65 85 66 86 67 87 68 88
REMARK SMILES IDX 69 89 45 90 46 91 55 92 47 93 48 94 54 95 56 96 49 97 50 98
REMARK SMILES IDX 51 99 52 100 53 101
REMARK H PARENT 2 15 2 16 87 18 77 51 43 62
REMARK Flexibility Score: inf
ROOT
ATOM      1  C   UNL A   1      34.181  31.035  27.613  1.00  0.00     0.188 C 
ENDROOT
BRANCH   1   2
ATOM      2  O   UNL A   1      32.828  31.375  27.318  1.00  0.00    -0.376 OA
BRANCH   2   3
ATOM      3  C   UNL A   1      32.132  30.631  26.327  1.00  0.00     0.202 C 
BRANCH   3   4
ATOM      4  C   UNL A   1      32.802  29.371  25.754  1.00  0.00     0.261 C 
BRANCH   4   5
ATOM      5  O   UNL A   1      31.898  28.373  25.237  1.00  0.00    -0.459 OA
BRANCH   5   6
ATOM      6  C   UNL A   1      31.992  28.106  23.905  1.00  0.00     0.368 C 
ATOM      7  O   UNL A   1      31.988  28.983  23.045  1.00  0.00    -0.245 OA
BRANCH   6   8
ATOM      8  C   UNL A   1      32.025  26.589  23.561  1.00  0.00     0.200 C 
ATOM      9  C   UNL A   1      32.263  26.132  22.115  1.00  0.00     0.087 C 
ATOM     10  C   UNL A   1      33.328  26.061  24.195  1.00  0.00     0.146 C 
ATOM     11  C   UNL A   1      32.794  24.703  22.250  1.00  0.00     0.072 C 
ATOM     12  C   UNL A   1      33.653  24.700  23.534  1.00  0.00     0.191 C 
BRANCH   8  13
ATOM     13  N   UNL A   1      30.849  25.811  24.041  1.00  0.00    -0.334 N 
ATOM     14  C   UNL A   1      30.608  25.727  25.468  1.00  0.00     0.331 C 
ATOM     15  H   UNL A   1      30.020  26.231  23.619  1.00  0.00     0.347 HD
ATOM     16  H   UNL A   1      31.056  24.851  23.765  1.00  0.00     0.347 HD
ENDBRANCH   8  13
BRANCH  12  17
ATOM     17  N   UNL A   1      33.474  23.589  24.514  1.00  0.00    -0.332 N 
ATOM     18  H   UNL A   1      32.633  23.755  25.068  1.00  0.00     0.348 HD
BRANCH  17  19
ATOM     19  C   UNL A   1      34.670  23.554  25.397  1.00  0.00     0.265 C 
BRANCH  19  20
ATOM     20  C   UNL A   1      36.069  23.735  24.886  1.00  0.00     0.044 C 
ATOM     21  C   UNL A   1      37.266  23.314  25.703  1.00  0.00     0.010 C 
ATOM     22  C   UNL A   1      37.063  22.742  24.331  1.00  0.00     0.010 C 
ENDBRANCH  19  20
ENDBRANCH  17  19
BRANCH  17  23
ATOM     23  C   UNL A   1      33.283  22.287  23.834  1.00  0.00     0.265 C 
BRANCH  23  24
ATOM     24  C   UNL A   1      33.391  21.176  24.828  1.00  0.00     0.044 C 
ATOM     25  C   UNL A   1      32.877  19.810  24.421  1.00  0.00     0.010 C 
ATOM     26  C   UNL A   1      34.335  20.004  24.711  1.00  0.00     0.010 C 
ENDBRANCH  23  24
ENDBRANCH  17  23
ENDBRANCH  12  17
ENDBRANCH   6   8
ENDBRANCH   5   6
ENDBRANCH   4   5
ENDBRANCH   3   4
ENDBRANCH   2   3
ENDBRANCH   1   2
BRANCH   1  27
ATOM     27  C   UNL A   1      35.142  32.132  28.100  1.00  0.00     0.188 C 
BRANCH  27  28
ATOM     28  O   UNL A   1      34.509  33.111  28.893  1.00  0.00    -0.376 OA
BRANCH  28  29
ATOM     29  C   UNL A   1      35.063  33.374  30.161  1.00  0.00     0.202 C 
BRANCH  29  30
ATOM     30  C   UNL A   1      36.593  33.494  30.220  1.00  0.00     0.261 C 
BRANCH  30  31
ATOM     31  O   UNL A   1      37.255  32.824  31.311  1.00  0.00    -0.460 OA
BRANCH  31  32
ATOM     32  C   UNL A   1      37.121  31.480  31.385  1.00  0.00     0.338 C 
ATOM     33  O   UNL A   1      36.119  30.871  31.731  1.00  0.00    -0.246 OA
BRANCH  32  34
ATOM     34  C   UNL A   1      38.317  30.854  30.767  1.00  0.00     0.060 A 
ATOM     35  C   UNL A   1      39.375  30.435  31.588  1.00  0.00     0.016 A 
ATOM     36  C   UNL A   1      38.400  30.686  29.384  1.00  0.00     0.016 A 
ATOM     37  C   UNL A   1      40.532  29.881  31.024  1.00  0.00     0.010 A 
ATOM     38  C   UNL A   1      39.564  30.150  28.820  1.00  0.00     0.010 A 
ATOM     39  C   UNL A   1      40.652  29.775  29.632  1.00  0.00    -0.014 A 
BRANCH  39  40
ATOM     40  C   UNL A   1      41.964  29.461  29.001  1.00  0.00     0.031 A 
ATOM     41  C   UNL A   1      42.212  28.049  28.532  1.00  0.00     0.074 A 
ATOM     42  C   UNL A   1      42.931  30.387  28.859  1.00  0.00     0.049 A 
ATOM     43  N   UNL A   1      43.306  27.505  28.066  1.00  0.00    -0.248 NA
ATOM     44  C   UNL A   1      41.066  27.128  28.608  1.00  0.00     0.031 C 
ATOM     45  C   UNL A   1      42.816  31.797  29.223  1.00  0.00     0.029 A 
ATOM     46  N   UNL A   1      44.216  30.268  28.382  1.00  0.00    -0.354 N 
ATOM     47  C   UNL A   1      42.988  26.175  27.809  1.00  0.00     0.074 A 
ATOM     48  C   UNL A   1      41.606  25.990  28.197  1.00  0.00     0.031 C 
ATOM     49  C   UNL A   1      43.989  32.409  28.978  1.00  0.00     0.029 A 
ATOM     50  C   UNL A   1      44.951  31.427  28.476  1.00  0.00     0.049 A 
ATOM     51  H   UNL A   1      44.576  29.431  28.008  1.00  0.00     0.167 HD
ATOM     52  C   UNL A   1      43.770  25.198  27.292  1.00  0.00     0.037 A 
ATOM     53  C   UNL A   1      46.256  31.662  28.218  1.00  0.00     0.037 A 
ATOM     54  C   UNL A   1      45.145  25.381  26.904  1.00  0.00     0.049 A 
ATOM     55  C   UNL A   1      47.133  30.539  27.713  1.00  0.00     0.074 A 
ATOM     56  C   UNL A   1      46.013  24.453  26.354  1.00  0.00     0.029 A 
ATOM     57  N   UNL A   1      45.856  26.564  27.034  1.00  0.00    -0.354 N 
ATOM     58  N   UNL A   1      46.815  29.291  27.459  1.00  0.00    -0.248 NA
ATOM     59  C   UNL A   1      48.547  30.857  27.462  1.00  0.00     0.031 C 
ATOM     60  C   UNL A   1      47.264  25.059  26.205  1.00  0.00     0.029 A 
ATOM     61  C   UNL A   1      47.160  26.383  26.600  1.00  0.00     0.049 A 
ATOM     62  H   UNL A   1      45.490  27.409  27.382  1.00  0.00     0.167 HD
ATOM     63  C   UNL A   1      47.979  28.688  26.985  1.00  0.00     0.074 A 
ATOM     64  C   UNL A   1      49.004  29.710  26.981  1.00  0.00     0.031 C 
ATOM     65  C   UNL A   1      48.177  27.407  26.586  1.00  0.00     0.037 A 
BRANCH  52  66
ATOM     66  C   UNL A   1      43.166  23.827  27.141  1.00  0.00     0.058 A 
ATOM     67  C   UNL A   1      42.722  23.343  25.901  1.00  0.00     0.135 A 
ATOM     68  C   UNL A   1      43.063  22.972  28.251  1.00  0.00     0.135 A 
ATOM     69  F   UNL A   1      42.780  24.124  24.810  1.00  0.00    -0.206 F 
ATOM     70  C   UNL A   1      42.172  22.073  25.770  1.00  0.00     0.059 A 
ATOM     71  C   UNL A   1      42.545  21.685  28.138  1.00  0.00     0.059 A 
ATOM     72  F   UNL A   1      43.471  23.383  29.462  1.00  0.00    -0.206 F 
ATOM     73  C   UNL A   1      42.089  21.250  26.895  1.00  0.00     0.060 A 
BRANCH  73  74
ATOM     74  S   UNL A   1      41.378  19.602  26.707  1.00  0.00     0.124 S 
ATOM     75  O   UNL A   1      42.549  18.822  26.319  1.00  0.00    -0.237 OA
ATOM     76  O   UNL A   1      40.853  19.334  28.041  1.00  0.00    -0.237 OA
ATOM     77  O   UNL A   1      40.372  19.781  25.664  1.00  0.00    -0.744 OA
ENDBRANCH  73  74
ENDBRANCH  52  66
BRANCH  53  78
ATOM     78  C   UNL A   1      46.831  33.017  28.447  1.00  0.00     0.058 A 
ATOM     79  C   UNL A   1      46.876  33.971  27.418  1.00  0.00     0.135 A 
ATOM     80  C   UNL A   1      47.363  33.381  29.694  1.00  0.00     0.135 A 
ATOM     81  F   UNL A   1      46.401  33.667  26.200  1.00  0.00    -0.206 F 
ATOM     82  C   UNL A   1      47.439  35.228  27.611  1.00  0.00     0.059 A 
ATOM     83  C   UNL A   1      47.904  34.644  29.920  1.00  0.00     0.059 A 
ATOM     84  F   UNL A   1      47.345  32.509  30.714  1.00  0.00    -0.206 F 
ATOM     85  C   UNL A   1      47.946  35.558  28.869  1.00  0.00     0.060 A 
BRANCH  85  86
ATOM     86  S   UNL A   1      48.629  37.211  29.122  1.00  0.00     0.124 S 
ATOM     87  O   UNL A   1      47.934  37.636  30.331  1.00  0.00    -0.237 OA
ATOM     88  O   UNL A   1      50.055  36.933  29.269  1.00  0.00    -0.237 OA
ATOM     89  O   UNL A   1      48.259  37.918  27.900  1.00  0.00    -0.744 OA
ENDBRANCH  85  86
ENDBRANCH  53  78
BRANCH  65  90
ATOM     90  C   UNL A   1      49.539  27.034  26.062  1.00  0.00     0.058 A 
ATOM     91  C   UNL A   1      50.534  26.491  26.889  1.00  0.00     0.135 A 
ATOM     92  C   UNL A   1      49.832  27.164  24.692  1.00  0.00     0.135 A 
ATOM     93  F   UNL A   1      50.313  26.345  28.206  1.00  0.00    -0.206 F 
ATOM     94  C   UNL A   1      51.777  26.114  26.385  1.00  0.00     0.059 A 
ATOM     95  C   UNL A   1      51.055  26.766  24.162  1.00  0.00     0.059 A 
ATOM     96  F   UNL A   1      48.914  27.666  23.849  1.00  0.00    -0.206 F 
ATOM     97  C   UNL A   1      52.027  26.252  25.019  1.00  0.00     0.060 A 
BRANCH  97  98
ATOM     98  S   UNL A   1      53.629  25.727  24.373  1.00  0.00     0.124 S 
ATOM     99  O   UNL A   1      54.540  26.622  25.079  1.00  0.00    -0.237 OA
ATOM    100  O   UNL A   1      53.683  24.325  24.773  1.00  0.00    -0.237 OA
ATOM    101  O   UNL A   1      53.511  25.958  22.936  1.00  0.00    -0.744 OA
ENDBRANCH  97  98
ENDBRANCH  65  90
ENDBRANCH  39  40
ENDBRANCH  32  34
ENDBRANCH  31  32
ENDBRANCH  30  31
ENDBRANCH  29  30
ENDBRANCH  28  29
ENDBRANCH  27  28
ENDBRANCH   1  27
TORSDOF 26
ENDMDL
