MODEL 1
REMARK VINA RESULT:     -14.9      0.000      0.000
REMARK SMILES Cc1ccc([C@@]23C[C@@H]4C[C@@H](C[C@@](C(=O)N5CCC(C(=O)OCCOCCOCCOC(=O)c6ccc(-c7c8nc(c(-c9c(F)cc(S(=O)(=O)[O-])cc9F)c9ccc([nH]9)c(-c9c(F)cc(S(=O)(=O)[O-])cc9F)c9nc(c(-c%10c(F)cc(S(=O)(=O)[O-])cc%10F)c%10ccc7[nH]%10)C=C9)C=C8)cc6)CC5)(C4)C2)C3)cc1
REMARK SMILES IDX 26 1 25 2 24 3 23 4 22 5 21 6 19 7 20 8 18 9 13 10 14 11
REMARK SMILES IDX 15 12 16 13 100 14 17 15 99 16 12 17 6 18 7 19 102 20 103 21
REMARK SMILES IDX 8 22 10 23 9 24 101 25 11 26 5 27 1 28 2 29 3 30 105 31 4 32
REMARK SMILES IDX 104 33 27 34 28 35 29 36 30 37 31 38 32 39 33 40 34 41 98 42
REMARK SMILES IDX 35 43 97 44 36 45 37 46 38 47 91 48 39 49 96 50 90 51 92 52
REMARK SMILES IDX 40 53 95 54 89 55 88 56 41 58 75 59 54 60 74 61 55 62 58 63
REMARK SMILES IDX 73 64 93 65 56 66 57 67 72 69 94 70 59 71 42 72 43 73 52 74
REMARK SMILES IDX 44 75 45 76 51 77 53 78 46 79 47 80 48 81 49 82 50 83 76 84
REMARK SMILES IDX 77 85 86 86 78 87 79 88 85 89 87 90 80 91 81 92 82 93 83 94
REMARK SMILES IDX 84 95 60 96 61 97 70 98 62 99 63 100 69 101 71 102 64 103
REMARK SMILES IDX 65 104 66 105 67 106 68 107
REMARK H PARENT 92 57 58 68
REMARK Flexibility Score: inf
ROOT
ATOM      1  C   UNL A   1      31.771  28.365  27.120  1.00  0.00     0.188 C 
ENDROOT
BRANCH   1   2
ATOM      2  C   UNL A   1      32.263  26.976  26.710  1.00  0.00     0.188 C 
BRANCH   2   3
ATOM      3  O   UNL A   1      31.528  25.788  27.062  1.00  0.00    -0.376 OA
BRANCH   3   4
ATOM      4  C   UNL A   1      30.519  25.195  26.233  1.00  0.00     0.202 C 
BRANCH   4   5
ATOM      5  C   UNL A   1      29.530  25.894  25.070  1.00  0.00     0.261 C 
BRANCH   5   6
ATOM      6  O   UNL A   1      29.692  27.253  23.886  1.00  0.00    -0.463 OA
BRANCH   6   7
ATOM      7  C   UNL A   1      30.530  27.724  22.793  1.00  0.00     0.309 C 
ATOM      8  O   UNL A   1      30.393  28.704  22.046  1.00  0.00    -0.252 OA
BRANCH   7   9
ATOM      9  C   UNL A   1      31.799  27.128  22.373  1.00  0.00     0.103 C 
ATOM     10  C   UNL A   1      33.198  23.777  22.547  1.00  0.00     0.228 C 
ATOM     11  O   UNL A   1      32.335  23.017  22.107  1.00  0.00    -0.274 OA
ATOM     12  N   UNL A   1      33.473  25.019  21.963  1.00  0.00    -0.342 N 
ATOM     13  C   UNL A   1      32.720  25.375  20.781  1.00  0.00     0.120 C 
ATOM     14  C   UNL A   1      33.961  26.194  22.699  1.00  0.00     0.120 C 
ATOM     15  C   UNL A   1      31.474  26.079  21.263  1.00  0.00     0.037 C 
ATOM     16  C   UNL A   1      32.770  26.777  23.436  1.00  0.00     0.037 C 
BRANCH  10  17
ATOM     17  C   UNL A   1      34.097  23.352  23.703  1.00  0.00     0.051 C 
ATOM     18  C   UNL A   1      34.562  21.209  25.020  1.00  0.00    -0.003 C 
ATOM     19  C   UNL A   1      36.057  21.413  24.628  1.00  0.00     0.015 C 
ATOM     20  C   UNL A   1      33.698  21.899  23.972  1.00  0.00     0.028 C 
ATOM     21  C   UNL A   1      34.293  21.983  26.337  1.00  0.00     0.015 C 
ATOM     22  C   UNL A   1      36.431  22.908  24.542  1.00  0.00    -0.009 C 
ATOM     23  C   UNL A   1      34.619  23.492  26.169  1.00  0.00    -0.009 C 
ATOM     24  C   UNL A   1      36.116  23.634  25.849  1.00  0.00     0.007 C 
ATOM     25  C   UNL A   1      35.605  23.553  23.438  1.00  0.00     0.020 C 
ATOM     26  C   UNL A   1      33.792  24.111  25.013  1.00  0.00     0.020 C 
BRANCH  18  27
ATOM     27  C   UNL A   1      34.203  19.710  25.062  1.00  0.00    -0.042 A 
ATOM     28  C   UNL A   1      33.068  15.521  24.863  1.00  0.00     0.044 C 
ATOM     29  C   UNL A   1      33.485  16.956  24.944  1.00  0.00    -0.051 A 
ATOM     30  C   UNL A   1      32.559  17.901  25.365  1.00  0.00     0.004 A 
ATOM     31  C   UNL A   1      34.770  17.384  24.593  1.00  0.00     0.004 A 
ATOM     32  C   UNL A   1      32.919  19.246  25.437  1.00  0.00     0.004 A 
ATOM     33  C   UNL A   1      35.124  18.742  24.651  1.00  0.00     0.004 A 
ENDBRANCH  18  27
ENDBRANCH  10  17
ENDBRANCH   7   9
ENDBRANCH   6   7
ENDBRANCH   5   6
ENDBRANCH   4   5
ENDBRANCH   3   4
ENDBRANCH   2   3
ENDBRANCH   1   2
BRANCH   1  34
ATOM     34  O   UNL A   1      31.754  29.229  26.000  1.00  0.00    -0.376 OA
BRANCH  34  35
ATOM     35  C   UNL A   1      32.487  30.430  26.101  1.00  0.00     0.202 C 
BRANCH  35  36
ATOM     36  C   UNL A   1      33.109  30.631  27.490  1.00  0.00     0.261 C 
BRANCH  36  37
ATOM     37  O   UNL A   1      34.438  31.211  27.443  1.00  0.00    -0.460 OA
BRANCH  37  38
ATOM     38  C   UNL A   1      35.162  31.285  28.624  1.00  0.00     0.338 C 
ATOM     39  O   UNL A   1      34.814  31.981  29.550  1.00  0.00    -0.246 OA
BRANCH  38  40
ATOM     40  C   UNL A   1      36.252  30.249  28.640  1.00  0.00     0.060 A 
ATOM     41  C   UNL A   1      36.799  29.515  29.700  1.00  0.00     0.016 A 
ATOM     42  C   UNL A   1      36.877  30.087  27.463  1.00  0.00     0.016 A 
ATOM     43  C   UNL A   1      38.117  28.855  29.631  1.00  0.00     0.010 A 
ATOM     44  C   UNL A   1      38.191  29.641  27.506  1.00  0.00     0.010 A 
ATOM     45  C   UNL A   1      38.979  28.989  28.531  1.00  0.00    -0.014 A 
BRANCH  45  46
ATOM     46  C   UNL A   1      40.695  28.456  28.436  1.00  0.00     0.031 A 
ATOM     47  C   UNL A   1      41.467  26.898  27.833  1.00  0.00     0.074 A 
ATOM     48  C   UNL A   1      41.570  29.115  29.229  1.00  0.00     0.049 A 
ATOM     49  N   UNL A   1      42.381  26.189  28.486  1.00  0.00    -0.248 NA
ATOM     50  C   UNL A   1      41.064  25.971  26.664  1.00  0.00     0.031 C 
ATOM     51  C   UNL A   1      43.005  28.886  29.305  1.00  0.00     0.029 A 
ATOM     52  N   UNL A   1      41.300  30.015  30.261  1.00  0.00    -0.354 N 
ATOM     53  C   UNL A   1      42.604  24.951  27.826  1.00  0.00     0.074 A 
ATOM     54  C   UNL A   1      41.670  24.821  26.794  1.00  0.00     0.031 C 
ATOM     55  C   UNL A   1      43.460  29.396  30.457  1.00  0.00     0.029 A 
ATOM     56  C   UNL A   1      42.315  29.867  31.214  1.00  0.00     0.049 A 
ATOM     57  H   UNL A   1      40.540  30.638  30.309  1.00  0.00     0.167 HD
ATOM     58  C   UNL A   1      43.636  24.089  28.012  1.00  0.00     0.037 A 
ATOM     59  C   UNL A   1      42.063  29.617  32.527  1.00  0.00     0.037 A 
ATOM     60  C   UNL A   1      44.476  24.606  29.036  1.00  0.00     0.049 A 
ATOM     61  C   UNL A   1      42.799  28.407  33.052  1.00  0.00     0.074 A 
ATOM     62  C   UNL A   1      45.427  25.606  28.999  1.00  0.00     0.029 A 
ATOM     63  N   UNL A   1      44.050  24.475  30.338  1.00  0.00    -0.354 N 
ATOM     64  N   UNL A   1      43.306  27.472  32.293  1.00  0.00    -0.248 NA
ATOM     65  C   UNL A   1      43.045  28.160  34.470  1.00  0.00     0.031 C 
ATOM     66  C   UNL A   1      45.518  26.144  30.302  1.00  0.00     0.029 A 
ATOM     67  C   UNL A   1      44.683  25.409  31.126  1.00  0.00     0.049 A 
ATOM     68  H   UNL A   1      43.394  23.814  30.657  1.00  0.00     0.167 HD
ATOM     69  C   UNL A   1      43.893  26.510  33.077  1.00  0.00     0.074 A 
ATOM     70  C   UNL A   1      43.728  27.002  34.429  1.00  0.00     0.031 C 
ATOM     71  C   UNL A   1      44.459  25.384  32.554  1.00  0.00     0.037 A 
BRANCH  58  72
ATOM     72  C   UNL A   1      43.993  23.054  26.948  1.00  0.00     0.058 A 
ATOM     73  C   UNL A   1      43.179  21.921  26.781  1.00  0.00     0.135 A 
ATOM     74  C   UNL A   1      45.200  23.034  26.203  1.00  0.00     0.135 A 
ATOM     75  F   UNL A   1      41.985  21.840  27.384  1.00  0.00    -0.206 F 
ATOM     76  C   UNL A   1      43.575  20.806  26.036  1.00  0.00     0.059 A 
ATOM     77  C   UNL A   1      45.651  21.899  25.507  1.00  0.00     0.059 A 
ATOM     78  F   UNL A   1      46.014  24.104  26.192  1.00  0.00    -0.206 F 
ATOM     79  C   UNL A   1      44.831  20.780  25.437  1.00  0.00     0.060 A 
BRANCH  79  80
ATOM     80  S   UNL A   1      45.377  19.257  24.626  1.00  0.00     0.124 S 
ATOM     81  O   UNL A   1      45.105  18.243  25.642  1.00  0.00    -0.237 OA
ATOM     82  O   UNL A   1      44.518  19.216  23.448  1.00  0.00    -0.237 OA
ATOM     83  O   UNL A   1      46.794  19.496  24.365  1.00  0.00    -0.744 OA
ENDBRANCH  79  80
ENDBRANCH  58  72
BRANCH  59  84
ATOM     84  C   UNL A   1      40.786  30.198  33.033  1.00  0.00     0.058 A 
ATOM     85  C   UNL A   1      40.745  31.596  33.228  1.00  0.00     0.135 A 
ATOM     86  C   UNL A   1      39.556  29.527  32.992  1.00  0.00     0.135 A 
ATOM     87  F   UNL A   1      41.889  32.298  33.294  1.00  0.00    -0.206 F 
ATOM     88  C   UNL A   1      39.553  32.312  33.233  1.00  0.00     0.059 A 
ATOM     89  C   UNL A   1      38.338  30.229  33.011  1.00  0.00     0.059 A 
ATOM     90  F   UNL A   1      39.514  28.199  32.813  1.00  0.00    -0.206 F 
ATOM     91  C   UNL A   1      38.354  31.627  33.077  1.00  0.00     0.060 A 
BRANCH  91  92
ATOM     92  S   UNL A   1      36.868  32.624  32.784  1.00  0.00     0.124 S 
ATOM     93  O   UNL A   1      35.834  31.605  32.648  1.00  0.00    -0.237 OA
ATOM     94  O   UNL A   1      36.807  33.420  34.009  1.00  0.00    -0.237 OA
ATOM     95  O   UNL A   1      37.196  33.362  31.571  1.00  0.00    -0.744 OA
ENDBRANCH  91  92
ENDBRANCH  59  84
BRANCH  71  96
ATOM     96  C   UNL A   1      44.907  24.139  33.291  1.00  0.00     0.058 A 
ATOM     97  C   UNL A   1      44.175  22.945  33.328  1.00  0.00     0.135 A 
ATOM     98  C   UNL A   1      46.217  24.067  33.842  1.00  0.00     0.135 A 
ATOM     99  F   UNL A   1      42.971  22.844  32.750  1.00  0.00    -0.206 F 
ATOM    100  C   UNL A   1      44.674  21.783  33.921  1.00  0.00     0.059 A 
ATOM    101  C   UNL A   1      46.761  22.902  34.367  1.00  0.00     0.059 A 
ATOM    102  F   UNL A   1      47.032  25.132  33.872  1.00  0.00    -0.206 F 
ATOM    103  C   UNL A   1      45.968  21.770  34.436  1.00  0.00     0.060 A 
BRANCH 103 104
ATOM    104  S   UNL A   1      46.641  20.274  35.176  1.00  0.00     0.124 S 
ATOM    105  O   UNL A   1      47.437  19.743  34.074  1.00  0.00    -0.237 OA
ATOM    106  O   UNL A   1      47.403  20.784  36.313  1.00  0.00    -0.237 OA
ATOM    107  O   UNL A   1      45.447  19.511  35.522  1.00  0.00    -0.744 OA
ENDBRANCH 103 104
ENDBRANCH  71  96
ENDBRANCH  45  46
ENDBRANCH  38  40
ENDBRANCH  37  38
ENDBRANCH  36  37
ENDBRANCH  35  36
ENDBRANCH  34  35
ENDBRANCH   1  34
TORSDOF 22
ENDMDL
MODEL 2
REMARK VINA RESULT:     -14.1      1.941      2.740
REMARK SMILES Cc1ccc([C@@]23C[C@@H]4C[C@@H](C[C@@](C(=O)N5CCC(C(=O)OCCOCCOCCOC(=O)c6ccc(-c7c8nc(c(-c9c(F)cc(S(=O)(=O)[O-])cc9F)c9ccc([nH]9)c(-c9c(F)cc(S(=O)(=O)[O-])cc9F)c9nc(c(-c%10c(F)cc(S(=O)(=O)[O-])cc%10F)c%10ccc7[nH]%10)C=C9)C=C8)cc6)CC5)(C4)C2)C3)cc1
REMARK SMILES IDX 26 1 25 2 24 3 23 4 22 5 21 6 19 7 20 8 18 9 13 10 14 11
REMARK SMILES IDX 15 12 16 13 100 14 17 15 99 16 12 17 6 18 7 19 102 20 103 21
REMARK SMILES IDX 8 22 10 23 9 24 101 25 11 26 5 27 1 28 2 29 3 30 105 31 4 32
REMARK SMILES IDX 104 33 27 34 28 35 29 36 30 37 31 38 32 39 33 40 34 41 98 42
REMARK SMILES IDX 35 43 97 44 36 45 37 46 38 47 91 48 39 49 96 50 90 51 92 52
REMARK SMILES IDX 40 53 95 54 89 55 88 56 41 58 75 59 54 60 74 61 55 62 58 63
REMARK SMILES IDX 73 64 93 65 56 66 57 67 72 69 94 70 59 71 42 72 43 73 52 74
REMARK SMILES IDX 44 75 45 76 51 77 53 78 46 79 47 80 48 81 49 82 50 83 76 84
REMARK SMILES IDX 77 85 86 86 78 87 79 88 85 89 87 90 80 91 81 92 82 93 83 94
REMARK SMILES IDX 84 95 60 96 61 97 70 98 62 99 63 100 69 101 71 102 64 103
REMARK SMILES IDX 65 104 66 105 67 106 68 107
REMARK H PARENT 92 57 58 68
REMARK Flexibility Score: inf
ROOT
ATOM      1  C   UNL A   1      30.867  27.164  25.801  1.00  0.00     0.188 C 
ENDROOT
BRANCH   1   2
ATOM      2  C   UNL A   1      30.138  25.949  25.222  1.00  0.00     0.188 C 
BRANCH   2   3
ATOM      3  O   UNL A   1      28.725  25.989  24.944  1.00  0.00    -0.376 OA
BRANCH   3   4
ATOM      4  C   UNL A   1      28.142  26.730  23.863  1.00  0.00     0.202 C 
BRANCH   4   5
ATOM      5  C   UNL A   1      28.621  28.181  23.168  1.00  0.00     0.261 C 
BRANCH   5   6
ATOM      6  O   UNL A   1      30.205  28.985  22.823  1.00  0.00    -0.463 OA
BRANCH   6   7
ATOM      7  C   UNL A   1      31.639  28.810  22.998  1.00  0.00     0.309 C 
ATOM      8  O   UNL A   1      32.450  29.471  23.663  1.00  0.00    -0.252 OA
BRANCH   7   9
ATOM      9  C   UNL A   1      32.442  27.725  22.430  1.00  0.00     0.103 C 
ATOM     10  C   UNL A   1      32.756  24.173  23.139  1.00  0.00     0.228 C 
ATOM     11  O   UNL A   1      31.610  23.726  23.182  1.00  0.00    -0.274 OA
ATOM     12  N   UNL A   1      33.161  25.111  22.181  1.00  0.00    -0.342 N 
ATOM     13  C   UNL A   1      32.180  25.518  21.199  1.00  0.00     0.120 C 
ATOM     14  C   UNL A   1      34.201  26.126  22.398  1.00  0.00     0.120 C 
ATOM     15  C   UNL A   1      31.452  26.703  21.789  1.00  0.00     0.037 C 
ATOM     16  C   UNL A   1      33.576  27.223  23.240  1.00  0.00     0.037 C 
BRANCH  10  17
ATOM     17  C   UNL A   1      33.837  23.645  24.076  1.00  0.00     0.051 C 
ATOM     18  C   UNL A   1      34.507  21.386  25.071  1.00  0.00    -0.003 C 
ATOM     19  C   UNL A   1      35.914  21.645  24.452  1.00  0.00     0.015 C 
ATOM     20  C   UNL A   1      33.480  22.168  24.262  1.00  0.00     0.028 C 
ATOM     21  C   UNL A   1      34.473  22.021  26.486  1.00  0.00     0.015 C 
ATOM     22  C   UNL A   1      36.277  23.144  24.455  1.00  0.00    -0.009 C 
ATOM     23  C   UNL A   1      34.775  23.543  26.418  1.00  0.00    -0.009 C 
ATOM     24  C   UNL A   1      36.195  23.732  25.862  1.00  0.00     0.007 C 
ATOM     25  C   UNL A   1      35.278  23.888  23.579  1.00  0.00     0.020 C 
ATOM     26  C   UNL A   1      33.766  24.266  25.489  1.00  0.00     0.020 C 
BRANCH  18  27
ATOM     27  C   UNL A   1      34.150  19.887  25.024  1.00  0.00    -0.042 A 
ATOM     28  C   UNL A   1      33.061  15.706  24.560  1.00  0.00     0.044 C 
ATOM     29  C   UNL A   1      33.460  17.138  24.735  1.00  0.00    -0.051 A 
ATOM     30  C   UNL A   1      32.489  18.069  25.076  1.00  0.00     0.004 A 
ATOM     31  C   UNL A   1      34.777  17.577  24.550  1.00  0.00     0.004 A 
ATOM     32  C   UNL A   1      32.833  19.411  25.232  1.00  0.00     0.004 A 
ATOM     33  C   UNL A   1      35.116  18.932  24.692  1.00  0.00     0.004 A 
ENDBRANCH  18  27
ENDBRANCH  10  17
ENDBRANCH   7   9
ENDBRANCH   6   7
ENDBRANCH   5   6
ENDBRANCH   4   5
ENDBRANCH   3   4
ENDBRANCH   2   3
ENDBRANCH   1   2
BRANCH   1  34
ATOM     34  O   UNL A   1      31.146  26.958  27.172  1.00  0.00    -0.376 OA
BRANCH  34  35
ATOM     35  C   UNL A   1      31.674  28.050  27.893  1.00  0.00     0.202 C 
BRANCH  35  36
ATOM     36  C   UNL A   1      31.782  29.325  27.045  1.00  0.00     0.261 C 
BRANCH  36  37
ATOM     37  O   UNL A   1      33.151  29.746  26.817  1.00  0.00    -0.460 OA
BRANCH  37  38
ATOM     38  C   UNL A   1      33.574  30.935  27.392  1.00  0.00     0.338 C 
ATOM     39  O   UNL A   1      32.896  31.937  27.372  1.00  0.00    -0.246 OA
BRANCH  38  40
ATOM     40  C   UNL A   1      34.833  30.720  28.186  1.00  0.00     0.060 A 
ATOM     41  C   UNL A   1      35.553  31.593  29.011  1.00  0.00     0.016 A 
ATOM     42  C   UNL A   1      35.421  29.531  27.976  1.00  0.00     0.016 A 
ATOM     43  C   UNL A   1      36.964  31.374  29.384  1.00  0.00     0.010 A 
ATOM     44  C   UNL A   1      36.794  29.467  28.167  1.00  0.00     0.010 A 
ATOM     45  C   UNL A   1      37.734  30.321  28.863  1.00  0.00    -0.014 A 
BRANCH  45  46
ATOM     46  C   UNL A   1      39.512  30.101  29.033  1.00  0.00     0.031 A 
ATOM     47  C   UNL A   1      40.611  28.663  28.694  1.00  0.00     0.074 A 
ATOM     48  C   UNL A   1      40.146  30.970  29.852  1.00  0.00     0.049 A 
ATOM     49  N   UNL A   1      41.532  28.187  29.524  1.00  0.00    -0.248 NA
ATOM     50  C   UNL A   1      40.534  27.586  27.589  1.00  0.00     0.031 C 
ATOM     51  C   UNL A   1      41.575  31.010  30.125  1.00  0.00     0.029 A 
ATOM     52  N   UNL A   1      39.590  31.887  30.744  1.00  0.00    -0.354 N 
ATOM     53  C   UNL A   1      42.048  26.960  29.029  1.00  0.00     0.074 A 
ATOM     54  C   UNL A   1      41.301  26.579  27.912  1.00  0.00     0.031 C 
ATOM     55  C   UNL A   1      41.775  31.686  31.264  1.00  0.00     0.029 A 
ATOM     56  C   UNL A   1      40.474  32.004  31.823  1.00  0.00     0.049 A 
ATOM     57  H   UNL A   1      38.736  32.366  30.634  1.00  0.00     0.167 HD
ATOM     58  C   UNL A   1      43.175  26.316  29.428  1.00  0.00     0.037 A 
ATOM     59  C   UNL A   1      40.090  31.821  33.115  1.00  0.00     0.037 A 
ATOM     60  C   UNL A   1      43.767  27.058  30.487  1.00  0.00     0.049 A 
ATOM     61  C   UNL A   1      40.939  30.811  33.849  1.00  0.00     0.074 A 
ATOM     62  C   UNL A   1      44.533  28.207  30.460  1.00  0.00     0.029 A 
ATOM     63  N   UNL A   1      43.194  26.960  31.734  1.00  0.00    -0.354 N 
ATOM     64  N   UNL A   1      41.695  29.924  33.260  1.00  0.00    -0.248 NA
ATOM     65  C   UNL A   1      41.026  30.729  35.304  1.00  0.00     0.031 C 
ATOM     66  C   UNL A   1      44.352  28.857  31.701  1.00  0.00     0.029 A 
ATOM     67  C   UNL A   1      43.547  28.054  32.491  1.00  0.00     0.049 A 
ATOM     68  H   UNL A   1      42.621  26.219  32.038  1.00  0.00     0.167 HD
ATOM     69  C   UNL A   1      42.322  29.150  34.206  1.00  0.00     0.074 A 
ATOM     70  C   UNL A   1      41.893  29.714  35.468  1.00  0.00     0.031 C 
ATOM     71  C   UNL A   1      43.136  28.106  33.875  1.00  0.00     0.037 A 
BRANCH  58  72
ATOM     72  C   UNL A   1      43.844  25.279  28.530  1.00  0.00     0.058 A 
ATOM     73  C   UNL A   1      44.698  25.702  27.497  1.00  0.00     0.135 A 
ATOM     74  C   UNL A   1      43.546  23.892  28.523  1.00  0.00     0.135 A 
ATOM     75  F   UNL A   1      45.104  26.977  27.423  1.00  0.00    -0.206 F 
ATOM     76  C   UNL A   1      45.127  24.853  26.471  1.00  0.00     0.059 A 
ATOM     77  C   UNL A   1      43.905  23.036  27.467  1.00  0.00     0.059 A 
ATOM     78  F   UNL A   1      42.829  23.343  29.520  1.00  0.00    -0.206 F 
ATOM     79  C   UNL A   1      44.691  23.532  26.435  1.00  0.00     0.060 A 
BRANCH  79  80
ATOM     80  S   UNL A   1      45.127  22.511  25.005  1.00  0.00     0.124 S 
ATOM     81  O   UNL A   1      46.196  21.667  25.534  1.00  0.00    -0.237 OA
ATOM     82  O   UNL A   1      43.867  21.832  24.723  1.00  0.00    -0.237 OA
ATOM     83  O   UNL A   1      45.555  23.485  24.005  1.00  0.00    -0.744 OA
ENDBRANCH  79  80
ENDBRANCH  58  72
BRANCH  59  84
ATOM     84  C   UNL A   1      38.675  32.201  33.399  1.00  0.00     0.058 A 
ATOM     85  C   UNL A   1      38.420  33.557  33.699  1.00  0.00     0.135 A 
ATOM     86  C   UNL A   1      37.572  31.410  33.053  1.00  0.00     0.135 A 
ATOM     87  F   UNL A   1      39.431  34.368  34.055  1.00  0.00    -0.206 F 
ATOM     88  C   UNL A   1      37.167  34.136  33.523  1.00  0.00     0.059 A 
ATOM     89  C   UNL A   1      36.293  31.969  32.884  1.00  0.00     0.059 A 
ATOM     90  F   UNL A   1      37.736  30.113  32.757  1.00  0.00    -0.206 F 
ATOM     91  C   UNL A   1      36.118  33.345  33.070  1.00  0.00     0.060 A 
BRANCH  91  92
ATOM     92  S   UNL A   1      34.600  34.200  32.567  1.00  0.00     0.124 S 
ATOM     93  O   UNL A   1      34.676  34.137  31.113  1.00  0.00    -0.237 OA
ATOM     94  O   UNL A   1      33.575  33.356  33.179  1.00  0.00    -0.237 OA
ATOM     95  O   UNL A   1      34.755  35.526  33.154  1.00  0.00    -0.744 OA
ENDBRANCH  91  92
ENDBRANCH  59  84
BRANCH  71  96
ATOM     96  C   UNL A   1      43.681  27.027  34.788  1.00  0.00     0.058 A 
ATOM     97  C   UNL A   1      42.945  25.911  35.208  1.00  0.00     0.135 A 
ATOM     98  C   UNL A   1      45.065  27.003  35.120  1.00  0.00     0.135 A 
ATOM     99  F   UNL A   1      41.658  25.755  34.872  1.00  0.00    -0.206 F 
ATOM    100  C   UNL A   1      43.517  24.879  35.956  1.00  0.00     0.059 A 
ATOM    101  C   UNL A   1      45.669  25.951  35.795  1.00  0.00     0.059 A 
ATOM    102  F   UNL A   1      45.892  28.003  34.779  1.00  0.00    -0.206 F 
ATOM    103  C   UNL A   1      44.880  24.907  36.243  1.00  0.00     0.060 A 
BRANCH 103 104
ATOM    104  S   UNL A   1      45.643  23.571  37.177  1.00  0.00     0.124 S 
ATOM    105  O   UNL A   1      45.151  22.400  36.456  1.00  0.00    -0.237 OA
ATOM    106  O   UNL A   1      47.070  23.843  37.034  1.00  0.00    -0.237 OA
ATOM    107  O   UNL A   1      45.107  23.760  38.520  1.00  0.00    -0.744 OA
ENDBRANCH 103 104
ENDBRANCH  71  96
ENDBRANCH  45  46
ENDBRANCH  38  40
ENDBRANCH  37  38
ENDBRANCH  36  37
ENDBRANCH  35  36
ENDBRANCH  34  35
ENDBRANCH   1  34
TORSDOF 22
ENDMDL
MODEL 3
REMARK VINA RESULT:     -12.2      2.406      4.477
REMARK SMILES Cc1ccc([C@@]23C[C@@H]4C[C@@H](C[C@@](C(=O)N5CCC(C(=O)OCCOCCOCCOC(=O)c6ccc(-c7c8nc(c(-c9c(F)cc(S(=O)(=O)[O-])cc9F)c9ccc([nH]9)c(-c9c(F)cc(S(=O)(=O)[O-])cc9F)c9nc(c(-c%10c(F)cc(S(=O)(=O)[O-])cc%10F)c%10ccc7[nH]%10)C=C9)C=C8)cc6)CC5)(C4)C2)C3)cc1
REMARK SMILES IDX 26 1 25 2 24 3 23 4 22 5 21 6 19 7 20 8 18 9 13 10 14 11
REMARK SMILES IDX 15 12 16 13 100 14 17 15 99 16 12 17 6 18 7 19 102 20 103 21
REMARK SMILES IDX 8 22 10 23 9 24 101 25 11 26 5 27 1 28 2 29 3 30 105 31 4 32
REMARK SMILES IDX 104 33 27 34 28 35 29 36 30 37 31 38 32 39 33 40 34 41 98 42
REMARK SMILES IDX 35 43 97 44 36 45 37 46 38 47 91 48 39 49 96 50 90 51 92 52
REMARK SMILES IDX 40 53 95 54 89 55 88 56 41 58 75 59 54 60 74 61 55 62 58 63
REMARK SMILES IDX 73 64 93 65 56 66 57 67 72 69 94 70 59 71 42 72 43 73 52 74
REMARK SMILES IDX 44 75 45 76 51 77 53 78 46 79 47 80 48 81 49 82 50 83 76 84
REMARK SMILES IDX 77 85 86 86 78 87 79 88 85 89 87 90 80 91 81 92 82 93 83 94
REMARK SMILES IDX 84 95 60 96 61 97 70 98 62 99 63 100 69 101 71 102 64 103
REMARK SMILES IDX 65 104 66 105 67 106 68 107
REMARK H PARENT 92 57 58 68
REMARK Flexibility Score: inf
ROOT
ATOM      1  C   UNL A   1      33.933  33.798  29.283  1.00  0.00     0.188 C 
ENDROOT
BRANCH   1   2
ATOM      2  C   UNL A   1      34.156  32.576  28.389  1.00  0.00     0.188 C 
BRANCH   2   3
ATOM      3  O   UNL A   1      35.450  32.292  27.823  1.00  0.00    -0.376 OA
BRANCH   3   4
ATOM      4  C   UNL A   1      36.147  31.051  28.001  1.00  0.00     0.202 C 
BRANCH   4   5
ATOM      5  C   UNL A   1      35.618  29.474  27.777  1.00  0.00     0.261 C 
BRANCH   5   6
ATOM      6  O   UNL A   1      34.394  28.662  26.720  1.00  0.00    -0.463 OA
BRANCH   6   7
ATOM      7  C   UNL A   1      33.270  28.949  25.841  1.00  0.00     0.309 C 
ATOM      8  O   UNL A   1      32.894  30.022  25.348  1.00  0.00    -0.252 OA
BRANCH   7   9
ATOM      9  C   UNL A   1      32.341  27.958  25.294  1.00  0.00     0.103 C 
ATOM     10  C   UNL A   1      31.660  24.461  26.017  1.00  0.00     0.228 C 
ATOM     11  O   UNL A   1      31.523  24.379  27.237  1.00  0.00    -0.274 OA
ATOM     12  N   UNL A   1      31.130  25.519  25.270  1.00  0.00    -0.342 N 
ATOM     13  C   UNL A   1      30.367  26.517  25.988  1.00  0.00     0.120 C 
ATOM     14  C   UNL A   1      31.722  26.042  24.031  1.00  0.00     0.120 C 
ATOM     15  C   UNL A   1      31.354  27.567  26.439  1.00  0.00     0.037 C 
ATOM     16  C   UNL A   1      32.910  26.893  24.436  1.00  0.00     0.037 C 
BRANCH  10  17
ATOM     17  C   UNL A   1      32.337  23.343  25.230  1.00  0.00     0.051 C 
ATOM     18  C   UNL A   1      34.707  22.424  24.950  1.00  0.00    -0.003 C 
ATOM     19  C   UNL A   1      34.115  21.047  25.376  1.00  0.00     0.015 C 
ATOM     20  C   UNL A   1      33.826  23.522  25.533  1.00  0.00     0.028 C 
ATOM     21  C   UNL A   1      34.559  22.564  23.413  1.00  0.00     0.015 C 
ATOM     22  C   UNL A   1      32.663  20.869  24.886  1.00  0.00    -0.009 C 
ATOM     23  C   UNL A   1      33.070  22.448  22.986  1.00  0.00    -0.009 C 
ATOM     24  C   UNL A   1      32.562  21.050  23.373  1.00  0.00     0.007 C 
ATOM     25  C   UNL A   1      31.794  21.932  25.543  1.00  0.00     0.020 C 
ATOM     26  C   UNL A   1      32.205  23.517  23.701  1.00  0.00     0.020 C 
BRANCH  18  27
ATOM     27  C   UNL A   1      36.145  22.596  25.482  1.00  0.00    -0.042 A 
ATOM     28  C   UNL A   1      40.283  23.180  26.668  1.00  0.00     0.044 C 
ATOM     29  C   UNL A   1      38.849  22.992  26.285  1.00  0.00    -0.051 A 
ATOM     30  C   UNL A   1      38.452  21.775  25.746  1.00  0.00     0.004 A 
ATOM     31  C   UNL A   1      37.894  24.005  26.434  1.00  0.00     0.004 A 
ATOM     32  C   UNL A   1      37.124  21.580  25.369  1.00  0.00     0.004 A 
ATOM     33  C   UNL A   1      36.561  23.809  26.038  1.00  0.00     0.004 A 
ENDBRANCH  18  27
ENDBRANCH  10  17
ENDBRANCH   7   9
ENDBRANCH   6   7
ENDBRANCH   5   6
ENDBRANCH   4   5
ENDBRANCH   3   4
ENDBRANCH   2   3
ENDBRANCH   1   2
BRANCH   1  34
ATOM     34  O   UNL A   1      34.025  33.430  30.645  1.00  0.00    -0.376 OA
BRANCH  34  35
ATOM     35  C   UNL A   1      34.575  34.379  31.533  1.00  0.00     0.202 C 
BRANCH  35  36
ATOM     36  C   UNL A   1      35.561  33.756  32.532  1.00  0.00     0.261 C 
BRANCH  36  37
ATOM     37  O   UNL A   1      36.856  33.461  31.949  1.00  0.00    -0.460 OA
BRANCH  37  38
ATOM     38  C   UNL A   1      37.226  32.131  31.816  1.00  0.00     0.338 C 
ATOM     39  O   UNL A   1      36.416  31.254  31.615  1.00  0.00    -0.246 OA
BRANCH  38  40
ATOM     40  C   UNL A   1      38.722  32.003  31.744  1.00  0.00     0.060 A 
ATOM     41  C   UNL A   1      39.635  32.480  30.796  1.00  0.00     0.016 A 
ATOM     42  C   UNL A   1      39.254  31.204  32.684  1.00  0.00     0.016 A 
ATOM     43  C   UNL A   1      40.997  31.933  30.638  1.00  0.00     0.010 A 
ATOM     44  C   UNL A   1      40.451  30.576  32.370  1.00  0.00     0.010 A 
ATOM     45  C   UNL A   1      41.460  30.822  31.361  1.00  0.00    -0.014 A 
BRANCH  45  46
ATOM     46  C   UNL A   1      42.986  29.912  31.077  1.00  0.00     0.031 A 
ATOM     47  C   UNL A   1      43.320  28.301  30.250  1.00  0.00     0.074 A 
ATOM     48  C   UNL A   1      44.033  30.239  31.866  1.00  0.00     0.049 A 
ATOM     49  N   UNL A   1      44.062  27.320  30.750  1.00  0.00    -0.248 NA
ATOM     50  C   UNL A   1      42.644  27.650  29.023  1.00  0.00     0.031 C 
ATOM     51  C   UNL A   1      45.370  29.667  31.805  1.00  0.00     0.029 A 
ATOM     52  N   UNL A   1      44.044  31.042  33.007  1.00  0.00    -0.354 N 
ATOM     53  C   UNL A   1      43.940  26.156  29.944  1.00  0.00     0.074 A 
ATOM     54  C   UNL A   1      42.954  26.381  28.980  1.00  0.00     0.031 C 
ATOM     55  C   UNL A   1      45.992  29.906  32.967  1.00  0.00     0.029 A 
ATOM     56  C   UNL A   1      45.037  30.540  33.857  1.00  0.00     0.049 A 
ATOM     57  H   UNL A   1      43.464  31.818  33.181  1.00  0.00     0.167 HD
ATOM     58  C   UNL A   1      44.737  25.056  29.955  1.00  0.00     0.037 A 
ATOM     59  C   UNL A   1      44.796  30.196  35.151  1.00  0.00     0.037 A 
ATOM     60  C   UNL A   1      45.727  25.227  30.961  1.00  0.00     0.049 A 
ATOM     61  C   UNL A   1      45.236  28.790  35.483  1.00  0.00     0.074 A 
ATOM     62  C   UNL A   1      46.892  25.967  30.959  1.00  0.00     0.029 A 
ATOM     63  N   UNL A   1      45.346  25.041  32.270  1.00  0.00    -0.354 N 
ATOM     64  N   UNL A   1      45.459  27.863  34.590  1.00  0.00    -0.248 NA
ATOM     65  C   UNL A   1      45.483  28.318  36.842  1.00  0.00     0.031 C 
ATOM     66  C   UNL A   1      47.176  26.302  32.302  1.00  0.00     0.029 A 
ATOM     67  C   UNL A   1      46.228  25.691  33.103  1.00  0.00     0.049 A 
ATOM     68  H   UNL A   1      44.564  24.521  32.566  1.00  0.00     0.167 HD
ATOM     69  C   UNL A   1      45.829  26.699  35.218  1.00  0.00     0.074 A 
ATOM     70  C   UNL A   1      45.857  27.045  36.624  1.00  0.00     0.031 C 
ATOM     71  C   UNL A   1      46.074  25.544  34.533  1.00  0.00     0.037 A 
BRANCH  58  72
ATOM     72  C   UNL A   1      44.776  24.106  28.761  1.00  0.00     0.058 A 
ATOM     73  C   UNL A   1      45.741  24.293  27.756  1.00  0.00     0.135 A 
ATOM     74  C   UNL A   1      43.795  23.124  28.468  1.00  0.00     0.135 A 
ATOM     75  F   UNL A   1      46.756  25.150  27.932  1.00  0.00    -0.206 F 
ATOM     76  C   UNL A   1      45.675  23.653  26.514  1.00  0.00     0.059 A 
ATOM     77  C   UNL A   1      43.667  22.522  27.204  1.00  0.00     0.059 A 
ATOM     78  F   UNL A   1      42.881  22.774  29.391  1.00  0.00    -0.206 F 
ATOM     79  C   UNL A   1      44.612  22.803  26.225  1.00  0.00     0.060 A 
BRANCH  79  80
ATOM     80  S   UNL A   1      44.470  22.126  24.552  1.00  0.00     0.124 S 
ATOM     81  O   UNL A   1      45.766  22.458  23.966  1.00  0.00    -0.237 OA
ATOM     82  O   UNL A   1      44.240  20.711  24.817  1.00  0.00    -0.237 OA
ATOM     83  O   UNL A   1      43.337  22.853  23.984  1.00  0.00    -0.744 OA
ENDBRANCH  79  80
ENDBRANCH  58  72
BRANCH  59  84
ATOM     84  C   UNL A   1      43.727  30.998  35.814  1.00  0.00     0.058 A 
ATOM     85  C   UNL A   1      44.079  32.283  36.281  1.00  0.00     0.135 A 
ATOM     86  C   UNL A   1      42.358  30.721  35.695  1.00  0.00     0.135 A 
ATOM     87  F   UNL A   1      45.374  32.610  36.434  1.00  0.00    -0.206 F 
ATOM     88  C   UNL A   1      43.138  33.289  36.476  1.00  0.00     0.059 A 
ATOM     89  C   UNL A   1      41.388  31.716  35.902  1.00  0.00     0.059 A 
ATOM     90  F   UNL A   1      41.946  29.521  35.261  1.00  0.00    -0.206 F 
ATOM     91  C   UNL A   1      41.798  33.011  36.240  1.00  0.00     0.060 A 
BRANCH  91  92
ATOM     92  S   UNL A   1      40.658  34.421  36.211  1.00  0.00     0.124 S 
ATOM     93  O   UNL A   1      41.433  35.432  35.502  1.00  0.00    -0.237 OA
ATOM     94  O   UNL A   1      39.527  33.865  35.470  1.00  0.00    -0.237 OA
ATOM     95  O   UNL A   1      40.415  34.683  37.625  1.00  0.00    -0.744 OA
ENDBRANCH  91  92
ENDBRANCH  59  84
BRANCH  71  96
ATOM     96  C   UNL A   1      46.237  24.147  35.095  1.00  0.00     0.058 A 
ATOM     97  C   UNL A   1      47.446  23.438  35.091  1.00  0.00     0.135 A 
ATOM     98  C   UNL A   1      45.182  23.547  35.838  1.00  0.00     0.135 A 
ATOM     99  F   UNL A   1      48.549  23.939  34.520  1.00  0.00    -0.206 F 
ATOM    100  C   UNL A   1      47.585  22.199  35.721  1.00  0.00     0.059 A 
ATOM    101  C   UNL A   1      45.322  22.354  36.535  1.00  0.00     0.059 A 
ATOM    102  F   UNL A   1      43.970  24.116  35.931  1.00  0.00    -0.206 F 
ATOM    103  C   UNL A   1      46.519  21.666  36.441  1.00  0.00     0.060 A 
BRANCH 103 104
ATOM    104  S   UNL A   1      46.687  20.086  37.286  1.00  0.00     0.124 S 
ATOM    105  O   UNL A   1      45.885  20.315  38.485  1.00  0.00    -0.237 OA
ATOM    106  O   UNL A   1      46.126  19.138  36.326  1.00  0.00    -0.237 OA
ATOM    107  O   UNL A   1      48.126  19.976  37.497  1.00  0.00    -0.744 OA
ENDBRANCH 103 104
ENDBRANCH  71  96
ENDBRANCH  45  46
ENDBRANCH  38  40
ENDBRANCH  37  38
ENDBRANCH  36  37
ENDBRANCH  35  36
ENDBRANCH  34  35
ENDBRANCH   1  34
TORSDOF 22
ENDMDL
