MODEL 1
REMARK VINA RESULT:     -10.2      0.000      0.000
REMARK SMILES CC(C)N1C(=O)C[C@@H]([N@@H+]2CC[C@H](C(=O)OCCOCCOCCOC(=O)c3ccc(-c4c5nc(c(-c6c(F)cc(S(=O)(=O)[O-])cc6F)c6ccc([nH]6)c(-c6c(F)cc(S(=O)(=O)[O-])cc6F)c6nc(c(-c7c(F)cc(S(=O)(=O)[O-])cc7F)c7ccc4[nH]7)C=C6)C=C5)cc3)[C@@H]2C)C1=O
REMARK SMILES IDX 20 1 19 2 18 3 17 4 16 5 15 6 13 7 14 8 12 9 9 10 10 11
REMARK SMILES IDX 93 12 11 14 94 15 8 16 4 17 5 18 95 19 6 20 7 21 96 22 2 23
REMARK SMILES IDX 1 24 3 25 21 26 22 27 23 28 24 29 25 30 26 31 27 32 28 33
REMARK SMILES IDX 92 34 29 35 91 36 30 37 31 38 32 39 85 40 33 41 90 42 84 43
REMARK SMILES IDX 86 44 34 45 89 46 83 47 82 48 35 50 69 51 48 52 68 53 49 54
REMARK SMILES IDX 52 55 67 56 87 57 50 58 51 59 66 61 88 62 53 63 36 64 37 65
REMARK SMILES IDX 46 66 38 67 39 68 45 69 47 70 40 71 41 72 42 73 43 74 44 75
REMARK SMILES IDX 70 76 71 77 80 78 72 79 73 80 79 81 81 82 74 83 75 84 76 85
REMARK SMILES IDX 77 86 78 87 54 88 55 89 64 90 56 91 57 92 63 93 65 94 58 95
REMARK SMILES IDX 59 96 60 97 61 98 62 99
REMARK H PARENT 9 13 86 49 52 60
REMARK Flexibility Score: inf
ROOT
ATOM      1  C   UNL A   1      34.782  29.463  27.012  1.00  0.00     0.188 C 
ENDROOT
BRANCH   1   2
ATOM      2  C   UNL A   1      33.772  28.595  26.251  1.00  0.00     0.188 C 
BRANCH   2   3
ATOM      3  O   UNL A   1      33.949  28.391  24.858  1.00  0.00    -0.376 OA
BRANCH   3   4
ATOM      4  C   UNL A   1      32.935  28.849  23.983  1.00  0.00     0.202 C 
BRANCH   4   5
ATOM      5  C   UNL A   1      32.579  27.965  22.782  1.00  0.00     0.261 C 
BRANCH   5   6
ATOM      6  O   UNL A   1      32.123  26.625  23.083  1.00  0.00    -0.463 OA
BRANCH   6   7
ATOM      7  C   UNL A   1      30.795  26.509  23.374  1.00  0.00     0.315 C 
ATOM      8  O   UNL A   1      29.966  27.357  23.071  1.00  0.00    -0.252 OA
BRANCH   7   9
ATOM      9  C   UNL A   1      30.494  25.274  24.226  1.00  0.00     0.162 C 
ATOM     10  N   UNL A   1      32.487  23.982  24.617  1.00  0.00    -0.321 N 
ATOM     11  C   UNL A   1      32.007  23.671  23.266  1.00  0.00     0.264 C 
ATOM     12  C   UNL A   1      31.470  24.775  25.305  1.00  0.00     0.196 C 
ATOM     13  H   UNL A   1      32.573  23.128  25.168  1.00  0.00     0.349 HD
ATOM     14  C   UNL A   1      30.531  24.061  23.282  1.00  0.00     0.083 C 
ATOM     15  C   UNL A   1      31.938  25.669  26.437  1.00  0.00     0.076 C 
BRANCH  10  16
ATOM     16  C   UNL A   1      33.908  24.346  24.733  1.00  0.00     0.284 C 
ATOM     17  N   UNL A   1      35.553  22.682  24.916  1.00  0.00    -0.275 N 
ATOM     18  C   UNL A   1      35.747  23.230  23.682  1.00  0.00     0.236 C 
ATOM     19  C   UNL A   1      34.608  23.357  25.642  1.00  0.00     0.288 C 
ATOM     20  O   UNL A   1      36.573  22.939  22.832  1.00  0.00    -0.274 OA
ATOM     21  C   UNL A   1      34.741  24.309  23.463  1.00  0.00     0.176 C 
ATOM     22  O   UNL A   1      34.326  23.186  26.821  1.00  0.00    -0.267 OA
BRANCH  17  23
ATOM     23  C   UNL A   1      36.292  21.573  25.512  1.00  0.00     0.087 C 
ATOM     24  C   UNL A   1      36.026  20.214  24.867  1.00  0.00     0.031 C 
ATOM     25  C   UNL A   1      37.773  21.920  25.607  1.00  0.00     0.031 C 
ENDBRANCH  17  23
ENDBRANCH  10  16
ENDBRANCH   7   9
ENDBRANCH   6   7
ENDBRANCH   5   6
ENDBRANCH   4   5
ENDBRANCH   3   4
ENDBRANCH   2   3
ENDBRANCH   1   2
BRANCH   1  26
ATOM     26  O   UNL A   1      34.202  30.653  27.515  1.00  0.00    -0.376 OA
BRANCH  26  27
ATOM     27  C   UNL A   1      32.823  30.773  27.214  1.00  0.00     0.202 C 
BRANCH  27  28
ATOM     28  C   UNL A   1      32.344  32.230  27.208  1.00  0.00     0.261 C 
BRANCH  28  29
ATOM     29  O   UNL A   1      33.344  33.270  27.303  1.00  0.00    -0.460 OA
BRANCH  29  30
ATOM     30  C   UNL A   1      33.353  34.090  28.377  1.00  0.00     0.338 C 
ATOM     31  O   UNL A   1      32.509  34.942  28.627  1.00  0.00    -0.246 OA
BRANCH  30  32
ATOM     32  C   UNL A   1      34.492  33.741  29.283  1.00  0.00     0.060 A 
ATOM     33  C   UNL A   1      35.766  34.256  29.018  1.00  0.00     0.016 A 
ATOM     34  C   UNL A   1      34.331  32.866  30.366  1.00  0.00     0.016 A 
ATOM     35  C   UNL A   1      36.864  33.890  29.821  1.00  0.00     0.010 A 
ATOM     36  C   UNL A   1      35.436  32.479  31.152  1.00  0.00     0.010 A 
ATOM     37  C   UNL A   1      36.720  32.975  30.881  1.00  0.00    -0.014 A 
BRANCH  37  38
ATOM     38  C   UNL A   1      37.948  32.405  31.530  1.00  0.00     0.031 A 
ATOM     39  C   UNL A   1      38.234  32.797  32.959  1.00  0.00     0.074 A 
ATOM     40  C   UNL A   1      38.808  31.570  30.907  1.00  0.00     0.049 A 
ATOM     41  N   UNL A   1      39.117  32.319  33.794  1.00  0.00    -0.248 NA
ATOM     42  C   UNL A   1      37.432  33.908  33.502  1.00  0.00     0.031 C 
ATOM     43  C   UNL A   1      38.745  31.201  29.500  1.00  0.00     0.029 A 
ATOM     44  N   UNL A   1      39.884  30.841  31.386  1.00  0.00    -0.354 N 
ATOM     45  C   UNL A   1      39.026  33.109  34.934  1.00  0.00     0.074 A 
ATOM     46  C   UNL A   1      37.957  34.057  34.709  1.00  0.00     0.031 C 
ATOM     47  C   UNL A   1      39.658  30.243  29.254  1.00  0.00     0.029 A 
ATOM     48  C   UNL A   1      40.363  29.901  30.486  1.00  0.00     0.049 A 
ATOM     49  H   UNL A   1      40.272  30.977  32.281  1.00  0.00     0.167 HD
ATOM     50  C   UNL A   1      39.804  33.089  36.040  1.00  0.00     0.037 A 
ATOM     51  C   UNL A   1      41.196  28.845  30.668  1.00  0.00     0.037 A 
ATOM     52  C   UNL A   1      40.888  32.167  36.257  1.00  0.00     0.049 A 
ATOM     53  C   UNL A   1      41.890  28.700  32.010  1.00  0.00     0.074 A 
ATOM     54  C   UNL A   1      41.759  32.102  37.331  1.00  0.00     0.029 A 
ATOM     55  N   UNL A   1      41.257  31.159  35.382  1.00  0.00    -0.354 N 
ATOM     56  N   UNL A   1      41.733  29.403  33.106  1.00  0.00    -0.248 NA
ATOM     57  C   UNL A   1      42.902  27.635  32.128  1.00  0.00     0.031 C 
ATOM     58  C   UNL A   1      42.689  31.088  37.081  1.00  0.00     0.029 A 
ATOM     59  C   UNL A   1      42.351  30.476  35.887  1.00  0.00     0.049 A 
ATOM     60  H   UNL A   1      40.808  30.957  34.530  1.00  0.00     0.167 HD
ATOM     61  C   UNL A   1      42.640  28.880  34.025  1.00  0.00     0.074 A 
ATOM     62  C   UNL A   1      43.269  27.741  33.396  1.00  0.00     0.031 C 
ATOM     63  C   UNL A   1      42.966  29.337  35.259  1.00  0.00     0.037 A 
BRANCH  50  64
ATOM     64  C   UNL A   1      39.587  34.166  37.065  1.00  0.00     0.058 A 
ATOM     65  C   UNL A   1      38.865  33.945  38.246  1.00  0.00     0.135 A 
ATOM     66  C   UNL A   1      40.169  35.431  36.874  1.00  0.00     0.135 A 
ATOM     67  F   UNL A   1      38.260  32.765  38.460  1.00  0.00    -0.206 F 
ATOM     68  C   UNL A   1      38.728  34.944  39.206  1.00  0.00     0.059 A 
ATOM     69  C   UNL A   1      40.068  36.432  37.831  1.00  0.00     0.059 A 
ATOM     70  F   UNL A   1      40.856  35.696  35.752  1.00  0.00    -0.206 F 
ATOM     71  C   UNL A   1      39.342  36.180  38.993  1.00  0.00     0.060 A 
BRANCH  71  72
ATOM     72  S   UNL A   1      39.200  37.447  40.271  1.00  0.00     0.124 S 
ATOM     73  O   UNL A   1      38.623  36.684  41.374  1.00  0.00    -0.237 OA
ATOM     74  O   UNL A   1      40.585  37.866  40.447  1.00  0.00    -0.237 OA
ATOM     75  O   UNL A   1      38.317  38.441  39.668  1.00  0.00    -0.744 OA
ENDBRANCH  71  72
ENDBRANCH  50  64
BRANCH  51  76
ATOM     76  C   UNL A   1      41.383  27.761  29.637  1.00  0.00     0.058 A 
ATOM     77  C   UNL A   1      42.560  27.721  28.855  1.00  0.00     0.135 A 
ATOM     78  C   UNL A   1      40.415  26.789  29.352  1.00  0.00     0.135 A 
ATOM     79  F   UNL A   1      43.532  28.625  29.058  1.00  0.00    -0.206 F 
ATOM     80  C   UNL A   1      42.757  26.796  27.833  1.00  0.00     0.059 A 
ATOM     81  C   UNL A   1      40.605  25.825  28.356  1.00  0.00     0.059 A 
ATOM     82  F   UNL A   1      39.260  26.767  30.033  1.00  0.00    -0.206 F 
ATOM     83  C   UNL A   1      41.768  25.851  27.587  1.00  0.00     0.060 A 
BRANCH  83  84
ATOM     84  S   UNL A   1      42.025  24.651  26.260  1.00  0.00     0.124 S 
ATOM     85  O   UNL A   1      40.912  23.734  26.475  1.00  0.00    -0.237 OA
ATOM     86  O   UNL A   1      41.941  25.485  25.065  1.00  0.00    -0.237 OA
ATOM     87  O   UNL A   1      43.351  24.116  26.548  1.00  0.00    -0.744 OA
ENDBRANCH  83  84
ENDBRANCH  51  76
BRANCH  63  88
ATOM     88  C   UNL A   1      44.065  28.626  36.006  1.00  0.00     0.058 A 
ATOM     89  C   UNL A   1      45.406  29.035  35.904  1.00  0.00     0.135 A 
ATOM     90  C   UNL A   1      43.773  27.569  36.882  1.00  0.00     0.135 A 
ATOM     91  F   UNL A   1      45.745  30.047  35.089  1.00  0.00    -0.206 F 
ATOM     92  C   UNL A   1      46.419  28.396  36.610  1.00  0.00     0.059 A 
ATOM     93  C   UNL A   1      44.766  26.938  37.624  1.00  0.00     0.059 A 
ATOM     94  F   UNL A   1      42.507  27.148  37.035  1.00  0.00    -0.206 F 
ATOM     95  C   UNL A   1      46.089  27.348  37.469  1.00  0.00     0.060 A 
BRANCH  95  96
ATOM     96  S   UNL A   1      47.414  26.543  38.395  1.00  0.00     0.124 S 
ATOM     97  O   UNL A   1      47.571  25.293  37.659  1.00  0.00    -0.237 OA
ATOM     98  O   UNL A   1      48.511  27.497  38.265  1.00  0.00    -0.237 OA
ATOM     99  O   UNL A   1      46.859  26.414  39.740  1.00  0.00    -0.744 OA
ENDBRANCH  95  96
ENDBRANCH  63  88
ENDBRANCH  37  38
ENDBRANCH  30  32
ENDBRANCH  29  30
ENDBRANCH  28  29
ENDBRANCH  27  28
ENDBRANCH  26  27
ENDBRANCH   1  26
TORSDOF 22
ENDMDL
MODEL 2
REMARK VINA RESULT:     -10.0      2.170      8.978
REMARK SMILES CC(C)N1C(=O)C[C@@H]([N@@H+]2CC[C@H](C(=O)OCCOCCOCCOC(=O)c3ccc(-c4c5nc(c(-c6c(F)cc(S(=O)(=O)[O-])cc6F)c6ccc([nH]6)c(-c6c(F)cc(S(=O)(=O)[O-])cc6F)c6nc(c(-c7c(F)cc(S(=O)(=O)[O-])cc7F)c7ccc4[nH]7)C=C6)C=C5)cc3)[C@@H]2C)C1=O
REMARK SMILES IDX 20 1 19 2 18 3 17 4 16 5 15 6 13 7 14 8 12 9 9 10 10 11
REMARK SMILES IDX 93 12 11 14 94 15 8 16 4 17 5 18 95 19 6 20 7 21 96 22 2 23
REMARK SMILES IDX 1 24 3 25 21 26 22 27 23 28 24 29 25 30 26 31 27 32 28 33
REMARK SMILES IDX 92 34 29 35 91 36 30 37 31 38 32 39 85 40 33 41 90 42 84 43
REMARK SMILES IDX 86 44 34 45 89 46 83 47 82 48 35 50 69 51 48 52 68 53 49 54
REMARK SMILES IDX 52 55 67 56 87 57 50 58 51 59 66 61 88 62 53 63 36 64 37 65
REMARK SMILES IDX 46 66 38 67 39 68 45 69 47 70 40 71 41 72 42 73 43 74 44 75
REMARK SMILES IDX 70 76 71 77 80 78 72 79 73 80 79 81 81 82 74 83 75 84 76 85
REMARK SMILES IDX 77 86 78 87 54 88 55 89 64 90 56 91 57 92 63 93 65 94 58 95
REMARK SMILES IDX 59 96 60 97 61 98 62 99
REMARK H PARENT 9 13 86 49 52 60
REMARK Flexibility Score: inf
ROOT
ATOM      1  C   UNL A   1      40.810  20.673  27.367  1.00  0.00     0.188 C 
ENDROOT
BRANCH   1   2
ATOM      2  C   UNL A   1      40.039  20.694  26.041  1.00  0.00     0.188 C 
BRANCH   2   3
ATOM      3  O   UNL A   1      39.468  19.488  25.556  1.00  0.00    -0.376 OA
BRANCH   3   4
ATOM      4  C   UNL A   1      38.141  19.529  25.066  1.00  0.00     0.202 C 
BRANCH   4   5
ATOM      5  C   UNL A   1      37.417  20.880  25.085  1.00  0.00     0.261 C 
BRANCH   5   6
ATOM      6  O   UNL A   1      37.320  21.575  23.820  1.00  0.00    -0.463 OA
BRANCH   6   7
ATOM      7  C   UNL A   1      36.351  22.534  23.751  1.00  0.00     0.315 C 
ATOM      8  O   UNL A   1      36.317  23.391  22.878  1.00  0.00    -0.252 OA
BRANCH   7   9
ATOM      9  C   UNL A   1      35.405  22.489  24.953  1.00  0.00     0.162 C 
ATOM     10  N   UNL A   1      33.590  24.049  24.689  1.00  0.00    -0.321 N 
ATOM     11  C   UNL A   1      34.771  24.801  25.129  1.00  0.00     0.264 C 
ATOM     12  C   UNL A   1      33.881  22.619  24.791  1.00  0.00     0.196 C 
ATOM     13  H   UNL A   1      32.811  24.206  25.329  1.00  0.00     0.349 HD
ATOM     14  C   UNL A   1      35.674  23.756  25.781  1.00  0.00     0.083 C 
ATOM     15  C   UNL A   1      33.087  21.687  23.898  1.00  0.00     0.076 C 
BRANCH  10  16
ATOM     16  C   UNL A   1      32.888  24.576  23.508  1.00  0.00     0.284 C 
ATOM     17  N   UNL A   1      32.019  26.756  23.513  1.00  0.00    -0.275 N 
ATOM     18  C   UNL A   1      33.059  26.796  22.632  1.00  0.00     0.236 C 
ATOM     19  C   UNL A   1      31.763  25.486  23.957  1.00  0.00     0.288 C 
ATOM     20  O   UNL A   1      33.480  27.740  21.981  1.00  0.00    -0.274 OA
ATOM     21  C   UNL A   1      33.688  25.446  22.555  1.00  0.00     0.176 C 
ATOM     22  O   UNL A   1      30.812  25.121  24.636  1.00  0.00    -0.267 OA
BRANCH  17  23
ATOM     23  C   UNL A   1      31.161  27.866  23.913  1.00  0.00     0.087 C 
ATOM     24  C   UNL A   1      29.686  27.689  23.556  1.00  0.00     0.031 C 
ATOM     25  C   UNL A   1      31.392  28.204  25.382  1.00  0.00     0.031 C 
ENDBRANCH  17  23
ENDBRANCH  10  16
ENDBRANCH   7   9
ENDBRANCH   6   7
ENDBRANCH   5   6
ENDBRANCH   4   5
ENDBRANCH   3   4
ENDBRANCH   2   3
ENDBRANCH   1   2
BRANCH   1  26
ATOM     26  O   UNL A   1      42.008  21.426  27.308  1.00  0.00    -0.376 OA
BRANCH  26  27
ATOM     27  C   UNL A   1      42.365  21.806  25.991  1.00  0.00     0.202 C 
BRANCH  27  28
ATOM     28  C   UNL A   1      42.549  23.321  25.842  1.00  0.00     0.261 C 
BRANCH  28  29
ATOM     29  O   UNL A   1      41.498  24.181  26.339  1.00  0.00    -0.460 OA
BRANCH  29  30
ATOM     30  C   UNL A   1      41.548  25.508  26.088  1.00  0.00     0.338 C 
ATOM     31  O   UNL A   1      41.555  26.021  24.976  1.00  0.00    -0.246 OA
BRANCH  30  32
ATOM     32  C   UNL A   1      41.489  26.277  27.370  1.00  0.00     0.060 A 
ATOM     33  C   UNL A   1      40.674  25.818  28.412  1.00  0.00     0.016 A 
ATOM     34  C   UNL A   1      42.189  27.479  27.543  1.00  0.00     0.016 A 
ATOM     35  C   UNL A   1      40.555  26.558  29.604  1.00  0.00     0.010 A 
ATOM     36  C   UNL A   1      42.047  28.233  28.726  1.00  0.00     0.010 A 
ATOM     37  C   UNL A   1      41.217  27.791  29.767  1.00  0.00    -0.014 A 
BRANCH  37  38
ATOM     38  C   UNL A   1      40.851  28.672  30.925  1.00  0.00     0.031 A 
ATOM     39  C   UNL A   1      41.798  28.720  32.099  1.00  0.00     0.074 A 
ATOM     40  C   UNL A   1      39.724  29.417  30.975  1.00  0.00     0.049 A 
ATOM     41  N   UNL A   1      41.804  29.519  33.132  1.00  0.00    -0.248 NA
ATOM     42  C   UNL A   1      42.859  27.699  32.120  1.00  0.00     0.031 C 
ATOM     43  C   UNL A   1      38.654  29.383  29.989  1.00  0.00     0.029 A 
ATOM     44  N   UNL A   1      39.308  30.385  31.874  1.00  0.00    -0.354 N 
ATOM     45  C   UNL A   1      42.823  29.059  33.958  1.00  0.00     0.074 A 
ATOM     46  C   UNL A   1      43.454  27.951  33.276  1.00  0.00     0.031 C 
ATOM     47  C   UNL A   1      37.765  30.354  30.270  1.00  0.00     0.029 A 
ATOM     48  C   UNL A   1      38.204  31.105  31.443  1.00  0.00     0.049 A 
ATOM     49  H   UNL A   1      39.753  30.548  32.736  1.00  0.00     0.167 HD
ATOM     50  C   UNL A   1      43.159  29.479  35.200  1.00  0.00     0.037 A 
ATOM     51  C   UNL A   1      37.677  32.272  31.891  1.00  0.00     0.037 A 
ATOM     52  C   UNL A   1      42.515  30.561  35.895  1.00  0.00     0.049 A 
ATOM     53  C   UNL A   1      38.230  32.863  33.175  1.00  0.00     0.074 A 
ATOM     54  C   UNL A   1      42.762  31.029  37.175  1.00  0.00     0.029 A 
ATOM     55  N   UNL A   1      41.492  31.338  35.377  1.00  0.00    -0.354 N 
ATOM     56  N   UNL A   1      39.247  32.466  33.901  1.00  0.00    -0.248 NA
ATOM     57  C   UNL A   1      37.539  34.047  33.718  1.00  0.00     0.031 C 
ATOM     58  C   UNL A   1      41.851  32.053  37.451  1.00  0.00     0.029 A 
ATOM     59  C   UNL A   1      41.088  32.271  36.318  1.00  0.00     0.049 A 
ATOM     60  H   UNL A   1      41.110  31.242  34.476  1.00  0.00     0.167 HD
ATOM     61  C   UNL A   1      39.297  33.333  34.991  1.00  0.00     0.074 A 
ATOM     62  C   UNL A   1      38.277  34.335  34.780  1.00  0.00     0.031 C 
ATOM     63  C   UNL A   1      40.079  33.272  36.096  1.00  0.00     0.037 A 
BRANCH  50  64
ATOM     64  C   UNL A   1      44.207  28.697  35.941  1.00  0.00     0.058 A 
ATOM     65  C   UNL A   1      45.565  29.042  35.907  1.00  0.00     0.135 A 
ATOM     66  C   UNL A   1      43.821  27.612  36.745  1.00  0.00     0.135 A 
ATOM     67  F   UNL A   1      45.990  30.048  35.126  1.00  0.00    -0.206 F 
ATOM     68  C   UNL A   1      46.508  28.335  36.649  1.00  0.00     0.059 A 
ATOM     69  C   UNL A   1      44.741  26.911  37.515  1.00  0.00     0.059 A 
ATOM     70  F   UNL A   1      42.534  27.233  36.798  1.00  0.00    -0.206 F 
ATOM     71  C   UNL A   1      46.083  27.278  37.458  1.00  0.00     0.060 A 
BRANCH  71  72
ATOM     72  S   UNL A   1      47.309  26.406  38.454  1.00  0.00     0.124 S 
ATOM     73  O   UNL A   1      46.992  26.888  39.795  1.00  0.00    -0.237 OA
ATOM     74  O   UNL A   1      46.985  25.009  38.190  1.00  0.00    -0.237 OA
ATOM     75  O   UNL A   1      48.582  26.867  37.908  1.00  0.00    -0.744 OA
ENDBRANCH  71  72
ENDBRANCH  50  64
BRANCH  51  76
ATOM     76  C   UNL A   1      36.643  33.055  31.122  1.00  0.00     0.058 A 
ATOM     77  C   UNL A   1      35.282  32.993  31.498  1.00  0.00     0.135 A 
ATOM     78  C   UNL A   1      36.939  33.823  29.989  1.00  0.00     0.135 A 
ATOM     79  F   UNL A   1      34.913  32.269  32.567  1.00  0.00    -0.206 F 
ATOM     80  C   UNL A   1      34.270  33.627  30.781  1.00  0.00     0.059 A 
ATOM     81  C   UNL A   1      35.946  34.500  29.272  1.00  0.00     0.059 A 
ATOM     82  F   UNL A   1      38.203  33.920  29.551  1.00  0.00    -0.206 F 
ATOM     83  C   UNL A   1      34.613  34.377  29.662  1.00  0.00     0.060 A 
BRANCH  83  84
ATOM     84  S   UNL A   1      33.299  35.198  28.732  1.00  0.00     0.124 S 
ATOM     85  O   UNL A   1      32.659  34.067  28.069  1.00  0.00    -0.237 OA
ATOM     86  O   UNL A   1      32.523  35.840  29.789  1.00  0.00    -0.237 OA
ATOM     87  O   UNL A   1      34.030  36.112  27.860  1.00  0.00    -0.744 OA
ENDBRANCH  83  84
ENDBRANCH  51  76
BRANCH  63  88
ATOM     88  C   UNL A   1      39.852  34.298  37.177  1.00  0.00     0.058 A 
ATOM     89  C   UNL A   1      39.104  33.998  38.329  1.00  0.00     0.135 A 
ATOM     90  C   UNL A   1      40.440  35.570  37.097  1.00  0.00     0.135 A 
ATOM     91  F   UNL A   1      38.525  32.794  38.466  1.00  0.00    -0.206 F 
ATOM     92  C   UNL A   1      38.911  34.935  39.338  1.00  0.00     0.059 A 
ATOM     93  C   UNL A   1      40.290  36.511  38.111  1.00  0.00     0.059 A 
ATOM     94  F   UNL A   1      41.182  35.905  36.029  1.00  0.00    -0.206 F 
ATOM     95  C   UNL A   1      39.510  36.190  39.221  1.00  0.00     0.060 A 
BRANCH  95  96
ATOM     96  S   UNL A   1      39.270  37.387  40.551  1.00  0.00     0.124 S 
ATOM     97  O   UNL A   1      38.695  36.552  41.599  1.00  0.00    -0.237 OA
ATOM     98  O   UNL A   1      40.629  37.863  40.792  1.00  0.00    -0.237 OA
ATOM     99  O   UNL A   1      38.363  38.371  39.964  1.00  0.00    -0.744 OA
ENDBRANCH  95  96
ENDBRANCH  63  88
ENDBRANCH  37  38
ENDBRANCH  30  32
ENDBRANCH  29  30
ENDBRANCH  28  29
ENDBRANCH  27  28
ENDBRANCH  26  27
ENDBRANCH   1  26
TORSDOF 22
ENDMDL
MODEL 3
REMARK VINA RESULT:      -9.9      6.315     12.118
REMARK SMILES CC(C)N1C(=O)C[C@@H]([N@@H+]2CC[C@H](C(=O)OCCOCCOCCOC(=O)c3ccc(-c4c5nc(c(-c6c(F)cc(S(=O)(=O)[O-])cc6F)c6ccc([nH]6)c(-c6c(F)cc(S(=O)(=O)[O-])cc6F)c6nc(c(-c7c(F)cc(S(=O)(=O)[O-])cc7F)c7ccc4[nH]7)C=C6)C=C5)cc3)[C@@H]2C)C1=O
REMARK SMILES IDX 20 1 19 2 18 3 17 4 16 5 15 6 13 7 14 8 12 9 9 10 10 11
REMARK SMILES IDX 93 12 11 14 94 15 8 16 4 17 5 18 95 19 6 20 7 21 96 22 2 23
REMARK SMILES IDX 1 24 3 25 21 26 22 27 23 28 24 29 25 30 26 31 27 32 28 33
REMARK SMILES IDX 92 34 29 35 91 36 30 37 31 38 32 39 85 40 33 41 90 42 84 43
REMARK SMILES IDX 86 44 34 45 89 46 83 47 82 48 35 50 69 51 48 52 68 53 49 54
REMARK SMILES IDX 52 55 67 56 87 57 50 58 51 59 66 61 88 62 53 63 36 64 37 65
REMARK SMILES IDX 46 66 38 67 39 68 45 69 47 70 40 71 41 72 42 73 43 74 44 75
REMARK SMILES IDX 70 76 71 77 80 78 72 79 73 80 79 81 81 82 74 83 75 84 76 85
REMARK SMILES IDX 77 86 78 87 54 88 55 89 64 90 56 91 57 92 63 93 65 94 58 95
REMARK SMILES IDX 59 96 60 97 61 98 62 99
REMARK H PARENT 9 13 86 49 52 60
REMARK Flexibility Score: inf
ROOT
ATOM      1  C   UNL A   1      41.096  21.933  27.588  1.00  0.00     0.188 C 
ENDROOT
BRANCH   1   2
ATOM      2  C   UNL A   1      40.446  22.196  26.224  1.00  0.00     0.188 C 
BRANCH   2   3
ATOM      3  O   UNL A   1      39.033  22.307  26.142  1.00  0.00    -0.376 OA
BRANCH   3   4
ATOM      4  C   UNL A   1      38.331  21.337  25.387  1.00  0.00     0.202 C 
BRANCH   4   5
ATOM      5  C   UNL A   1      37.197  21.828  24.479  1.00  0.00     0.261 C 
BRANCH   5   6
ATOM      6  O   UNL A   1      36.066  22.443  25.139  1.00  0.00    -0.463 OA
BRANCH   6   7
ATOM      7  C   UNL A   1      35.063  22.862  24.313  1.00  0.00     0.315 C 
ATOM      8  O   UNL A   1      35.261  23.306  23.190  1.00  0.00    -0.252 OA
BRANCH   7   9
ATOM      9  C   UNL A   1      33.697  22.835  25.002  1.00  0.00     0.162 C 
ATOM     10  N   UNL A   1      32.284  24.611  24.198  1.00  0.00    -0.321 N 
ATOM     11  C   UNL A   1      33.219  25.185  25.173  1.00  0.00     0.264 C 
ATOM     12  C   UNL A   1      32.398  23.154  24.241  1.00  0.00     0.196 C 
ATOM     13  H   UNL A   1      31.321  24.808  24.473  1.00  0.00     0.349 HD
ATOM     14  C   UNL A   1      33.682  23.995  26.010  1.00  0.00     0.083 C 
ATOM     15  C   UNL A   1      31.991  22.391  22.996  1.00  0.00     0.076 C 
BRANCH  10  16
ATOM     16  C   UNL A   1      32.187  25.305  22.904  1.00  0.00     0.284 C 
ATOM     17  N   UNL A   1      32.078  27.648  22.814  1.00  0.00    -0.275 N 
ATOM     18  C   UNL A   1      33.301  27.335  22.299  1.00  0.00     0.236 C 
ATOM     19  C   UNL A   1      31.317  26.535  23.057  1.00  0.00     0.288 C 
ATOM     20  O   UNL A   1      34.175  28.081  21.884  1.00  0.00    -0.274 OA
ATOM     21  C   UNL A   1      33.474  25.854  22.313  1.00  0.00     0.176 C 
ATOM     22  O   UNL A   1      30.137  26.507  23.383  1.00  0.00    -0.267 OA
BRANCH  17  23
ATOM     23  C   UNL A   1      31.524  28.982  23.019  1.00  0.00     0.087 C 
ATOM     24  C   UNL A   1      30.308  29.304  22.152  1.00  0.00     0.031 C 
ATOM     25  C   UNL A   1      31.292  29.231  24.504  1.00  0.00     0.031 C 
ENDBRANCH  17  23
ENDBRANCH  10  16
ENDBRANCH   7   9
ENDBRANCH   6   7
ENDBRANCH   5   6
ENDBRANCH   4   5
ENDBRANCH   3   4
ENDBRANCH   2   3
ENDBRANCH   1   2
BRANCH   1  26
ATOM     26  O   UNL A   1      42.138  20.977  27.516  1.00  0.00    -0.376 OA
BRANCH  26  27
ATOM     27  C   UNL A   1      41.668  19.647  27.374  1.00  0.00     0.202 C 
BRANCH  27  28
ATOM     28  C   UNL A   1      42.461  18.849  26.333  1.00  0.00     0.261 C 
BRANCH  28  29
ATOM     29  O   UNL A   1      42.732  19.481  25.060  1.00  0.00    -0.460 OA
BRANCH  29  30
ATOM     30  C   UNL A   1      44.012  19.681  24.675  1.00  0.00     0.338 C 
ATOM     31  O   UNL A   1      44.706  18.873  24.070  1.00  0.00    -0.246 OA
BRANCH  30  32
ATOM     32  C   UNL A   1      44.434  21.079  25.000  1.00  0.00     0.060 A 
ATOM     33  C   UNL A   1      45.365  21.298  26.023  1.00  0.00     0.016 A 
ATOM     34  C   UNL A   1      43.885  22.188  24.342  1.00  0.00     0.016 A 
ATOM     35  C   UNL A   1      45.730  22.608  26.387  1.00  0.00     0.010 A 
ATOM     36  C   UNL A   1      44.230  23.500  24.726  1.00  0.00     0.010 A 
ATOM     37  C   UNL A   1      45.147  23.728  25.764  1.00  0.00    -0.014 A 
BRANCH  37  38
ATOM     38  C   UNL A   1      45.353  25.090  26.360  1.00  0.00     0.031 A 
ATOM     39  C   UNL A   1      46.676  25.772  26.114  1.00  0.00     0.074 A 
ATOM     40  C   UNL A   1      44.426  25.731  27.106  1.00  0.00     0.049 A 
ATOM     41  N   UNL A   1      47.039  27.002  26.366  1.00  0.00    -0.248 NA
ATOM     42  C   UNL A   1      47.742  24.936  25.537  1.00  0.00     0.031 C 
ATOM     43  C   UNL A   1      43.159  25.159  27.539  1.00  0.00     0.029 A 
ATOM     44  N   UNL A   1      44.384  27.026  27.597  1.00  0.00    -0.354 N 
ATOM     45  C   UNL A   1      48.389  27.070  26.043  1.00  0.00     0.074 A 
ATOM     46  C   UNL A   1      48.765  25.776  25.516  1.00  0.00     0.031 C 
ATOM     47  C   UNL A   1      42.423  26.118  28.132  1.00  0.00     0.029 A 
ATOM     48  C   UNL A   1      43.144  27.387  28.103  1.00  0.00     0.049 A 
ATOM     49  H   UNL A   1      45.159  27.631  27.588  1.00  0.00     0.167 HD
ATOM     50  C   UNL A   1      49.252  28.095  26.228  1.00  0.00     0.037 A 
ATOM     51  C   UNL A   1      42.637  28.607  28.415  1.00  0.00     0.037 A 
ATOM     52  C   UNL A   1      48.890  29.374  26.780  1.00  0.00     0.049 A 
ATOM     53  C   UNL A   1      43.572  29.802  28.391  1.00  0.00     0.074 A 
ATOM     54  C   UNL A   1      49.708  30.459  27.044  1.00  0.00     0.029 A 
ATOM     55  N   UNL A   1      47.609  29.738  27.161  1.00  0.00    -0.354 N 
ATOM     56  N   UNL A   1      44.823  29.869  28.003  1.00  0.00    -0.248 NA
ATOM     57  C   UNL A   1      43.032  31.083  28.880  1.00  0.00     0.031 C 
ATOM     58  C   UNL A   1      48.932  31.460  27.636  1.00  0.00     0.029 A 
ATOM     59  C   UNL A   1      47.619  31.026  27.671  1.00  0.00     0.049 A 
ATOM     60  H   UNL A   1      46.812  29.168  27.080  1.00  0.00     0.167 HD
ATOM     61  C   UNL A   1      45.218  31.186  28.226  1.00  0.00     0.074 A 
ATOM     62  C   UNL A   1      44.051  31.905  28.684  1.00  0.00     0.031 C 
ATOM     63  C   UNL A   1      46.451  31.739  28.116  1.00  0.00     0.037 A 
BRANCH  50  64
ATOM     64  C   UNL A   1      50.704  27.847  25.934  1.00  0.00     0.058 A 
ATOM     65  C   UNL A   1      51.618  27.468  26.927  1.00  0.00     0.135 A 
ATOM     66  C   UNL A   1      51.168  27.940  24.611  1.00  0.00     0.135 A 
ATOM     67  F   UNL A   1      51.234  27.399  28.211  1.00  0.00    -0.206 F 
ATOM     68  C   UNL A   1      52.946  27.188  26.616  1.00  0.00     0.059 A 
ATOM     69  C   UNL A   1      52.482  27.638  24.275  1.00  0.00     0.059 A 
ATOM     70  F   UNL A   1      50.335  28.315  23.628  1.00  0.00    -0.206 F 
ATOM     71  C   UNL A   1      53.364  27.265  25.286  1.00  0.00     0.060 A 
BRANCH  71  72
ATOM     72  S   UNL A   1      55.075  26.847  24.892  1.00  0.00     0.124 S 
ATOM     73  O   UNL A   1      55.750  27.175  26.144  1.00  0.00    -0.237 OA
ATOM     74  O   UNL A   1      54.982  25.427  24.576  1.00  0.00    -0.237 OA
ATOM     75  O   UNL A   1      55.389  27.720  23.765  1.00  0.00    -0.744 OA
ENDBRANCH  71  72
ENDBRANCH  50  64
BRANCH  51  76
ATOM     76  C   UNL A   1      41.172  28.841  28.685  1.00  0.00     0.058 A 
ATOM     77  C   UNL A   1      40.291  29.131  27.618  1.00  0.00     0.135 A 
ATOM     78  C   UNL A   1      40.612  28.845  29.969  1.00  0.00     0.135 A 
ATOM     79  F   UNL A   1      40.752  29.158  26.356  1.00  0.00    -0.206 F 
ATOM     80  C   UNL A   1      38.946  29.436  27.809  1.00  0.00     0.059 A 
ATOM     81  C   UNL A   1      39.256  29.112  30.185  1.00  0.00     0.059 A 
ATOM     82  F   UNL A   1      41.380  28.599  31.041  1.00  0.00    -0.206 F 
ATOM     83  C   UNL A   1      38.437  29.429  29.102  1.00  0.00     0.060 A 
BRANCH  83  84
ATOM     84  S   UNL A   1      36.691  29.826  29.349  1.00  0.00     0.124 S 
ATOM     85  O   UNL A   1      36.421  29.174  30.626  1.00  0.00    -0.237 OA
ATOM     86  O   UNL A   1      36.703  31.285  29.368  1.00  0.00    -0.237 OA
ATOM     87  O   UNL A   1      36.046  29.228  28.184  1.00  0.00    -0.744 OA
ENDBRANCH  83  84
ENDBRANCH  51  76
BRANCH  63  88
ATOM     88  C   UNL A   1      46.615  33.182  28.519  1.00  0.00     0.058 A 
ATOM     89  C   UNL A   1      46.933  33.545  29.839  1.00  0.00     0.135 A 
ATOM     90  C   UNL A   1      46.521  34.209  27.568  1.00  0.00     0.135 A 
ATOM     91  F   UNL A   1      47.046  32.604  30.791  1.00  0.00    -0.206 F 
ATOM     92  C   UNL A   1      47.107  34.873  30.209  1.00  0.00     0.059 A 
ATOM     93  C   UNL A   1      46.725  35.543  27.908  1.00  0.00     0.059 A 
ATOM     94  F   UNL A   1      46.240  33.921  26.287  1.00  0.00    -0.206 F 
ATOM     95  C   UNL A   1      47.002  35.867  29.235  1.00  0.00     0.060 A 
BRANCH  95  96
ATOM     96  S   UNL A   1      47.254  37.586  29.727  1.00  0.00     0.124 S 
ATOM     97  O   UNL A   1      48.348  37.463  30.683  1.00  0.00    -0.237 OA
ATOM     98  O   UNL A   1      47.590  38.228  28.459  1.00  0.00    -0.237 OA
ATOM     99  O   UNL A   1      45.964  37.970  30.294  1.00  0.00    -0.744 OA
ENDBRANCH  95  96
ENDBRANCH  63  88
ENDBRANCH  37  38
ENDBRANCH  30  32
ENDBRANCH  29  30
ENDBRANCH  28  29
ENDBRANCH  27  28
ENDBRANCH  26  27
ENDBRANCH   1  26
TORSDOF 22
ENDMDL
