MODEL 1
REMARK VINA RESULT:      -9.7      0.000      0.000
REMARK SMILES CC[C@H]1CCC[C@@H]([C@@H](Cc2ccccc2)C(=O)OCCOCCOCCOC(=O)c2ccc(-c3c4nc(c(-c5c(F)cc(S(=O)(=O)[O-])cc5F)c5ccc([nH]5)c(-c5c(F)cc(S(=O)(=O)[O-])cc5F)c5nc(c(-c6c(F)cc(S(=O)(=O)[O-])cc6F)c6ccc3[nH]6)C=C5)C=C4)cc2)C1
REMARK SMILES IDX 23 1 22 2 21 3 20 4 19 5 18 6 16 7 17 8 8 9 7 10 3 11 4 12
REMARK SMILES IDX 96 13 5 14 6 15 2 16 1 17 9 18 10 19 11 20 15 21 12 22 14 23
REMARK SMILES IDX 13 24 24 25 25 26 26 27 27 28 28 29 29 30 30 31 31 32 95 33
REMARK SMILES IDX 32 34 94 35 33 36 34 37 35 38 88 39 36 40 93 41 87 42 89 43
REMARK SMILES IDX 37 44 92 45 86 46 85 47 38 49 72 50 51 51 71 52 52 53 55 54
REMARK SMILES IDX 70 55 90 56 53 57 54 58 69 60 91 61 56 62 39 63 40 64 49 65
REMARK SMILES IDX 41 66 42 67 48 68 50 69 43 70 44 71 45 72 46 73 47 74 73 75
REMARK SMILES IDX 74 76 83 77 75 78 76 79 82 80 84 81 77 82 78 83 79 84 80 85
REMARK SMILES IDX 81 86 57 87 58 88 67 89 59 90 60 91 66 92 68 93 61 94 62 95
REMARK SMILES IDX 63 96 64 97 65 98
REMARK H PARENT 89 48 55 59
REMARK Flexibility Score: inf
ROOT
ATOM      1  C   UNL A   1      38.631  23.143  26.218  1.00  0.00     0.188 C 
ENDROOT
BRANCH   1   2
ATOM      2  C   UNL A   1      37.309  22.981  25.442  1.00  0.00     0.188 C 
BRANCH   2   3
ATOM      3  O   UNL A   1      36.282  23.915  25.717  1.00  0.00    -0.376 OA
BRANCH   3   4
ATOM      4  C   UNL A   1      35.147  23.949  24.861  1.00  0.00     0.202 C 
BRANCH   4   5
ATOM      5  C   UNL A   1      34.155  25.114  24.902  1.00  0.00     0.261 C 
BRANCH   5   6
ATOM      6  O   UNL A   1      32.812  24.735  25.241  1.00  0.00    -0.463 OA
BRANCH   6   7
ATOM      7  C   UNL A   1      32.162  25.479  26.183  1.00  0.00     0.309 C 
ATOM      8  O   UNL A   1      31.683  25.023  27.215  1.00  0.00    -0.252 OA
BRANCH   7   9
ATOM      9  C   UNL A   1      31.896  26.897  25.710  1.00  0.00     0.107 C 
BRANCH   9  10
ATOM     10  C   UNL A   1      30.585  27.372  25.014  1.00  0.00     0.004 C 
ATOM     11  C   UNL A   1      31.407  29.060  23.110  1.00  0.00    -0.011 C 
ATOM     12  C   UNL A   1      30.570  28.289  22.081  1.00  0.00     0.003 C 
ATOM     13  C   UNL A   1      30.664  28.808  24.444  1.00  0.00     0.008 C 
ATOM     14  C   UNL A   1      30.554  26.801  22.430  1.00  0.00     0.001 C 
ATOM     15  C   UNL A   1      30.043  26.475  23.853  1.00  0.00     0.004 C 
BRANCH  11  16
ATOM     16  C   UNL A   1      32.932  28.987  22.681  1.00  0.00     0.000 C 
ATOM     17  C   UNL A   1      34.235  28.637  23.403  1.00  0.00     0.004 C 
ENDBRANCH  11  16
ENDBRANCH   9  10
BRANCH   9  18
ATOM     18  C   UNL A   1      32.319  27.710  26.941  1.00  0.00     0.051 C 
BRANCH  18  19
ATOM     19  C   UNL A   1      33.337  28.826  26.999  1.00  0.00    -0.047 A 
ATOM     20  C   UNL A   1      34.724  28.667  27.066  1.00  0.00     0.004 A 
ATOM     21  C   UNL A   1      32.790  30.106  27.227  1.00  0.00     0.004 A 
ATOM     22  C   UNL A   1      35.527  29.745  27.455  1.00  0.00     0.000 A 
ATOM     23  C   UNL A   1      33.585  31.165  27.640  1.00  0.00     0.000 A 
ATOM     24  C   UNL A   1      34.955  30.980  27.767  1.00  0.00     0.000 A 
ENDBRANCH  18  19
ENDBRANCH   9  18
ENDBRANCH   7   9
ENDBRANCH   6   7
ENDBRANCH   5   6
ENDBRANCH   4   5
ENDBRANCH   3   4
ENDBRANCH   2   3
ENDBRANCH   1   2
BRANCH   1  25
ATOM     25  O   UNL A   1      39.588  22.105  26.251  1.00  0.00    -0.376 OA
BRANCH  25  26
ATOM     26  C   UNL A   1      40.807  22.323  26.940  1.00  0.00     0.202 C 
BRANCH  26  27
ATOM     27  C   UNL A   1      42.040  23.001  26.297  1.00  0.00     0.261 C 
BRANCH  27  28
ATOM     28  O   UNL A   1      42.517  24.221  26.881  1.00  0.00    -0.460 OA
BRANCH  28  29
ATOM     29  C   UNL A   1      42.044  25.374  26.321  1.00  0.00     0.338 C 
ATOM     30  O   UNL A   1      41.783  25.559  25.161  1.00  0.00    -0.246 OA
BRANCH  29  31
ATOM     31  C   UNL A   1      41.626  26.285  27.431  1.00  0.00     0.060 A 
ATOM     32  C   UNL A   1      42.309  27.504  27.585  1.00  0.00     0.016 A 
ATOM     33  C   UNL A   1      40.546  25.981  28.258  1.00  0.00     0.016 A 
ATOM     34  C   UNL A   1      41.927  28.413  28.574  1.00  0.00     0.010 A 
ATOM     35  C   UNL A   1      40.194  26.873  29.279  1.00  0.00     0.010 A 
ATOM     36  C   UNL A   1      40.901  28.077  29.462  1.00  0.00    -0.014 A 
BRANCH  36  37
ATOM     37  C   UNL A   1      40.749  28.832  30.732  1.00  0.00     0.031 A 
ATOM     38  C   UNL A   1      39.677  29.889  30.782  1.00  0.00     0.074 A 
ATOM     39  C   UNL A   1      41.520  28.603  31.810  1.00  0.00     0.049 A 
ATOM     40  N   UNL A   1      39.401  30.755  31.722  1.00  0.00    -0.248 NA
ATOM     41  C   UNL A   1      38.802  29.984  29.601  1.00  0.00     0.031 C 
ATOM     42  C   UNL A   1      42.544  27.568  31.921  1.00  0.00     0.029 A 
ATOM     43  N   UNL A   1      41.562  29.250  33.023  1.00  0.00    -0.354 N 
ATOM     44  C   UNL A   1      38.342  31.513  31.235  1.00  0.00     0.074 A 
ATOM     45  C   UNL A   1      38.036  31.017  29.912  1.00  0.00     0.031 C 
ATOM     46  C   UNL A   1      43.127  27.660  33.131  1.00  0.00     0.029 A 
ATOM     47  C   UNL A   1      42.544  28.783  33.865  1.00  0.00     0.049 A 
ATOM     48  H   UNL A   1      40.947  29.978  33.266  1.00  0.00     0.167 HD
ATOM     49  C   UNL A   1      37.682  32.531  31.835  1.00  0.00     0.037 A 
ATOM     50  C   UNL A   1      42.941  29.231  35.075  1.00  0.00     0.037 A 
ATOM     51  C   UNL A   1      37.986  33.019  33.154  1.00  0.00     0.049 A 
ATOM     52  C   UNL A   1      42.246  30.423  35.693  1.00  0.00     0.074 A 
ATOM     53  C   UNL A   1      37.356  34.027  33.862  1.00  0.00     0.029 A 
ATOM     54  N   UNL A   1      39.013  32.547  33.958  1.00  0.00    -0.354 N 
ATOM     55  N   UNL A   1      41.233  31.120  35.233  1.00  0.00    -0.248 NA
ATOM     56  C   UNL A   1      42.751  30.891  36.991  1.00  0.00     0.031 C 
ATOM     57  C   UNL A   1      38.042  34.207  35.067  1.00  0.00     0.029 A 
ATOM     58  C   UNL A   1      39.057  33.266  35.140  1.00  0.00     0.049 A 
ATOM     59  H   UNL A   1      39.620  31.809  33.722  1.00  0.00     0.167 HD
ATOM     60  C   UNL A   1      40.958  32.082  36.203  1.00  0.00     0.074 A 
ATOM     61  C   UNL A   1      41.909  31.873  37.276  1.00  0.00     0.031 C 
ATOM     62  C   UNL A   1      40.001  33.044  36.209  1.00  0.00     0.037 A 
BRANCH  49  63
ATOM     63  C   UNL A   1      36.602  33.217  31.047  1.00  0.00     0.058 A 
ATOM     64  C   UNL A   1      36.891  34.104  29.997  1.00  0.00     0.135 A 
ATOM     65  C   UNL A   1      35.250  32.971  31.341  1.00  0.00     0.135 A 
ATOM     66  F   UNL A   1      38.164  34.393  29.687  1.00  0.00    -0.206 F 
ATOM     67  C   UNL A   1      35.880  34.747  29.290  1.00  0.00     0.059 A 
ATOM     68  C   UNL A   1      34.223  33.578  30.626  1.00  0.00     0.059 A 
ATOM     69  F   UNL A   1      34.917  32.137  32.338  1.00  0.00    -0.206 F 
ATOM     70  C   UNL A   1      34.548  34.477  29.613  1.00  0.00     0.060 A 
BRANCH  70  71
ATOM     71  S   UNL A   1      33.249  35.321  28.688  1.00  0.00     0.124 S 
ATOM     72  O   UNL A   1      34.029  36.225  27.849  1.00  0.00    -0.237 OA
ATOM     73  O   UNL A   1      32.594  34.218  27.993  1.00  0.00    -0.237 OA
ATOM     74  O   UNL A   1      32.452  35.964  29.729  1.00  0.00    -0.744 OA
ENDBRANCH  70  71
ENDBRANCH  49  63
BRANCH  50  75
ATOM     75  C   UNL A   1      44.059  28.559  35.796  1.00  0.00     0.058 A 
ATOM     76  C   UNL A   1      45.393  28.920  35.556  1.00  0.00     0.135 A 
ATOM     77  C   UNL A   1      43.821  27.533  36.724  1.00  0.00     0.135 A 
ATOM     78  F   UNL A   1      45.676  29.880  34.662  1.00  0.00    -0.206 F 
ATOM     79  C   UNL A   1      46.450  28.286  36.200  1.00  0.00     0.059 A 
ATOM     80  C   UNL A   1      44.860  26.901  37.402  1.00  0.00     0.059 A 
ATOM     81  F   UNL A   1      42.563  27.145  36.992  1.00  0.00    -0.206 F 
ATOM     82  C   UNL A   1      46.173  27.280  37.127  1.00  0.00     0.060 A 
BRANCH  82  83
ATOM     83  S   UNL A   1      47.552  26.501  37.997  1.00  0.00     0.124 S 
ATOM     84  O   UNL A   1      47.534  27.206  39.273  1.00  0.00    -0.237 OA
ATOM     85  O   UNL A   1      47.136  25.103  38.035  1.00  0.00    -0.237 OA
ATOM     86  O   UNL A   1      48.696  26.785  37.136  1.00  0.00    -0.744 OA
ENDBRANCH  82  83
ENDBRANCH  50  75
BRANCH  62  87
ATOM     87  C   UNL A   1      39.891  33.921  37.428  1.00  0.00     0.058 A 
ATOM     88  C   UNL A   1      40.622  35.112  37.559  1.00  0.00     0.135 A 
ATOM     89  C   UNL A   1      38.987  33.595  38.454  1.00  0.00     0.135 A 
ATOM     90  F   UNL A   1      41.502  35.472  36.612  1.00  0.00    -0.206 F 
ATOM     91  C   UNL A   1      40.480  35.934  38.674  1.00  0.00     0.059 A 
ATOM     92  C   UNL A   1      38.805  34.418  39.562  1.00  0.00     0.059 A 
ATOM     93  F   UNL A   1      38.250  32.475  38.376  1.00  0.00    -0.206 F 
ATOM     94  C   UNL A   1      39.566  35.581  39.669  1.00  0.00     0.060 A 
BRANCH  94  95
ATOM     95  S   UNL A   1      39.367  36.675  41.091  1.00  0.00     0.124 S 
ATOM     96  O   UNL A   1      38.539  35.862  41.974  1.00  0.00    -0.237 OA
ATOM     97  O   UNL A   1      40.746  36.880  41.523  1.00  0.00    -0.237 OA
ATOM     98  O   UNL A   1      38.712  37.852  40.526  1.00  0.00    -0.744 OA
ENDBRANCH  94  95
ENDBRANCH  62  87
ENDBRANCH  36  37
ENDBRANCH  29  31
ENDBRANCH  28  29
ENDBRANCH  27  28
ENDBRANCH  26  27
ENDBRANCH  25  26
ENDBRANCH   1  25
TORSDOF 24
ENDMDL
MODEL 2
REMARK VINA RESULT:      -9.2      0.895      2.177
REMARK SMILES CC[C@H]1CCC[C@@H]([C@@H](Cc2ccccc2)C(=O)OCCOCCOCCOC(=O)c2ccc(-c3c4nc(c(-c5c(F)cc(S(=O)(=O)[O-])cc5F)c5ccc([nH]5)c(-c5c(F)cc(S(=O)(=O)[O-])cc5F)c5nc(c(-c6c(F)cc(S(=O)(=O)[O-])cc6F)c6ccc3[nH]6)C=C5)C=C4)cc2)C1
REMARK SMILES IDX 23 1 22 2 21 3 20 4 19 5 18 6 16 7 17 8 8 9 7 10 3 11 4 12
REMARK SMILES IDX 96 13 5 14 6 15 2 16 1 17 9 18 10 19 11 20 15 21 12 22 14 23
REMARK SMILES IDX 13 24 24 25 25 26 26 27 27 28 28 29 29 30 30 31 31 32 95 33
REMARK SMILES IDX 32 34 94 35 33 36 34 37 35 38 88 39 36 40 93 41 87 42 89 43
REMARK SMILES IDX 37 44 92 45 86 46 85 47 38 49 72 50 51 51 71 52 52 53 55 54
REMARK SMILES IDX 70 55 90 56 53 57 54 58 69 60 91 61 56 62 39 63 40 64 49 65
REMARK SMILES IDX 41 66 42 67 48 68 50 69 43 70 44 71 45 72 46 73 47 74 73 75
REMARK SMILES IDX 74 76 83 77 75 78 76 79 82 80 84 81 77 82 78 83 79 84 80 85
REMARK SMILES IDX 81 86 57 87 58 88 67 89 59 90 60 91 66 92 68 93 61 94 62 95
REMARK SMILES IDX 63 96 64 97 65 98
REMARK H PARENT 89 48 55 59
REMARK Flexibility Score: inf
ROOT
ATOM      1  C   UNL A   1      38.218  21.995  25.970  1.00  0.00     0.188 C 
ENDROOT
BRANCH   1   2
ATOM      2  C   UNL A   1      37.194  21.432  24.965  1.00  0.00     0.188 C 
BRANCH   2   3
ATOM      3  O   UNL A   1      36.030  20.830  25.500  1.00  0.00    -0.376 OA
BRANCH   3   4
ATOM      4  C   UNL A   1      34.774  21.451  25.262  1.00  0.00     0.202 C 
BRANCH   4   5
ATOM      5  C   UNL A   1      33.964  22.067  26.407  1.00  0.00     0.261 C 
BRANCH   5   6
ATOM      6  O   UNL A   1      32.676  22.569  26.016  1.00  0.00    -0.463 OA
BRANCH   6   7
ATOM      7  C   UNL A   1      32.306  23.799  26.479  1.00  0.00     0.309 C 
ATOM      8  O   UNL A   1      31.431  23.989  27.315  1.00  0.00    -0.252 OA
BRANCH   7   9
ATOM      9  C   UNL A   1      32.942  24.924  25.683  1.00  0.00     0.107 C 
BRANCH   9  10
ATOM     10  C   UNL A   1      33.163  24.907  24.140  1.00  0.00     0.004 C 
ATOM     11  C   UNL A   1      30.767  25.496  23.109  1.00  0.00    -0.011 C 
ATOM     12  C   UNL A   1      31.416  26.591  22.253  1.00  0.00     0.003 C 
ATOM     13  C   UNL A   1      31.914  24.482  23.333  1.00  0.00     0.008 C 
ATOM     14  C   UNL A   1      32.577  27.230  23.015  1.00  0.00     0.001 C 
ATOM     15  C   UNL A   1      33.666  26.238  23.489  1.00  0.00     0.004 C 
BRANCH  11  16
ATOM     16  C   UNL A   1      29.705  26.172  24.075  1.00  0.00     0.000 C 
ATOM     17  C   UNL A   1      28.276  26.691  23.904  1.00  0.00     0.004 C 
ENDBRANCH  11  16
ENDBRANCH   9  10
BRANCH   9  18
ATOM     18  C   UNL A   1      32.181  26.143  26.224  1.00  0.00     0.051 C 
BRANCH  18  19
ATOM     19  C   UNL A   1      32.696  27.557  26.367  1.00  0.00    -0.047 A 
ATOM     20  C   UNL A   1      34.007  27.924  26.684  1.00  0.00     0.004 A 
ATOM     21  C   UNL A   1      31.691  28.546  26.393  1.00  0.00     0.004 A 
ATOM     22  C   UNL A   1      34.276  29.226  27.117  1.00  0.00     0.000 A 
ATOM     23  C   UNL A   1      31.955  29.829  26.851  1.00  0.00     0.000 A 
ATOM     24  C   UNL A   1      33.249  30.166  27.226  1.00  0.00     0.000 A 
ENDBRANCH  18  19
ENDBRANCH   9  18
ENDBRANCH   7   9
ENDBRANCH   6   7
ENDBRANCH   5   6
ENDBRANCH   4   5
ENDBRANCH   3   4
ENDBRANCH   2   3
ENDBRANCH   1   2
BRANCH   1  25
ATOM     25  O   UNL A   1      39.592  21.686  25.860  1.00  0.00    -0.376 OA
BRANCH  25  26
ATOM     26  C   UNL A   1      40.516  22.390  26.672  1.00  0.00     0.202 C 
BRANCH  26  27
ATOM     27  C   UNL A   1      41.838  22.988  26.137  1.00  0.00     0.261 C 
BRANCH  27  28
ATOM     28  O   UNL A   1      42.354  24.161  26.779  1.00  0.00    -0.460 OA
BRANCH  28  29
ATOM     29  C   UNL A   1      41.966  25.355  26.241  1.00  0.00     0.338 C 
ATOM     30  O   UNL A   1      41.742  25.585  25.081  1.00  0.00    -0.246 OA
BRANCH  29  31
ATOM     31  C   UNL A   1      41.579  26.261  27.366  1.00  0.00     0.060 A 
ATOM     32  C   UNL A   1      42.315  27.445  27.551  1.00  0.00     0.016 A 
ATOM     33  C   UNL A   1      40.480  25.989  28.179  1.00  0.00     0.016 A 
ATOM     34  C   UNL A   1      41.966  28.350  28.554  1.00  0.00     0.010 A 
ATOM     35  C   UNL A   1      40.159  26.875  29.215  1.00  0.00     0.010 A 
ATOM     36  C   UNL A   1      40.918  28.042  29.428  1.00  0.00    -0.014 A 
BRANCH  36  37
ATOM     37  C   UNL A   1      40.788  28.778  30.712  1.00  0.00     0.031 A 
ATOM     38  C   UNL A   1      39.712  29.828  30.800  1.00  0.00     0.074 A 
ATOM     39  C   UNL A   1      41.584  28.538  31.770  1.00  0.00     0.049 A 
ATOM     40  N   UNL A   1      39.452  30.679  31.759  1.00  0.00    -0.248 NA
ATOM     41  C   UNL A   1      38.812  29.936  29.639  1.00  0.00     0.031 C 
ATOM     42  C   UNL A   1      42.615  27.507  31.844  1.00  0.00     0.029 A 
ATOM     43  N   UNL A   1      41.648  29.167  32.991  1.00  0.00    -0.354 N 
ATOM     44  C   UNL A   1      38.378  31.438  31.306  1.00  0.00     0.074 A 
ATOM     45  C   UNL A   1      38.048  30.960  29.982  1.00  0.00     0.031 C 
ATOM     46  C   UNL A   1      43.223  27.584  33.042  1.00  0.00     0.029 A 
ATOM     47  C   UNL A   1      42.651  28.693  33.805  1.00  0.00     0.049 A 
ATOM     48  H   UNL A   1      41.034  29.888  33.257  1.00  0.00     0.167 HD
ATOM     49  C   UNL A   1      37.726  32.443  31.934  1.00  0.00     0.037 A 
ATOM     50  C   UNL A   1      43.070  29.125  35.013  1.00  0.00     0.037 A 
ATOM     51  C   UNL A   1      38.056  32.914  33.254  1.00  0.00     0.049 A 
ATOM     52  C   UNL A   1      42.382  30.304  35.663  1.00  0.00     0.074 A 
ATOM     53  C   UNL A   1      37.436  33.908  33.990  1.00  0.00     0.029 A 
ATOM     54  N   UNL A   1      39.102  32.435  34.029  1.00  0.00    -0.354 N 
ATOM     55  N   UNL A   1      41.356  31.003  35.235  1.00  0.00    -0.248 NA
ATOM     56  C   UNL A   1      42.913  30.757  36.957  1.00  0.00     0.031 C 
ATOM     57  C   UNL A   1      38.146  34.074  35.182  1.00  0.00     0.029 A 
ATOM     58  C   UNL A   1      39.168  33.138  35.220  1.00  0.00     0.049 A 
ATOM     59  H   UNL A   1      39.708  31.704  33.769  1.00  0.00     0.167 HD
ATOM     60  C   UNL A   1      41.097  31.949  36.225  1.00  0.00     0.074 A 
ATOM     61  C   UNL A   1      42.071  31.730  37.274  1.00  0.00     0.031 C 
ATOM     62  C   UNL A   1      40.135  32.905  36.265  1.00  0.00     0.037 A 
BRANCH  49  63
ATOM     63  C   UNL A   1      36.626  33.135  31.179  1.00  0.00     0.058 A 
ATOM     64  C   UNL A   1      35.272  32.980  31.521  1.00  0.00     0.135 A 
ATOM     65  C   UNL A   1      36.936  33.981  30.101  1.00  0.00     0.135 A 
ATOM     66  F   UNL A   1      34.918  32.168  32.528  1.00  0.00    -0.206 F 
ATOM     67  C   UNL A   1      34.264  33.612  30.800  1.00  0.00     0.059 A 
ATOM     68  C   UNL A   1      35.946  34.647  29.386  1.00  0.00     0.059 A 
ATOM     69  F   UNL A   1      38.212  34.160  29.727  1.00  0.00    -0.206 F 
ATOM     70  C   UNL A   1      34.611  34.444  29.733  1.00  0.00     0.060 A 
BRANCH  70  71
ATOM     71  S   UNL A   1      33.292  35.254  28.806  1.00  0.00     0.124 S 
ATOM     72  O   UNL A   1      32.509  35.856  29.881  1.00  0.00    -0.237 OA
ATOM     73  O   UNL A   1      34.031  36.185  27.962  1.00  0.00    -0.237 OA
ATOM     74  O   UNL A   1      32.644  34.151  28.102  1.00  0.00    -0.744 OA
ENDBRANCH  70  71
ENDBRANCH  49  63
BRANCH  50  75
ATOM     75  C   UNL A   1      44.207  28.450  35.700  1.00  0.00     0.058 A 
ATOM     76  C   UNL A   1      43.981  27.422  36.629  1.00  0.00     0.135 A 
ATOM     77  C   UNL A   1      45.538  28.826  35.458  1.00  0.00     0.135 A 
ATOM     78  F   UNL A   1      42.727  27.040  36.913  1.00  0.00    -0.206 F 
ATOM     79  C   UNL A   1      45.029  26.799  37.299  1.00  0.00     0.059 A 
ATOM     80  C   UNL A   1      46.605  28.198  36.095  1.00  0.00     0.059 A 
ATOM     81  F   UNL A   1      45.812  29.804  34.580  1.00  0.00    -0.206 F 
ATOM     82  C   UNL A   1      46.339  27.190  37.020  1.00  0.00     0.060 A 
BRANCH  82  83
ATOM     83  S   UNL A   1      47.694  26.336  37.857  1.00  0.00     0.124 S 
ATOM     84  O   UNL A   1      47.101  26.042  39.157  1.00  0.00    -0.237 OA
ATOM     85  O   UNL A   1      47.916  25.188  36.983  1.00  0.00    -0.237 OA
ATOM     86  O   UNL A   1      48.765  27.327  37.863  1.00  0.00    -0.744 OA
ENDBRANCH  82  83
ENDBRANCH  50  75
BRANCH  62  87
ATOM     87  C   UNL A   1      40.046  33.764  37.499  1.00  0.00     0.058 A 
ATOM     88  C   UNL A   1      39.199  33.443  38.572  1.00  0.00     0.135 A 
ATOM     89  C   UNL A   1      40.874  34.892  37.637  1.00  0.00     0.135 A 
ATOM     90  F   UNL A   1      38.386  32.378  38.495  1.00  0.00    -0.206 F 
ATOM     91  C   UNL A   1      39.159  34.223  39.725  1.00  0.00     0.059 A 
ATOM     92  C   UNL A   1      40.872  35.668  38.792  1.00  0.00     0.059 A 
ATOM     93  F   UNL A   1      41.714  35.239  36.649  1.00  0.00    -0.206 F 
ATOM     94  C   UNL A   1      40.001  35.331  39.828  1.00  0.00     0.060 A 
BRANCH  94  95
ATOM     95  S   UNL A   1      39.961  36.313  41.342  1.00  0.00     0.124 S 
ATOM     96  O   UNL A   1      40.305  37.639  40.843  1.00  0.00    -0.237 OA
ATOM     97  O   UNL A   1      38.583  36.140  41.791  1.00  0.00    -0.237 OA
ATOM     98  O   UNL A   1      40.972  35.679  42.185  1.00  0.00    -0.744 OA
ENDBRANCH  94  95
ENDBRANCH  62  87
ENDBRANCH  36  37
ENDBRANCH  29  31
ENDBRANCH  28  29
ENDBRANCH  27  28
ENDBRANCH  26  27
ENDBRANCH  25  26
ENDBRANCH   1  25
TORSDOF 24
ENDMDL
MODEL 3
REMARK VINA RESULT:      -9.1      1.968      4.026
REMARK SMILES CC[C@H]1CCC[C@@H]([C@@H](Cc2ccccc2)C(=O)OCCOCCOCCOC(=O)c2ccc(-c3c4nc(c(-c5c(F)cc(S(=O)(=O)[O-])cc5F)c5ccc([nH]5)c(-c5c(F)cc(S(=O)(=O)[O-])cc5F)c5nc(c(-c6c(F)cc(S(=O)(=O)[O-])cc6F)c6ccc3[nH]6)C=C5)C=C4)cc2)C1
REMARK SMILES IDX 23 1 22 2 21 3 20 4 19 5 18 6 16 7 17 8 8 9 7 10 3 11 4 12
REMARK SMILES IDX 96 13 5 14 6 15 2 16 1 17 9 18 10 19 11 20 15 21 12 22 14 23
REMARK SMILES IDX 13 24 24 25 25 26 26 27 27 28 28 29 29 30 30 31 31 32 95 33
REMARK SMILES IDX 32 34 94 35 33 36 34 37 35 38 88 39 36 40 93 41 87 42 89 43
REMARK SMILES IDX 37 44 92 45 86 46 85 47 38 49 72 50 51 51 71 52 52 53 55 54
REMARK SMILES IDX 70 55 90 56 53 57 54 58 69 60 91 61 56 62 39 63 40 64 49 65
REMARK SMILES IDX 41 66 42 67 48 68 50 69 43 70 44 71 45 72 46 73 47 74 73 75
REMARK SMILES IDX 74 76 83 77 75 78 76 79 82 80 84 81 77 82 78 83 79 84 80 85
REMARK SMILES IDX 81 86 57 87 58 88 67 89 59 90 60 91 66 92 68 93 61 94 62 95
REMARK SMILES IDX 63 96 64 97 65 98
REMARK H PARENT 89 48 55 59
REMARK Flexibility Score: inf
ROOT
ATOM      1  C   UNL A   1      40.715  20.947  26.515  1.00  0.00     0.188 C 
ENDROOT
BRANCH   1   2
ATOM      2  C   UNL A   1      39.855  22.131  26.999  1.00  0.00     0.188 C 
BRANCH   2   3
ATOM      3  O   UNL A   1      38.608  22.327  26.358  1.00  0.00    -0.376 OA
BRANCH   3   4
ATOM      4  C   UNL A   1      38.253  21.464  25.285  1.00  0.00     0.202 C 
BRANCH   4   5
ATOM      5  C   UNL A   1      37.062  21.777  24.376  1.00  0.00     0.261 C 
BRANCH   5   6
ATOM      6  O   UNL A   1      35.780  21.628  25.010  1.00  0.00    -0.463 OA
BRANCH   6   7
ATOM      7  C   UNL A   1      34.783  22.480  24.631  1.00  0.00     0.309 C 
ATOM      8  O   UNL A   1      34.967  23.611  24.197  1.00  0.00    -0.252 OA
BRANCH   7   9
ATOM      9  C   UNL A   1      33.410  21.960  25.017  1.00  0.00     0.107 C 
BRANCH   9  10
ATOM     10  C   UNL A   1      32.108  22.190  24.192  1.00  0.00     0.004 C 
ATOM     11  C   UNL A   1      30.978  24.343  25.305  1.00  0.00    -0.011 C 
ATOM     12  C   UNL A   1      30.860  24.985  23.916  1.00  0.00     0.003 C 
ATOM     13  C   UNL A   1      30.955  22.824  25.006  1.00  0.00     0.008 C 
ATOM     14  C   UNL A   1      32.050  24.576  23.049  1.00  0.00     0.001 C 
ATOM     15  C   UNL A   1      32.243  23.049  22.892  1.00  0.00     0.004 C 
BRANCH  11  16
ATOM     16  C   UNL A   1      31.899  25.262  26.212  1.00  0.00     0.000 C 
ATOM     17  C   UNL A   1      33.224  25.997  25.999  1.00  0.00     0.004 C 
ENDBRANCH  11  16
ENDBRANCH   9  10
BRANCH   9  18
ATOM     18  C   UNL A   1      33.726  20.496  25.352  1.00  0.00     0.051 C 
BRANCH  18  19
ATOM     19  C   UNL A   1      33.703  19.313  24.410  1.00  0.00    -0.047 A 
ATOM     20  C   UNL A   1      32.657  18.973  23.547  1.00  0.00     0.004 A 
ATOM     21  C   UNL A   1      34.743  18.382  24.614  1.00  0.00     0.004 A 
ATOM     22  C   UNL A   1      32.609  17.691  22.989  1.00  0.00     0.000 A 
ATOM     23  C   UNL A   1      34.677  17.102  24.082  1.00  0.00     0.000 A 
ATOM     24  C   UNL A   1      33.601  16.752  23.279  1.00  0.00     0.000 A 
ENDBRANCH  18  19
ENDBRANCH   9  18
ENDBRANCH   7   9
ENDBRANCH   6   7
ENDBRANCH   5   6
ENDBRANCH   4   5
ENDBRANCH   3   4
ENDBRANCH   2   3
ENDBRANCH   1   2
BRANCH   1  25
ATOM     25  O   UNL A   1      41.943  21.163  25.851  1.00  0.00    -0.376 OA
BRANCH  25  26
ATOM     26  C   UNL A   1      43.085  21.497  26.622  1.00  0.00     0.202 C 
BRANCH  26  27
ATOM     27  C   UNL A   1      43.590  22.946  26.813  1.00  0.00     0.261 C 
BRANCH  27  28
ATOM     28  O   UNL A   1      42.634  24.010  26.710  1.00  0.00    -0.460 OA
BRANCH  28  29
ATOM     29  C   UNL A   1      43.153  25.261  26.526  1.00  0.00     0.338 C 
ATOM     30  O   UNL A   1      43.751  25.660  25.562  1.00  0.00    -0.246 OA
BRANCH  29  31
ATOM     31  C   UNL A   1      42.603  26.147  27.598  1.00  0.00     0.060 A 
ATOM     32  C   UNL A   1      43.209  27.400  27.803  1.00  0.00     0.016 A 
ATOM     33  C   UNL A   1      41.479  25.787  28.340  1.00  0.00     0.016 A 
ATOM     34  C   UNL A   1      42.705  28.286  28.756  1.00  0.00     0.010 A 
ATOM     35  C   UNL A   1      41.004  26.657  29.328  1.00  0.00     0.010 A 
ATOM     36  C   UNL A   1      41.631  27.896  29.563  1.00  0.00    -0.014 A 
BRANCH  36  37
ATOM     37  C   UNL A   1      41.342  28.640  30.816  1.00  0.00     0.031 A 
ATOM     38  C   UNL A   1      40.191  29.611  30.792  1.00  0.00     0.074 A 
ATOM     39  C   UNL A   1      42.060  28.474  31.941  1.00  0.00     0.049 A 
ATOM     40  N   UNL A   1      39.791  30.455  31.707  1.00  0.00    -0.248 NA
ATOM     41  C   UNL A   1      39.387  29.635  29.558  1.00  0.00     0.031 C 
ATOM     42  C   UNL A   1      43.152  27.522  32.123  1.00  0.00     0.029 A 
ATOM     43  N   UNL A   1      41.976  29.125  33.150  1.00  0.00    -0.354 N 
ATOM     44  C   UNL A   1      38.708  31.127  31.149  1.00  0.00     0.074 A 
ATOM     45  C   UNL A   1      38.526  30.606  29.813  1.00  0.00     0.031 C 
ATOM     46  C   UNL A   1      43.649  27.662  33.366  1.00  0.00     0.029 A 
ATOM     47  C   UNL A   1      42.937  28.738  34.054  1.00  0.00     0.049 A 
ATOM     48  H   UNL A   1      41.293  29.804  33.348  1.00  0.00     0.167 HD
ATOM     49  C   UNL A   1      37.936  32.092  31.699  1.00  0.00     0.037 A 
ATOM     50  C   UNL A   1      43.221  29.218  35.284  1.00  0.00     0.037 A 
ATOM     51  C   UNL A   1      38.118  32.606  33.031  1.00  0.00     0.049 A 
ATOM     52  C   UNL A   1      42.399  30.354  35.848  1.00  0.00     0.074 A 
ATOM     53  C   UNL A   1      37.369  33.564  33.691  1.00  0.00     0.029 A 
ATOM     54  N   UNL A   1      39.126  32.217  33.901  1.00  0.00    -0.354 N 
ATOM     55  N   UNL A   1      41.366  30.970  35.321  1.00  0.00    -0.248 NA
ATOM     56  C   UNL A   1      42.785  30.863  37.172  1.00  0.00     0.031 C 
ATOM     57  C   UNL A   1      37.963  33.799  34.935  1.00  0.00     0.029 A 
ATOM     58  C   UNL A   1      39.041  32.940  35.078  1.00  0.00     0.049 A 
ATOM     59  H   UNL A   1      39.802  31.527  33.709  1.00  0.00     0.167 HD
ATOM     60  C   UNL A   1      40.957  31.909  36.265  1.00  0.00     0.074 A 
ATOM     61  C   UNL A   1      41.852  31.778  37.397  1.00  0.00     0.031 C 
ATOM     62  C   UNL A   1      39.930  32.794  36.205  1.00  0.00     0.037 A 
BRANCH  49  63
ATOM     63  C   UNL A   1      36.857  32.691  30.841  1.00  0.00     0.058 A 
ATOM     64  C   UNL A   1      37.126  33.688  29.889  1.00  0.00     0.135 A 
ATOM     65  C   UNL A   1      35.530  32.247  30.966  1.00  0.00     0.135 A 
ATOM     66  F   UNL A   1      38.372  34.165  29.742  1.00  0.00    -0.206 F 
ATOM     67  C   UNL A   1      36.113  34.246  29.115  1.00  0.00     0.059 A 
ATOM     68  C   UNL A   1      34.507  32.768  30.180  1.00  0.00     0.059 A 
ATOM     69  F   UNL A   1      35.215  31.301  31.863  1.00  0.00    -0.206 F 
ATOM     70  C   UNL A   1      34.806  33.780  29.269  1.00  0.00     0.060 A 
BRANCH  70  71
ATOM     71  S   UNL A   1      33.504  34.515  28.260  1.00  0.00     0.124 S 
ATOM     72  O   UNL A   1      34.280  35.340  27.339  1.00  0.00    -0.237 OA
ATOM     73  O   UNL A   1      32.863  33.343  27.675  1.00  0.00    -0.237 OA
ATOM     74  O   UNL A   1      32.696  35.250  29.230  1.00  0.00    -0.744 OA
ENDBRANCH  70  71
ENDBRANCH  49  63
BRANCH  50  75
ATOM     75  C   UNL A   1      44.340  28.637  36.077  1.00  0.00     0.058 A 
ATOM     76  C   UNL A   1      44.118  27.581  36.975  1.00  0.00     0.135 A 
ATOM     77  C   UNL A   1      45.650  29.133  35.971  1.00  0.00     0.135 A 
ATOM     78  F   UNL A   1      42.881  27.085  37.130  1.00  0.00    -0.206 F 
ATOM     79  C   UNL A   1      45.146  27.045  37.743  1.00  0.00     0.059 A 
ATOM     80  C   UNL A   1      46.700  28.595  36.708  1.00  0.00     0.059 A 
ATOM     81  F   UNL A   1      45.920  30.144  35.128  1.00  0.00    -0.206 F 
ATOM     82  C   UNL A   1      46.437  27.554  37.598  1.00  0.00     0.060 A 
BRANCH  82  83
ATOM     83  S   UNL A   1      47.773  26.813  38.561  1.00  0.00     0.124 S 
ATOM     84  O   UNL A   1      48.918  27.616  38.147  1.00  0.00    -0.237 OA
ATOM     85  O   UNL A   1      47.312  27.019  39.930  1.00  0.00    -0.237 OA
ATOM     86  O   UNL A   1      47.782  25.424  38.112  1.00  0.00    -0.744 OA
ENDBRANCH  82  83
ENDBRANCH  50  75
BRANCH  62  87
ATOM     87  C   UNL A   1      39.677  33.663  37.409  1.00  0.00     0.058 A 
ATOM     88  C   UNL A   1      38.779  33.291  38.422  1.00  0.00     0.135 A 
ATOM     89  C   UNL A   1      40.396  34.858  37.582  1.00  0.00     0.135 A 
ATOM     90  F   UNL A   1      38.064  32.161  38.309  1.00  0.00    -0.206 F 
ATOM     91  C   UNL A   1      38.586  34.084  39.550  1.00  0.00     0.059 A 
ATOM     92  C   UNL A   1      40.242  35.651  38.716  1.00  0.00     0.059 A 
ATOM     93  F   UNL A   1      41.279  35.258  36.652  1.00  0.00    -0.206 F 
ATOM     94  C   UNL A   1      39.324  35.261  39.690  1.00  0.00     0.060 A 
BRANCH  94  95
ATOM     95  S   UNL A   1      39.088  36.260  41.174  1.00  0.00     0.124 S 
ATOM     96  O   UNL A   1      40.378  36.111  41.839  1.00  0.00    -0.237 OA
ATOM     97  O   UNL A   1      38.808  37.581  40.620  1.00  0.00    -0.237 OA
ATOM     98  O   UNL A   1      37.961  35.616  41.843  1.00  0.00    -0.744 OA
ENDBRANCH  94  95
ENDBRANCH  62  87
ENDBRANCH  36  37
ENDBRANCH  29  31
ENDBRANCH  28  29
ENDBRANCH  27  28
ENDBRANCH  26  27
ENDBRANCH  25  26
ENDBRANCH   1  25
TORSDOF 24
ENDMDL
