MODEL 1
REMARK VINA RESULT:      -9.5      0.000      0.000
REMARK SMILES CC[NH2+][C@@]1(C(=O)OCCOCCOCCOC(=O)c2ccc(-c3c4nc(c(-c5c(F)cc(S(=O)(=O)[O-])cc5F)c5ccc([nH]5)c(-c5c(F)cc(S(=O)(=O)[O-])cc5F)c5nc(c(-c6c(F)cc(S(=O)(=O)[O-])cc6F)c6ccc3[nH]6)C=C5)C=C4)cc2)CCC[C@@H]([N@@H+](C)[C@@H](C)C2CC2)C1
REMARK SMILES IDX 11 1 10 2 9 3 8 4 7 5 5 6 6 7 4 8 85 9 96 10 86 11 88 12
REMARK SMILES IDX 87 13 3 14 2 17 1 18 89 19 90 20 91 22 92 23 93 24 94 25
REMARK SMILES IDX 95 26 12 27 13 28 14 29 15 30 16 31 17 32 18 33 19 34 20 35
REMARK SMILES IDX 84 36 21 37 83 38 22 39 23 40 24 41 77 42 25 43 82 44 76 45
REMARK SMILES IDX 78 46 26 47 81 48 75 49 74 50 27 52 61 53 40 54 60 55 41 56
REMARK SMILES IDX 44 57 59 58 79 59 42 60 43 61 58 63 80 64 45 65 28 66 29 67
REMARK SMILES IDX 38 68 30 69 31 70 37 71 39 72 32 73 33 74 34 75 35 76 36 77
REMARK SMILES IDX 62 78 63 79 72 80 64 81 65 82 71 83 73 84 66 85 67 86 68 87
REMARK SMILES IDX 69 88 70 89 46 90 47 91 56 92 48 93 49 94 55 95 57 96 50 97
REMARK SMILES IDX 51 98 52 99 53 100 54 101
REMARK H PARENT 3 15 3 16 89 21 78 51 44 62
REMARK Flexibility Score: inf
ROOT
ATOM      1  C   UNL A   1      34.797  34.812  28.765  1.00  0.00     0.188 C 
ENDROOT
BRANCH   1   2
ATOM      2  O   UNL A   1      34.833  33.750  27.818  1.00  0.00    -0.376 OA
BRANCH   2   3
ATOM      3  C   UNL A   1      33.827  32.750  27.939  1.00  0.00     0.202 C 
BRANCH   3   4
ATOM      4  C   UNL A   1      34.273  31.283  27.815  1.00  0.00     0.261 C 
BRANCH   4   5
ATOM      5  O   UNL A   1      33.374  30.435  27.073  1.00  0.00    -0.459 OA
BRANCH   5   6
ATOM      6  C   UNL A   1      33.892  29.235  26.690  1.00  0.00     0.368 C 
ATOM      7  O   UNL A   1      34.861  28.709  27.233  1.00  0.00    -0.245 OA
BRANCH   6   8
ATOM      8  C   UNL A   1      33.178  28.599  25.458  1.00  0.00     0.200 C 
ATOM      9  C   UNL A   1      31.680  28.554  25.804  1.00  0.00     0.081 C 
ATOM     10  C   UNL A   1      33.613  27.181  25.040  1.00  0.00     0.146 C 
ATOM     11  C   UNL A   1      31.440  27.557  26.944  1.00  0.00     0.013 C 
ATOM     12  C   UNL A   1      33.195  25.988  25.892  1.00  0.00     0.190 C 
ATOM     13  C   UNL A   1      31.799  26.132  26.525  1.00  0.00     0.065 C 
BRANCH   8  14
ATOM     14  N   UNL A   1      33.468  29.357  24.200  1.00  0.00    -0.332 N 
ATOM     15  H   UNL A   1      32.580  29.464  23.708  1.00  0.00     0.347 HD
ATOM     16  H   UNL A   1      33.919  30.209  24.534  1.00  0.00     0.347 HD
BRANCH  14  17
ATOM     17  C   UNL A   1      34.420  28.822  23.242  1.00  0.00     0.257 C 
ATOM     18  C   UNL A   1      33.633  28.401  22.001  1.00  0.00     0.071 C 
ENDBRANCH  14  17
ENDBRANCH   8  14
BRANCH  12  19
ATOM     19  N   UNL A   1      33.506  24.707  25.180  1.00  0.00    -0.332 N 
ATOM     20  C   UNL A   1      33.852  25.007  23.778  1.00  0.00     0.333 C 
ATOM     21  H   UNL A   1      32.625  24.221  25.340  1.00  0.00     0.348 HD
BRANCH  19  22
ATOM     22  C   UNL A   1      34.421  23.656  25.714  1.00  0.00     0.184 C 
ATOM     23  C   UNL A   1      35.935  23.876  25.576  1.00  0.00     0.075 C 
BRANCH  22  24
ATOM     24  C   UNL A   1      34.146  22.915  27.017  1.00  0.00     0.047 C 
ATOM     25  C   UNL A   1      32.755  22.481  27.426  1.00  0.00     0.010 C 
ATOM     26  C   UNL A   1      33.844  21.454  27.238  1.00  0.00     0.010 C 
ENDBRANCH  22  24
ENDBRANCH  19  22
ENDBRANCH  12  19
ENDBRANCH   6   8
ENDBRANCH   5   6
ENDBRANCH   4   5
ENDBRANCH   3   4
ENDBRANCH   2   3
ENDBRANCH   1   2
BRANCH   1  27
ATOM     27  C   UNL A   1      33.792  34.679  29.906  1.00  0.00     0.188 C 
BRANCH  27  28
ATOM     28  O   UNL A   1      34.202  33.912  31.033  1.00  0.00    -0.376 OA
BRANCH  28  29
ATOM     29  C   UNL A   1      35.322  34.443  31.753  1.00  0.00     0.202 C 
BRANCH  29  30
ATOM     30  C   UNL A   1      36.553  33.517  31.886  1.00  0.00     0.261 C 
BRANCH  30  31
ATOM     31  O   UNL A   1      36.756  32.575  30.805  1.00  0.00    -0.460 OA
BRANCH  31  32
ATOM     32  C   UNL A   1      36.876  31.261  31.123  1.00  0.00     0.338 C 
ATOM     33  O   UNL A   1      36.020  30.571  31.636  1.00  0.00    -0.246 OA
BRANCH  32  34
ATOM     34  C   UNL A   1      38.133  30.730  30.506  1.00  0.00     0.060 A 
ATOM     35  C   UNL A   1      39.203  30.414  31.357  1.00  0.00     0.016 A 
ATOM     36  C   UNL A   1      38.247  30.468  29.138  1.00  0.00     0.016 A 
ATOM     37  C   UNL A   1      40.390  29.876  30.843  1.00  0.00     0.010 A 
ATOM     38  C   UNL A   1      39.444  29.944  28.622  1.00  0.00     0.010 A 
ATOM     39  C   UNL A   1      40.536  29.668  29.466  1.00  0.00    -0.014 A 
BRANCH  39  40
ATOM     40  C   UNL A   1      41.869  29.320  28.891  1.00  0.00     0.031 A 
ATOM     41  C   UNL A   1      42.108  27.904  28.427  1.00  0.00     0.074 A 
ATOM     42  C   UNL A   1      42.853  30.231  28.758  1.00  0.00     0.049 A 
ATOM     43  N   UNL A   1      43.197  27.354  27.954  1.00  0.00    -0.248 NA
ATOM     44  C   UNL A   1      40.960  26.986  28.507  1.00  0.00     0.031 C 
ATOM     45  C   UNL A   1      42.756  31.643  29.120  1.00  0.00     0.029 A 
ATOM     46  N   UNL A   1      44.140  30.096  28.288  1.00  0.00    -0.354 N 
ATOM     47  C   UNL A   1      42.872  26.028  27.691  1.00  0.00     0.074 A 
ATOM     48  C   UNL A   1      41.489  25.849  28.075  1.00  0.00     0.031 C 
ATOM     49  C   UNL A   1      43.937  32.241  28.873  1.00  0.00     0.029 A 
ATOM     50  C   UNL A   1      44.888  31.250  28.371  1.00  0.00     0.049 A 
ATOM     51  H   UNL A   1      44.493  29.251  27.925  1.00  0.00     0.167 HD
ATOM     52  C   UNL A   1      43.651  25.048  27.174  1.00  0.00     0.037 A 
ATOM     53  C   UNL A   1      46.193  31.473  28.104  1.00  0.00     0.037 A 
ATOM     54  C   UNL A   1      45.026  25.219  26.780  1.00  0.00     0.049 A 
ATOM     55  C   UNL A   1      47.061  30.342  27.599  1.00  0.00     0.074 A 
ATOM     56  C   UNL A   1      45.880  24.284  26.221  1.00  0.00     0.029 A 
ATOM     57  N   UNL A   1      45.752  26.393  26.912  1.00  0.00    -0.354 N 
ATOM     58  N   UNL A   1      46.730  29.101  27.328  1.00  0.00    -0.248 NA
ATOM     59  C   UNL A   1      48.484  30.642  27.368  1.00  0.00     0.031 C 
ATOM     60  C   UNL A   1      47.138  24.873  26.070  1.00  0.00     0.029 A 
ATOM     61  C   UNL A   1      47.053  26.194  26.476  1.00  0.00     0.049 A 
ATOM     62  H   UNL A   1      45.397  27.241  27.264  1.00  0.00     0.167 HD
ATOM     63  C   UNL A   1      47.894  28.486  26.871  1.00  0.00     0.074 A 
ATOM     64  C   UNL A   1      48.932  29.492  26.884  1.00  0.00     0.031 C 
ATOM     65  C   UNL A   1      48.084  27.202  26.478  1.00  0.00     0.037 A 
BRANCH  52  66
ATOM     66  C   UNL A   1      43.049  23.677  27.020  1.00  0.00     0.058 A 
ATOM     67  C   UNL A   1      42.898  22.808  28.111  1.00  0.00     0.135 A 
ATOM     68  C   UNL A   1      42.543  23.264  25.777  1.00  0.00     0.135 A 
ATOM     69  F   UNL A   1      43.382  23.145  29.317  1.00  0.00    -0.206 F 
ATOM     70  C   UNL A   1      42.275  21.572  27.972  1.00  0.00     0.059 A 
ATOM     71  C   UNL A   1      41.890  22.045  25.621  1.00  0.00     0.059 A 
ATOM     72  F   UNL A   1      42.662  24.057  24.701  1.00  0.00    -0.206 F 
ATOM     73  C   UNL A   1      41.767  21.203  26.725  1.00  0.00     0.060 A 
BRANCH  73  74
ATOM     74  S   UNL A   1      40.924  19.614  26.574  1.00  0.00     0.124 S 
ATOM     75  O   UNL A   1      40.818  19.205  27.971  1.00  0.00    -0.237 OA
ATOM     76  O   UNL A   1      39.670  19.988  25.927  1.00  0.00    -0.237 OA
ATOM     77  O   UNL A   1      41.836  18.819  25.757  1.00  0.00    -0.744 OA
ENDBRANCH  73  74
ENDBRANCH  52  66
BRANCH  53  78
ATOM     78  C   UNL A   1      46.795  32.818  28.342  1.00  0.00     0.058 A 
ATOM     79  C   UNL A   1      46.851  33.785  27.327  1.00  0.00     0.135 A 
ATOM     80  C   UNL A   1      47.380  33.141  29.578  1.00  0.00     0.135 A 
ATOM     81  F   UNL A   1      46.326  33.522  26.120  1.00  0.00    -0.206 F 
ATOM     82  C   UNL A   1      47.487  35.009  27.516  1.00  0.00     0.059 A 
ATOM     83  C   UNL A   1      47.993  34.370  29.801  1.00  0.00     0.059 A 
ATOM     84  F   UNL A   1      47.356  32.254  30.585  1.00  0.00    -0.206 F 
ATOM     85  C   UNL A   1      48.057  35.292  28.759  1.00  0.00     0.060 A 
BRANCH  85  86
ATOM     86  S   UNL A   1      48.864  36.890  29.000  1.00  0.00     0.124 S 
ATOM     87  O   UNL A   1      47.854  37.617  29.761  1.00  0.00    -0.237 OA
ATOM     88  O   UNL A   1      50.069  36.517  29.734  1.00  0.00    -0.237 OA
ATOM     89  O   UNL A   1      49.089  37.361  27.637  1.00  0.00    -0.744 OA
ENDBRANCH  85  86
ENDBRANCH  53  78
BRANCH  65  90
ATOM     90  C   UNL A   1      49.455  26.807  25.990  1.00  0.00     0.058 A 
ATOM     91  C   UNL A   1      49.887  27.089  24.684  1.00  0.00     0.135 A 
ATOM     92  C   UNL A   1      50.370  26.188  26.858  1.00  0.00     0.135 A 
ATOM     93  F   UNL A   1      49.054  27.676  23.810  1.00  0.00    -0.206 F 
ATOM     94  C   UNL A   1      51.165  26.750  24.249  1.00  0.00     0.059 A 
ATOM     95  C   UNL A   1      51.663  25.867  26.455  1.00  0.00     0.059 A 
ATOM     96  F   UNL A   1      50.018  25.905  28.123  1.00  0.00    -0.206 F 
ATOM     97  C   UNL A   1      52.048  26.140  25.143  1.00  0.00     0.060 A 
BRANCH  97  98
ATOM     98  S   UNL A   1      53.713  25.734  24.575  1.00  0.00     0.124 S 
ATOM     99  O   UNL A   1      53.941  24.447  25.223  1.00  0.00    -0.237 OA
ATOM    100  O   UNL A   1      53.548  25.695  23.125  1.00  0.00    -0.237 OA
ATOM    101  O   UNL A   1      54.525  26.840  25.077  1.00  0.00    -0.744 OA
ENDBRANCH  97  98
ENDBRANCH  65  90
ENDBRANCH  39  40
ENDBRANCH  32  34
ENDBRANCH  31  32
ENDBRANCH  30  31
ENDBRANCH  29  30
ENDBRANCH  28  29
ENDBRANCH  27  28
ENDBRANCH   1  27
TORSDOF 25
ENDMDL
MODEL 2
REMARK VINA RESULT:      -9.2      1.032      8.199
REMARK SMILES CC[NH2+][C@@]1(C(=O)OCCOCCOCCOC(=O)c2ccc(-c3c4nc(c(-c5c(F)cc(S(=O)(=O)[O-])cc5F)c5ccc([nH]5)c(-c5c(F)cc(S(=O)(=O)[O-])cc5F)c5nc(c(-c6c(F)cc(S(=O)(=O)[O-])cc6F)c6ccc3[nH]6)C=C5)C=C4)cc2)CCC[C@@H]([N@@H+](C)[C@@H](C)C2CC2)C1
REMARK SMILES IDX 11 1 10 2 9 3 8 4 7 5 5 6 6 7 4 8 85 9 96 10 86 11 88 12
REMARK SMILES IDX 87 13 3 14 2 17 1 18 89 19 90 20 91 22 92 23 93 24 94 25
REMARK SMILES IDX 95 26 12 27 13 28 14 29 15 30 16 31 17 32 18 33 19 34 20 35
REMARK SMILES IDX 84 36 21 37 83 38 22 39 23 40 24 41 77 42 25 43 82 44 76 45
REMARK SMILES IDX 78 46 26 47 81 48 75 49 74 50 27 52 61 53 40 54 60 55 41 56
REMARK SMILES IDX 44 57 59 58 79 59 42 60 43 61 58 63 80 64 45 65 28 66 29 67
REMARK SMILES IDX 38 68 30 69 31 70 37 71 39 72 32 73 33 74 34 75 35 76 36 77
REMARK SMILES IDX 62 78 63 79 72 80 64 81 65 82 71 83 73 84 66 85 67 86 68 87
REMARK SMILES IDX 69 88 70 89 46 90 47 91 56 92 48 93 49 94 55 95 57 96 50 97
REMARK SMILES IDX 51 98 52 99 53 100 54 101
REMARK H PARENT 3 15 3 16 89 21 78 51 44 62
REMARK Flexibility Score: inf
ROOT
ATOM      1  C   UNL A   1      34.781  34.703  28.566  1.00  0.00     0.188 C 
ENDROOT
BRANCH   1   2
ATOM      2  O   UNL A   1      34.895  33.560  27.727  1.00  0.00    -0.376 OA
BRANCH   2   3
ATOM      3  C   UNL A   1      33.978  32.497  27.967  1.00  0.00     0.202 C 
BRANCH   3   4
ATOM      4  C   UNL A   1      34.546  31.068  27.988  1.00  0.00     0.261 C 
BRANCH   4   5
ATOM      5  O   UNL A   1      33.640  30.047  27.527  1.00  0.00    -0.459 OA
BRANCH   5   6
ATOM      6  C   UNL A   1      34.180  29.135  26.670  1.00  0.00     0.368 C 
ATOM      7  O   UNL A   1      35.354  28.775  26.713  1.00  0.00    -0.245 OA
BRANCH   6   8
ATOM      8  C   UNL A   1      33.187  28.618  25.584  1.00  0.00     0.200 C 
ATOM      9  C   UNL A   1      31.780  29.017  26.061  1.00  0.00     0.081 C 
ATOM     10  C   UNL A   1      33.180  27.104  25.294  1.00  0.00     0.146 C 
ATOM     11  C   UNL A   1      31.415  28.227  27.323  1.00  0.00     0.013 C 
ATOM     12  C   UNL A   1      32.560  26.150  26.309  1.00  0.00     0.190 C 
ATOM     13  C   UNL A   1      31.333  26.727  27.038  1.00  0.00     0.065 C 
BRANCH   8  14
ATOM     14  N   UNL A   1      33.523  29.156  24.228  1.00  0.00    -0.332 N 
ATOM     15  H   UNL A   1      32.641  29.280  23.733  1.00  0.00     0.347 HD
ATOM     16  H   UNL A   1      34.064  29.996  24.433  1.00  0.00     0.347 HD
BRANCH  14  17
ATOM     17  C   UNL A   1      34.397  28.397  23.350  1.00  0.00     0.257 C 
ATOM     18  C   UNL A   1      33.648  28.181  22.035  1.00  0.00     0.071 C 
ENDBRANCH  14  17
ENDBRANCH   8  14
BRANCH  12  19
ATOM     19  N   UNL A   1      32.436  24.777  25.722  1.00  0.00    -0.332 N 
ATOM     20  C   UNL A   1      31.595  23.949  26.606  1.00  0.00     0.333 C 
ATOM     21  H   UNL A   1      33.426  24.537  25.675  1.00  0.00     0.348 HD
BRANCH  19  22
ATOM     22  C   UNL A   1      32.091  24.507  24.296  1.00  0.00     0.184 C 
ATOM     23  C   UNL A   1      30.729  24.990  23.777  1.00  0.00     0.075 C 
BRANCH  22  24
ATOM     24  C   UNL A   1      33.114  24.613  23.171  1.00  0.00     0.047 C 
ATOM     25  C   UNL A   1      33.741  23.395  22.526  1.00  0.00     0.010 C 
ATOM     26  C   UNL A   1      32.937  24.363  21.694  1.00  0.00     0.010 C 
ENDBRANCH  22  24
ENDBRANCH  19  22
ENDBRANCH  12  19
ENDBRANCH   6   8
ENDBRANCH   5   6
ENDBRANCH   4   5
ENDBRANCH   3   4
ENDBRANCH   2   3
ENDBRANCH   1   2
BRANCH   1  27
ATOM     27  C   UNL A   1      33.672  34.678  29.615  1.00  0.00     0.188 C 
BRANCH  27  28
ATOM     28  O   UNL A   1      34.022  34.183  30.903  1.00  0.00    -0.376 OA
BRANCH  28  29
ATOM     29  C   UNL A   1      35.228  34.727  31.455  1.00  0.00     0.202 C 
BRANCH  29  30
ATOM     30  C   UNL A   1      36.380  33.725  31.706  1.00  0.00     0.261 C 
BRANCH  30  31
ATOM     31  O   UNL A   1      36.511  32.657  30.737  1.00  0.00    -0.460 OA
BRANCH  31  32
ATOM     32  C   UNL A   1      36.613  31.387  31.205  1.00  0.00     0.338 C 
ATOM     33  O   UNL A   1      35.746  30.770  31.787  1.00  0.00    -0.246 OA
BRANCH  32  34
ATOM     34  C   UNL A   1      37.867  30.775  30.662  1.00  0.00     0.060 A 
ATOM     35  C   UNL A   1      38.690  30.061  31.548  1.00  0.00     0.016 A 
ATOM     36  C   UNL A   1      38.202  30.821  29.306  1.00  0.00     0.016 A 
ATOM     37  C   UNL A   1      39.856  29.432  31.090  1.00  0.00     0.010 A 
ATOM     38  C   UNL A   1      39.379  30.204  28.852  1.00  0.00     0.010 A 
ATOM     39  C   UNL A   1      40.231  29.526  29.744  1.00  0.00    -0.014 A 
BRANCH  39  40
ATOM     40  C   UNL A   1      41.578  29.063  29.302  1.00  0.00     0.031 A 
ATOM     41  C   UNL A   1      42.717  30.053  29.295  1.00  0.00     0.074 A 
ATOM     42  C   UNL A   1      41.812  27.789  28.927  1.00  0.00     0.049 A 
ATOM     43  N   UNL A   1      43.954  29.899  28.896  1.00  0.00    -0.248 NA
ATOM     44  C   UNL A   1      42.417  31.399  29.811  1.00  0.00     0.031 C 
ATOM     45  C   UNL A   1      40.825  26.712  28.923  1.00  0.00     0.029 A 
ATOM     46  N   UNL A   1      42.962  27.189  28.465  1.00  0.00    -0.354 N 
ATOM     47  C   UNL A   1      44.576  31.126  29.100  1.00  0.00     0.074 A 
ATOM     48  C   UNL A   1      43.576  32.021  29.641  1.00  0.00     0.031 C 
ATOM     49  C   UNL A   1      41.407  25.587  28.466  1.00  0.00     0.029 A 
ATOM     50  C   UNL A   1      42.797  25.868  28.109  1.00  0.00     0.049 A 
ATOM     51  H   UNL A   1      43.824  27.660  28.397  1.00  0.00     0.167 HD
ATOM     52  C   UNL A   1      45.863  31.477  28.864  1.00  0.00     0.037 A 
ATOM     53  C   UNL A   1      43.655  24.999  27.535  1.00  0.00     0.037 A 
ATOM     54  C   UNL A   1      46.867  30.590  28.334  1.00  0.00     0.049 A 
ATOM     55  C   UNL A   1      45.065  25.438  27.210  1.00  0.00     0.074 A 
ATOM     56  C   UNL A   1      48.204  30.858  28.090  1.00  0.00     0.029 A 
ATOM     57  N   UNL A   1      46.649  29.274  27.957  1.00  0.00    -0.354 N 
ATOM     58  N   UNL A   1      45.646  26.593  27.437  1.00  0.00    -0.248 NA
ATOM     59  C   UNL A   1      45.937  24.455  26.545  1.00  0.00     0.031 C 
ATOM     60  C   UNL A   1      48.780  29.725  27.510  1.00  0.00     0.029 A 
ATOM     61  C   UNL A   1      47.819  28.728  27.450  1.00  0.00     0.049 A 
ATOM     62  H   UNL A   1      45.792  28.798  28.037  1.00  0.00     0.167 HD
ATOM     63  C   UNL A   1      46.954  26.463  26.969  1.00  0.00     0.074 A 
ATOM     64  C   UNL A   1      47.085  25.115  26.464  1.00  0.00     0.031 C 
ATOM     65  C   UNL A   1      47.952  27.380  26.958  1.00  0.00     0.037 A 
BRANCH  52  66
ATOM     66  C   UNL A   1      46.270  32.897  29.150  1.00  0.00     0.058 A 
ATOM     67  C   UNL A   1      46.090  33.923  28.211  1.00  0.00     0.135 A 
ATOM     68  C   UNL A   1      46.772  33.246  30.415  1.00  0.00     0.135 A 
ATOM     69  F   UNL A   1      45.632  33.642  26.980  1.00  0.00    -0.206 F 
ATOM     70  C   UNL A   1      46.402  35.245  28.512  1.00  0.00     0.059 A 
ATOM     71  C   UNL A   1      47.064  34.565  30.747  1.00  0.00     0.059 A 
ATOM     72  F   UNL A   1      46.965  32.303  31.349  1.00  0.00    -0.206 F 
ATOM     73  C   UNL A   1      46.881  35.557  29.785  1.00  0.00     0.060 A 
BRANCH  73  74
ATOM     74  S   UNL A   1      47.241  37.283  30.171  1.00  0.00     0.124 S 
ATOM     75  O   UNL A   1      45.942  37.910  29.946  1.00  0.00    -0.237 OA
ATOM     76  O   UNL A   1      47.674  37.206  31.563  1.00  0.00    -0.237 OA
ATOM     77  O   UNL A   1      48.282  37.639  29.212  1.00  0.00    -0.744 OA
ENDBRANCH  73  74
ENDBRANCH  52  66
BRANCH  53  78
ATOM     78  C   UNL A   1      43.211  23.619  27.179  1.00  0.00     0.058 A 
ATOM     79  C   UNL A   1      43.118  22.607  28.147  1.00  0.00     0.135 A 
ATOM     80  C   UNL A   1      42.925  23.270  25.849  1.00  0.00     0.135 A 
ATOM     81  F   UNL A   1      43.399  22.879  29.431  1.00  0.00    -0.206 F 
ATOM     82  C   UNL A   1      42.787  21.298  27.809  1.00  0.00     0.059 A 
ATOM     83  C   UNL A   1      42.560  21.976  25.490  1.00  0.00     0.059 A 
ATOM     84  F   UNL A   1      42.998  24.197  24.880  1.00  0.00    -0.206 F 
ATOM     85  C   UNL A   1      42.510  20.992  26.475  1.00  0.00     0.060 A 
BRANCH  85  86
ATOM     86  S   UNL A   1      42.064  19.294  26.049  1.00  0.00     0.124 S 
ATOM     87  O   UNL A   1      42.481  18.571  27.245  1.00  0.00    -0.237 OA
ATOM     88  O   UNL A   1      40.624  19.400  25.837  1.00  0.00    -0.237 OA
ATOM     89  O   UNL A   1      42.850  19.033  24.847  1.00  0.00    -0.744 OA
ENDBRANCH  85  86
ENDBRANCH  53  78
BRANCH  65  90
ATOM     90  C   UNL A   1      49.295  26.957  26.419  1.00  0.00     0.058 A 
ATOM     91  C   UNL A   1      50.272  26.370  27.238  1.00  0.00     0.135 A 
ATOM     92  C   UNL A   1      49.587  27.089  25.051  1.00  0.00     0.135 A 
ATOM     93  F   UNL A   1      50.049  26.222  28.554  1.00  0.00    -0.206 F 
ATOM     94  C   UNL A   1      51.498  25.953  26.727  1.00  0.00     0.059 A 
ATOM     95  C   UNL A   1      50.794  26.652  24.512  1.00  0.00     0.059 A 
ATOM     96  F   UNL A   1      48.686  27.632  24.215  1.00  0.00    -0.206 F 
ATOM     97  C   UNL A   1      51.750  26.097  25.361  1.00  0.00     0.060 A 
BRANCH  97  98
ATOM     98  S   UNL A   1      53.332  25.523  24.707  1.00  0.00     0.124 S 
ATOM     99  O   UNL A   1      54.275  26.368  25.431  1.00  0.00    -0.237 OA
ATOM    100  O   UNL A   1      53.330  24.111  25.077  1.00  0.00    -0.237 OA
ATOM    101  O   UNL A   1      53.225  25.787  23.274  1.00  0.00    -0.744 OA
ENDBRANCH  97  98
ENDBRANCH  65  90
ENDBRANCH  39  40
ENDBRANCH  32  34
ENDBRANCH  31  32
ENDBRANCH  30  31
ENDBRANCH  29  30
ENDBRANCH  28  29
ENDBRANCH  27  28
ENDBRANCH   1  27
TORSDOF 25
ENDMDL
MODEL 3
REMARK VINA RESULT:      -8.0      3.427      8.959
REMARK SMILES CC[NH2+][C@@]1(C(=O)OCCOCCOCCOC(=O)c2ccc(-c3c4nc(c(-c5c(F)cc(S(=O)(=O)[O-])cc5F)c5ccc([nH]5)c(-c5c(F)cc(S(=O)(=O)[O-])cc5F)c5nc(c(-c6c(F)cc(S(=O)(=O)[O-])cc6F)c6ccc3[nH]6)C=C5)C=C4)cc2)CCC[C@@H]([N@@H+](C)[C@@H](C)C2CC2)C1
REMARK SMILES IDX 11 1 10 2 9 3 8 4 7 5 5 6 6 7 4 8 85 9 96 10 86 11 88 12
REMARK SMILES IDX 87 13 3 14 2 17 1 18 89 19 90 20 91 22 92 23 93 24 94 25
REMARK SMILES IDX 95 26 12 27 13 28 14 29 15 30 16 31 17 32 18 33 19 34 20 35
REMARK SMILES IDX 84 36 21 37 83 38 22 39 23 40 24 41 77 42 25 43 82 44 76 45
REMARK SMILES IDX 78 46 26 47 81 48 75 49 74 50 27 52 61 53 40 54 60 55 41 56
REMARK SMILES IDX 44 57 59 58 79 59 42 60 43 61 58 63 80 64 45 65 28 66 29 67
REMARK SMILES IDX 38 68 30 69 31 70 37 71 39 72 32 73 33 74 34 75 35 76 36 77
REMARK SMILES IDX 62 78 63 79 72 80 64 81 65 82 71 83 73 84 66 85 67 86 68 87
REMARK SMILES IDX 69 88 70 89 46 90 47 91 56 92 48 93 49 94 55 95 57 96 50 97
REMARK SMILES IDX 51 98 52 99 53 100 54 101
REMARK H PARENT 3 15 3 16 89 21 78 51 44 62
REMARK Flexibility Score: inf
ROOT
ATOM      1  C   UNL A   1      34.595  34.841  28.718  1.00  0.00     0.188 C 
ENDROOT
BRANCH   1   2
ATOM      2  O   UNL A   1      34.480  33.744  27.821  1.00  0.00    -0.376 OA
BRANCH   2   3
ATOM      3  C   UNL A   1      33.163  33.274  27.549  1.00  0.00     0.202 C 
BRANCH   3   4
ATOM      4  C   UNL A   1      32.905  31.767  27.716  1.00  0.00     0.261 C 
BRANCH   4   5
ATOM      5  O   UNL A   1      32.368  31.110  26.550  1.00  0.00    -0.459 OA
BRANCH   5   6
ATOM      6  C   UNL A   1      32.105  29.782  26.702  1.00  0.00     0.368 C 
ATOM      7  O   UNL A   1      31.403  29.328  27.604  1.00  0.00    -0.245 OA
BRANCH   6   8
ATOM      8  C   UNL A   1      32.816  28.869  25.658  1.00  0.00     0.200 C 
ATOM      9  C   UNL A   1      32.328  29.333  24.276  1.00  0.00     0.081 C 
ATOM     10  C   UNL A   1      32.575  27.351  25.763  1.00  0.00     0.146 C 
ATOM     11  C   UNL A   1      30.838  29.011  24.115  1.00  0.00     0.013 C 
ATOM     12  C   UNL A   1      31.228  26.775  25.340  1.00  0.00     0.190 C 
ATOM     13  C   UNL A   1      30.587  27.504  24.145  1.00  0.00     0.065 C 
BRANCH   8  14
ATOM     14  N   UNL A   1      34.306  28.921  25.803  1.00  0.00    -0.332 N 
ATOM     15  H   UNL A   1      34.694  28.288  25.104  1.00  0.00     0.347 HD
ATOM     16  H   UNL A   1      34.520  29.913  25.702  1.00  0.00     0.347 HD
BRANCH  14  17
ATOM     17  C   UNL A   1      34.917  28.571  27.075  1.00  0.00     0.257 C 
ATOM     18  C   UNL A   1      35.833  29.727  27.475  1.00  0.00     0.071 C 
ENDBRANCH  14  17
ENDBRANCH   8  14
BRANCH  12  19
ATOM     19  N   UNL A   1      31.296  25.279  25.287  1.00  0.00    -0.332 N 
ATOM     20  C   UNL A   1      31.090  24.837  23.895  1.00  0.00     0.333 C 
ATOM     21  H   UNL A   1      30.553  25.065  25.950  1.00  0.00     0.348 HD
BRANCH  19  22
ATOM     22  C   UNL A   1      32.377  24.470  25.921  1.00  0.00     0.184 C 
ATOM     23  C   UNL A   1      31.967  23.343  26.881  1.00  0.00     0.075 C 
BRANCH  22  24
ATOM     24  C   UNL A   1      33.633  24.046  25.169  1.00  0.00     0.047 C 
ATOM     25  C   UNL A   1      35.011  24.552  25.539  1.00  0.00     0.010 C 
ATOM     26  C   UNL A   1      34.709  23.074  25.582  1.00  0.00     0.010 C 
ENDBRANCH  22  24
ENDBRANCH  19  22
ENDBRANCH  12  19
ENDBRANCH   6   8
ENDBRANCH   5   6
ENDBRANCH   4   5
ENDBRANCH   3   4
ENDBRANCH   2   3
ENDBRANCH   1   2
BRANCH   1  27
ATOM     27  C   UNL A   1      33.332  35.242  29.477  1.00  0.00     0.188 C 
BRANCH  27  28
ATOM     28  O   UNL A   1      33.181  34.714  30.791  1.00  0.00    -0.376 OA
BRANCH  28  29
ATOM     29  C   UNL A   1      34.235  35.046  31.703  1.00  0.00     0.202 C 
BRANCH  29  30
ATOM     30  C   UNL A   1      35.049  33.859  32.270  1.00  0.00     0.261 C 
BRANCH  30  31
ATOM     31  O   UNL A   1      35.111  32.678  31.435  1.00  0.00    -0.460 OA
BRANCH  31  32
ATOM     32  C   UNL A   1      35.799  31.606  31.904  1.00  0.00     0.338 C 
ATOM     33  O   UNL A   1      35.329  30.663  32.504  1.00  0.00    -0.246 OA
BRANCH  32  34
ATOM     34  C   UNL A   1      37.186  31.642  31.339  1.00  0.00     0.060 A 
ATOM     35  C   UNL A   1      38.255  31.331  32.194  1.00  0.00     0.016 A 
ATOM     36  C   UNL A   1      37.442  31.895  29.989  1.00  0.00     0.016 A 
ATOM     37  C   UNL A   1      39.571  31.308  31.713  1.00  0.00     0.010 A 
ATOM     38  C   UNL A   1      38.763  31.888  29.512  1.00  0.00     0.010 A 
ATOM     39  C   UNL A   1      39.842  31.621  30.375  1.00  0.00    -0.014 A 
BRANCH  39  40
ATOM     40  C   UNL A   1      41.248  31.827  29.918  1.00  0.00     0.031 A 
ATOM     41  C   UNL A   1      41.855  33.203  30.047  1.00  0.00     0.074 A 
ATOM     42  C   UNL A   1      41.993  30.823  29.414  1.00  0.00     0.049 A 
ATOM     43  N   UNL A   1      43.029  33.635  29.663  1.00  0.00    -0.248 NA
ATOM     44  C   UNL A   1      41.022  34.228  30.697  1.00  0.00     0.031 C 
ATOM     45  C   UNL A   1      41.560  29.436  29.270  1.00  0.00     0.029 A 
ATOM     46  N   UNL A   1      43.278  30.824  28.918  1.00  0.00    -0.354 N 
ATOM     47  C   UNL A   1      43.074  34.980  30.014  1.00  0.00     0.074 A 
ATOM     48  C   UNL A   1      41.801  35.299  30.624  1.00  0.00     0.031 C 
ATOM     49  C   UNL A   1      42.555  28.722  28.709  1.00  0.00     0.029 A 
ATOM     50  C   UNL A   1      43.683  29.607  28.418  1.00  0.00     0.049 A 
ATOM     51  H   UNL A   1      43.854  31.623  28.922  1.00  0.00     0.167 HD
ATOM     52  C   UNL A   1      44.081  35.870  29.848  1.00  0.00     0.037 A 
ATOM     53  C   UNL A   1      44.816  29.254  27.774  1.00  0.00     0.037 A 
ATOM     54  C   UNL A   1      45.355  35.559  29.250  1.00  0.00     0.049 A 
ATOM     55  C   UNL A   1      45.896  30.285  27.533  1.00  0.00     0.074 A 
ATOM     56  C   UNL A   1      46.443  36.396  29.069  1.00  0.00     0.029 A 
ATOM     57  N   UNL A   1      45.710  34.325  28.728  1.00  0.00    -0.354 N 
ATOM     58  N   UNL A   1      45.934  31.545  27.898  1.00  0.00    -0.248 NA
ATOM     59  C   UNL A   1      47.088  29.846  26.788  1.00  0.00     0.031 C 
ATOM     60  C   UNL A   1      47.434  35.686  28.385  1.00  0.00     0.029 A 
ATOM     61  C   UNL A   1      46.988  34.388  28.194  1.00  0.00     0.049 A 
ATOM     62  H   UNL A   1      45.140  33.523  28.735  1.00  0.00     0.167 HD
ATOM     63  C   UNL A   1      47.160  32.036  27.451  1.00  0.00     0.074 A 
ATOM     64  C   UNL A   1      47.841  30.936  26.806  1.00  0.00     0.031 C 
ATOM     65  C   UNL A   1      47.671  33.287  27.563  1.00  0.00     0.037 A 
BRANCH  52  66
ATOM     66  C   UNL A   1      43.851  37.288  30.296  1.00  0.00     0.058 A 
ATOM     67  C   UNL A   1      44.123  37.704  31.608  1.00  0.00     0.135 A 
ATOM     68  C   UNL A   1      43.429  38.259  29.373  1.00  0.00     0.135 A 
ATOM     69  F   UNL A   1      44.509  36.812  32.534  1.00  0.00    -0.206 F 
ATOM     70  C   UNL A   1      43.975  39.033  31.992  1.00  0.00     0.059 A 
ATOM     71  C   UNL A   1      43.302  39.598  29.728  1.00  0.00     0.059 A 
ATOM     72  F   UNL A   1      43.154  37.914  28.106  1.00  0.00    -0.206 F 
ATOM     73  C   UNL A   1      43.572  39.974  31.043  1.00  0.00     0.060 A 
BRANCH  73  74
ATOM     74  S   UNL A   1      43.427  41.701  31.550  1.00  0.00     0.124 S 
ATOM     75  O   UNL A   1      42.104  41.713  32.168  1.00  0.00    -0.237 OA
ATOM     76  O   UNL A   1      44.554  41.852  32.465  1.00  0.00    -0.237 OA
ATOM     77  O   UNL A   1      43.538  42.437  30.295  1.00  0.00    -0.744 OA
ENDBRANCH  73  74
ENDBRANCH  52  66
BRANCH  53  78
ATOM     78  C   UNL A   1      44.994  27.863  27.261  1.00  0.00     0.058 A 
ATOM     79  C   UNL A   1      45.767  26.920  27.956  1.00  0.00     0.135 A 
ATOM     80  C   UNL A   1      44.439  27.468  26.033  1.00  0.00     0.135 A 
ATOM     81  F   UNL A   1      46.338  27.250  29.125  1.00  0.00    -0.206 F 
ATOM     82  C   UNL A   1      46.008  25.649  27.441  1.00  0.00     0.059 A 
ATOM     83  C   UNL A   1      44.639  26.193  25.513  1.00  0.00     0.059 A 
ATOM     84  F   UNL A   1      43.691  28.329  25.325  1.00  0.00    -0.206 F 
ATOM     85  C   UNL A   1      45.439  25.295  26.216  1.00  0.00     0.060 A 
BRANCH  85  86
ATOM     86  S   UNL A   1      45.741  23.637  25.565  1.00  0.00     0.124 S 
ATOM     87  O   UNL A   1      47.156  23.455  25.872  1.00  0.00    -0.237 OA
ATOM     88  O   UNL A   1      44.810  22.827  26.343  1.00  0.00    -0.237 OA
ATOM     89  O   UNL A   1      45.415  23.769  24.149  1.00  0.00    -0.744 OA
ENDBRANCH  85  86
ENDBRANCH  53  78
BRANCH  65  90
ATOM     90  C   UNL A   1      49.053  33.538  27.014  1.00  0.00     0.058 A 
ATOM     91  C   UNL A   1      50.209  33.135  27.701  1.00  0.00     0.135 A 
ATOM     92  C   UNL A   1      49.221  34.140  25.755  1.00  0.00     0.135 A 
ATOM     93  F   UNL A   1      50.109  32.558  28.909  1.00  0.00    -0.206 F 
ATOM     94  C   UNL A   1      51.481  33.342  27.174  1.00  0.00     0.059 A 
ATOM     95  C   UNL A   1      50.481  34.329  25.194  1.00  0.00     0.059 A 
ATOM     96  F   UNL A   1      48.151  34.534  25.045  1.00  0.00    -0.206 F 
ATOM     97  C   UNL A   1      51.607  33.939  25.918  1.00  0.00     0.060 A 
BRANCH  97  98
ATOM     98  S   UNL A   1      53.261  34.172  25.232  1.00  0.00     0.124 S 
ATOM     99  O   UNL A   1      53.876  32.876  25.495  1.00  0.00    -0.237 OA
ATOM    100  O   UNL A   1      52.980  34.470  23.831  1.00  0.00    -0.237 OA
ATOM    101  O   UNL A   1      53.798  35.289  26.007  1.00  0.00    -0.744 OA
ENDBRANCH  97  98
ENDBRANCH  65  90
ENDBRANCH  39  40
ENDBRANCH  32  34
ENDBRANCH  31  32
ENDBRANCH  30  31
ENDBRANCH  29  30
ENDBRANCH  28  29
ENDBRANCH  27  28
ENDBRANCH   1  27
TORSDOF 25
ENDMDL
