MODEL 1
REMARK VINA RESULT:      -9.9      0.000      0.000
REMARK SMILES CCC[C@@]1(C(=O)OCCOCCOCCOC(=O)c2ccc(-c3c4nc(c(-c5c(F)cc(S(=O)(=O)[O-])cc5F)c5ccc([nH]5)c(-c5c(F)cc(S(=O)(=O)[O-])cc5F)c5nc(c(-c6c(F)cc(S(=O)(=O)[O-])cc6F)c6ccc3[nH]6)C=C5)C=C4)cc2)CCCN(C(=O)CCn2cncn2)C1
REMARK SMILES IDX 11 1 10 2 9 3 8 4 7 5 5 6 6 7 4 8 85 9 98 10 86 11 88 12
REMARK SMILES IDX 87 13 3 14 2 15 1 16 89 17 90 18 91 19 92 20 93 21 94 22
REMARK SMILES IDX 97 23 95 24 96 25 12 26 13 27 14 28 15 29 16 30 17 31 18 32
REMARK SMILES IDX 19 33 20 34 84 35 21 36 83 37 22 38 23 39 24 40 77 41 25 42
REMARK SMILES IDX 82 43 76 44 78 45 26 46 81 47 75 48 74 49 27 51 61 52 40 53
REMARK SMILES IDX 60 54 41 55 44 56 59 57 79 58 42 59 43 60 58 62 80 63 45 64
REMARK SMILES IDX 28 65 29 66 38 67 30 68 31 69 37 70 39 71 32 72 33 73 34 74
REMARK SMILES IDX 35 75 36 76 62 77 63 78 72 79 64 80 65 81 71 82 73 83 66 84
REMARK SMILES IDX 67 85 68 86 69 87 70 88 46 89 47 90 56 91 48 92 49 93 55 94
REMARK SMILES IDX 57 95 50 96 51 97 52 98 53 99 54 100
REMARK H PARENT 78 50 44 61
REMARK Flexibility Score: inf
ROOT
ATOM      1  C   UNL A   1      38.348  20.689  25.358  1.00  0.00     0.188 C 
ENDROOT
BRANCH   1   2
ATOM      2  O   UNL A   1      37.151  20.964  24.645  1.00  0.00    -0.376 OA
BRANCH   2   3
ATOM      3  C   UNL A   1      36.338  22.026  25.134  1.00  0.00     0.202 C 
BRANCH   3   4
ATOM      4  C   UNL A   1      36.184  23.282  24.259  1.00  0.00     0.261 C 
BRANCH   4   5
ATOM      5  O   UNL A   1      35.166  24.240  24.643  1.00  0.00    -0.463 OA
BRANCH   5   6
ATOM      6  C   UNL A   1      34.064  24.252  23.845  1.00  0.00     0.313 C 
ATOM      7  O   UNL A   1      34.117  24.011  22.642  1.00  0.00    -0.252 OA
BRANCH   6   8
ATOM      8  C   UNL A   1      32.735  24.592  24.569  1.00  0.00     0.086 C 
ATOM      9  C   UNL A   1      33.085  24.585  26.090  1.00  0.00     0.022 C 
ATOM     10  C   UNL A   1      31.709  23.496  24.233  1.00  0.00     0.138 C 
ATOM     11  C   UNL A   1      33.344  23.187  26.647  1.00  0.00     0.023 C 
ATOM     12  N   UNL A   1      32.143  22.201  24.752  1.00  0.00    -0.341 N 
ATOM     13  C   UNL A   1      32.288  22.182  26.206  1.00  0.00     0.119 C 
BRANCH   8  14
ATOM     14  C   UNL A   1      32.197  25.991  24.153  1.00  0.00     0.020 C 
BRANCH  14  15
ATOM     15  C   UNL A   1      31.085  26.082  23.076  1.00  0.00    -0.002 C 
ATOM     16  C   UNL A   1      31.457  26.619  21.700  1.00  0.00     0.004 C 
ENDBRANCH  14  15
ENDBRANCH   8  14
BRANCH  12  17
ATOM     17  C   UNL A   1      32.484  21.210  23.852  1.00  0.00     0.224 C 
ATOM     18  O   UNL A   1      32.156  21.257  22.663  1.00  0.00    -0.275 OA
BRANCH  17  19
ATOM     19  C   UNL A   1      33.309  20.028  24.304  1.00  0.00     0.124 C 
BRANCH  19  20
ATOM     20  C   UNL A   1      32.483  18.744  24.282  1.00  0.00     0.156 C 
BRANCH  20  21
ATOM     21  N   UNL A   1      33.190  17.549  24.683  1.00  0.00    -0.252 N 
ATOM     22  C   UNL A   1      32.724  16.474  25.374  1.00  0.00     0.219 A 
ATOM     23  N   UNL A   1      34.462  17.351  24.301  1.00  0.00    -0.160 NA
ATOM     24  N   UNL A   1      33.703  15.624  25.580  1.00  0.00    -0.224 NA
ATOM     25  C   UNL A   1      34.754  16.205  24.923  1.00  0.00     0.246 A 
ENDBRANCH  20  21
ENDBRANCH  19  20
ENDBRANCH  17  19
ENDBRANCH  12  17
ENDBRANCH   6   8
ENDBRANCH   5   6
ENDBRANCH   4   5
ENDBRANCH   3   4
ENDBRANCH   2   3
ENDBRANCH   1   2
BRANCH   1  26
ATOM     26  C   UNL A   1      38.984  21.867  26.089  1.00  0.00     0.188 C 
BRANCH  26  27
ATOM     27  O   UNL A   1      40.124  21.574  26.875  1.00  0.00    -0.376 OA
BRANCH  27  28
ATOM     28  C   UNL A   1      41.410  21.723  26.276  1.00  0.00     0.202 C 
BRANCH  28  29
ATOM     29  C   UNL A   1      42.016  23.139  26.143  1.00  0.00     0.261 C 
BRANCH  29  30
ATOM     30  O   UNL A   1      41.102  24.254  26.252  1.00  0.00    -0.460 OA
BRANCH  30  31
ATOM     31  C   UNL A   1      41.610  25.498  26.054  1.00  0.00     0.338 C 
ATOM     32  O   UNL A   1      41.804  26.019  24.980  1.00  0.00    -0.246 OA
BRANCH  31  33
ATOM     33  C   UNL A   1      41.634  26.234  27.361  1.00  0.00     0.060 A 
ATOM     34  C   UNL A   1      40.602  25.958  28.270  1.00  0.00     0.016 A 
ATOM     35  C   UNL A   1      42.656  27.114  27.736  1.00  0.00     0.016 A 
ATOM     36  C   UNL A   1      40.535  26.619  29.499  1.00  0.00     0.010 A 
ATOM     37  C   UNL A   1      42.582  27.791  28.968  1.00  0.00     0.010 A 
ATOM     38  C   UNL A   1      41.485  27.593  29.828  1.00  0.00    -0.014 A 
BRANCH  38  39
ATOM     39  C   UNL A   1      41.147  28.584  30.891  1.00  0.00     0.031 A 
ATOM     40  C   UNL A   1      42.013  28.599  32.131  1.00  0.00     0.074 A 
ATOM     41  C   UNL A   1      40.185  29.517  30.748  1.00  0.00     0.049 A 
ATOM     42  N   UNL A   1      41.968  29.385  33.175  1.00  0.00    -0.248 NA
ATOM     43  C   UNL A   1      43.082  27.587  32.191  1.00  0.00     0.031 C 
ATOM     44  C   UNL A   1      39.305  29.662  29.591  1.00  0.00     0.029 A 
ATOM     45  N   UNL A   1      39.795  30.530  31.593  1.00  0.00    -0.354 N 
ATOM     46  C   UNL A   1      42.993  28.960  34.014  1.00  0.00     0.074 A 
ATOM     47  C   UNL A   1      43.617  27.822  33.377  1.00  0.00     0.031 C 
ATOM     48  C   UNL A   1      38.477  30.702  29.800  1.00  0.00     0.029 A 
ATOM     49  C   UNL A   1      38.749  31.286  31.115  1.00  0.00     0.049 A 
ATOM     50  H   UNL A   1      40.225  30.699  32.462  1.00  0.00     0.167 HD
ATOM     51  C   UNL A   1      43.398  29.475  35.199  1.00  0.00     0.037 A 
ATOM     52  C   UNL A   1      38.084  32.320  31.674  1.00  0.00     0.037 A 
ATOM     53  C   UNL A   1      42.786  30.608  35.842  1.00  0.00     0.049 A 
ATOM     54  C   UNL A   1      38.506  32.835  33.031  1.00  0.00     0.074 A 
ATOM     55  C   UNL A   1      43.129  31.203  37.043  1.00  0.00     0.029 A 
ATOM     56  N   UNL A   1      41.702  31.313  35.342  1.00  0.00    -0.354 N 
ATOM     57  N   UNL A   1      39.488  32.431  33.804  1.00  0.00    -0.248 NA
ATOM     58  C   UNL A   1      37.735  33.957  33.586  1.00  0.00     0.031 C 
ATOM     59  C   UNL A   1      42.219  32.234  37.297  1.00  0.00     0.029 A 
ATOM     60  C   UNL A   1      41.349  32.324  36.222  1.00  0.00     0.049 A 
ATOM     61  H   UNL A   1      41.250  31.125  34.488  1.00  0.00     0.167 HD
ATOM     62  C   UNL A   1      39.471  33.271  34.916  1.00  0.00     0.074 A 
ATOM     63  C   UNL A   1      38.393  34.214  34.708  1.00  0.00     0.031 C 
ATOM     64  C   UNL A   1      40.277  33.264  36.009  1.00  0.00     0.037 A 
BRANCH  51  65
ATOM     65  C   UNL A   1      44.543  28.791  35.896  1.00  0.00     0.058 A 
ATOM     66  C   UNL A   1      44.345  27.702  36.761  1.00  0.00     0.135 A 
ATOM     67  C   UNL A   1      45.863  29.222  35.681  1.00  0.00     0.135 A 
ATOM     68  F   UNL A   1      43.103  27.264  37.022  1.00  0.00    -0.206 F 
ATOM     69  C   UNL A   1      45.409  27.086  37.411  1.00  0.00     0.059 A 
ATOM     70  C   UNL A   1      46.945  28.600  36.295  1.00  0.00     0.059 A 
ATOM     71  F   UNL A   1      46.110  30.261  34.869  1.00  0.00    -0.206 F 
ATOM     72  C   UNL A   1      46.706  27.542  37.169  1.00  0.00     0.060 A 
BRANCH  72  73
ATOM     73  S   UNL A   1      48.077  26.728  38.017  1.00  0.00     0.124 S 
ATOM     74  O   UNL A   1      48.137  25.450  37.314  1.00  0.00    -0.237 OA
ATOM     75  O   UNL A   1      49.185  27.642  37.765  1.00  0.00    -0.237 OA
ATOM     76  O   UNL A   1      47.626  26.660  39.404  1.00  0.00    -0.744 OA
ENDBRANCH  72  73
ENDBRANCH  51  65
BRANCH  52  77
ATOM     77  C   UNL A   1      36.932  32.946  30.964  1.00  0.00     0.058 A 
ATOM     78  C   UNL A   1      37.120  33.755  29.832  1.00  0.00     0.135 A 
ATOM     79  C   UNL A   1      35.617  32.775  31.426  1.00  0.00     0.135 A 
ATOM     80  F   UNL A   1      38.358  33.971  29.360  1.00  0.00    -0.206 F 
ATOM     81  C   UNL A   1      36.053  34.384  29.195  1.00  0.00     0.059 A 
ATOM     82  C   UNL A   1      34.531  33.368  30.789  1.00  0.00     0.059 A 
ATOM     83  F   UNL A   1      35.378  32.013  32.505  1.00  0.00    -0.206 F 
ATOM     84  C   UNL A   1      34.760  34.180  29.679  1.00  0.00     0.060 A 
BRANCH  84  85
ATOM     85  S   UNL A   1      33.379  34.961  28.816  1.00  0.00     0.124 S 
ATOM     86  O   UNL A   1      33.980  36.211  28.366  1.00  0.00    -0.237 OA
ATOM     87  O   UNL A   1      33.079  33.985  27.773  1.00  0.00    -0.237 OA
ATOM     88  O   UNL A   1      32.363  35.089  29.856  1.00  0.00    -0.744 OA
ENDBRANCH  84  85
ENDBRANCH  52  77
BRANCH  64  89
ATOM     89  C   UNL A   1      40.060  34.339  37.045  1.00  0.00     0.058 A 
ATOM     90  C   UNL A   1      39.144  34.187  38.098  1.00  0.00     0.135 A 
ATOM     91  C   UNL A   1      40.800  35.533  36.995  1.00  0.00     0.135 A 
ATOM     92  F   UNL A   1      38.411  33.067  38.201  1.00  0.00    -0.206 F 
ATOM     93  C   UNL A   1      38.932  35.198  39.032  1.00  0.00     0.059 A 
ATOM     94  C   UNL A   1      40.630  36.543  37.938  1.00  0.00     0.059 A 
ATOM     95  F   UNL A   1      41.706  35.727  36.023  1.00  0.00    -0.206 F 
ATOM     96  C   UNL A   1      39.677  36.375  38.940  1.00  0.00     0.060 A 
BRANCH  96  97
ATOM     97  S   UNL A   1      39.384  37.686  40.148  1.00  0.00     0.124 S 
ATOM     98  O   UNL A   1      38.223  38.359  39.576  1.00  0.00    -0.237 OA
ATOM     99  O   UNL A   1      39.141  36.932  41.374  1.00  0.00    -0.237 OA
ATOM    100  O   UNL A   1      40.627  38.451  40.127  1.00  0.00    -0.744 OA
ENDBRANCH  96  97
ENDBRANCH  64  89
ENDBRANCH  38  39
ENDBRANCH  31  33
ENDBRANCH  30  31
ENDBRANCH  29  30
ENDBRANCH  28  29
ENDBRANCH  27  28
ENDBRANCH  26  27
ENDBRANCH   1  26
TORSDOF 26
ENDMDL
MODEL 2
REMARK VINA RESULT:      -9.6      6.041     11.705
REMARK SMILES CCC[C@@]1(C(=O)OCCOCCOCCOC(=O)c2ccc(-c3c4nc(c(-c5c(F)cc(S(=O)(=O)[O-])cc5F)c5ccc([nH]5)c(-c5c(F)cc(S(=O)(=O)[O-])cc5F)c5nc(c(-c6c(F)cc(S(=O)(=O)[O-])cc6F)c6ccc3[nH]6)C=C5)C=C4)cc2)CCCN(C(=O)CCn2cncn2)C1
REMARK SMILES IDX 11 1 10 2 9 3 8 4 7 5 5 6 6 7 4 8 85 9 98 10 86 11 88 12
REMARK SMILES IDX 87 13 3 14 2 15 1 16 89 17 90 18 91 19 92 20 93 21 94 22
REMARK SMILES IDX 97 23 95 24 96 25 12 26 13 27 14 28 15 29 16 30 17 31 18 32
REMARK SMILES IDX 19 33 20 34 84 35 21 36 83 37 22 38 23 39 24 40 77 41 25 42
REMARK SMILES IDX 82 43 76 44 78 45 26 46 81 47 75 48 74 49 27 51 61 52 40 53
REMARK SMILES IDX 60 54 41 55 44 56 59 57 79 58 42 59 43 60 58 62 80 63 45 64
REMARK SMILES IDX 28 65 29 66 38 67 30 68 31 69 37 70 39 71 32 72 33 73 34 74
REMARK SMILES IDX 35 75 36 76 62 77 63 78 72 79 64 80 65 81 71 82 73 83 66 84
REMARK SMILES IDX 67 85 68 86 69 87 70 88 46 89 47 90 56 91 48 92 49 93 55 94
REMARK SMILES IDX 57 95 50 96 51 97 52 98 53 99 54 100
REMARK H PARENT 78 50 44 61
REMARK Flexibility Score: inf
ROOT
ATOM      1  C   UNL A   1      34.324  30.995  27.931  1.00  0.00     0.188 C 
ENDROOT
BRANCH   1   2
ATOM      2  O   UNL A   1      33.763  30.114  26.969  1.00  0.00    -0.376 OA
BRANCH   2   3
ATOM      3  C   UNL A   1      32.476  30.450  26.459  1.00  0.00     0.202 C 
BRANCH   3   4
ATOM      4  C   UNL A   1      31.558  29.306  25.996  1.00  0.00     0.261 C 
BRANCH   4   5
ATOM      5  O   UNL A   1      32.195  28.096  25.517  1.00  0.00    -0.463 OA
BRANCH   5   6
ATOM      6  C   UNL A   1      32.300  28.004  24.163  1.00  0.00     0.313 C 
ATOM      7  O   UNL A   1      33.380  28.056  23.579  1.00  0.00    -0.252 OA
BRANCH   6   8
ATOM      8  C   UNL A   1      30.954  27.826  23.412  1.00  0.00     0.086 C 
ATOM      9  C   UNL A   1      30.033  27.049  24.403  1.00  0.00     0.022 C 
ATOM     10  C   UNL A   1      31.217  27.001  22.140  1.00  0.00     0.138 C 
ATOM     11  C   UNL A   1      30.434  25.586  24.586  1.00  0.00     0.023 C 
ATOM     12  N   UNL A   1      31.683  25.658  22.479  1.00  0.00    -0.341 N 
ATOM     13  C   UNL A   1      30.713  24.892  23.260  1.00  0.00     0.119 C 
BRANCH   8  14
ATOM     14  C   UNL A   1      30.314  29.196  23.052  1.00  0.00     0.020 C 
BRANCH  14  15
ATOM     15  C   UNL A   1      28.840  29.238  22.569  1.00  0.00    -0.002 C 
ATOM     16  C   UNL A   1      28.312  30.540  21.983  1.00  0.00     0.004 C 
ENDBRANCH  14  15
ENDBRANCH   8  14
BRANCH  12  17
ATOM     17  C   UNL A   1      32.980  25.308  22.156  1.00  0.00     0.224 C 
ATOM     18  O   UNL A   1      33.653  25.948  21.342  1.00  0.00    -0.275 OA
BRANCH  17  19
ATOM     19  C   UNL A   1      33.633  24.122  22.827  1.00  0.00     0.124 C 
BRANCH  19  20
ATOM     20  C   UNL A   1      34.496  24.568  24.005  1.00  0.00     0.156 C 
BRANCH  20  21
ATOM     21  N   UNL A   1      34.537  23.650  25.121  1.00  0.00    -0.252 N 
ATOM     22  C   UNL A   1      33.798  23.662  26.263  1.00  0.00     0.219 A 
ATOM     23  N   UNL A   1      35.327  22.565  25.079  1.00  0.00    -0.160 NA
ATOM     24  N   UNL A   1      34.182  22.682  27.047  1.00  0.00    -0.224 NA
ATOM     25  C   UNL A   1      35.131  22.044  26.294  1.00  0.00     0.246 A 
ENDBRANCH  20  21
ENDBRANCH  19  20
ENDBRANCH  17  19
ENDBRANCH  12  17
ENDBRANCH   6   8
ENDBRANCH   5   6
ENDBRANCH   4   5
ENDBRANCH   3   4
ENDBRANCH   2   3
ENDBRANCH   1   2
BRANCH   1  26
ATOM     26  C   UNL A   1      33.996  32.475  27.764  1.00  0.00     0.188 C 
BRANCH  26  27
ATOM     27  O   UNL A   1      34.160  33.285  28.912  1.00  0.00    -0.376 OA
BRANCH  27  28
ATOM     28  C   UNL A   1      34.729  32.691  30.078  1.00  0.00     0.202 C 
BRANCH  28  29
ATOM     29  C   UNL A   1      35.532  33.579  31.056  1.00  0.00     0.261 C 
BRANCH  29  30
ATOM     30  O   UNL A   1      36.903  33.201  31.310  1.00  0.00    -0.460 OA
BRANCH  30  31
ATOM     31  C   UNL A   1      37.118  32.009  31.925  1.00  0.00     0.338 C 
ATOM     32  O   UNL A   1      36.473  31.563  32.846  1.00  0.00    -0.246 OA
BRANCH  31  33
ATOM     33  C   UNL A   1      38.095  31.206  31.118  1.00  0.00     0.060 A 
ATOM     34  C   UNL A   1      38.990  30.389  31.825  1.00  0.00     0.016 A 
ATOM     35  C   UNL A   1      38.108  31.181  29.718  1.00  0.00     0.016 A 
ATOM     36  C   UNL A   1      39.950  29.629  31.151  1.00  0.00     0.010 A 
ATOM     37  C   UNL A   1      39.084  30.428  29.039  1.00  0.00     0.010 A 
ATOM     38  C   UNL A   1      40.051  29.697  29.756  1.00  0.00    -0.014 A 
BRANCH  38  39
ATOM     39  C   UNL A   1      41.327  29.266  29.115  1.00  0.00     0.031 A 
ATOM     40  C   UNL A   1      42.433  30.292  29.006  1.00  0.00     0.074 A 
ATOM     41  C   UNL A   1      41.564  27.998  28.728  1.00  0.00     0.049 A 
ATOM     42  N   UNL A   1      43.649  30.167  28.539  1.00  0.00    -0.248 NA
ATOM     43  C   UNL A   1      42.120  31.643  29.501  1.00  0.00     0.031 C 
ATOM     44  C   UNL A   1      40.617  26.889  28.817  1.00  0.00     0.029 A 
ATOM     45  N   UNL A   1      42.694  27.429  28.186  1.00  0.00    -0.354 N 
ATOM     46  C   UNL A   1      44.239  31.418  28.680  1.00  0.00     0.074 A 
ATOM     47  C   UNL A   1      43.238  32.299  29.237  1.00  0.00     0.031 C 
ATOM     48  C   UNL A   1      41.204  25.774  28.344  1.00  0.00     0.029 A 
ATOM     49  C   UNL A   1      42.561  26.090  27.896  1.00  0.00     0.049 A 
ATOM     50  H   UNL A   1      43.522  27.934  28.019  1.00  0.00     0.167 HD
ATOM     51  C   UNL A   1      45.505  31.804  28.392  1.00  0.00     0.037 A 
ATOM     52  C   UNL A   1      43.429  25.223  27.329  1.00  0.00     0.037 A 
ATOM     53  C   UNL A   1      46.511  30.937  27.840  1.00  0.00     0.049 A 
ATOM     54  C   UNL A   1      44.814  25.692  26.949  1.00  0.00     0.074 A 
ATOM     55  C   UNL A   1      47.822  31.239  27.517  1.00  0.00     0.029 A 
ATOM     56  N   UNL A   1      46.319  29.601  27.522  1.00  0.00    -0.354 N 
ATOM     57  N   UNL A   1      45.361  26.877  27.103  1.00  0.00    -0.248 NA
ATOM     58  C   UNL A   1      45.705  24.701  26.328  1.00  0.00     0.031 C 
ATOM     59  C   UNL A   1      48.408  30.101  26.953  1.00  0.00     0.029 A 
ATOM     60  C   UNL A   1      47.481  29.071  26.985  1.00  0.00     0.049 A 
ATOM     61  H   UNL A   1      45.481  29.103  27.657  1.00  0.00     0.167 HD
ATOM     62  C   UNL A   1      46.667  26.760  26.631  1.00  0.00     0.074 A 
ATOM     63  C   UNL A   1      46.833  25.387  26.200  1.00  0.00     0.031 C 
ATOM     64  C   UNL A   1      47.643  27.702  26.562  1.00  0.00     0.037 A 
BRANCH  51  65
ATOM     65  C   UNL A   1      45.862  33.245  28.642  1.00  0.00     0.058 A 
ATOM     66  C   UNL A   1      45.655  34.241  27.674  1.00  0.00     0.135 A 
ATOM     67  C   UNL A   1      46.406  33.637  29.876  1.00  0.00     0.135 A 
ATOM     68  F   UNL A   1      45.162  33.920  26.467  1.00  0.00    -0.206 F 
ATOM     69  C   UNL A   1      46.002  35.568  27.909  1.00  0.00     0.059 A 
ATOM     70  C   UNL A   1      46.730  34.963  30.146  1.00  0.00     0.059 A 
ATOM     71  F   UNL A   1      46.630  32.726  30.835  1.00  0.00    -0.206 F 
ATOM     72  C   UNL A   1      46.538  35.919  29.150  1.00  0.00     0.060 A 
BRANCH  72  73
ATOM     73  S   UNL A   1      46.978  37.645  29.440  1.00  0.00     0.124 S 
ATOM     74  O   UNL A   1      48.003  37.860  28.424  1.00  0.00    -0.237 OA
ATOM     75  O   UNL A   1      45.709  38.331  29.217  1.00  0.00    -0.237 OA
ATOM     76  O   UNL A   1      47.454  37.647  30.821  1.00  0.00    -0.744 OA
ENDBRANCH  72  73
ENDBRANCH  51  65
BRANCH  52  77
ATOM     77  C   UNL A   1      43.021  23.813  27.068  1.00  0.00     0.058 A 
ATOM     78  C   UNL A   1      42.988  22.857  28.096  1.00  0.00     0.135 A 
ATOM     79  C   UNL A   1      42.688  23.383  25.772  1.00  0.00     0.135 A 
ATOM     80  F   UNL A   1      43.317  23.208  29.348  1.00  0.00    -0.206 F 
ATOM     81  C   UNL A   1      42.657  21.527  27.848  1.00  0.00     0.059 A 
ATOM     82  C   UNL A   1      42.325  22.066  25.505  1.00  0.00     0.059 A 
ATOM     83  F   UNL A   1      42.705  24.254  24.752  1.00  0.00    -0.206 F 
ATOM     84  C   UNL A   1      42.322  21.142  26.549  1.00  0.00     0.060 A 
BRANCH  84  85
ATOM     85  S   UNL A   1      41.849  19.425  26.249  1.00  0.00     0.124 S 
ATOM     86  O   UNL A   1      40.400  19.536  26.120  1.00  0.00    -0.237 OA
ATOM     87  O   UNL A   1      42.576  19.118  25.021  1.00  0.00    -0.237 OA
ATOM     88  O   UNL A   1      42.325  18.731  27.441  1.00  0.00    -0.744 OA
ENDBRANCH  84  85
ENDBRANCH  52  77
BRANCH  64  89
ATOM     89  C   UNL A   1      48.995  27.274  26.048  1.00  0.00     0.058 A 
ATOM     90  C   UNL A   1      49.992  26.770  26.898  1.00  0.00     0.135 A 
ATOM     91  C   UNL A   1      49.288  27.349  24.675  1.00  0.00     0.135 A 
ATOM     92  F   UNL A   1      49.769  26.672  28.218  1.00  0.00    -0.206 F 
ATOM     93  C   UNL A   1      51.247  26.407  26.416  1.00  0.00     0.059 A 
ATOM     94  C   UNL A   1      50.523  26.957  24.166  1.00  0.00     0.059 A 
ATOM     95  F   UNL A   1      48.367  27.802  23.810  1.00  0.00    -0.206 F 
ATOM     96  C   UNL A   1      51.504  26.509  25.047  1.00  0.00     0.060 A 
BRANCH  96  97
ATOM     97  S   UNL A   1      53.139  26.046  24.434  1.00  0.00     0.124 S 
ATOM     98  O   UNL A   1      52.936  26.099  22.990  1.00  0.00    -0.237 OA
ATOM     99  O   UNL A   1      53.991  27.090  24.994  1.00  0.00    -0.237 OA
ATOM    100  O   UNL A   1      53.346  24.713  24.990  1.00  0.00    -0.744 OA
ENDBRANCH  96  97
ENDBRANCH  64  89
ENDBRANCH  38  39
ENDBRANCH  31  33
ENDBRANCH  30  31
ENDBRANCH  29  30
ENDBRANCH  28  29
ENDBRANCH  27  28
ENDBRANCH  26  27
ENDBRANCH   1  26
TORSDOF 26
ENDMDL
MODEL 3
REMARK VINA RESULT:      -9.6      6.274     11.726
REMARK SMILES CCC[C@@]1(C(=O)OCCOCCOCCOC(=O)c2ccc(-c3c4nc(c(-c5c(F)cc(S(=O)(=O)[O-])cc5F)c5ccc([nH]5)c(-c5c(F)cc(S(=O)(=O)[O-])cc5F)c5nc(c(-c6c(F)cc(S(=O)(=O)[O-])cc6F)c6ccc3[nH]6)C=C5)C=C4)cc2)CCCN(C(=O)CCn2cncn2)C1
REMARK SMILES IDX 11 1 10 2 9 3 8 4 7 5 5 6 6 7 4 8 85 9 98 10 86 11 88 12
REMARK SMILES IDX 87 13 3 14 2 15 1 16 89 17 90 18 91 19 92 20 93 21 94 22
REMARK SMILES IDX 97 23 95 24 96 25 12 26 13 27 14 28 15 29 16 30 17 31 18 32
REMARK SMILES IDX 19 33 20 34 84 35 21 36 83 37 22 38 23 39 24 40 77 41 25 42
REMARK SMILES IDX 82 43 76 44 78 45 26 46 81 47 75 48 74 49 27 51 61 52 40 53
REMARK SMILES IDX 60 54 41 55 44 56 59 57 79 58 42 59 43 60 58 62 80 63 45 64
REMARK SMILES IDX 28 65 29 66 38 67 30 68 31 69 37 70 39 71 32 72 33 73 34 74
REMARK SMILES IDX 35 75 36 76 62 77 63 78 72 79 64 80 65 81 71 82 73 83 66 84
REMARK SMILES IDX 67 85 68 86 69 87 70 88 46 89 47 90 56 91 48 92 49 93 55 94
REMARK SMILES IDX 57 95 50 96 51 97 52 98 53 99 54 100
REMARK H PARENT 78 50 44 61
REMARK Flexibility Score: inf
ROOT
ATOM      1  C   UNL A   1      34.703  30.987  27.531  1.00  0.00     0.188 C 
ENDROOT
BRANCH   1   2
ATOM      2  O   UNL A   1      33.323  31.241  27.314  1.00  0.00    -0.376 OA
BRANCH   2   3
ATOM      3  C   UNL A   1      32.590  30.252  26.597  1.00  0.00     0.202 C 
BRANCH   3   4
ATOM      4  C   UNL A   1      33.375  29.264  25.717  1.00  0.00     0.261 C 
BRANCH   4   5
ATOM      5  O   UNL A   1      32.715  28.763  24.529  1.00  0.00    -0.463 OA
BRANCH   5   6
ATOM      6  C   UNL A   1      31.946  27.657  24.727  1.00  0.00     0.313 C 
ATOM      7  O   UNL A   1      32.177  26.843  25.616  1.00  0.00    -0.252 OA
BRANCH   6   8
ATOM      8  C   UNL A   1      30.754  27.505  23.746  1.00  0.00     0.086 C 
ATOM      9  C   UNL A   1      29.781  26.500  24.437  1.00  0.00     0.022 C 
ATOM     10  C   UNL A   1      31.289  26.934  22.421  1.00  0.00     0.138 C 
ATOM     11  C   UNL A   1      30.300  25.064  24.452  1.00  0.00     0.023 C 
ATOM     12  N   UNL A   1      31.836  25.594  22.617  1.00  0.00    -0.341 N 
ATOM     13  C   UNL A   1      30.846  24.632  23.097  1.00  0.00     0.119 C 
BRANCH   8  14
ATOM     14  C   UNL A   1      30.035  28.863  23.505  1.00  0.00     0.020 C 
BRANCH  14  15
ATOM     15  C   UNL A   1      28.825  28.915  22.535  1.00  0.00    -0.002 C 
ATOM     16  C   UNL A   1      27.445  29.189  23.121  1.00  0.00     0.004 C 
ENDBRANCH  14  15
ENDBRANCH   8  14
BRANCH  12  17
ATOM     17  C   UNL A   1      33.197  25.407  22.462  1.00  0.00     0.224 C 
ATOM     18  O   UNL A   1      33.930  26.272  21.975  1.00  0.00    -0.275 OA
BRANCH  17  19
ATOM     19  C   UNL A   1      33.841  24.120  22.921  1.00  0.00     0.124 C 
BRANCH  19  20
ATOM     20  C   UNL A   1      34.421  24.270  24.325  1.00  0.00     0.156 C 
BRANCH  20  21
ATOM     21  N   UNL A   1      35.188  23.140  24.799  1.00  0.00    -0.252 N 
ATOM     22  C   UNL A   1      36.231  23.123  25.674  1.00  0.00     0.219 A 
ATOM     23  N   UNL A   1      34.850  21.891  24.442  1.00  0.00    -0.160 NA
ATOM     24  N   UNL A   1      36.683  21.897  25.796  1.00  0.00    -0.224 NA
ATOM     25  C   UNL A   1      35.823  21.175  25.014  1.00  0.00     0.246 A 
ENDBRANCH  20  21
ENDBRANCH  19  20
ENDBRANCH  17  19
ENDBRANCH  12  17
ENDBRANCH   6   8
ENDBRANCH   5   6
ENDBRANCH   4   5
ENDBRANCH   3   4
ENDBRANCH   2   3
ENDBRANCH   1   2
BRANCH   1  26
ATOM     26  C   UNL A   1      35.545  32.174  27.986  1.00  0.00     0.188 C 
BRANCH  26  27
ATOM     27  O   UNL A   1      35.088  32.860  29.137  1.00  0.00    -0.376 OA
BRANCH  27  28
ATOM     28  C   UNL A   1      34.774  32.091  30.297  1.00  0.00     0.202 C 
BRANCH  28  29
ATOM     29  C   UNL A   1      35.569  32.339  31.599  1.00  0.00     0.261 C 
BRANCH  29  30
ATOM     30  O   UNL A   1      36.565  31.354  31.955  1.00  0.00    -0.460 OA
BRANCH  30  31
ATOM     31  C   UNL A   1      37.782  31.810  32.348  1.00  0.00     0.338 C 
ATOM     32  O   UNL A   1      38.001  32.490  33.325  1.00  0.00    -0.246 OA
BRANCH  31  33
ATOM     33  C   UNL A   1      38.849  31.120  31.549  1.00  0.00     0.060 A 
ATOM     34  C   UNL A   1      39.743  30.299  32.252  1.00  0.00     0.016 A 
ATOM     35  C   UNL A   1      38.948  31.201  30.155  1.00  0.00     0.016 A 
ATOM     36  C   UNL A   1      40.782  29.641  31.589  1.00  0.00     0.010 A 
ATOM     37  C   UNL A   1      40.003  30.551  29.488  1.00  0.00     0.010 A 
ATOM     38  C   UNL A   1      40.963  29.818  30.212  1.00  0.00    -0.014 A 
BRANCH  38  39
ATOM     39  C   UNL A   1      42.297  29.502  29.624  1.00  0.00     0.031 A 
ATOM     40  C   UNL A   1      42.488  28.124  29.030  1.00  0.00     0.074 A 
ATOM     41  C   UNL A   1      43.286  30.410  29.512  1.00  0.00     0.049 A 
ATOM     42  N   UNL A   1      43.524  27.612  28.417  1.00  0.00    -0.248 NA
ATOM     43  C   UNL A   1      41.344  27.203  29.138  1.00  0.00     0.031 C 
ATOM     44  C   UNL A   1      43.232  31.790  29.989  1.00  0.00     0.029 A 
ATOM     45  N   UNL A   1      44.536  30.301  28.947  1.00  0.00    -0.354 N 
ATOM     46  C   UNL A   1      43.159  26.314  28.075  1.00  0.00     0.074 A 
ATOM     47  C   UNL A   1      41.822  26.103  28.582  1.00  0.00     0.031 C 
ATOM     48  C   UNL A   1      44.397  32.398  29.699  1.00  0.00     0.029 A 
ATOM     49  C   UNL A   1      45.291  31.447  29.035  1.00  0.00     0.049 A 
ATOM     50  H   UNL A   1      44.861  29.476  28.519  1.00  0.00     0.167 HD
ATOM     51  C   UNL A   1      43.858  25.382  27.384  1.00  0.00     0.037 A 
ATOM     52  C   UNL A   1      46.557  31.699  28.636  1.00  0.00     0.037 A 
ATOM     53  C   UNL A   1      45.188  25.581  26.872  1.00  0.00     0.049 A 
ATOM     54  C   UNL A   1      47.347  30.621  27.929  1.00  0.00     0.074 A 
ATOM     55  C   UNL A   1      45.975  24.695  26.159  1.00  0.00     0.029 A 
ATOM     56  N   UNL A   1      45.930  26.743  27.024  1.00  0.00    -0.354 N 
ATOM     57  N   UNL A   1      46.980  29.404  27.600  1.00  0.00    -0.248 NA
ATOM     58  C   UNL A   1      48.722  30.957  27.529  1.00  0.00     0.031 C 
ATOM     59  C   UNL A   1      47.215  25.300  25.926  1.00  0.00     0.029 A 
ATOM     60  C   UNL A   1      47.176  26.587  26.437  1.00  0.00     0.049 A 
ATOM     61  H   UNL A   1      45.619  27.557  27.481  1.00  0.00     0.167 HD
ATOM     62  C   UNL A   1      48.065  28.846  26.926  1.00  0.00     0.074 A 
ATOM     63  C   UNL A   1      49.094  29.863  26.881  1.00  0.00     0.031 C 
ATOM     64  C   UNL A   1      48.196  27.605  26.390  1.00  0.00     0.037 A 
BRANCH  51  65
ATOM     65  C   UNL A   1      43.203  24.044  27.171  1.00  0.00     0.058 A 
ATOM     66  C   UNL A   1      43.230  23.038  28.152  1.00  0.00     0.135 A 
ATOM     67  C   UNL A   1      42.526  23.769  25.972  1.00  0.00     0.135 A 
ATOM     68  F   UNL A   1      43.885  23.237  29.307  1.00  0.00    -0.206 F 
ATOM     69  C   UNL A   1      42.633  21.799  27.940  1.00  0.00     0.059 A 
ATOM     70  C   UNL A   1      41.894  22.549  25.751  1.00  0.00     0.059 A 
ATOM     71  F   UNL A   1      42.474  24.691  24.999  1.00  0.00    -0.206 F 
ATOM     72  C   UNL A   1      41.967  21.565  26.736  1.00  0.00     0.060 A 
BRANCH  72  73
ATOM     73  S   UNL A   1      41.195  19.954  26.478  1.00  0.00     0.124 S 
ATOM     74  O   UNL A   1      41.993  19.420  25.379  1.00  0.00    -0.237 OA
ATOM     75  O   UNL A   1      41.386  19.307  27.772  1.00  0.00    -0.237 OA
ATOM     76  O   UNL A   1      39.813  20.288  26.145  1.00  0.00    -0.744 OA
ENDBRANCH  72  73
ENDBRANCH  51  65
BRANCH  52  77
ATOM     77  C   UNL A   1      47.179  33.029  28.899  1.00  0.00     0.058 A 
ATOM     78  C   UNL A   1      47.119  34.066  27.954  1.00  0.00     0.135 A 
ATOM     79  C   UNL A   1      47.879  33.278  30.090  1.00  0.00     0.135 A 
ATOM     80  F   UNL A   1      46.481  33.875  26.788  1.00  0.00    -0.206 F 
ATOM     81  C   UNL A   1      47.741  35.292  28.172  1.00  0.00     0.059 A 
ATOM     82  C   UNL A   1      48.483  34.506  30.345  1.00  0.00     0.059 A 
ATOM     83  F   UNL A   1      47.970  32.323  31.028  1.00  0.00    -0.206 F 
ATOM     84  C   UNL A   1      48.418  35.504  29.374  1.00  0.00     0.060 A 
BRANCH  84  85
ATOM     85  S   UNL A   1      49.181  37.116  29.666  1.00  0.00     0.124 S 
ATOM     86  O   UNL A   1      49.200  37.682  28.322  1.00  0.00    -0.237 OA
ATOM     87  O   UNL A   1      48.246  37.730  30.604  1.00  0.00    -0.237 OA
ATOM     88  O   UNL A   1      50.485  36.773  30.226  1.00  0.00    -0.744 OA
ENDBRANCH  84  85
ENDBRANCH  52  77
BRANCH  64  89
ATOM     89  C   UNL A   1      49.480  27.289  25.663  1.00  0.00     0.058 A 
ATOM     90  C   UNL A   1      50.634  26.860  26.336  1.00  0.00     0.135 A 
ATOM     91  C   UNL A   1      49.546  27.396  24.263  1.00  0.00     0.135 A 
ATOM     92  F   UNL A   1      50.630  26.734  27.673  1.00  0.00    -0.206 F 
ATOM     93  C   UNL A   1      51.822  26.599  25.656  1.00  0.00     0.059 A 
ATOM     94  C   UNL A   1      50.712  27.106  23.559  1.00  0.00     0.059 A 
ATOM     95  F   UNL A   1      48.468  27.781  23.561  1.00  0.00    -0.206 F 
ATOM     96  C   UNL A   1      51.851  26.731  24.267  1.00  0.00     0.060 A 
BRANCH  96  97
ATOM     97  S   UNL A   1      53.399  26.403  23.396  1.00  0.00     0.124 S 
ATOM     98  O   UNL A   1      54.099  27.674  23.554  1.00  0.00    -0.237 OA
ATOM     99  O   UNL A   1      53.949  25.279  24.147  1.00  0.00    -0.237 OA
ATOM    100  O   UNL A   1      52.966  26.089  22.038  1.00  0.00    -0.744 OA
ENDBRANCH  96  97
ENDBRANCH  64  89
ENDBRANCH  38  39
ENDBRANCH  31  33
ENDBRANCH  30  31
ENDBRANCH  29  30
ENDBRANCH  28  29
ENDBRANCH  27  28
ENDBRANCH  26  27
ENDBRANCH   1  26
TORSDOF 26
ENDMDL
