MODEL 1
REMARK VINA RESULT:     -10.9      0.000      0.000
REMARK SMILES CC(=O)c1nnn(-c2ccc(C(=O)OCCOCCOCCOC(=O)c3ccc(-c4c5nc(c(-c6c(F)cc(S(=O)(=O)[O-])cc6F)c6ccc([nH]6)c(-c6c(F)cc(S(=O)(=O)[O-])cc6F)c6nc(c(-c7c(F)cc(S(=O)(=O)[O-])cc7F)c7ccc4[nH]7)C=C6)C=C5)cc3)cc2)c1C
REMARK SMILES IDX 19 1 18 2 17 3 16 4 15 5 14 6 12 7 13 8 11 9 8 10 9 11 93 12
REMARK SMILES IDX 10 13 92 14 7 15 4 16 5 17 94 18 6 19 95 20 2 21 1 22 3 23
REMARK SMILES IDX 20 24 21 25 22 26 23 27 24 28 25 29 26 30 27 31 91 32 28 33
REMARK SMILES IDX 90 34 29 35 30 36 31 37 84 38 32 39 89 40 83 41 85 42 33 43
REMARK SMILES IDX 88 44 82 45 81 46 34 48 68 49 47 50 67 51 48 52 51 53 66 54
REMARK SMILES IDX 86 55 49 56 50 57 65 59 87 60 52 61 35 62 36 63 45 64 37 65
REMARK SMILES IDX 38 66 44 67 46 68 39 69 40 70 41 71 42 72 43 73 69 74 70 75
REMARK SMILES IDX 79 76 71 77 72 78 78 79 80 80 73 81 74 82 75 83 76 84 77 85
REMARK SMILES IDX 53 86 54 87 63 88 55 89 56 90 62 91 64 92 57 93 58 94 59 95
REMARK SMILES IDX 60 96 61 97
REMARK H PARENT 85 47 51 58
REMARK Flexibility Score: inf
ROOT
ATOM      1  C   UNL A   1      40.736  21.516  27.717  1.00  0.00     0.188 C 
ENDROOT
BRANCH   1   2
ATOM      2  C   UNL A   1      40.003  22.008  26.449  1.00  0.00     0.188 C 
BRANCH   2   3
ATOM      3  O   UNL A   1      38.851  21.340  25.948  1.00  0.00    -0.376 OA
BRANCH   3   4
ATOM      4  C   UNL A   1      37.826  22.083  25.305  1.00  0.00     0.202 C 
BRANCH   4   5
ATOM      5  C   UNL A   1      36.668  21.325  24.641  1.00  0.00     0.261 C 
BRANCH   5   6
ATOM      6  O   UNL A   1      35.532  21.126  25.495  1.00  0.00    -0.460 OA
BRANCH   6   7
ATOM      7  C   UNL A   1      34.400  20.712  24.878  1.00  0.00     0.338 C 
ATOM      8  O   UNL A   1      34.074  19.565  24.628  1.00  0.00    -0.246 OA
BRANCH   7   9
ATOM      9  C   UNL A   1      33.499  21.863  24.637  1.00  0.00     0.060 A 
ATOM     10  C   UNL A   1      31.927  24.048  23.939  1.00  0.00     0.067 A 
ATOM     11  C   UNL A   1      31.747  22.836  23.266  1.00  0.00     0.029 A 
ATOM     12  C   UNL A   1      32.784  24.130  25.046  1.00  0.00     0.029 A 
ATOM     13  C   UNL A   1      32.559  21.753  23.600  1.00  0.00     0.018 A 
ATOM     14  C   UNL A   1      33.570  23.033  25.400  1.00  0.00     0.018 A 
BRANCH  10  15
ATOM     15  N   UNL A   1      31.375  25.223  23.380  1.00  0.00    -0.217 N 
ATOM     16  C   UNL A   1      30.370  27.143  23.107  1.00  0.00     0.151 A 
ATOM     17  N   UNL A   1      31.222  26.930  22.056  1.00  0.00    -0.126 NA
ATOM     18  C   UNL A   1      30.453  26.072  23.984  1.00  0.00     0.073 A 
ATOM     19  N   UNL A   1      31.899  25.815  22.288  1.00  0.00    -0.061 NA
ATOM     20  C   UNL A   1      29.869  25.830  25.325  1.00  0.00     0.069 C 
BRANCH  16  21
ATOM     21  C   UNL A   1      29.616  28.383  23.238  1.00  0.00     0.181 C 
ATOM     22  C   UNL A   1      28.116  28.313  23.089  1.00  0.00     0.095 C 
ATOM     23  O   UNL A   1      30.167  29.456  23.478  1.00  0.00    -0.293 OA
ENDBRANCH  16  21
ENDBRANCH  10  15
ENDBRANCH   7   9
ENDBRANCH   6   7
ENDBRANCH   5   6
ENDBRANCH   4   5
ENDBRANCH   3   4
ENDBRANCH   2   3
ENDBRANCH   1   2
BRANCH   1  24
ATOM     24  O   UNL A   1      42.023  20.942  27.515  1.00  0.00    -0.376 OA
BRANCH  24  25
ATOM     25  C   UNL A   1      42.048  19.517  27.455  1.00  0.00     0.202 C 
BRANCH  25  26
ATOM     26  C   UNL A   1      42.340  18.965  26.059  1.00  0.00     0.261 C 
BRANCH  26  27
ATOM     27  O   UNL A   1      42.824  19.944  25.142  1.00  0.00    -0.460 OA
BRANCH  27  28
ATOM     28  C   UNL A   1      44.164  20.093  25.089  1.00  0.00     0.338 C 
ATOM     29  O   UNL A   1      44.997  19.206  25.088  1.00  0.00    -0.246 OA
BRANCH  28  30
ATOM     30  C   UNL A   1      44.479  21.530  25.043  1.00  0.00     0.060 A 
ATOM     31  C   UNL A   1      45.670  21.942  25.647  1.00  0.00     0.016 A 
ATOM     32  C   UNL A   1      43.509  22.450  24.620  1.00  0.00     0.016 A 
ATOM     33  C   UNL A   1      45.786  23.260  26.043  1.00  0.00     0.010 A 
ATOM     34  C   UNL A   1      43.620  23.763  25.024  1.00  0.00     0.010 A 
ATOM     35  C   UNL A   1      44.707  24.119  25.825  1.00  0.00    -0.014 A 
BRANCH  35  36
ATOM     36  C   UNL A   1      44.612  25.291  26.678  1.00  0.00     0.031 A 
ATOM     37  C   UNL A   1      45.663  26.318  26.564  1.00  0.00     0.074 A 
ATOM     38  C   UNL A   1      43.517  25.461  27.447  1.00  0.00     0.049 A 
ATOM     39  N   UNL A   1      46.439  26.770  27.494  1.00  0.00    -0.248 NA
ATOM     40  C   UNL A   1      45.908  26.893  25.234  1.00  0.00     0.031 C 
ATOM     41  C   UNL A   1      42.272  24.682  27.398  1.00  0.00     0.029 A 
ATOM     42  N   UNL A   1      43.233  26.445  28.343  1.00  0.00    -0.354 N 
ATOM     43  C   UNL A   1      47.137  27.825  26.917  1.00  0.00     0.074 A 
ATOM     44  C   UNL A   1      46.869  27.775  25.501  1.00  0.00     0.031 C 
ATOM     45  C   UNL A   1      41.305  25.355  28.056  1.00  0.00     0.029 A 
ATOM     46  C   UNL A   1      41.887  26.543  28.658  1.00  0.00     0.049 A 
ATOM     47  H   UNL A   1      43.920  27.034  28.731  1.00  0.00     0.167 HD
ATOM     48  C   UNL A   1      47.719  28.804  27.657  1.00  0.00     0.037 A 
ATOM     49  C   UNL A   1      41.272  27.579  29.277  1.00  0.00     0.037 A 
ATOM     50  C   UNL A   1      47.884  28.436  29.037  1.00  0.00     0.049 A 
ATOM     51  C   UNL A   1      42.311  28.361  29.995  1.00  0.00     0.074 A 
ATOM     52  C   UNL A   1      48.550  27.424  29.698  1.00  0.00     0.029 A 
ATOM     53  N   UNL A   1      47.042  28.999  29.965  1.00  0.00    -0.354 N 
ATOM     54  N   UNL A   1      42.976  27.934  31.034  1.00  0.00    -0.248 NA
ATOM     55  C   UNL A   1      42.889  29.514  29.322  1.00  0.00     0.031 C 
ATOM     56  C   UNL A   1      47.768  27.145  30.856  1.00  0.00     0.029 A 
ATOM     57  C   UNL A   1      46.670  28.006  30.835  1.00  0.00     0.049 A 
ATOM     58  H   UNL A   1      46.759  29.941  29.999  1.00  0.00     0.167 HD
ATOM     59  C   UNL A   1      44.238  28.498  30.909  1.00  0.00     0.074 A 
ATOM     60  C   UNL A   1      44.083  29.552  29.915  1.00  0.00     0.031 C 
ATOM     61  C   UNL A   1      45.347  27.878  31.411  1.00  0.00     0.037 A 
BRANCH  48  62
ATOM     62  C   UNL A   1      47.849  30.220  27.174  1.00  0.00     0.058 A 
ATOM     63  C   UNL A   1      49.104  30.853  27.164  1.00  0.00     0.135 A 
ATOM     64  C   UNL A   1      46.728  31.054  26.964  1.00  0.00     0.135 A 
ATOM     65  F   UNL A   1      50.225  30.148  27.387  1.00  0.00    -0.206 F 
ATOM     66  C   UNL A   1      49.235  32.231  26.991  1.00  0.00     0.059 A 
ATOM     67  C   UNL A   1      46.839  32.419  26.735  1.00  0.00     0.059 A 
ATOM     68  F   UNL A   1      45.475  30.590  27.066  1.00  0.00    -0.206 F 
ATOM     69  C   UNL A   1      48.094  33.006  26.794  1.00  0.00     0.060 A 
BRANCH  69  70
ATOM     70  S   UNL A   1      48.240  34.799  26.691  1.00  0.00     0.124 S 
ATOM     71  O   UNL A   1      49.688  34.965  26.651  1.00  0.00    -0.237 OA
ATOM     72  O   UNL A   1      47.526  35.099  25.454  1.00  0.00    -0.237 OA
ATOM     73  O   UNL A   1      47.582  35.255  27.912  1.00  0.00    -0.744 OA
ENDBRANCH  69  70
ENDBRANCH  48  62
BRANCH  49  74
ATOM     74  C   UNL A   1      39.905  28.092  29.008  1.00  0.00     0.058 A 
ATOM     75  C   UNL A   1      38.908  28.068  29.995  1.00  0.00     0.135 A 
ATOM     76  C   UNL A   1      39.612  28.842  27.847  1.00  0.00     0.135 A 
ATOM     77  F   UNL A   1      39.116  27.413  31.147  1.00  0.00    -0.206 F 
ATOM     78  C   UNL A   1      37.702  28.762  29.852  1.00  0.00     0.059 A 
ATOM     79  C   UNL A   1      38.411  29.522  27.673  1.00  0.00     0.059 A 
ATOM     80  F   UNL A   1      40.524  29.014  26.879  1.00  0.00    -0.206 F 
ATOM     81  C   UNL A   1      37.467  29.496  28.688  1.00  0.00     0.060 A 
BRANCH  81  82
ATOM     82  S   UNL A   1      35.978  30.511  28.559  1.00  0.00     0.124 S 
ATOM     83  O   UNL A   1      36.441  31.623  27.737  1.00  0.00    -0.237 OA
ATOM     84  O   UNL A   1      35.036  29.595  27.923  1.00  0.00    -0.237 OA
ATOM     85  O   UNL A   1      35.674  30.846  29.948  1.00  0.00    -0.744 OA
ENDBRANCH  81  82
ENDBRANCH  49  74
BRANCH  61  86
ATOM     86  C   UNL A   1      45.150  26.775  32.415  1.00  0.00     0.058 A 
ATOM     87  C   UNL A   1      44.999  26.994  33.795  1.00  0.00     0.135 A 
ATOM     88  C   UNL A   1      44.946  25.466  31.947  1.00  0.00     0.135 A 
ATOM     89  F   UNL A   1      45.071  28.232  34.306  1.00  0.00    -0.206 F 
ATOM     90  C   UNL A   1      44.699  25.954  34.676  1.00  0.00     0.059 A 
ATOM     91  C   UNL A   1      44.617  24.419  32.806  1.00  0.00     0.059 A 
ATOM     92  F   UNL A   1      45.011  25.205  30.631  1.00  0.00    -0.206 F 
ATOM     93  C   UNL A   1      44.506  24.669  34.172  1.00  0.00     0.060 A 
BRANCH  93  94
ATOM     94  S   UNL A   1      44.012  23.346  35.300  1.00  0.00     0.124 S 
ATOM     95  O   UNL A   1      42.583  23.596  35.458  1.00  0.00    -0.237 OA
ATOM     96  O   UNL A   1      44.365  22.140  34.556  1.00  0.00    -0.237 OA
ATOM     97  O   UNL A   1      44.825  23.592  36.489  1.00  0.00    -0.744 OA
ENDBRANCH  93  94
ENDBRANCH  61  86
ENDBRANCH  35  36
ENDBRANCH  28  30
ENDBRANCH  27  28
ENDBRANCH  26  27
ENDBRANCH  25  26
ENDBRANCH  24  25
ENDBRANCH   1  24
TORSDOF 22
ENDMDL
MODEL 2
REMARK VINA RESULT:     -10.7      4.793     11.714
REMARK SMILES CC(=O)c1nnn(-c2ccc(C(=O)OCCOCCOCCOC(=O)c3ccc(-c4c5nc(c(-c6c(F)cc(S(=O)(=O)[O-])cc6F)c6ccc([nH]6)c(-c6c(F)cc(S(=O)(=O)[O-])cc6F)c6nc(c(-c7c(F)cc(S(=O)(=O)[O-])cc7F)c7ccc4[nH]7)C=C6)C=C5)cc3)cc2)c1C
REMARK SMILES IDX 19 1 18 2 17 3 16 4 15 5 14 6 12 7 13 8 11 9 8 10 9 11 93 12
REMARK SMILES IDX 10 13 92 14 7 15 4 16 5 17 94 18 6 19 95 20 2 21 1 22 3 23
REMARK SMILES IDX 20 24 21 25 22 26 23 27 24 28 25 29 26 30 27 31 91 32 28 33
REMARK SMILES IDX 90 34 29 35 30 36 31 37 84 38 32 39 89 40 83 41 85 42 33 43
REMARK SMILES IDX 88 44 82 45 81 46 34 48 68 49 47 50 67 51 48 52 51 53 66 54
REMARK SMILES IDX 86 55 49 56 50 57 65 59 87 60 52 61 35 62 36 63 45 64 37 65
REMARK SMILES IDX 38 66 44 67 46 68 39 69 40 70 41 71 42 72 43 73 69 74 70 75
REMARK SMILES IDX 79 76 71 77 72 78 78 79 80 80 73 81 74 82 75 83 76 84 77 85
REMARK SMILES IDX 53 86 54 87 63 88 55 89 56 90 62 91 64 92 57 93 58 94 59 95
REMARK SMILES IDX 60 96 61 97
REMARK H PARENT 85 47 51 58
REMARK Flexibility Score: inf
ROOT
ATOM      1  C   UNL A   1      33.567  35.267  29.400  1.00  0.00     0.188 C 
ENDROOT
BRANCH   1   2
ATOM      2  C   UNL A   1      32.981  35.888  30.689  1.00  0.00     0.188 C 
BRANCH   2   3
ATOM      3  O   UNL A   1      32.972  35.178  31.921  1.00  0.00    -0.376 OA
BRANCH   3   4
ATOM      4  C   UNL A   1      34.176  34.618  32.424  1.00  0.00     0.202 C 
BRANCH   4   5
ATOM      5  C   UNL A   1      34.139  33.209  33.031  1.00  0.00     0.261 C 
BRANCH   5   6
ATOM      6  O   UNL A   1      35.338  32.839  33.729  1.00  0.00    -0.460 OA
BRANCH   6   7
ATOM      7  C   UNL A   1      36.213  32.079  33.030  1.00  0.00     0.338 C 
ATOM      8  O   UNL A   1      35.959  31.107  32.341  1.00  0.00    -0.246 OA
BRANCH   7   9
ATOM      9  C   UNL A   1      37.572  32.665  33.104  1.00  0.00     0.060 A 
ATOM     10  C   UNL A   1      40.088  33.844  32.983  1.00  0.00     0.067 A 
ATOM     11  C   UNL A   1      38.952  34.657  32.937  1.00  0.00     0.029 A 
ATOM     12  C   UNL A   1      39.973  32.468  33.229  1.00  0.00     0.029 A 
ATOM     13  C   UNL A   1      37.693  34.057  32.968  1.00  0.00     0.018 A 
ATOM     14  C   UNL A   1      38.711  31.876  33.295  1.00  0.00     0.018 A 
BRANCH  10  15
ATOM     15  N   UNL A   1      41.332  34.394  32.600  1.00  0.00    -0.217 N 
ATOM     16  C   UNL A   1      43.038  35.118  31.443  1.00  0.00     0.151 A 
ATOM     17  N   UNL A   1      43.043  35.720  32.674  1.00  0.00    -0.126 NA
ATOM     18  C   UNL A   1      41.944  34.270  31.356  1.00  0.00     0.073 A 
ATOM     19  N   UNL A   1      41.948  35.351  33.322  1.00  0.00    -0.061 NA
ATOM     20  C   UNL A   1      41.376  33.481  30.237  1.00  0.00     0.069 C 
BRANCH  16  21
ATOM     21  C   UNL A   1      44.016  35.464  30.421  1.00  0.00     0.181 C 
ATOM     22  C   UNL A   1      43.510  35.728  29.023  1.00  0.00     0.095 C 
ATOM     23  O   UNL A   1      45.216  35.556  30.674  1.00  0.00    -0.293 OA
ENDBRANCH  16  21
ENDBRANCH  10  15
ENDBRANCH   7   9
ENDBRANCH   6   7
ENDBRANCH   5   6
ENDBRANCH   4   5
ENDBRANCH   3   4
ENDBRANCH   2   3
ENDBRANCH   1   2
BRANCH   1  24
ATOM     24  O   UNL A   1      32.659  34.524  28.594  1.00  0.00    -0.376 OA
BRANCH  24  25
ATOM     25  C   UNL A   1      33.267  33.601  27.691  1.00  0.00     0.202 C 
BRANCH  25  26
ATOM     26  C   UNL A   1      34.011  32.460  28.388  1.00  0.00     0.261 C 
BRANCH  26  27
ATOM     27  O   UNL A   1      35.237  32.100  27.755  1.00  0.00    -0.460 OA
BRANCH  27  28
ATOM     28  C   UNL A   1      35.549  30.788  27.775  1.00  0.00     0.338 C 
ATOM     29  O   UNL A   1      35.069  29.913  27.078  1.00  0.00    -0.246 OA
BRANCH  28  30
ATOM     30  C   UNL A   1      36.578  30.561  28.802  1.00  0.00     0.060 A 
ATOM     31  C   UNL A   1      37.538  31.561  28.979  1.00  0.00     0.016 A 
ATOM     32  C   UNL A   1      36.712  29.297  29.396  1.00  0.00     0.016 A 
ATOM     33  C   UNL A   1      38.745  31.221  29.554  1.00  0.00     0.010 A 
ATOM     34  C   UNL A   1      37.921  28.954  29.961  1.00  0.00     0.010 A 
ATOM     35  C   UNL A   1      38.955  29.892  29.929  1.00  0.00    -0.014 A 
BRANCH  35  36
ATOM     36  C   UNL A   1      40.333  29.440  30.020  1.00  0.00     0.031 A 
ATOM     37  C   UNL A   1      40.956  29.383  31.355  1.00  0.00     0.074 A 
ATOM     38  C   UNL A   1      40.950  28.976  28.915  1.00  0.00     0.049 A 
ATOM     39  N   UNL A   1      42.031  29.977  31.758  1.00  0.00    -0.248 NA
ATOM     40  C   UNL A   1      40.276  28.590  32.388  1.00  0.00     0.031 C 
ATOM     41  C   UNL A   1      40.332  28.679  27.615  1.00  0.00     0.029 A 
ATOM     42  N   UNL A   1      42.231  28.545  28.755  1.00  0.00    -0.354 N 
ATOM     43  C   UNL A   1      42.276  29.481  33.033  1.00  0.00     0.074 A 
ATOM     44  C   UNL A   1      41.105  28.735  33.421  1.00  0.00     0.031 C 
ATOM     45  C   UNL A   1      41.177  27.919  26.888  1.00  0.00     0.029 A 
ATOM     46  C   UNL A   1      42.424  27.773  27.620  1.00  0.00     0.049 A 
ATOM     47  H   UNL A   1      42.954  28.761  29.388  1.00  0.00     0.167 HD
ATOM     48  C   UNL A   1      43.505  29.531  33.610  1.00  0.00     0.037 A 
ATOM     49  C   UNL A   1      43.490  26.983  27.349  1.00  0.00     0.037 A 
ATOM     50  C   UNL A   1      44.385  30.468  32.966  1.00  0.00     0.049 A 
ATOM     51  C   UNL A   1      44.620  27.436  28.198  1.00  0.00     0.074 A 
ATOM     52  C   UNL A   1      44.350  31.827  32.731  1.00  0.00     0.029 A 
ATOM     53  N   UNL A   1      45.388  29.975  32.168  1.00  0.00    -0.354 N 
ATOM     54  N   UNL A   1      45.239  28.578  28.065  1.00  0.00    -0.248 NA
ATOM     55  C   UNL A   1      44.839  26.760  29.469  1.00  0.00     0.031 C 
ATOM     56  C   UNL A   1      45.028  32.017  31.492  1.00  0.00     0.029 A 
ATOM     57  C   UNL A   1      45.441  30.762  31.046  1.00  0.00     0.049 A 
ATOM     58  H   UNL A   1      45.964  29.201  32.366  1.00  0.00     0.167 HD
ATOM     59  C   UNL A   1      45.590  28.950  29.355  1.00  0.00     0.074 A 
ATOM     60  C   UNL A   1      45.432  27.740  30.152  1.00  0.00     0.031 C 
ATOM     61  C   UNL A   1      45.704  30.263  29.711  1.00  0.00     0.037 A 
BRANCH  48  62
ATOM     62  C   UNL A   1      43.995  28.485  34.570  1.00  0.00     0.058 A 
ATOM     63  C   UNL A   1      44.452  28.854  35.847  1.00  0.00     0.135 A 
ATOM     64  C   UNL A   1      44.266  27.157  34.170  1.00  0.00     0.135 A 
ATOM     65  F   UNL A   1      44.271  30.103  36.301  1.00  0.00    -0.206 F 
ATOM     66  C   UNL A   1      45.164  27.972  36.659  1.00  0.00     0.059 A 
ATOM     67  C   UNL A   1      44.924  26.246  34.985  1.00  0.00     0.059 A 
ATOM     68  F   UNL A   1      43.984  26.722  32.934  1.00  0.00    -0.206 F 
ATOM     69  C   UNL A   1      45.409  26.675  36.211  1.00  0.00     0.060 A 
BRANCH  69  70
ATOM     70  S   UNL A   1      46.429  25.566  37.198  1.00  0.00     0.124 S 
ATOM     71  O   UNL A   1      46.504  26.296  38.459  1.00  0.00    -0.237 OA
ATOM     72  O   UNL A   1      45.636  24.342  37.213  1.00  0.00    -0.237 OA
ATOM     73  O   UNL A   1      47.671  25.491  36.433  1.00  0.00    -0.744 OA
ENDBRANCH  69  70
ENDBRANCH  48  62
BRANCH  49  74
ATOM     74  C   UNL A   1      43.473  25.677  26.643  1.00  0.00     0.058 A 
ATOM     75  C   UNL A   1      44.221  25.468  25.474  1.00  0.00     0.135 A 
ATOM     76  C   UNL A   1      42.908  24.525  27.233  1.00  0.00     0.135 A 
ATOM     77  F   UNL A   1      44.827  26.500  24.868  1.00  0.00    -0.206 F 
ATOM     78  C   UNL A   1      44.419  24.192  24.935  1.00  0.00     0.059 A 
ATOM     79  C   UNL A   1      43.071  23.249  26.702  1.00  0.00     0.059 A 
ATOM     80  F   UNL A   1      42.252  24.589  28.401  1.00  0.00    -0.206 F 
ATOM     81  C   UNL A   1      43.846  23.086  25.564  1.00  0.00     0.060 A 
BRANCH  81  82
ATOM     82  S   UNL A   1      44.215  21.425  24.957  1.00  0.00     0.124 S 
ATOM     83  O   UNL A   1      45.459  21.118  25.655  1.00  0.00    -0.237 OA
ATOM     84  O   UNL A   1      43.040  20.673  25.385  1.00  0.00    -0.237 OA
ATOM     85  O   UNL A   1      44.338  21.611  23.513  1.00  0.00    -0.744 OA
ENDBRANCH  81  82
ENDBRANCH  49  74
BRANCH  61  86
ATOM     86  C   UNL A   1      45.811  31.289  28.615  1.00  0.00     0.058 A 
ATOM     87  C   UNL A   1      44.701  31.845  27.957  1.00  0.00     0.135 A 
ATOM     88  C   UNL A   1      47.069  31.844  28.332  1.00  0.00     0.135 A 
ATOM     89  F   UNL A   1      43.456  31.445  28.251  1.00  0.00    -0.206 F 
ATOM     90  C   UNL A   1      44.839  32.880  27.031  1.00  0.00     0.059 A 
ATOM     91  C   UNL A   1      47.226  32.897  27.432  1.00  0.00     0.059 A 
ATOM     92  F   UNL A   1      48.161  31.400  28.977  1.00  0.00    -0.206 F 
ATOM     93  C   UNL A   1      46.106  33.403  26.776  1.00  0.00     0.060 A 
BRANCH  93  94
ATOM     94  S   UNL A   1      46.268  34.813  25.658  1.00  0.00     0.124 S 
ATOM     95  O   UNL A   1      47.631  34.656  25.162  1.00  0.00    -0.237 OA
ATOM     96  O   UNL A   1      45.208  34.574  24.682  1.00  0.00    -0.237 OA
ATOM     97  O   UNL A   1      46.047  35.965  26.530  1.00  0.00    -0.744 OA
ENDBRANCH  93  94
ENDBRANCH  61  86
ENDBRANCH  35  36
ENDBRANCH  28  30
ENDBRANCH  27  28
ENDBRANCH  26  27
ENDBRANCH  25  26
ENDBRANCH  24  25
ENDBRANCH   1  24
TORSDOF 22
ENDMDL
MODEL 3
REMARK VINA RESULT:     -10.3      3.200     10.059
REMARK SMILES CC(=O)c1nnn(-c2ccc(C(=O)OCCOCCOCCOC(=O)c3ccc(-c4c5nc(c(-c6c(F)cc(S(=O)(=O)[O-])cc6F)c6ccc([nH]6)c(-c6c(F)cc(S(=O)(=O)[O-])cc6F)c6nc(c(-c7c(F)cc(S(=O)(=O)[O-])cc7F)c7ccc4[nH]7)C=C6)C=C5)cc3)cc2)c1C
REMARK SMILES IDX 19 1 18 2 17 3 16 4 15 5 14 6 12 7 13 8 11 9 8 10 9 11 93 12
REMARK SMILES IDX 10 13 92 14 7 15 4 16 5 17 94 18 6 19 95 20 2 21 1 22 3 23
REMARK SMILES IDX 20 24 21 25 22 26 23 27 24 28 25 29 26 30 27 31 91 32 28 33
REMARK SMILES IDX 90 34 29 35 30 36 31 37 84 38 32 39 89 40 83 41 85 42 33 43
REMARK SMILES IDX 88 44 82 45 81 46 34 48 68 49 47 50 67 51 48 52 51 53 66 54
REMARK SMILES IDX 86 55 49 56 50 57 65 59 87 60 52 61 35 62 36 63 45 64 37 65
REMARK SMILES IDX 38 66 44 67 46 68 39 69 40 70 41 71 42 72 43 73 69 74 70 75
REMARK SMILES IDX 79 76 71 77 72 78 78 79 80 80 73 81 74 82 75 83 76 84 77 85
REMARK SMILES IDX 53 86 54 87 63 88 55 89 56 90 62 91 64 92 57 93 58 94 59 95
REMARK SMILES IDX 60 96 61 97
REMARK H PARENT 85 47 51 58
REMARK Flexibility Score: inf
ROOT
ATOM      1  C   UNL A   1      33.012  34.871  28.564  1.00  0.00     0.188 C 
ENDROOT
BRANCH   1   2
ATOM      2  C   UNL A   1      34.049  33.886  27.978  1.00  0.00     0.188 C 
BRANCH   2   3
ATOM      3  O   UNL A   1      33.890  32.478  28.097  1.00  0.00    -0.376 OA
BRANCH   3   4
ATOM      4  C   UNL A   1      32.970  31.796  27.258  1.00  0.00     0.202 C 
BRANCH   4   5
ATOM      5  C   UNL A   1      33.058  30.267  27.151  1.00  0.00     0.261 C 
BRANCH   5   6
ATOM      6  O   UNL A   1      33.193  29.780  25.807  1.00  0.00    -0.460 OA
BRANCH   6   7
ATOM      7  C   UNL A   1      32.061  29.298  25.242  1.00  0.00     0.338 C 
ATOM      8  O   UNL A   1      31.146  29.941  24.759  1.00  0.00    -0.246 OA
BRANCH   7   9
ATOM      9  C   UNL A   1      32.119  27.819  25.165  1.00  0.00     0.060 A 
ATOM     10  C   UNL A   1      32.271  25.045  25.293  1.00  0.00     0.067 A 
ATOM     11  C   UNL A   1      31.187  25.696  25.889  1.00  0.00     0.029 A 
ATOM     12  C   UNL A   1      33.195  25.760  24.517  1.00  0.00     0.029 A 
ATOM     13  C   UNL A   1      31.133  27.089  25.848  1.00  0.00     0.018 A 
ATOM     14  C   UNL A   1      33.117  27.152  24.449  1.00  0.00     0.018 A 
BRANCH  10  15
ATOM     15  N   UNL A   1      32.520  23.695  25.628  1.00  0.00    -0.217 N 
ATOM     16  C   UNL A   1      32.872  21.541  25.533  1.00  0.00     0.151 A 
ATOM     17  N   UNL A   1      33.377  22.027  26.711  1.00  0.00    -0.126 NA
ATOM     18  C   UNL A   1      32.326  22.589  24.807  1.00  0.00     0.073 A 
ATOM     19  N   UNL A   1      33.251  23.345  26.706  1.00  0.00    -0.061 NA
ATOM     20  C   UNL A   1      31.771  22.672  23.435  1.00  0.00     0.069 C 
BRANCH  16  21
ATOM     21  C   UNL A   1      33.028  20.144  25.155  1.00  0.00     0.181 C 
ATOM     22  C   UNL A   1      34.411  19.666  24.781  1.00  0.00     0.095 C 
ATOM     23  O   UNL A   1      32.079  19.361  25.149  1.00  0.00    -0.293 OA
ENDBRANCH  16  21
ENDBRANCH  10  15
ENDBRANCH   7   9
ENDBRANCH   6   7
ENDBRANCH   5   6
ENDBRANCH   4   5
ENDBRANCH   3   4
ENDBRANCH   2   3
ENDBRANCH   1   2
BRANCH   1  24
ATOM     24  O   UNL A   1      32.751  34.750  29.958  1.00  0.00    -0.376 OA
BRANCH  24  25
ATOM     25  C   UNL A   1      33.512  35.620  30.795  1.00  0.00     0.202 C 
BRANCH  25  26
ATOM     26  C   UNL A   1      34.385  34.883  31.812  1.00  0.00     0.261 C 
BRANCH  26  27
ATOM     27  O   UNL A   1      35.340  34.004  31.224  1.00  0.00    -0.460 OA
BRANCH  27  28
ATOM     28  C   UNL A   1      35.128  32.686  31.417  1.00  0.00     0.338 C 
ATOM     29  O   UNL A   1      34.267  32.180  32.114  1.00  0.00    -0.246 OA
BRANCH  28  30
ATOM     30  C   UNL A   1      36.127  31.927  30.649  1.00  0.00     0.060 A 
ATOM     31  C   UNL A   1      36.220  30.555  30.900  1.00  0.00     0.016 A 
ATOM     32  C   UNL A   1      37.087  32.603  29.883  1.00  0.00     0.016 A 
ATOM     33  C   UNL A   1      37.396  29.906  30.584  1.00  0.00     0.010 A 
ATOM     34  C   UNL A   1      38.266  31.958  29.576  1.00  0.00     0.010 A 
ATOM     35  C   UNL A   1      38.441  30.650  30.032  1.00  0.00    -0.014 A 
BRANCH  35  36
ATOM     36  C   UNL A   1      39.786  30.125  30.198  1.00  0.00     0.031 A 
ATOM     37  C   UNL A   1      40.317  29.998  31.567  1.00  0.00     0.074 A 
ATOM     38  C   UNL A   1      40.451  29.661  29.120  1.00  0.00     0.049 A 
ATOM     39  N   UNL A   1      41.391  30.524  32.057  1.00  0.00    -0.248 NA
ATOM     40  C   UNL A   1      39.531  29.212  32.529  1.00  0.00     0.031 C 
ATOM     41  C   UNL A   1      39.906  29.433  27.774  1.00  0.00     0.029 A 
ATOM     42  N   UNL A   1      41.716  29.169  29.030  1.00  0.00    -0.354 N 
ATOM     43  C   UNL A   1      41.526  29.980  33.329  1.00  0.00     0.074 A 
ATOM     44  C   UNL A   1      40.296  29.285  33.617  1.00  0.00     0.031 C 
ATOM     45  C   UNL A   1      40.758  28.652  27.080  1.00  0.00     0.029 A 
ATOM     46  C   UNL A   1      41.946  28.421  27.885  1.00  0.00     0.049 A 
ATOM     47  H   UNL A   1      42.406  29.329  29.715  1.00  0.00     0.167 HD
ATOM     48  C   UNL A   1      42.716  29.950  33.985  1.00  0.00     0.037 A 
ATOM     49  C   UNL A   1      42.986  27.585  27.659  1.00  0.00     0.037 A 
ATOM     50  C   UNL A   1      43.682  30.858  33.430  1.00  0.00     0.049 A 
ATOM     51  C   UNL A   1      44.079  27.955  28.593  1.00  0.00     0.074 A 
ATOM     52  C   UNL A   1      43.729  32.224  33.235  1.00  0.00     0.029 A 
ATOM     53  N   UNL A   1      44.709  30.336  32.682  1.00  0.00    -0.354 N 
ATOM     54  N   UNL A   1      44.761  29.067  28.536  1.00  0.00    -0.248 NA
ATOM     55  C   UNL A   1      44.180  27.233  29.853  1.00  0.00     0.031 C 
ATOM     56  C   UNL A   1      44.497  32.413  32.050  1.00  0.00     0.029 A 
ATOM     57  C   UNL A   1      44.875  31.151  31.591  1.00  0.00     0.049 A 
ATOM     58  H   UNL A   1      45.231  29.528  32.892  1.00  0.00     0.167 HD
ATOM     59  C   UNL A   1      45.045  29.382  29.857  1.00  0.00     0.074 A 
ATOM     60  C   UNL A   1      44.775  28.160  30.604  1.00  0.00     0.031 C 
ATOM     61  C   UNL A   1      45.201  30.678  30.261  1.00  0.00     0.037 A 
BRANCH  48  62
ATOM     62  C   UNL A   1      43.089  28.853  34.941  1.00  0.00     0.058 A 
ATOM     63  C   UNL A   1      43.517  29.163  36.243  1.00  0.00     0.135 A 
ATOM     64  C   UNL A   1      43.281  27.517  34.523  1.00  0.00     0.135 A 
ATOM     65  F   UNL A   1      43.405  30.414  36.717  1.00  0.00    -0.206 F 
ATOM     66  C   UNL A   1      44.129  28.217  37.065  1.00  0.00     0.059 A 
ATOM     67  C   UNL A   1      43.837  26.545  35.344  1.00  0.00     0.059 A 
ATOM     68  F   UNL A   1      43.021  27.127  33.267  1.00  0.00    -0.206 F 
ATOM     69  C   UNL A   1      44.299  26.915  36.598  1.00  0.00     0.060 A 
BRANCH  69  70
ATOM     70  S   UNL A   1      45.195  25.717  37.602  1.00  0.00     0.124 S 
ATOM     71  O   UNL A   1      46.577  26.090  37.324  1.00  0.00    -0.237 OA
ATOM     72  O   UNL A   1      44.709  26.010  38.946  1.00  0.00    -0.237 OA
ATOM     73  O   UNL A   1      44.761  24.435  37.052  1.00  0.00    -0.744 OA
ENDBRANCH  69  70
ENDBRANCH  48  62
BRANCH  49  74
ATOM     74  C   UNL A   1      42.950  26.302  26.912  1.00  0.00     0.058 A 
ATOM     75  C   UNL A   1      43.606  26.155  25.679  1.00  0.00     0.135 A 
ATOM     76  C   UNL A   1      42.471  25.113  27.506  1.00  0.00     0.135 A 
ATOM     77  F   UNL A   1      44.128  27.225  25.062  1.00  0.00    -0.206 F 
ATOM     78  C   UNL A   1      43.797  24.904  25.082  1.00  0.00     0.059 A 
ATOM     79  C   UNL A   1      42.629  23.861  26.920  1.00  0.00     0.059 A 
ATOM     80  F   UNL A   1      41.912  25.119  28.725  1.00  0.00    -0.206 F 
ATOM     81  C   UNL A   1      43.312  23.760  25.718  1.00  0.00     0.060 A 
BRANCH  81  82
ATOM     82  S   UNL A   1      43.680  22.132  25.026  1.00  0.00     0.124 S 
ATOM     83  O   UNL A   1      42.502  21.365  25.417  1.00  0.00    -0.237 OA
ATOM     84  O   UNL A   1      43.810  22.425  23.603  1.00  0.00    -0.237 OA
ATOM     85  O   UNL A   1      44.922  21.753  25.696  1.00  0.00    -0.744 OA
ENDBRANCH  81  82
ENDBRANCH  49  74
BRANCH  61  86
ATOM     86  C   UNL A   1      45.430  31.727  29.207  1.00  0.00     0.058 A 
ATOM     87  C   UNL A   1      46.685  31.997  28.635  1.00  0.00     0.135 A 
ATOM     88  C   UNL A   1      44.316  32.370  28.643  1.00  0.00     0.135 A 
ATOM     89  F   UNL A   1      47.781  31.343  29.044  1.00  0.00    -0.206 F 
ATOM     90  C   UNL A   1      46.832  32.894  27.576  1.00  0.00     0.059 A 
ATOM     91  C   UNL A   1      44.437  33.247  27.566  1.00  0.00     0.059 A 
ATOM     92  F   UNL A   1      43.082  32.104  29.102  1.00  0.00    -0.206 F 
ATOM     93  C   UNL A   1      45.701  33.513  27.045  1.00  0.00     0.060 A 
BRANCH  93  94
ATOM     94  S   UNL A   1      45.882  34.591  25.606  1.00  0.00     0.124 S 
ATOM     95  O   UNL A   1      45.351  35.856  26.101  1.00  0.00    -0.237 OA
ATOM     96  O   UNL A   1      47.322  34.562  25.361  1.00  0.00    -0.237 OA
ATOM     97  O   UNL A   1      45.075  33.930  24.583  1.00  0.00    -0.744 OA
ENDBRANCH  93  94
ENDBRANCH  61  86
ENDBRANCH  35  36
ENDBRANCH  28  30
ENDBRANCH  27  28
ENDBRANCH  26  27
ENDBRANCH  25  26
ENDBRANCH  24  25
ENDBRANCH   1  24
TORSDOF 22
ENDMDL
