MODEL 1
REMARK VINA RESULT:      -9.6      0.000      0.000
REMARK SMILES COCc1cc(OCC(=O)OCCOCCOCCOC(=O)c2ccc(-c3c4nc(c(-c5c(F)cc(S(=O)(=O)[O-])cc5F)c5ccc([nH]5)c(-c5c(F)cc(S(=O)(=O)[O-])cc5F)c5nc(c(-c6c(F)cc(S(=O)(=O)[O-])cc6F)c6ccc3[nH]6)C=C5)C=C4)cc2)nc(Nc2cccc(C)c2C)n1
REMARK SMILES IDX 15 1 14 2 13 3 12 4 11 5 9 6 10 7 8 8 7 9 6 10 4 11 5 12
REMARK SMILES IDX 100 13 90 14 89 15 3 16 2 17 1 18 91 19 92 21 93 22 98 23
REMARK SMILES IDX 94 24 96 25 99 26 95 27 97 28 16 29 17 30 18 31 19 32 20 33
REMARK SMILES IDX 21 34 22 35 23 36 24 37 88 38 25 39 87 40 26 41 27 42 28 43
REMARK SMILES IDX 81 44 29 45 86 46 80 47 82 48 30 49 85 50 79 51 78 52 31 54
REMARK SMILES IDX 65 55 44 56 64 57 45 58 48 59 63 60 83 61 46 62 47 63 62 65
REMARK SMILES IDX 84 66 49 67 32 68 33 69 42 70 34 71 35 72 41 73 43 74 36 75
REMARK SMILES IDX 37 76 38 77 39 78 40 79 66 80 67 81 76 82 68 83 69 84 75 85
REMARK SMILES IDX 77 86 70 87 71 88 72 89 73 90 74 91 50 92 51 93 60 94 52 95
REMARK SMILES IDX 53 96 59 97 61 98 54 99 55 100 56 101 57 102 58 103
REMARK H PARENT 91 20 82 53 48 64
REMARK Flexibility Score: inf
ROOT
ATOM      1  C   UNL A   1      31.560  25.685  26.039  1.00  0.00     0.188 C 
ENDROOT
BRANCH   1   2
ATOM      2  O   UNL A   1      31.172  24.941  24.893  1.00  0.00    -0.376 OA
BRANCH   2   3
ATOM      3  C   UNL A   1      30.307  25.608  23.982  1.00  0.00     0.202 C 
BRANCH   3   4
ATOM      4  C   UNL A   1      30.994  26.511  22.948  1.00  0.00     0.261 C 
BRANCH   4   5
ATOM      5  O   UNL A   1      31.469  25.807  21.771  1.00  0.00    -0.461 OA
BRANCH   5   6
ATOM      6  C   UNL A   1      32.816  25.577  21.768  1.00  0.00     0.344 C 
ATOM      7  O   UNL A   1      33.640  26.340  21.271  1.00  0.00    -0.248 OA
BRANCH   6   8
ATOM      8  C   UNL A   1      33.255  24.250  22.406  1.00  0.00     0.353 C 
BRANCH   8   9
ATOM      9  O   UNL A   1      32.778  23.005  21.938  1.00  0.00    -0.466 OA
BRANCH   9  10
ATOM     10  C   UNL A   1      32.720  21.950  22.807  1.00  0.00     0.219 A 
ATOM     11  C   UNL A   1      32.463  19.678  23.281  1.00  0.00     0.076 A 
ATOM     12  C   UNL A   1      32.078  20.768  22.530  1.00  0.00     0.095 A 
ATOM     13  N   UNL A   1      33.299  19.842  24.340  1.00  0.00    -0.215 NA
ATOM     14  C   UNL A   1      33.754  21.065  24.660  1.00  0.00     0.230 A 
ATOM     15  N   UNL A   1      33.520  22.124  23.876  1.00  0.00    -0.177 NA
BRANCH  11  16
ATOM     16  C   UNL A   1      32.380  18.325  22.537  1.00  0.00     0.216 C 
BRANCH  16  17
ATOM     17  O   UNL A   1      32.912  17.103  23.005  1.00  0.00    -0.378 OA
ATOM     18  C   UNL A   1      34.212  17.291  23.587  1.00  0.00     0.195 C 
ENDBRANCH  16  17
ENDBRANCH  11  16
BRANCH  14  19
ATOM     19  N   UNL A   1      34.574  21.305  25.772  1.00  0.00    -0.324 N 
ATOM     20  H   UNL A   1      34.213  20.966  26.623  1.00  0.00     0.170 HD
BRANCH  19  21
ATOM     21  C   UNL A   1      35.819  21.946  25.886  1.00  0.00     0.044 A 
ATOM     22  C   UNL A   1      35.849  23.332  26.113  1.00  0.00     0.026 A 
ATOM     23  C   UNL A   1      37.042  21.292  25.604  1.00  0.00    -0.025 A 
ATOM     24  C   UNL A   1      37.055  24.028  26.205  1.00  0.00     0.002 A 
ATOM     25  C   UNL A   1      38.269  21.966  25.842  1.00  0.00    -0.046 A 
ATOM     26  C   UNL A   1      37.063  19.934  24.957  1.00  0.00     0.047 C 
ATOM     27  C   UNL A   1      38.258  23.340  26.114  1.00  0.00     0.004 A 
ATOM     28  C   UNL A   1      39.608  21.274  25.806  1.00  0.00     0.044 C 
ENDBRANCH  19  21
ENDBRANCH  14  19
ENDBRANCH   9  10
ENDBRANCH   8   9
ENDBRANCH   6   8
ENDBRANCH   5   6
ENDBRANCH   4   5
ENDBRANCH   3   4
ENDBRANCH   2   3
ENDBRANCH   1   2
BRANCH   1  29
ATOM     29  C   UNL A   1      32.894  26.453  25.924  1.00  0.00     0.188 C 
BRANCH  29  30
ATOM     30  O   UNL A   1      32.782  27.693  26.637  1.00  0.00    -0.376 OA
BRANCH  30  31
ATOM     31  C   UNL A   1      32.074  28.709  25.908  1.00  0.00     0.202 C 
BRANCH  31  32
ATOM     32  C   UNL A   1      32.711  30.095  26.143  1.00  0.00     0.261 C 
BRANCH  32  33
ATOM     33  O   UNL A   1      33.400  30.135  27.414  1.00  0.00    -0.460 OA
BRANCH  33  34
ATOM     34  C   UNL A   1      34.229  31.196  27.656  1.00  0.00     0.338 C 
ATOM     35  O   UNL A   1      34.032  32.337  27.307  1.00  0.00    -0.246 OA
BRANCH  34  36
ATOM     36  C   UNL A   1      35.565  30.675  28.092  1.00  0.00     0.060 A 
ATOM     37  C   UNL A   1      36.783  31.313  27.829  1.00  0.00     0.016 A 
ATOM     38  C   UNL A   1      35.553  29.579  28.958  1.00  0.00     0.016 A 
ATOM     39  C   UNL A   1      37.946  30.981  28.555  1.00  0.00     0.010 A 
ATOM     40  C   UNL A   1      36.709  29.233  29.674  1.00  0.00     0.010 A 
ATOM     41  C   UNL A   1      37.911  29.949  29.504  1.00  0.00    -0.014 A 
BRANCH  41  42
ATOM     42  C   UNL A   1      39.167  29.327  30.019  1.00  0.00     0.031 A 
ATOM     43  C   UNL A   1      39.726  30.000  31.244  1.00  0.00     0.074 A 
ATOM     44  C   UNL A   1      39.837  28.305  29.443  1.00  0.00     0.049 A 
ATOM     45  N   UNL A   1      40.895  29.877  31.810  1.00  0.00    -0.248 NA
ATOM     46  C   UNL A   1      38.842  30.991  31.886  1.00  0.00     0.031 C 
ATOM     47  C   UNL A   1      39.410  27.531  28.278  1.00  0.00     0.029 A 
ATOM     48  N   UNL A   1      41.059  27.750  29.768  1.00  0.00    -0.354 N 
ATOM     49  C   UNL A   1      40.888  30.790  32.855  1.00  0.00     0.074 A 
ATOM     50  C   UNL A   1      39.629  31.493  32.815  1.00  0.00     0.031 C 
ATOM     51  C   UNL A   1      40.353  26.609  27.987  1.00  0.00     0.029 A 
ATOM     52  C   UNL A   1      41.474  26.744  28.919  1.00  0.00     0.049 A 
ATOM     53  H   UNL A   1      41.591  28.048  30.541  1.00  0.00     0.167 HD
ATOM     54  C   UNL A   1      41.836  31.024  33.788  1.00  0.00     0.037 A 
ATOM     55  C   UNL A   1      42.630  26.038  28.899  1.00  0.00     0.037 A 
ATOM     56  C   UNL A   1      43.094  30.348  33.832  1.00  0.00     0.049 A 
ATOM     57  C   UNL A   1      43.707  26.360  29.922  1.00  0.00     0.074 A 
ATOM     58  C   UNL A   1      44.152  30.550  34.694  1.00  0.00     0.029 A 
ATOM     59  N   UNL A   1      43.455  29.323  32.972  1.00  0.00    -0.354 N 
ATOM     60  N   UNL A   1      43.692  27.239  30.898  1.00  0.00    -0.248 NA
ATOM     61  C   UNL A   1      44.967  25.598  29.835  1.00  0.00     0.031 C 
ATOM     62  C   UNL A   1      45.165  29.648  34.349  1.00  0.00     0.029 A 
ATOM     63  C   UNL A   1      44.717  28.867  33.294  1.00  0.00     0.049 A 
ATOM     64  H   UNL A   1      42.894  28.973  32.241  1.00  0.00     0.167 HD
ATOM     65  C   UNL A   1      44.914  27.104  31.559  1.00  0.00     0.074 A 
ATOM     66  C   UNL A   1      45.644  26.057  30.878  1.00  0.00     0.031 C 
ATOM     67  C   UNL A   1      45.394  27.785  32.629  1.00  0.00     0.037 A 
BRANCH  54  68
ATOM     68  C   UNL A   1      41.507  32.070  34.808  1.00  0.00     0.058 A 
ATOM     69  C   UNL A   1      41.808  33.422  34.576  1.00  0.00     0.135 A 
ATOM     70  C   UNL A   1      40.990  31.711  36.062  1.00  0.00     0.135 A 
ATOM     71  F   UNL A   1      42.350  33.804  33.409  1.00  0.00    -0.206 F 
ATOM     72  C   UNL A   1      41.649  34.379  35.570  1.00  0.00     0.059 A 
ATOM     73  C   UNL A   1      40.797  32.658  37.061  1.00  0.00     0.059 A 
ATOM     74  F   UNL A   1      40.711  30.427  36.337  1.00  0.00    -0.206 F 
ATOM     75  C   UNL A   1      41.151  33.985  36.812  1.00  0.00     0.060 A 
BRANCH  75  76
ATOM     76  S   UNL A   1      40.981  35.232  38.103  1.00  0.00     0.124 S 
ATOM     77  O   UNL A   1      40.860  36.453  37.313  1.00  0.00    -0.237 OA
ATOM     78  O   UNL A   1      39.769  34.804  38.795  1.00  0.00    -0.237 OA
ATOM     79  O   UNL A   1      42.216  35.099  38.869  1.00  0.00    -0.744 OA
ENDBRANCH  75  76
ENDBRANCH  54  68
BRANCH  55  80
ATOM     80  C   UNL A   1      42.889  24.956  27.896  1.00  0.00     0.058 A 
ATOM     81  C   UNL A   1      42.735  23.601  28.245  1.00  0.00     0.135 A 
ATOM     82  C   UNL A   1      43.407  25.231  26.621  1.00  0.00     0.135 A 
ATOM     83  F   UNL A   1      42.270  23.273  29.461  1.00  0.00    -0.206 F 
ATOM     84  C   UNL A   1      43.117  22.567  27.390  1.00  0.00     0.059 A 
ATOM     85  C   UNL A   1      43.774  24.213  25.737  1.00  0.00     0.059 A 
ATOM     86  F   UNL A   1      43.583  26.501  26.228  1.00  0.00    -0.206 F 
ATOM     87  C   UNL A   1      43.645  22.884  26.139  1.00  0.00     0.060 A 
BRANCH  87  88
ATOM     88  S   UNL A   1      44.140  21.537  25.036  1.00  0.00     0.124 S 
ATOM     89  O   UNL A   1      43.118  20.535  25.315  1.00  0.00    -0.237 OA
ATOM     90  O   UNL A   1      44.070  22.171  23.723  1.00  0.00    -0.237 OA
ATOM     91  O   UNL A   1      45.488  21.210  25.493  1.00  0.00    -0.744 OA
ENDBRANCH  87  88
ENDBRANCH  55  80
BRANCH  67  92
ATOM     92  C   UNL A   1      46.729  27.382  33.187  1.00  0.00     0.058 A 
ATOM     93  C   UNL A   1      46.857  26.350  34.127  1.00  0.00     0.135 A 
ATOM     94  C   UNL A   1      47.904  27.962  32.681  1.00  0.00     0.135 A 
ATOM     95  F   UNL A   1      45.763  25.763  34.638  1.00  0.00    -0.206 F 
ATOM     96  C   UNL A   1      48.105  25.910  34.553  1.00  0.00     0.059 A 
ATOM     97  C   UNL A   1      49.162  27.523  33.076  1.00  0.00     0.059 A 
ATOM     98  F   UNL A   1      47.834  28.943  31.767  1.00  0.00    -0.206 F 
ATOM     99  C   UNL A   1      49.253  26.497  34.017  1.00  0.00     0.060 A 
BRANCH  99 100
ATOM    100  S   UNL A   1      50.869  25.871  34.523  1.00  0.00     0.124 S 
ATOM    101  O   UNL A   1      50.953  26.351  35.898  1.00  0.00    -0.237 OA
ATOM    102  O   UNL A   1      50.713  24.430  34.362  1.00  0.00    -0.237 OA
ATOM    103  O   UNL A   1      51.788  26.504  33.580  1.00  0.00    -0.744 OA
ENDBRANCH  99 100
ENDBRANCH  67  92
ENDBRANCH  41  42
ENDBRANCH  34  36
ENDBRANCH  33  34
ENDBRANCH  32  33
ENDBRANCH  31  32
ENDBRANCH  30  31
ENDBRANCH  29  30
ENDBRANCH   1  29
TORSDOF 26
ENDMDL
MODEL 2
REMARK VINA RESULT:      -9.5      4.450      5.444
REMARK SMILES COCc1cc(OCC(=O)OCCOCCOCCOC(=O)c2ccc(-c3c4nc(c(-c5c(F)cc(S(=O)(=O)[O-])cc5F)c5ccc([nH]5)c(-c5c(F)cc(S(=O)(=O)[O-])cc5F)c5nc(c(-c6c(F)cc(S(=O)(=O)[O-])cc6F)c6ccc3[nH]6)C=C5)C=C4)cc2)nc(Nc2cccc(C)c2C)n1
REMARK SMILES IDX 15 1 14 2 13 3 12 4 11 5 9 6 10 7 8 8 7 9 6 10 4 11 5 12
REMARK SMILES IDX 100 13 90 14 89 15 3 16 2 17 1 18 91 19 92 21 93 22 98 23
REMARK SMILES IDX 94 24 96 25 99 26 95 27 97 28 16 29 17 30 18 31 19 32 20 33
REMARK SMILES IDX 21 34 22 35 23 36 24 37 88 38 25 39 87 40 26 41 27 42 28 43
REMARK SMILES IDX 81 44 29 45 86 46 80 47 82 48 30 49 85 50 79 51 78 52 31 54
REMARK SMILES IDX 65 55 44 56 64 57 45 58 48 59 63 60 83 61 46 62 47 63 62 65
REMARK SMILES IDX 84 66 49 67 32 68 33 69 42 70 34 71 35 72 41 73 43 74 36 75
REMARK SMILES IDX 37 76 38 77 39 78 40 79 66 80 67 81 76 82 68 83 69 84 75 85
REMARK SMILES IDX 77 86 70 87 71 88 72 89 73 90 74 91 50 92 51 93 60 94 52 95
REMARK SMILES IDX 53 96 59 97 61 98 54 99 55 100 56 101 57 102 58 103
REMARK H PARENT 91 20 82 53 48 64
REMARK Flexibility Score: inf
ROOT
ATOM      1  C   UNL A   1      31.394  27.512  27.150  1.00  0.00     0.188 C 
ENDROOT
BRANCH   1   2
ATOM      2  O   UNL A   1      31.815  26.320  26.503  1.00  0.00    -0.376 OA
BRANCH   2   3
ATOM      3  C   UNL A   1      32.275  26.467  25.165  1.00  0.00     0.202 C 
BRANCH   3   4
ATOM      4  C   UNL A   1      31.572  27.549  24.332  1.00  0.00     0.261 C 
BRANCH   4   5
ATOM      5  O   UNL A   1      32.244  27.863  23.085  1.00  0.00    -0.461 OA
BRANCH   5   6
ATOM      6  C   UNL A   1      32.024  26.952  22.091  1.00  0.00     0.344 C 
ATOM      7  O   UNL A   1      30.917  26.709  21.618  1.00  0.00    -0.248 OA
BRANCH   6   8
ATOM      8  C   UNL A   1      33.272  26.198  21.607  1.00  0.00     0.353 C 
BRANCH   8   9
ATOM      9  O   UNL A   1      33.283  24.793  21.463  1.00  0.00    -0.466 OA
BRANCH   9  10
ATOM     10  C   UNL A   1      33.417  24.014  22.579  1.00  0.00     0.219 A 
ATOM     11  C   UNL A   1      32.906  22.123  23.851  1.00  0.00     0.076 A 
ATOM     12  C   UNL A   1      32.466  23.117  23.003  1.00  0.00     0.095 A 
ATOM     13  N   UNL A   1      34.166  22.167  24.357  1.00  0.00    -0.215 NA
ATOM     14  C   UNL A   1      34.991  23.178  24.032  1.00  0.00     0.230 A 
ATOM     15  N   UNL A   1      34.655  24.082  23.105  1.00  0.00    -0.177 NA
BRANCH  11  16
ATOM     16  C   UNL A   1      32.154  20.780  23.708  1.00  0.00     0.216 C 
BRANCH  16  17
ATOM     17  O   UNL A   1      32.765  19.518  23.533  1.00  0.00    -0.378 OA
ATOM     18  C   UNL A   1      33.020  18.884  24.797  1.00  0.00     0.195 C 
ENDBRANCH  16  17
ENDBRANCH  11  16
BRANCH  14  19
ATOM     19  N   UNL A   1      36.282  23.307  24.563  1.00  0.00    -0.324 N 
ATOM     20  H   UNL A   1      36.583  24.237  24.676  1.00  0.00     0.170 HD
BRANCH  19  21
ATOM     21  C   UNL A   1      37.223  22.342  24.959  1.00  0.00     0.044 A 
ATOM     22  C   UNL A   1      37.002  20.999  24.612  1.00  0.00     0.026 A 
ATOM     23  C   UNL A   1      38.287  22.633  25.845  1.00  0.00    -0.025 A 
ATOM     24  C   UNL A   1      37.886  19.991  25.003  1.00  0.00     0.002 A 
ATOM     25  C   UNL A   1      39.264  21.639  26.121  1.00  0.00    -0.046 A 
ATOM     26  C   UNL A   1      38.345  23.943  26.583  1.00  0.00     0.047 C 
ATOM     27  C   UNL A   1      39.033  20.318  25.716  1.00  0.00     0.004 A 
ATOM     28  C   UNL A   1      40.552  21.930  26.847  1.00  0.00     0.044 C 
ENDBRANCH  19  21
ENDBRANCH  14  19
ENDBRANCH   9  10
ENDBRANCH   8   9
ENDBRANCH   6   8
ENDBRANCH   5   6
ENDBRANCH   4   5
ENDBRANCH   3   4
ENDBRANCH   2   3
ENDBRANCH   1   2
BRANCH   1  29
ATOM     29  C   UNL A   1      32.520  28.452  27.631  1.00  0.00     0.188 C 
BRANCH  29  30
ATOM     30  O   UNL A   1      32.277  29.772  27.123  1.00  0.00    -0.376 OA
BRANCH  30  31
ATOM     31  C   UNL A   1      33.468  30.439  26.675  1.00  0.00     0.202 C 
BRANCH  31  32
ATOM     32  C   UNL A   1      34.406  30.740  27.864  1.00  0.00     0.261 C 
BRANCH  32  33
ATOM     33  O   UNL A   1      35.558  29.868  27.845  1.00  0.00    -0.460 OA
BRANCH  33  34
ATOM     34  C   UNL A   1      36.270  29.727  29.004  1.00  0.00     0.338 C 
ATOM     35  O   UNL A   1      35.949  30.164  30.085  1.00  0.00    -0.246 OA
BRANCH  34  36
ATOM     36  C   UNL A   1      37.659  29.274  28.666  1.00  0.00     0.060 A 
ATOM     37  C   UNL A   1      38.255  29.434  27.409  1.00  0.00     0.016 A 
ATOM     38  C   UNL A   1      38.444  28.829  29.732  1.00  0.00     0.016 A 
ATOM     39  C   UNL A   1      39.652  29.324  27.252  1.00  0.00     0.010 A 
ATOM     40  C   UNL A   1      39.834  28.703  29.579  1.00  0.00     0.010 A 
ATOM     41  C   UNL A   1      40.458  28.978  28.346  1.00  0.00    -0.014 A 
BRANCH  41  42
ATOM     42  C   UNL A   1      41.859  28.499  28.157  1.00  0.00     0.031 A 
ATOM     43  C   UNL A   1      42.905  29.558  28.384  1.00  0.00     0.074 A 
ATOM     44  C   UNL A   1      42.224  27.267  27.742  1.00  0.00     0.049 A 
ATOM     45  N   UNL A   1      44.175  29.561  28.091  1.00  0.00    -0.248 NA
ATOM     46  C   UNL A   1      42.419  30.813  28.990  1.00  0.00     0.031 C 
ATOM     47  C   UNL A   1      41.336  26.128  27.512  1.00  0.00     0.029 A 
ATOM     48  N   UNL A   1      43.472  26.773  27.418  1.00  0.00    -0.354 N 
ATOM     49  C   UNL A   1      44.628  30.821  28.456  1.00  0.00     0.074 A 
ATOM     50  C   UNL A   1      43.495  31.571  28.940  1.00  0.00     0.031 C 
ATOM     51  C   UNL A   1      42.066  25.075  27.083  1.00  0.00     0.029 A 
ATOM     52  C   UNL A   1      43.472  25.467  26.970  1.00  0.00     0.049 A 
ATOM     53  H   UNL A   1      44.295  27.308  27.500  1.00  0.00     0.167 HD
ATOM     54  C   UNL A   1      45.882  31.322  28.413  1.00  0.00     0.037 A 
ATOM     55  C   UNL A   1      44.490  24.701  26.509  1.00  0.00     0.037 A 
ATOM     56  C   UNL A   1      47.011  30.597  27.921  1.00  0.00     0.049 A 
ATOM     57  C   UNL A   1      45.882  25.305  26.413  1.00  0.00     0.074 A 
ATOM     58  C   UNL A   1      48.314  31.029  27.773  1.00  0.00     0.029 A 
ATOM     59  N   UNL A   1      46.966  29.276  27.506  1.00  0.00    -0.354 N 
ATOM     60  N   UNL A   1      46.293  26.506  26.749  1.00  0.00    -0.248 NA
ATOM     61  C   UNL A   1      46.950  24.448  25.865  1.00  0.00     0.031 C 
ATOM     62  C   UNL A   1      49.062  29.965  27.256  1.00  0.00     0.029 A 
ATOM     63  C   UNL A   1      48.225  28.867  27.117  1.00  0.00     0.049 A 
ATOM     64  H   UNL A   1      46.157  28.714  27.491  1.00  0.00     0.167 HD
ATOM     65  C   UNL A   1      47.664  26.532  26.492  1.00  0.00     0.074 A 
ATOM     66  C   UNL A   1      48.017  25.226  25.978  1.00  0.00     0.031 C 
ATOM     67  C   UNL A   1      48.553  27.542  26.660  1.00  0.00     0.037 A 
BRANCH  54  68
ATOM     68  C   UNL A   1      46.044  32.725  28.909  1.00  0.00     0.058 A 
ATOM     69  C   UNL A   1      45.917  33.818  28.035  1.00  0.00     0.135 A 
ATOM     70  C   UNL A   1      46.433  32.977  30.233  1.00  0.00     0.135 A 
ATOM     71  F   UNL A   1      45.596  33.619  26.746  1.00  0.00    -0.206 F 
ATOM     72  C   UNL A   1      46.215  35.110  28.446  1.00  0.00     0.059 A 
ATOM     73  C   UNL A   1      46.708  34.267  30.672  1.00  0.00     0.059 A 
ATOM     74  F   UNL A   1      46.591  31.962  31.097  1.00  0.00    -0.206 F 
ATOM     75  C   UNL A   1      46.618  35.323  29.764  1.00  0.00     0.060 A 
BRANCH  75  76
ATOM     76  S   UNL A   1      47.031  37.003  30.274  1.00  0.00     0.124 S 
ATOM     77  O   UNL A   1      46.237  37.794  29.340  1.00  0.00    -0.237 OA
ATOM     78  O   UNL A   1      46.583  37.028  31.664  1.00  0.00    -0.237 OA
ATOM     79  O   UNL A   1      48.476  37.068  30.084  1.00  0.00    -0.744 OA
ENDBRANCH  75  76
ENDBRANCH  54  68
BRANCH  55  80
ATOM     80  C   UNL A   1      44.290  23.279  26.082  1.00  0.00     0.058 A 
ATOM     81  C   UNL A   1      44.051  22.269  27.034  1.00  0.00     0.135 A 
ATOM     82  C   UNL A   1      44.451  22.872  24.749  1.00  0.00     0.135 A 
ATOM     83  F   UNL A   1      43.915  22.592  28.330  1.00  0.00    -0.206 F 
ATOM     84  C   UNL A   1      44.018  20.919  26.689  1.00  0.00     0.059 A 
ATOM     85  C   UNL A   1      44.398  21.528  24.374  1.00  0.00     0.059 A 
ATOM     86  F   UNL A   1      44.686  23.784  23.793  1.00  0.00    -0.206 F 
ATOM     87  C   UNL A   1      44.201  20.556  25.355  1.00  0.00     0.060 A 
BRANCH  87  88
ATOM     88  S   UNL A   1      44.158  18.801  24.916  1.00  0.00     0.124 S 
ATOM     89  O   UNL A   1      42.833  18.411  25.383  1.00  0.00    -0.237 OA
ATOM     90  O   UNL A   1      44.337  18.840  23.468  1.00  0.00    -0.237 OA
ATOM     91  O   UNL A   1      45.281  18.242  25.663  1.00  0.00    -0.744 OA
ENDBRANCH  87  88
ENDBRANCH  55  80
BRANCH  67  92
ATOM     92  C   UNL A   1      50.001  27.270  26.366  1.00  0.00     0.058 A 
ATOM     93  C   UNL A   1      50.879  26.793  27.350  1.00  0.00     0.135 A 
ATOM     94  C   UNL A   1      50.481  27.379  25.051  1.00  0.00     0.135 A 
ATOM     95  F   UNL A   1      50.465  26.670  28.621  1.00  0.00    -0.206 F 
ATOM     96  C   UNL A   1      52.187  26.439  27.042  1.00  0.00     0.059 A 
ATOM     97  C   UNL A   1      51.779  27.010  24.716  1.00  0.00     0.059 A 
ATOM     98  F   UNL A   1      49.674  27.815  24.071  1.00  0.00    -0.206 F 
ATOM     99  C   UNL A   1      52.627  26.545  25.720  1.00  0.00     0.060 A 
BRANCH  99 100
ATOM    100  S   UNL A   1      54.306  26.016  25.316  1.00  0.00     0.124 S 
ATOM    101  O   UNL A   1      54.202  25.779  23.880  1.00  0.00    -0.237 OA
ATOM    102  O   UNL A   1      55.104  27.171  25.712  1.00  0.00    -0.237 OA
ATOM    103  O   UNL A   1      54.493  24.823  26.138  1.00  0.00    -0.744 OA
ENDBRANCH  99 100
ENDBRANCH  67  92
ENDBRANCH  41  42
ENDBRANCH  34  36
ENDBRANCH  33  34
ENDBRANCH  32  33
ENDBRANCH  31  32
ENDBRANCH  30  31
ENDBRANCH  29  30
ENDBRANCH   1  29
TORSDOF 26
ENDMDL
MODEL 3
REMARK VINA RESULT:      -9.3      3.218      9.346
REMARK SMILES COCc1cc(OCC(=O)OCCOCCOCCOC(=O)c2ccc(-c3c4nc(c(-c5c(F)cc(S(=O)(=O)[O-])cc5F)c5ccc([nH]5)c(-c5c(F)cc(S(=O)(=O)[O-])cc5F)c5nc(c(-c6c(F)cc(S(=O)(=O)[O-])cc6F)c6ccc3[nH]6)C=C5)C=C4)cc2)nc(Nc2cccc(C)c2C)n1
REMARK SMILES IDX 15 1 14 2 13 3 12 4 11 5 9 6 10 7 8 8 7 9 6 10 4 11 5 12
REMARK SMILES IDX 100 13 90 14 89 15 3 16 2 17 1 18 91 19 92 21 93 22 98 23
REMARK SMILES IDX 94 24 96 25 99 26 95 27 97 28 16 29 17 30 18 31 19 32 20 33
REMARK SMILES IDX 21 34 22 35 23 36 24 37 88 38 25 39 87 40 26 41 27 42 28 43
REMARK SMILES IDX 81 44 29 45 86 46 80 47 82 48 30 49 85 50 79 51 78 52 31 54
REMARK SMILES IDX 65 55 44 56 64 57 45 58 48 59 63 60 83 61 46 62 47 63 62 65
REMARK SMILES IDX 84 66 49 67 32 68 33 69 42 70 34 71 35 72 41 73 43 74 36 75
REMARK SMILES IDX 37 76 38 77 39 78 40 79 66 80 67 81 76 82 68 83 69 84 75 85
REMARK SMILES IDX 77 86 70 87 71 88 72 89 73 90 74 91 50 92 51 93 60 94 52 95
REMARK SMILES IDX 53 96 59 97 61 98 54 99 55 100 56 101 57 102 58 103
REMARK H PARENT 91 20 82 53 48 64
REMARK Flexibility Score: inf
ROOT
ATOM      1  C   UNL A   1      42.203  22.912  27.644  1.00  0.00     0.188 C 
ENDROOT
BRANCH   1   2
ATOM      2  O   UNL A   1      40.981  22.231  27.888  1.00  0.00    -0.376 OA
BRANCH   2   3
ATOM      3  C   UNL A   1      40.863  20.939  27.307  1.00  0.00     0.202 C 
BRANCH   3   4
ATOM      4  C   UNL A   1      39.839  20.808  26.171  1.00  0.00     0.261 C 
BRANCH   4   5
ATOM      5  O   UNL A   1      39.099  22.027  25.899  1.00  0.00    -0.461 OA
BRANCH   5   6
ATOM      6  C   UNL A   1      37.838  21.815  25.417  1.00  0.00     0.344 C 
ATOM      7  O   UNL A   1      37.547  20.915  24.634  1.00  0.00    -0.248 OA
BRANCH   6   8
ATOM      8  C   UNL A   1      36.779  22.821  25.893  1.00  0.00     0.353 C 
BRANCH   8   9
ATOM      9  O   UNL A   1      36.249  23.808  25.034  1.00  0.00    -0.466 OA
BRANCH   9  10
ATOM     10  C   UNL A   1      34.937  24.169  25.169  1.00  0.00     0.219 A 
ATOM     11  C   UNL A   1      33.166  25.664  24.882  1.00  0.00     0.076 A 
ATOM     12  C   UNL A   1      34.499  25.471  25.174  1.00  0.00     0.095 A 
ATOM     13  N   UNL A   1      32.330  24.597  24.778  1.00  0.00    -0.215 NA
ATOM     14  C   UNL A   1      32.798  23.351  24.959  1.00  0.00     0.230 A 
ATOM     15  N   UNL A   1      34.106  23.111  25.102  1.00  0.00    -0.177 NA
BRANCH  11  16
ATOM     16  C   UNL A   1      32.856  26.990  24.150  1.00  0.00     0.216 C 
BRANCH  16  17
ATOM     17  O   UNL A   1      32.518  28.209  24.779  1.00  0.00    -0.378 OA
ATOM     18  C   UNL A   1      31.139  28.545  24.553  1.00  0.00     0.195 C 
ENDBRANCH  16  17
ENDBRANCH  11  16
BRANCH  14  19
ATOM     19  N   UNL A   1      31.976  22.216  24.917  1.00  0.00    -0.324 N 
ATOM     20  H   UNL A   1      31.023  22.399  25.085  1.00  0.00     0.170 HD
BRANCH  19  21
ATOM     21  C   UNL A   1      32.272  20.863  24.680  1.00  0.00     0.044 A 
ATOM     22  C   UNL A   1      32.792  20.090  25.730  1.00  0.00     0.026 A 
ATOM     23  C   UNL A   1      32.240  20.291  23.386  1.00  0.00    -0.025 A 
ATOM     24  C   UNL A   1      33.133  18.748  25.546  1.00  0.00     0.002 A 
ATOM     25  C   UNL A   1      32.445  18.895  23.230  1.00  0.00    -0.046 A 
ATOM     26  C   UNL A   1      32.095  21.153  22.161  1.00  0.00     0.047 C 
ATOM     27  C   UNL A   1      32.919  18.144  24.314  1.00  0.00     0.004 A 
ATOM     28  C   UNL A   1      32.188  18.164  21.936  1.00  0.00     0.044 C 
ENDBRANCH  19  21
ENDBRANCH  14  19
ENDBRANCH   9  10
ENDBRANCH   8   9
ENDBRANCH   6   8
ENDBRANCH   5   6
ENDBRANCH   4   5
ENDBRANCH   3   4
ENDBRANCH   2   3
ENDBRANCH   1   2
BRANCH   1  29
ATOM     29  C   UNL A   1      42.291  23.683  26.309  1.00  0.00     0.188 C 
BRANCH  29  30
ATOM     30  O   UNL A   1      43.341  23.119  25.511  1.00  0.00    -0.376 OA
BRANCH  30  31
ATOM     31  C   UNL A   1      44.139  24.106  24.837  1.00  0.00     0.202 C 
BRANCH  31  32
ATOM     32  C   UNL A   1      44.664  25.158  25.836  1.00  0.00     0.261 C 
BRANCH  32  33
ATOM     33  O   UNL A   1      44.479  26.496  25.320  1.00  0.00    -0.460 OA
BRANCH  33  34
ATOM     34  C   UNL A   1      43.226  27.039  25.390  1.00  0.00     0.338 C 
ATOM     35  O   UNL A   1      42.507  27.275  24.446  1.00  0.00    -0.246 OA
BRANCH  34  36
ATOM     36  C   UNL A   1      43.029  27.625  26.756  1.00  0.00     0.060 A 
ATOM     37  C   UNL A   1      43.481  28.893  27.141  1.00  0.00     0.016 A 
ATOM     38  C   UNL A   1      42.193  26.917  27.622  1.00  0.00     0.016 A 
ATOM     39  C   UNL A   1      42.966  29.526  28.291  1.00  0.00     0.010 A 
ATOM     40  C   UNL A   1      41.687  27.534  28.776  1.00  0.00     0.010 A 
ATOM     41  C   UNL A   1      42.042  28.856  29.109  1.00  0.00    -0.014 A 
BRANCH  41  42
ATOM     42  C   UNL A   1      41.756  29.322  30.498  1.00  0.00     0.031 A 
ATOM     43  C   UNL A   1      40.539  30.201  30.611  1.00  0.00     0.074 A 
ATOM     44  C   UNL A   1      42.521  29.084  31.585  1.00  0.00     0.049 A 
ATOM     45  N   UNL A   1      40.135  30.953  31.596  1.00  0.00    -0.248 NA
ATOM     46  C   UNL A   1      39.686  30.265  29.408  1.00  0.00     0.031 C 
ATOM     47  C   UNL A   1      43.707  28.229  31.645  1.00  0.00     0.029 A 
ATOM     48  N   UNL A   1      42.410  29.571  32.873  1.00  0.00    -0.354 N 
ATOM     49  C   UNL A   1      38.999  31.593  31.119  1.00  0.00     0.074 A 
ATOM     50  C   UNL A   1      38.807  31.185  29.749  1.00  0.00     0.031 C 
ATOM     51  C   UNL A   1      44.212  28.257  32.897  1.00  0.00     0.029 A 
ATOM     52  C   UNL A   1      43.411  29.158  33.729  1.00  0.00     0.049 A 
ATOM     53  H   UNL A   1      41.677  30.164  33.156  1.00  0.00     0.167 HD
ATOM     54  C   UNL A   1      38.166  32.441  31.761  1.00  0.00     0.037 A 
ATOM     55  C   UNL A   1      43.650  29.492  35.020  1.00  0.00     0.037 A 
ATOM     56  C   UNL A   1      38.351  32.867  33.112  1.00  0.00     0.049 A 
ATOM     57  C   UNL A   1      42.733  30.493  35.704  1.00  0.00     0.074 A 
ATOM     58  C   UNL A   1      37.604  33.771  33.841  1.00  0.00     0.029 A 
ATOM     59  N   UNL A   1      39.358  32.404  33.942  1.00  0.00    -0.354 N 
ATOM     60  N   UNL A   1      41.669  31.103  35.234  1.00  0.00    -0.248 NA
ATOM     61  C   UNL A   1      43.057  30.860  37.095  1.00  0.00     0.031 C 
ATOM     62  C   UNL A   1      38.168  33.862  35.118  1.00  0.00     0.029 A 
ATOM     63  C   UNL A   1      39.244  32.989  35.186  1.00  0.00     0.049 A 
ATOM     64  H   UNL A   1      40.052  31.753  33.683  1.00  0.00     0.167 HD
ATOM     65  C   UNL A   1      41.179  31.886  36.280  1.00  0.00     0.074 A 
ATOM     66  C   UNL A   1      42.058  31.672  37.409  1.00  0.00     0.031 C 
ATOM     67  C   UNL A   1      40.104  32.712  36.307  1.00  0.00     0.037 A 
BRANCH  54  68
ATOM     68  C   UNL A   1      37.001  32.943  30.964  1.00  0.00     0.058 A 
ATOM     69  C   UNL A   1      37.147  34.024  30.079  1.00  0.00     0.135 A 
ATOM     70  C   UNL A   1      35.716  32.418  31.164  1.00  0.00     0.135 A 
ATOM     71  F   UNL A   1      38.351  34.590  29.895  1.00  0.00    -0.206 F 
ATOM     72  C   UNL A   1      36.049  34.597  29.451  1.00  0.00     0.059 A 
ATOM     73  C   UNL A   1      34.608  32.959  30.523  1.00  0.00     0.059 A 
ATOM     74  F   UNL A   1      35.526  31.401  32.019  1.00  0.00    -0.206 F 
ATOM     75  C   UNL A   1      34.782  34.062  29.687  1.00  0.00     0.060 A 
BRANCH  75  76
ATOM     76  S   UNL A   1      33.363  34.837  28.889  1.00  0.00     0.124 S 
ATOM     77  O   UNL A   1      32.480  35.068  30.028  1.00  0.00    -0.237 OA
ATOM     78  O   UNL A   1      33.952  36.032  28.292  1.00  0.00    -0.237 OA
ATOM     79  O   UNL A   1      32.913  33.824  27.940  1.00  0.00    -0.744 OA
ENDBRANCH  75  76
ENDBRANCH  54  68
BRANCH  55  80
ATOM     80  C   UNL A   1      44.793  28.913  35.797  1.00  0.00     0.058 A 
ATOM     81  C   UNL A   1      46.087  29.457  35.683  1.00  0.00     0.135 A 
ATOM     82  C   UNL A   1      44.657  27.747  36.565  1.00  0.00     0.135 A 
ATOM     83  F   UNL A   1      46.287  30.556  34.940  1.00  0.00    -0.206 F 
ATOM     84  C   UNL A   1      47.199  28.850  36.266  1.00  0.00     0.059 A 
ATOM     85  C   UNL A   1      45.752  27.134  37.178  1.00  0.00     0.059 A 
ATOM     86  F   UNL A   1      43.452  27.175  36.709  1.00  0.00    -0.206 F 
ATOM     87  C   UNL A   1      47.023  27.681  37.006  1.00  0.00     0.060 A 
BRANCH  87  88
ATOM     88  S   UNL A   1      48.471  26.899  37.757  1.00  0.00     0.124 S 
ATOM     89  O   UNL A   1      47.942  26.472  39.047  1.00  0.00    -0.237 OA
ATOM     90  O   UNL A   1      48.775  25.833  36.808  1.00  0.00    -0.237 OA
ATOM     91  O   UNL A   1      49.449  27.983  37.804  1.00  0.00    -0.744 OA
ENDBRANCH  87  88
ENDBRANCH  55  80
BRANCH  67  92
ATOM     92  C   UNL A   1      39.760  33.388  37.603  1.00  0.00     0.058 A 
ATOM     93  C   UNL A   1      38.800  32.863  38.479  1.00  0.00     0.135 A 
ATOM     94  C   UNL A   1      40.489  34.514  38.022  1.00  0.00     0.135 A 
ATOM     95  F   UNL A   1      38.079  31.787  38.124  1.00  0.00    -0.206 F 
ATOM     96  C   UNL A   1      38.569  33.433  39.726  1.00  0.00     0.059 A 
ATOM     97  C   UNL A   1      40.290  35.087  39.272  1.00  0.00     0.059 A 
ATOM     98  F   UNL A   1      41.430  35.044  37.225  1.00  0.00    -0.206 F 
ATOM     99  C   UNL A   1      39.323  34.542  40.117  1.00  0.00     0.060 A 
BRANCH  99 100
ATOM    100  S   UNL A   1      39.065  35.233  41.765  1.00  0.00     0.124 S 
ATOM    101  O   UNL A   1      40.160  36.193  41.856  1.00  0.00    -0.237 OA
ATOM    102  O   UNL A   1      37.727  35.805  41.662  1.00  0.00    -0.237 OA
ATOM    103  O   UNL A   1      39.176  34.070  42.641  1.00  0.00    -0.744 OA
ENDBRANCH  99 100
ENDBRANCH  67  92
ENDBRANCH  41  42
ENDBRANCH  34  36
ENDBRANCH  33  34
ENDBRANCH  32  33
ENDBRANCH  31  32
ENDBRANCH  30  31
ENDBRANCH  29  30
ENDBRANCH   1  29
TORSDOF 26
ENDMDL
